data_PCOD9438597
_publ_section_title
;
Structure prediction by ZEFSAII (Michael W. Deem and Ramdas Pophale) SiO2 
 PCOD9438597
Probable space group: P B C M
;
_chemical_formula_sum "Si O2"
_cell_formula_units_Z 44
_cell_length_a 5.130209
_cell_length_b 16.941674
_cell_length_c 23.368670
_cell_angle_alpha 90.000000
_cell_angle_beta 90.000000
_cell_angle_gamma 90.000000
_cell_volume 2031.072259
_symmetry_space_group_name_H-M "P B C M"
_symmetry_group_IT_number 57
_symmetry_cell_setting 'orthorhombic'
loop_
_space_group_symop_operation_xyz
x,y,z
-x,-y,1/2+z
x,1/2-y,-z
-x,1/2+y,1/2-z
-x,-y,-z
x,y,1/2-z
-x,1/2+y,z
x,1/2-y,1/2+z
loop_
_atom_site_type_symbol
_atom_site_label
_atom_site_fract_x
_atom_site_fract_y
_atom_site_fract_z
Si Si1 0.739465 0.531765 0.053265
Si Si2 0.195739 0.748087 0.314367
Si Si3 0.309684 0.146928 0.816364
Si Si4 0.255871 0.874251 0.912345
Si Si5 0.898336 0.250000 0.000000
Si Si6 0.888638 0.602750 0.563546
O O1 0.987655 0.580744 0.076462
O O2 0.492713 0.565859 0.085226
O O3 0.832034 0.442100 0.061407
O O4 0.727859 0.557067 0.986217
O O5 0.247631 0.722763 0.250000
O O6 0.403366 0.817730 0.326425
O O7 0.241005 0.675674 0.355360
O O8 0.905618 0.783175 0.317875
O O9 0.298892 0.114933 0.750000
O O10 0.228249 0.097813 0.872770
O O11 0.274043 0.808596 0.962204
O O12 0.067529 0.307273 0.041636
#
# Coordination Sequence:
#
# PCOD9438597 Si02
#       6
#     8   8   8   8   4   8
#     4  10  25  38  60  85 132 156 190 242 320 339
#     4  10  21  37  59  88 119 150 196 255 294 340
#     4  10  21  37  61  87 116 153 198 252 294 340
#     4  11  22  40  58  92 113 161 195 243 295 369
#     4  10  22  34  66  88 114 156 204 246 290 348
#     4  10  22  42  58  92 122 161 196 253 289 373
#
# _framework density 21.663432
#
# number of rings (size 3 to 8) (size 9 to 14) (size 15 to 20)
#    0.000    1.818    1.818    1.091    5.091    8.727 
#    0.000    1.818    0.000    0.000    0.000    0.000 
#    0.000    0.000    0.000    0.000    0.000    0.000 
#
# Total GULP energy -245936.609580 kJ/mol
# GULP energy per Si atom -5589.468400 kJ/mol
# Density = 2.161412 g / cm^3
# Si number density = 21.663432 Si / 1000 Ang^3
#
#
#
# Elastic Constant Matrix: (Units=GPa)
#
#
# Indices 1 2 3 4 5 6 
#
# 1 59.5407 12.4032 -5.6994 0.0000 0.0000 0.0000
# 2 12.4032 83.8360 39.4387 0.0000 0.0000 0.0000
# 3 -5.6994 39.4387 123.0404 0.0000 0.0000 0.0000
# 4 0.0000 0.0000 0.0000 40.5291 0.0000 0.0000
# 5 0.0000 0.0000 0.0000 0.0000 20.5874 0.0000
# 6 0.0000 0.0000 0.0000 0.0000 0.0000 17.8596
#
#
#
# Elastic Compliance Matrix: (Units=1/GPa)
#
#
# Indices 1 2 3 4 5 6 
#
# 1 0.017720 -0.003542 0.001956 0.000000 0.000000 0.000000
# 2 -0.003542 0.014754 -0.004893 0.000000 0.000000 0.000000
# 3 0.001956 -0.004893 0.009786 0.000000 0.000000 0.000000
# 4 0.000000 0.000000 0.000000 0.024674 0.000000 0.000000
# 5 0.000000 0.000000 0.000000 0.000000 0.048573 0.000000
# 6 0.000000 0.000000 0.000000 0.000000 0.000000 0.055992
#
#
# Mechanical properties :
#
#
# Convention : Reuss Voigt Hill
#
# Bulk Modulus (GPa) = 34.12641 39.85578 36.99109
# Shear Modulus (GPa) = 25.74327 30.48019 28.11173
#
# Velocity S-wave (km/s) = 3.45095 3.75505 3.60621
# Velocity P-wave (km/s) = 5.62725 6.10231 5.86959
#
# Compressibility (1/GPa) = 0.02930282
#
# Stress axis : x y z
#
# Youngs Moduli (GPa) = 56.43243 67.77845 102.18192
#
# Poissons Ratio (x) = 0.24006 -0.19988
# Poissons Ratio (y) = 0.19988 0.50000
# Poissons Ratio (z) = -0.11039 0.33165
#
# Static dielectric constant tensor:
#      x y z
#    x 1.810630 0.000000 0.000000 
#    y 0.000000 1.794810 0.000000 
#    z 0.000000 0.000000 1.818610 
# 
# From -- ./inp_files/26191.got.cif
#   From: 2010.05.17/outbox.cif.g08.bks.cpg/sg57_14_cif.got.tgz:26191.got - 2010.06.03 13:58:18.
