data_PCOD9438594
_publ_section_title
;
Structure prediction by ZEFSAII (Michael W. Deem and Ramdas Pophale) SiO2 
 PCOD9438594
Probable space group: P B C M
;
_chemical_formula_sum "Si O2"
_cell_formula_units_Z 48
_cell_length_a 29.849103
_cell_length_b 8.755218
_cell_length_c 9.206591
_cell_angle_alpha 90.000000
_cell_angle_beta 90.000000
_cell_angle_gamma 90.000000
_cell_volume 2406.008177
_symmetry_space_group_name_H-M "P B C M"
_symmetry_group_IT_number 57
_symmetry_cell_setting 'orthorhombic'
loop_
_space_group_symop_operation_xyz
x,y,z
-x,-y,1/2+z
x,1/2-y,-z
-x,1/2+y,1/2-z
-x,-y,-z
x,y,1/2-z
-x,1/2+y,z
x,1/2-y,1/2+z
loop_
_atom_site_type_symbol
_atom_site_label
_atom_site_fract_x
_atom_site_fract_y
_atom_site_fract_z
Si Si1 0.459751 0.413330 0.922745
Si Si2 0.809054 0.409651 0.417381
Si Si3 0.032992 0.564111 0.750000
Si Si4 0.062582 0.582051 0.250000
Si Si5 0.900041 0.931460 0.976419
Si Si6 0.722525 0.416555 0.925619
Si Si7 0.640342 0.585019 0.423985
O O1 0.467543 0.398809 0.750000
O O2 0.409839 0.483407 0.941427
O O3 0.458118 0.250000 0.000000
O O4 0.500000 0.500000 0.000000
O O5 0.819598 0.250000 0.500000
O O6 0.795174 0.378557 0.250000
O O7 0.852857 0.514731 0.412543
O O8 0.768726 0.485555 0.509552
O O9 0.045534 0.743498 0.750000
O O10 0.057115 0.480542 0.617153
O O11 0.980641 0.529240 0.750000
O O12 0.093034 0.535901 0.383729
O O13 0.900523 0.750000 0.000000
O O14 0.722045 0.414150 0.750000
O O15 0.722811 0.250000 0.000000
O O16 0.678987 0.496131 0.992070
O O17 0.639352 0.750000 0.500000
O O18 0.649032 0.595713 0.250000
#
# Coordination Sequence:
#
# PCOD9438594 Si02
#       7
#     8   8   4   4   8   8   8
#     4  10  21  37  59  86 120 162 209 262 320 383
#     4  11  23  42  66  92 125 163 209 255 315 381
#     4  12  24  48  64 102 122 174 212 256 321 372
#     4  12  26  42  74  90 136 166 212 262 309 384
#     4  12  26  43  65  97 131 166 210 262 316 376
#     4  11  23  40  64  94 126 165 211 259 316 377
#     4  10  21  39  61  88 123 164 210 262 321 382
#
# _framework density 19.950056
#
# number of rings (size 3 to 8) (size 9 to 14) (size 15 to 20)
#    0.000    1.000    0.833    7.500    2.333    3.333 
#    0.000    1.667    0.000    0.000    0.000    0.000 
#    0.000    0.000    0.000    0.000    0.000    0.000 
#
# Total GULP energy -267977.745635 kJ/mol
# GULP energy per Si atom -5582.869701 kJ/mol
# Density = 1.990465 g / cm^3
# Si number density = 19.950056 Si / 1000 Ang^3
#
#
#
# Elastic Constant Matrix: (Units=GPa)
#
#
# Indices 1 2 3 4 5 6 
#
# 1 134.6159 35.2530 60.8334 0.0000 0.0000 0.0000
# 2 35.2530 83.2767 20.3619 0.0000 0.0000 0.0000
# 3 60.8334 20.3619 167.4941 0.0000 0.0000 0.0000
# 4 0.0000 0.0000 0.0000 23.3009 0.0000 0.0000
# 5 0.0000 0.0000 0.0000 0.0000 39.1404 0.0000
# 6 0.0000 0.0000 0.0000 0.0000 0.0000 38.3266
#
#
#
# Elastic Compliance Matrix: (Units=1/GPa)
#
#
# Indices 1 2 3 4 5 6 
#
# 1 0.009717 -0.003350 -0.003122 0.000000 0.000000 0.000000
# 2 -0.003350 0.013531 -0.000428 0.000000 0.000000 0.000000
# 3 -0.003122 -0.000428 0.007156 0.000000 0.000000 0.000000
# 4 0.000000 0.000000 0.000000 0.042917 0.000000 0.000000
# 5 0.000000 0.000000 0.000000 0.000000 0.025549 0.000000
# 6 0.000000 0.000000 0.000000 0.000000 0.000000 0.026092
#
#
# Mechanical properties :
#
#
# Convention : Reuss Voigt Hill
#
# Bulk Modulus (GPa) = 60.22701 68.69815 64.46258
# Shear Modulus (GPa) = 34.65105 38.08280 36.36692
#
# Velocity S-wave (km/s) = 4.17212 4.37384 4.27417
# Velocity P-wave (km/s) = 7.31186 7.74707 7.53261
#
# Compressibility (1/GPa) = 0.01660385
#
# Stress axis : x y z
#
# Youngs Moduli (GPa) = 102.91704 73.90443 139.73817
#
# Poissons Ratio (x) = 0.24758 0.43623
# Poissons Ratio (y) = 0.34477 0.05984
# Poissons Ratio (z) = 0.32128 0.03165
#
# Static dielectric constant tensor:
#      x y z
#    x 1.726820 0.000000 0.000000 
#    y 0.000000 1.693640 0.000000 
#    z 0.000000 0.000000 1.662020 
# 
# From -- ./inp_files/10196.got.cif
#   From: 2010.05.17/outbox.cif.g08.bks.cpg/sg57_6_cif.got.tgz:10196.got - 2010.06.03 13:58:18.
