data_PCOD9438617
_publ_section_title
;
Structure prediction by ZEFSAII (Michael W. Deem and Ramdas Pophale) SiO2 
 PCOD9438617
Probable space group: P B C M
;
_chemical_formula_sum "Si O2"
_cell_formula_units_Z 56
_cell_length_a 5.537478
_cell_length_b 31.563329
_cell_length_c 14.536304
_cell_angle_alpha 90.000000
_cell_angle_beta 90.000000
_cell_angle_gamma 90.000000
_cell_volume 2540.673237
_symmetry_space_group_name_H-M "P B C M"
_symmetry_group_IT_number 57
_symmetry_cell_setting 'orthorhombic'
loop_
_space_group_symop_operation_xyz
x,y,z
-x,-y,1/2+z
x,1/2-y,-z
-x,1/2+y,1/2-z
-x,-y,-z
x,y,1/2-z
-x,1/2+y,z
x,1/2-y,1/2+z
loop_
_atom_site_type_symbol
_atom_site_label
_atom_site_fract_x
_atom_site_fract_y
_atom_site_fract_z
Si Si1 0.024477 0.323757 0.352412
Si Si2 0.682057 0.096612 0.649119
Si Si3 0.568257 0.493855 0.145959
Si Si4 0.815050 0.962292 0.485364
Si Si5 0.704034 0.807020 0.861048
Si Si6 0.209861 0.762484 0.860953
Si Si7 0.298248 0.372752 0.006859
O O1 0.120938 0.312482 0.250000
O O2 0.221171 0.333473 0.428629
O O3 0.886256 0.368179 0.344959
O O4 0.844639 0.286512 0.382324
O O5 0.549756 0.099968 0.750000
O O6 0.748546 0.046989 0.643269
O O7 0.526994 0.108228 0.559980
O O8 0.554647 0.509235 0.250000
O O9 0.633365 0.529208 0.071669
O O10 0.322479 0.472418 0.109535
O O11 0.882906 0.913090 0.493525
O O12 0.000000 0.000000 0.500000
O O13 0.702475 0.808894 0.750000
O O14 0.469431 0.779795 0.892367
O O15 0.966201 0.787850 0.888832
O O16 0.672353 0.852879 0.907194
O O17 0.219159 0.765345 0.750000
#
# Coordination Sequence:
#
# PCOD9438617 Si02
#       7
#     8   8   8   8   8   8   8
#     4  10  21  37  60  89 119 157 199 254 318 382
#     4   9  19  36  58  87 121 152 196 258 321 380
#     4   9  19  37  59  85 118 159 203 253 314 380
#     4  10  21  38  59  87 125 159 202 263 320 380
#     4  10  23  44  63  88 126 172 213 265 313 370
#     4   9  21  42  65  86 123 166 211 261 316 368
#     4  11  23  36  60  89 123 158 211 258 318 388
#
# _framework density 22.041399999999999
#
# number of rings (size 3 to 8) (size 9 to 14) (size 15 to 20)
#    0.000    2.286    0.000    1.286    4.000    2.286 
#    0.000    0.000    0.000    0.000    0.000    0.000 
#    0.000    0.000    0.000    0.000    0.000    0.000 
#
# Total GULP energy -312209.202860 kJ/mol
# GULP energy per Si atom -5575.164337 kJ/mol
# Density = 2.199123 g / cm^3
# Si number density = 22.041400 Si / 1000 Ang^3
#
#
#
# Elastic Constant Matrix: (Units=GPa)
#
#
# Indices 1 2 3 4 5 6 
#
# 1 58.8479 13.2163 14.9292 0.0000 0.0000 0.0000
# 2 13.2163 83.2393 24.0567 0.0000 0.0000 0.0000
# 3 14.9292 24.0567 87.5051 0.0000 0.0000 0.0000
# 4 0.0000 0.0000 0.0000 35.2281 0.0000 0.0000
# 5 0.0000 0.0000 0.0000 0.0000 17.3453 0.0000
# 6 0.0000 0.0000 0.0000 0.0000 0.0000 34.9558
#
#
#
# Elastic Compliance Matrix: (Units=1/GPa)
#
#
# Indices 1 2 3 4 5 6 
#
# 1 0.018110 -0.002154 -0.002498 0.000000 0.000000 0.000000
# 2 -0.002154 0.013307 -0.003291 0.000000 0.000000 0.000000
# 3 -0.002498 -0.003291 0.012759 0.000000 0.000000 0.000000
# 4 0.000000 0.000000 0.000000 0.028386 0.000000 0.000000
# 5 0.000000 0.000000 0.000000 0.000000 0.057653 0.000000
# 6 0.000000 0.000000 0.000000 0.000000 0.000000 0.028608
#
#
# Mechanical properties :
#
#
# Convention : Reuss Voigt Hill
#
# Bulk Modulus (GPa) = 35.34649 37.11075 36.22862
# Shear Modulus (GPa) = 27.15373 29.33185 28.24279
#
# Velocity S-wave (km/s) = 3.51371 3.65192 3.58348
# Velocity P-wave (km/s) = 5.70375 5.88688 5.79604
#
# Compressibility (1/GPa) = 0.02829135
#
# Stress axis : x y z
#
# Youngs Moduli (GPa) = 55.21726 75.15096 78.37765
#
# Poissons Ratio (x) = 0.16185 0.19577
# Poissons Ratio (y) = 0.11892 0.25792
# Poissons Ratio (z) = 0.13792 0.24731
#
# Static dielectric constant tensor:
#      x y z
#    x 1.905430 0.000000 0.000000 
#    y 0.000000 1.818880 0.000000 
#    z 0.000000 0.000000 1.859820 
# 
# From -- ./inp_files/15232.got.cif
#   From: 2010.05.17/outbox.cif.g08.bks.cpg/sg57_8_cif.got.tgz:15232.got - 2010.06.03 13:58:18.
