data_PCOD9438826
_publ_section_title
;
Structure prediction by ZEFSAII (Michael W. Deem and Ramdas Pophale) SiO2 
 PCOD9438826
Probable space group: P B C M
;
_chemical_formula_sum "Si O2"
_cell_formula_units_Z 48
_cell_length_a 15.590925
_cell_length_b 10.702829
_cell_length_c 13.525721
_cell_angle_alpha 90.000000
_cell_angle_beta 90.000000
_cell_angle_gamma 90.000000
_cell_volume 2256.996543
_symmetry_space_group_name_H-M "P B C M"
_symmetry_group_IT_number 57
_symmetry_cell_setting 'orthorhombic'
loop_
_space_group_symop_operation_xyz
x,y,z
-x,-y,1/2+z
x,1/2-y,-z
-x,1/2+y,1/2-z
-x,-y,-z
x,y,1/2-z
-x,1/2+y,z
x,1/2-y,1/2+z
loop_
_atom_site_type_symbol
_atom_site_label
_atom_site_fract_x
_atom_site_fract_y
_atom_site_fract_z
Si Si1 0.324706 0.238766 0.860853
Si Si2 0.829794 0.583083 0.362128
Si Si3 0.801418 0.112347 0.042973
Si Si4 0.561991 0.986324 0.643263
Si Si5 0.987384 0.376210 0.565713
Si Si6 0.624484 0.482409 0.564522
O O1 0.321835 0.183064 0.750000
O O2 0.232055 0.298991 0.881321
O O3 0.390516 0.353432 0.856636
O O4 0.354679 0.130176 0.932558
O O5 0.809267 0.537985 0.250000
O O6 0.811806 0.482930 0.449069
O O7 0.929166 0.623194 0.365922
O O8 0.793659 0.250000 0.000000
O O9 0.890088 0.110175 0.104735
O O10 0.712995 0.079803 0.096377
O O11 0.576987 0.047320 0.750000
O O12 0.461191 0.964859 0.627001
O O13 0.599587 0.056549 0.547643
O O14 0.989574 0.250000 0.500000
O O15 0.000000 0.500000 0.500000
#
# Coordination Sequence:
#
# PCOD9438826 Si02
#       6
#     8   8   8   8   8   8
#     4  10  21  38  62  94 122 154 211 266 310 376
#     4  10  21  39  65  92 120 160 210 264 317 373
#     4  10  22  40  60  89 123 166 211 248 315 389
#     4  10  22  38  56  88 123 158 207 260 314 375
#     4   9  20  37  61  88 122 161 205 257 310 381
#     4  11  22  37  65  88 123 168 208 258 322 375
#
# _framework density 21.267202000000001
#
# number of rings (size 3 to 8) (size 9 to 14) (size 15 to 20)
#    0.000    2.000    1.667    1.000    4.667    2.667 
#    0.000   10.833    0.000    0.000    0.000    0.000 
#    0.000    0.000    0.000    0.000    0.000    0.000 
#
# Total GULP energy -267750.032911 kJ/mol
# GULP energy per Si atom -5578.125686 kJ/mol
# Density = 2.121880 g / cm^3
# Si number density = 21.267202 Si / 1000 Ang^3
#
#
#
# Elastic Constant Matrix: (Units=GPa)
#
#
# Indices 1 2 3 4 5 6 
#
# 1 188.0912 15.7655 7.8919 0.0000 0.0000 0.0000
# 2 15.7655 28.4283 -2.5021 0.0000 0.0000 0.0000
# 3 7.8919 -2.5021 85.6090 0.0000 0.0000 0.0000
# 4 0.0000 0.0000 0.0000 13.5370 0.0000 0.0000
# 5 0.0000 0.0000 0.0000 0.0000 -10.1318 0.0000
# 6 0.0000 0.0000 0.0000 0.0000 0.0000 1.8007
#
#
#
# Elastic Compliance Matrix: (Units=1/GPa)
#
#
# Indices 1 2 3 4 5 6 
#
# 1 0.005607 -0.003163 -0.000609 0.000000 0.000000 0.000000
# 2 -0.003163 0.037052 0.001375 0.000000 0.000000 0.000000
# 3 -0.000609 0.001375 0.011777 0.000000 0.000000 0.000000
# 4 0.000000 0.000000 0.000000 0.073871 0.000000 0.000000
# 5 0.000000 0.000000 0.000000 0.000000 -0.098699 0.000000
# 6 0.000000 0.000000 0.000000 0.000000 0.000000 0.555350
#
#
# Mechanical properties :
#
#
# Convention : Reuss Voigt Hill
#
# Bulk Modulus (GPa) = 20.14508 38.27100 29.20804
# Shear Modulus (GPa) = 8.24673 19.77272 14.00973
#
# Velocity S-wave (km/s) = 1.97132 3.05245 2.56939
# Velocity P-wave (km/s) = 3.83072 5.51885 4.75037
#
# Compressibility (1/GPa) = 0.04963990
#
# Stress axis : x y z
#
# Youngs Moduli (GPa) = 178.33965 26.98946 84.90867
#
# Poissons Ratio (x) = 0.08537 0.05174
# Poissons Ratio (y) = 0.56414 -0.11671
# Poissons Ratio (z) = 0.10867 -0.03710
#
# Static dielectric constant tensor:
#      x y z
#    x 1.798910 0.000000 0.000000 
#    y 0.000000 1.715390 0.000000 
#    z 0.000000 0.000000 1.813570 
# 
# From -- ./inp_files/18426.got.cif
#   From: 2010.05.17/outbox.cif.g08.bks.cpg/sg57_10_cif.got.tgz:18426.got - 2010.06.03 13:58:18.
