data_PCOD9438545
_publ_section_title
;
Structure prediction by ZEFSAII (Michael W. Deem and Ramdas Pophale) SiO2 
 PCOD9438545
Probable space group: P B C M
;
_chemical_formula_sum "Si O2"
_cell_formula_units_Z 48
_cell_length_a 17.976254
_cell_length_b 16.100627
_cell_length_c 8.643104
_cell_angle_alpha 90.000000
_cell_angle_beta 90.000000
_cell_angle_gamma 90.000000
_cell_volume 2501.564606
_symmetry_space_group_name_H-M "P B C M"
_symmetry_group_IT_number 57
_symmetry_cell_setting 'orthorhombic'
loop_
_space_group_symop_operation_xyz
x,y,z
-x,-y,1/2+z
x,1/2-y,-z
-x,1/2+y,1/2-z
-x,-y,-z
x,y,1/2-z
-x,1/2+y,z
x,1/2-y,1/2+z
loop_
_atom_site_type_symbol
_atom_site_label
_atom_site_fract_x
_atom_site_fract_y
_atom_site_fract_z
Si Si1 0.498427 0.408998 0.934767
Si Si2 0.659357 0.157850 0.064150
Si Si3 0.179369 0.154782 0.936279
Si Si4 0.083340 0.002033 0.063929
Si Si5 0.814550 0.344897 0.435713
Si Si6 0.344409 0.158412 0.934571
O O1 0.497247 0.405142 0.750000
O O2 0.577684 0.371698 0.985853
O O3 0.500000 0.500000 0.000000
O O4 0.421255 0.373159 0.996007
O O5 0.663118 0.153906 0.250000
O O6 0.663979 0.250000 0.000000
O O7 0.734855 0.119893 0.995594
O O8 0.173658 0.159827 0.750000
O O9 0.263327 0.121956 0.974968
O O10 0.169281 0.250000 0.000000
O O11 0.123863 0.085014 0.000521
O O12 0.083306 0.005975 0.250000
O O13 0.125267 0.915420 0.020501
O O14 0.000000 0.000000 0.000000
O O15 0.827090 0.250000 0.500000
O O16 0.812050 0.337653 0.250000
O O17 0.351356 0.156272 0.750000
O O18 0.337664 0.250000 0.000000
#
# Coordination Sequence:
#
# PCOD9438545 Si02
#       6
#     8   8   8   8   8   8
#     4  11  24  37  53  82 118 158 202 250 300 354
#     4  10  21  37  58  83 113 153 198 244 297 351
#     4  10  22  41  66  94 126 164 207 256 310 370
#     4  11  25  43  65  95 127 162 204 251 310 373
#     4  10  22  40  64  93 122 160 204 250 304 363
#     4  10  21  38  60  86 116 156 202 248 302 358
#
# _framework density 19.187991
#
# number of rings (size 3 to 8) (size 9 to 14) (size 15 to 20)
#    0.000    1.667    0.000    4.500    2.333    9.333 
#    0.000    1.667    0.000    0.000    0.000    0.000 
#    0.000    0.000    0.000    0.000    0.000    0.000 
#
# Total GULP energy -267576.838612 kJ/mol
# GULP energy per Si atom -5574.517471 kJ/mol
# Density = 1.914432 g / cm^3
# Si number density = 19.187991 Si / 1000 Ang^3
#
#
#
# Elastic Constant Matrix: (Units=GPa)
#
#
# Indices 1 2 3 4 5 6 
#
# 1 215.0390 90.6466 61.1712 0.0000 0.0000 0.0000
# 2 90.6466 93.6314 34.2832 0.0000 0.0000 0.0000
# 3 61.1712 34.2832 57.3113 0.0000 0.0000 0.0000
# 4 0.0000 0.0000 0.0000 29.2496 0.0000 0.0000
# 5 0.0000 0.0000 0.0000 0.0000 34.0380 0.0000
# 6 0.0000 0.0000 0.0000 0.0000 0.0000 46.1879
#
#
#
# Elastic Compliance Matrix: (Units=1/GPa)
#
#
# Indices 1 2 3 4 5 6 
#
# 1 0.009108 -0.006733 -0.005694 0.000000 0.000000 0.000000
# 2 -0.006733 0.018653 -0.003971 0.000000 0.000000 0.000000
# 3 -0.005694 -0.003971 0.025902 0.000000 0.000000 0.000000
# 4 0.000000 0.000000 0.000000 0.034189 0.000000 0.000000
# 5 0.000000 0.000000 0.000000 0.000000 0.029379 0.000000
# 6 0.000000 0.000000 0.000000 0.000000 0.000000 0.021651
#
#
# Mechanical properties :
#
#
# Convention : Reuss Voigt Hill
#
# Bulk Modulus (GPa) = 47.92540 82.02039 64.97289
# Shear Modulus (GPa) = 27.99029 33.88714 30.93872
#
# Velocity S-wave (km/s) = 3.82349 4.20701 4.01983
# Velocity P-wave (km/s) = 6.67256 8.15089 7.44849
#
# Compressibility (1/GPa) = 0.02086576
#
# Stress axis : x y z
#
# Youngs Moduli (GPa) = 109.78982 53.61146 38.60732
#
# Poissons Ratio (x) = 0.36097 0.21983
# Poissons Ratio (y) = 0.73922 0.15333
# Poissons Ratio (z) = 0.62515 0.21291
#
# Static dielectric constant tensor:
#      x y z
#    x 4.563320 0.000000 0.000000 
#    y 0.000000 1.636800 0.000000 
#    z 0.000000 0.000000 1.647200 
# 
# From -- ./inp_files/6583.got.cif
#   From: 2010.05.17/outbox.cif.g08.bks.cpg/sg57_4_cif.got.tgz:6583.got - 2010.06.03 13:58:18.
