data_PCOD9438673
_publ_section_title
;
Structure prediction by ZEFSAII (Michael W. Deem and Ramdas Pophale) SiO2 
 PCOD9438673
Probable space group: P B C M
;
_chemical_formula_sum "Si O2"
_cell_formula_units_Z 64
_cell_length_a 5.341839
_cell_length_b 29.386471
_cell_length_c 17.224046
_cell_angle_alpha 90.000000
_cell_angle_beta 90.000000
_cell_angle_gamma 90.000000
_cell_volume 2703.792794
_symmetry_space_group_name_H-M "P B C M"
_symmetry_group_IT_number 57
_symmetry_cell_setting 'orthorhombic'
loop_
_space_group_symop_operation_xyz
x,y,z
-x,-y,1/2+z
x,1/2-y,-z
-x,1/2+y,1/2-z
-x,-y,-z
x,y,1/2-z
-x,1/2+y,z
x,1/2-y,1/2+z
loop_
_atom_site_type_symbol
_atom_site_label
_atom_site_fract_x
_atom_site_fract_y
_atom_site_fract_z
Si Si1 0.566688 0.935770 0.123662
Si Si2 0.528198 0.605148 0.163913
Si Si3 0.181514 0.449224 0.967513
Si Si4 0.469539 0.664341 0.578332
Si Si5 0.138005 0.312890 0.836612
Si Si6 0.027663 0.276931 0.418793
Si Si7 0.841539 0.375697 0.553279
Si Si8 0.060100 0.984671 0.164770
O O1 0.513068 0.881926 0.126119
O O2 0.331258 0.961370 0.159774
O O3 0.827083 0.950212 0.162248
O O4 0.609205 0.952902 0.033902
O O5 0.552470 0.587955 0.250000
O O6 0.699206 0.578025 0.104985
O O7 0.601587 0.658879 0.164183
O O8 0.255964 0.598455 0.129193
O O9 0.050695 0.489562 0.919447
O O10 0.984058 0.411854 0.999610
O O11 0.732419 0.690238 0.572587
O O12 0.384327 0.645696 0.494248
O O13 0.230466 0.696136 0.601244
O O14 0.030552 0.321784 0.750000
O O15 0.117102 0.259886 0.854848
O O16 0.999899 0.335911 0.909027
O O17 0.986183 0.250000 0.500000
O O18 0.042155 0.008347 0.250000
#
# Coordination Sequence:
#
# PCOD9438673 Si02
#       8
#     8   8   8   8   8   8   8   8
#     4  12  26  49  75 103 142 189 239 294 354 416
#     4  10  21  37  64  99 147 185 220 281 365 444
#     4  11  24  42  72 107 142 177 238 287 358 430
#     4  12  25  44  69 102 133 181 240 293 344 413
#     4  10  23  41  60  98 142 187 228 282 361 432
#     4  12  24  41  70 101 135 177 235 291 342 411
#     4  11  21  40  66 103 143 180 221 288 364 439
#     4  12  28  49  74 106 143 188 240 296 353 413
#
# _framework density 23.670452999999998
#
# number of rings (size 3 to 8) (size 9 to 14) (size 15 to 20)
#    0.000    0.750    2.500    5.250    3.500    1.500 
#    0.000    3.750    0.000    0.000    0.000    0.000 
#    0.000    0.000    0.000    0.000    0.000    0.000 
#
# Total GULP energy -357344.830533 kJ/mol
# GULP energy per Si atom -5583.512977 kJ/mol
# Density = 2.361658 g / cm^3
# Si number density = 23.670453 Si / 1000 Ang^3
#
#
#
# Elastic Constant Matrix: (Units=GPa)
#
#
# Indices 1 2 3 4 5 6 
#
# 1 118.3142 24.6620 10.2179 0.0000 0.0000 0.0000
# 2 24.6620 54.8724 -2.8899 0.0000 0.0000 0.0000
# 3 10.2179 -2.8899 83.8024 0.0000 0.0000 0.0000
# 4 0.0000 0.0000 0.0000 23.9335 0.0000 0.0000
# 5 0.0000 0.0000 0.0000 0.0000 12.0535 0.0000
# 6 0.0000 0.0000 0.0000 0.0000 0.0000 21.3165
#
#
#
# Elastic Compliance Matrix: (Units=1/GPa)
#
#
# Indices 1 2 3 4 5 6 
#
# 1 0.009466 -0.004323 -0.001303 0.000000 0.000000 0.000000
# 2 -0.004323 0.020231 0.001225 0.000000 0.000000 0.000000
# 3 -0.001303 0.001225 0.012134 0.000000 0.000000 0.000000
# 4 0.000000 0.000000 0.000000 0.041782 0.000000 0.000000
# 5 0.000000 0.000000 0.000000 0.000000 0.082964 0.000000
# 6 0.000000 0.000000 0.000000 0.000000 0.000000 0.046912
#
#
# Mechanical properties :
#
#
# Convention : Reuss Voigt Hill
#
# Bulk Modulus (GPa) = 30.27697 35.66324 32.97011
# Shear Modulus (GPa) = 21.43149 26.46062 23.94606
#
# Velocity S-wave (km/s) = 3.01227 3.34709 3.18408
# Velocity P-wave (km/s) = 4.99171 5.48057 5.24184
#
# Compressibility (1/GPa) = 0.03302840
#
# Stress axis : x y z
#
# Youngs Moduli (GPa) = 105.64440 49.42788 82.41330
#
# Poissons Ratio (x) = 0.21367 0.10740
# Poissons Ratio (y) = 0.45669 -0.10094
# Poissons Ratio (z) = 0.13768 -0.06054
#
# Static dielectric constant tensor:
#      x y z
#    x 1.944760 0.000000 0.000000 
#    y 0.000000 2.020290 0.000000 
#    z 0.000000 0.000000 1.927730 
# 
# From -- ./inp_files/20349.got.cif
#   From: 2010.05.17/outbox.cif.g08.bks.cpg/sg57_11_cif.got.tgz:20349.got - 2010.06.03 13:58:18.
