data_PCOD9438230
_publ_section_title
;
Structure prediction by ZEFSAII (Michael W. Deem and Ramdas Pophale) SiO2 
 PCOD9438230
Probable space group: P B C M
;
_chemical_formula_sum "Si O2"
_cell_formula_units_Z 48
_cell_length_a 10.021442
_cell_length_b 17.280702
_cell_length_c 14.401012
_cell_angle_alpha 90.000000
_cell_angle_beta 90.000000
_cell_angle_gamma 90.000000
_cell_volume 2493.932016
_symmetry_space_group_name_H-M "P B C M"
_symmetry_group_IT_number 57
_symmetry_cell_setting 'orthorhombic'
loop_
_space_group_symop_operation_xyz
x,y,z
-x,-y,1/2+z
x,1/2-y,-z
-x,1/2+y,1/2-z
-x,-y,-z
x,y,1/2-z
-x,1/2+y,z
x,1/2-y,1/2+z
loop_
_atom_site_type_symbol
_atom_site_label
_atom_site_fract_x
_atom_site_fract_y
_atom_site_fract_z
Si Si1 0.553046 0.067401 0.436542
Si Si2 0.800243 0.329777 0.543815
Si Si3 0.671883 0.002776 0.250000
Si Si4 0.707517 0.831260 0.554428
Si Si5 0.882986 0.884754 0.250000
Si Si6 0.155213 0.298506 0.750000
Si Si7 0.047961 0.416986 0.460119
Si Si8 0.867227 0.358697 0.750000
O O1 0.689850 0.104974 0.472521
O O2 0.588617 0.028617 0.338571
O O3 0.438204 0.131839 0.434242
O O4 0.500000 0.000000 0.500000
O O5 0.755770 0.250000 0.500000
O O6 0.817227 0.321027 0.654597
O O7 0.939776 0.355931 0.498917
O O8 0.806231 0.055496 0.250000
O O9 0.729907 0.916432 0.250000
O O10 0.704222 0.750000 0.500000
O O11 0.765040 0.815510 0.656533
O O12 0.808531 0.889631 0.500270
O O13 0.887595 0.791652 0.250000
O O14 0.945313 0.913781 0.152147
O O15 0.025267 0.352789 0.750000
O O16 0.000000 0.500000 0.500000
#
# Coordination Sequence:
#
# PCOD9438230 Si02
#       8
#     8   8   4   8   4   4   8   4
#     4  11  24  44  66  90 130 174 217 267 326 399
#     4  11  22  41  64  94 128 174 213 263 329 388
#     4  10  23  44  64  93 128 176 212 266 337 388
#     4  12  24  42  65 102 130 171 226 275 330 397
#     4  12  24  40  65 102 134 168 217 286 335 384
#     4  12  23  38  68  99 131 171 217 281 328 395
#     4  12  24  41  68  99 133 173 220 273 334 393
#     4  10  20  40  65  90 131 167 212 261 328 395
#
# _framework density 19.246715999999999
#
# number of rings (size 3 to 8) (size 9 to 14) (size 15 to 20)
#    0.000    0.667    3.333    6.500    0.000    0.000 
#    0.000    3.333    0.000    0.000    0.000    0.000 
#    0.000    0.000    0.000    0.000    0.000    0.000 
#
# Total GULP energy -268323.900330 kJ/mol
# GULP energy per Si atom -5590.081257 kJ/mol
# Density = 1.920291 g / cm^3
# Si number density = 19.246716 Si / 1000 Ang^3
#
#
#
# Elastic Constant Matrix: (Units=GPa)
#
#
# Indices 1 2 3 4 5 6 
#
# 1 95.4950 9.7034 32.4842 0.0000 0.0000 0.0000
# 2 9.7034 55.9318 42.9609 0.0000 0.0000 0.0000
# 3 32.4842 42.9609 149.5923 0.0000 0.0000 0.0000
# 4 0.0000 0.0000 0.0000 21.3459 0.0000 0.0000
# 5 0.0000 0.0000 0.0000 0.0000 28.4229 0.0000
# 6 0.0000 0.0000 0.0000 0.0000 0.0000 31.8734
#
#
#
# Elastic Compliance Matrix: (Units=1/GPa)
#
#
# Indices 1 2 3 4 5 6 
#
# 1 0.011307 -0.000097 -0.002428 0.000000 0.000000 0.000000
# 2 -0.000097 0.022940 -0.006567 0.000000 0.000000 0.000000
# 3 -0.002428 -0.006567 0.009098 0.000000 0.000000 0.000000
# 4 0.000000 0.000000 0.000000 0.046847 0.000000 0.000000
# 5 0.000000 0.000000 0.000000 0.000000 0.035183 0.000000
# 6 0.000000 0.000000 0.000000 0.000000 0.000000 0.031374
#
#
# Mechanical properties :
#
#
# Convention : Reuss Voigt Hill
#
# Bulk Modulus (GPa) = 39.74253 52.36845 46.05549
# Shear Modulus (GPa) = 27.27474 30.71982 28.99728
#
# Velocity S-wave (km/s) = 3.76854 3.99946 3.88572
# Velocity P-wave (km/s) = 6.29521 6.97106 6.64174
#
# Compressibility (1/GPa) = 0.02516196
#
# Stress axis : x y z
#
# Youngs Moduli (GPa) = 88.43778 43.59248 109.91546
#
# Poissons Ratio (x) = 0.00423 0.26682
# Poissons Ratio (y) = 0.00859 0.72180
# Poissons Ratio (z) = 0.21469 0.28627
#
# Static dielectric constant tensor:
#      x y z
#    x 1.664030 0.000000 0.000000 
#    y 0.000000 1.680800 0.000000 
#    z 0.000000 0.000000 1.662850 
# 
# From -- ./inp_files/16440.got.cif
#   From: 2010.05.17/outbox.cif.g08.bks.cpg/sg57_9_cif.got.tgz:16440.got - 2010.06.03 13:58:18.
