data_PCOD9438016
_publ_section_title
;
Structure prediction by ZEFSAII (Michael W. Deem and Ramdas Pophale) SiO2 
 PCOD9438016
Probable space group: P B C M
;
_chemical_formula_sum "Si O2"
_cell_formula_units_Z 40
_cell_length_a 13.471817
_cell_length_b 14.807166
_cell_length_c 9.808391
_cell_angle_alpha 90.000000
_cell_angle_beta 90.000000
_cell_angle_gamma 90.000000
_cell_volume 1956.572252
_symmetry_space_group_name_H-M "P B C M"
_symmetry_group_IT_number 57
_symmetry_cell_setting 'orthorhombic'
loop_
_space_group_symop_operation_xyz
x,y,z
-x,-y,1/2+z
x,1/2-y,-z
-x,1/2+y,1/2-z
-x,-y,-z
x,y,1/2-z
-x,1/2+y,z
x,1/2-y,1/2+z
loop_
_atom_site_type_symbol
_atom_site_label
_atom_site_fract_x
_atom_site_fract_y
_atom_site_fract_z
Si Si1 0.141087 0.958409 0.250000
Si Si2 0.361069 0.345801 0.475382
Si Si3 0.339866 0.048178 0.250000
Si Si4 0.946610 0.840829 0.750000
Si Si5 0.885859 0.148052 0.023630
Si Si6 0.805816 0.667474 0.750000
Si Si7 0.221054 0.536460 0.250000
Si Si8 0.557360 0.531368 0.750000
O O1 0.102536 0.905355 0.382544
O O2 0.261320 0.966216 0.250000
O O3 0.110205 0.063678 0.250000
O O4 0.411370 0.250000 0.500000
O O5 0.326824 0.393095 0.613587
O O6 0.265357 0.325582 0.381495
O O7 0.431998 0.408411 0.385600
O O8 0.454423 0.019171 0.250000
O O9 0.883261 0.748743 0.750000
O O10 0.015136 0.842391 0.614991
O O11 0.811898 0.090628 0.117335
O O12 0.849381 0.250000 0.000000
O O13 0.834926 0.561196 0.750000
O O14 0.339044 0.523140 0.250000
#
# Coordination Sequence:
#
# PCOD9438016 Si02
#       8
#     4   8   4   4   8   4   4   4
#     4  12  23  42  65  92 128 165 207 264 321 374
#     4  10  20  38  61  92 128 160 205 265 324 383
#     4  12  23  38  64  97 128 166 211 262 322 385
#     4  11  25  43  67  93 124 164 209 265 326 388
#     4  11  25  43  62  90 125 169 217 257 307 385
#     4  10  22  41  67  96 125 163 207 266 336 387
#     4   9  21  45  66  86 127 172 206 259 323 379
#     4  10  22  41  63  92 128 170 214 260 316 387
#
# _framework density 20.443916999999999
#
# number of rings (size 3 to 8) (size 9 to 14) (size 15 to 20)
#    0.000    1.600    0.000    7.200    0.000    7.200 
#    0.000    7.000    0.000    0.000    0.000    0.000 
#    0.000    0.000    0.000    0.000    0.000    0.000 
#
# Total GULP energy -223603.253914 kJ/mol
# GULP energy per Si atom -5590.081348 kJ/mol
# Density = 2.039739 g / cm^3
# Si number density = 20.443917 Si / 1000 Ang^3
#
#
#
# Elastic Constant Matrix: (Units=GPa)
#
#
# Indices 1 2 3 4 5 6 
#
# 1 105.3035 65.9725 53.6173 0.0000 0.0000 0.0000
# 2 65.9725 160.5175 68.5712 0.0000 0.0000 0.0000
# 3 53.6173 68.5712 183.8439 0.0000 0.0000 0.0000
# 4 0.0000 0.0000 0.0000 37.1753 0.0000 0.0000
# 5 0.0000 0.0000 0.0000 0.0000 -1.6159 0.0000
# 6 0.0000 0.0000 0.0000 0.0000 0.0000 11.2609
#
#
#
# Elastic Compliance Matrix: (Units=1/GPa)
#
#
# Indices 1 2 3 4 5 6 
#
# 1 0.013513 -0.004604 -0.002224 0.000000 0.000000 0.000000
# 2 -0.004604 0.008979 -0.002006 0.000000 0.000000 0.000000
# 3 -0.002224 -0.002006 0.006836 0.000000 0.000000 0.000000
# 4 0.000000 0.000000 0.000000 0.026900 0.000000 0.000000
# 5 0.000000 0.000000 0.000000 0.000000 -0.618869 0.000000
# 6 0.000000 0.000000 0.000000 0.000000 0.000000 0.088803
#
#
# Mechanical properties :
#
#
# Convention : Reuss Voigt Hill
#
# Bulk Modulus (GPa) = 85.76109 91.77631 88.76870
# Shear Modulus (GPa) = -11.05502 26.79766 7.87132
#
# Velocity S-wave (km/s) = -2.32792 3.62441 1.96432
# Velocity P-wave (km/s) = 5.90041 7.90597 6.97564
#
# Compressibility (1/GPa) = 0.01166030
#
# Stress axis : x y z
#
# Youngs Moduli (GPa) = 74.00307 111.36941 146.27731
#
# Poissons Ratio (x) = 0.51272 0.32530
# Poissons Ratio (y) = 0.34070 0.29349
# Poissons Ratio (z) = 0.16457 0.22345
#
# Static dielectric constant tensor:
#      x y z
#    x 1.729400 0.000000 0.000000 
#    y 0.000000 1.734440 0.000000 
#    z 0.000000 0.000000 1.719680 
# 
# From -- ./inp_files/4367.got.cif
#   From: 2010.05.17/outbox.cif.g08.bks.cpg/sg57_3_cif.got.tgz:4367.got - 2010.06.03 13:58:18.
