data_PCOD9438834
_publ_section_title
;
Structure prediction by ZEFSAII (Michael W. Deem and Ramdas Pophale) SiO2 
 PCOD9438834
Probable space group: P B C M
;
_chemical_formula_sum "Si O2"
_cell_formula_units_Z 40
_cell_length_a 10.743741
_cell_length_b 7.800120
_cell_length_c 19.357019
_cell_angle_alpha 90.000000
_cell_angle_beta 90.000000
_cell_angle_gamma 90.000000
_cell_volume 1622.165986
_symmetry_space_group_name_H-M "P B C M"
_symmetry_group_IT_number 57
_symmetry_cell_setting 'orthorhombic'
loop_
_space_group_symop_operation_xyz
x,y,z
-x,-y,1/2+z
x,1/2-y,-z
-x,1/2+y,1/2-z
-x,-y,-z
x,y,1/2-z
-x,1/2+y,z
x,1/2-y,1/2+z
loop_
_atom_site_type_symbol
_atom_site_label
_atom_site_fract_x
_atom_site_fract_y
_atom_site_fract_z
Si Si1 0.352877 0.706773 0.250000
Si Si2 0.249290 0.683268 0.105087
Si Si3 0.969169 0.110131 0.665656
Si Si4 0.637235 0.619953 0.250000
Si Si5 0.646205 0.499242 0.023063
Si Si6 0.798788 0.715750 0.373251
O O1 0.295744 0.634869 0.180344
O O2 0.493461 0.652179 0.250000
O O3 0.335335 0.914867 0.250000
O O4 0.113627 0.759226 0.119889
O O5 0.334358 0.844374 0.077947
O O6 0.274605 0.549958 0.044550
O O7 0.970165 0.140365 0.750000
O O8 0.107848 0.124046 0.634768
O O9 0.895251 0.935017 0.650921
O O10 0.695837 0.712944 0.314901
O O11 0.717711 0.655533 0.060982
O O12 0.500000 0.500000 0.000000
#
# Coordination Sequence:
#
# PCOD9438834 Si02
#       6
#     4   8   8   4   8   8
#     4  12  22  41  67  97 127 178 229 276 336 402
#     4  10  21  38  63  91 127 176 211 274 340 382
#     4  11  19  40  66  92 135 169 221 277 334 396
#     4  12  22  41  61  97 135 170 229 282 336 400
#     4  10  21  40  63  90 131 174 219 271 335 400
#     4  11  22  41  66  96 136 180 221 282 343 397
#
# _framework density 24.658387999999999
#
# number of rings (size 3 to 8) (size 9 to 14) (size 15 to 20)
#    0.000    1.200    7.000    1.200    0.000    0.800 
#    3.600    4.000    0.000    0.000    0.000    0.000 
#    0.000    0.000    0.000    0.000    0.000    0.000 
#
# Total GULP energy -223624.590736 kJ/mol
# GULP energy per Si atom -5590.614768 kJ/mol
# Density = 2.460226 g / cm^3
# Si number density = 24.658388 Si / 1000 Ang^3
#
#
#
# Elastic Constant Matrix: (Units=GPa)
#
#
# Indices 1 2 3 4 5 6 
#
# 1 151.9728 6.9206 57.5577 0.0000 0.0000 0.0000
# 2 6.9206 73.0197 18.7278 0.0000 0.0000 0.0000
# 3 57.5577 18.7278 195.9499 0.0000 0.0000 0.0000
# 4 0.0000 0.0000 0.0000 26.1235 0.0000 0.0000
# 5 0.0000 0.0000 0.0000 0.0000 112.7665 0.0000
# 6 0.0000 0.0000 0.0000 0.0000 0.0000 37.6496
#
#
#
# Elastic Compliance Matrix: (Units=1/GPa)
#
#
# Indices 1 2 3 4 5 6 
#
# 1 0.007405 -0.000148 -0.002161 0.000000 0.000000 0.000000
# 2 -0.000148 0.014042 -0.001299 0.000000 0.000000 0.000000
# 3 -0.002161 -0.001299 0.005862 0.000000 0.000000 0.000000
# 4 0.000000 0.000000 0.000000 0.038280 0.000000 0.000000
# 5 0.000000 0.000000 0.000000 0.000000 0.008868 0.000000
# 6 0.000000 0.000000 0.000000 0.000000 0.000000 0.026561
#
#
# Mechanical properties :
#
#
# Convention : Reuss Voigt Hill
#
# Bulk Modulus (GPa) = 49.76408 65.26160 57.51284
# Shear Modulus (GPa) = 43.50438 57.82367 50.66402
#
# Velocity S-wave (km/s) = 4.20489 4.84776 4.53773
# Velocity P-wave (km/s) = 6.61816 7.60645 7.12945
#
# Compressibility (1/GPa) = 0.02009482
#
# Stress axis : x y z
#
# Youngs Moduli (GPa) = 135.03772 71.21484 170.58245
#
# Poissons Ratio (x) = 0.01051 0.36865
# Poissons Ratio (y) = 0.01993 0.22154
# Poissons Ratio (z) = 0.29183 0.09249
#
# Static dielectric constant tensor:
#      x y z
#    x 1.894420 0.000000 0.000000 
#    y 0.000000 2.190620 0.000000 
#    z 0.000000 0.000000 1.878130 
# 
# From -- ./inp_files/20562.got.cif
#   From: 2010.05.17/outbox.cif.g08.bks.cpg/sg57_11_cif.got.tgz:20562.got - 2010.06.03 13:58:18.
