data_PCOD9438488
_publ_section_title
;
Structure prediction by ZEFSAII (Michael W. Deem and Ramdas Pophale) SiO2 
 PCOD9438488
Probable space group: P B C M
;
_chemical_formula_sum "Si O2"
_cell_formula_units_Z 48
_cell_length_a 16.063309
_cell_length_b 18.455317
_cell_length_c 8.907433
_cell_angle_alpha 90.000000
_cell_angle_beta 90.000000
_cell_angle_gamma 90.000000
_cell_volume 2640.639330
_symmetry_space_group_name_H-M "P B C M"
_symmetry_group_IT_number 57
_symmetry_cell_setting 'orthorhombic'
loop_
_space_group_symop_operation_xyz
x,y,z
-x,-y,1/2+z
x,1/2-y,-z
-x,1/2+y,1/2-z
-x,-y,-z
x,y,1/2-z
-x,1/2+y,z
x,1/2-y,1/2+z
loop_
_atom_site_type_symbol
_atom_site_label
_atom_site_fract_x
_atom_site_fract_y
_atom_site_fract_z
Si Si1 0.173440 0.916259 0.069739
Si Si2 0.996122 0.080305 0.429568
Si Si3 0.498258 0.079531 0.930958
Si Si4 0.334846 0.329419 0.429820
Si Si5 0.819469 0.587465 0.069998
Si Si6 0.660938 0.170495 0.568809
O O1 0.163944 0.912940 0.250000
O O2 0.254842 0.871598 0.025082
O O3 0.185119 0.001574 0.031634
O O4 0.088704 0.887274 0.994903
O O5 0.990684 0.074949 0.250000
O O6 0.086438 0.113718 0.466104
O O7 0.000000 0.000000 0.500000
O O8 0.499313 0.073639 0.750000
O O9 0.414875 0.122590 0.974674
O O10 0.579889 0.124649 0.977089
O O11 0.500000 0.000000 0.000000
O O12 0.341380 0.250000 0.500000
O O13 0.333823 0.323918 0.250000
O O14 0.251517 0.368460 0.486923
O O15 0.807893 0.593389 0.250000
O O16 0.658624 0.250000 0.500000
O O17 0.660171 0.175591 0.750000
#
# Coordination Sequence:
#
# PCOD9438488 Si02
#       6
#     8   8   8   8   8   8
#     4   9  18  33  54  79 107 141 179 220 266 313
#     4   9  17  30  51  78 107 139 176 220 268 314
#     4  10  22  39  59  83 108 137 176 219 263 313
#     4  11  23  37  55  80 109 142 178 217 264 316
#     4   9  18  34  55  78 106 141 179 221 268 314
#     4  10  21  37  55  78 110 144 177 215 262 316
#
# _framework density 18.177416999999998
#
# number of rings (size 3 to 8) (size 9 to 14) (size 15 to 20)
#    0.000    2.333    0.000    3.500    0.000    7.333 
#    0.000    0.833    0.000    2.000    0.000    0.000 
#    0.000    0.000    0.000    0.000    0.000    0.000 
#
# Total GULP energy -267844.662165 kJ/mol
# GULP energy per Si atom -5580.097128 kJ/mol
# Density = 1.813604 g / cm^3
# Si number density = 18.177417 Si / 1000 Ang^3
#
#
#
# Elastic Constant Matrix: (Units=GPa)
#
#
# Indices 1 2 3 4 5 6 
#
# 1 216.4081 99.0101 61.3583 0.0000 0.0000 0.0000
# 2 99.0101 123.1316 41.3301 0.0000 0.0000 0.0000
# 3 61.3583 41.3301 30.0018 0.0000 0.0000 0.0000
# 4 0.0000 0.0000 0.0000 31.1196 0.0000 0.0000
# 5 0.0000 0.0000 0.0000 0.0000 27.3846 0.0000
# 6 0.0000 0.0000 0.0000 0.0000 0.0000 -9.0453
#
#
#
# Elastic Compliance Matrix: (Units=1/GPa)
#
#
# Indices 1 2 3 4 5 6 
#
# 1 0.011396 -0.002493 -0.019871 0.000000 0.000000 0.000000
# 2 -0.002493 0.015652 -0.016463 0.000000 0.000000 0.000000
# 3 -0.019871 -0.016463 0.096650 0.000000 0.000000 0.000000
# 4 0.000000 0.000000 0.000000 0.032134 0.000000 0.000000
# 5 0.000000 0.000000 0.000000 0.000000 0.036517 0.000000
# 6 0.000000 0.000000 0.000000 0.000000 0.000000 -0.110554
#
#
# Mechanical properties :
#
#
# Convention : Reuss Voigt Hill
#
# Bulk Modulus (GPa) = 21.71886 85.88205 53.80046
# Shear Modulus (GPa) = 28.60464 21.08131 24.84297
#
# Velocity S-wave (km/s) = 3.97121 3.40921 3.70089
# Velocity P-wave (km/s) = 5.74470 7.92755 6.92270
#
# Compressibility (1/GPa) = 0.04604292
#
# Stress axis : x y z
#
# Youngs Moduli (GPa) = 87.75206 63.88860 10.34663
#
# Poissons Ratio (x) = 0.15930 0.20560
# Poissons Ratio (y) = 0.21880 0.17034
# Poissons Ratio (z) = 1.74373 1.05179
#
# Static dielectric constant tensor:
#      x y z
#    x 1.644390 0.000000 0.000000 
#    y 0.000000 1.584650 0.000000 
#    z 0.000000 0.000000 1.610690 
# 
# From -- ./inp_files/4648.got.cif
#   From: 2010.05.17/outbox.cif.g08.bks.cpg/sg57_3_cif.got.tgz:4648.got - 2010.06.03 13:58:18.
