data_PCOD9438568
_publ_section_title
;
Structure prediction by ZEFSAII (Michael W. Deem and Ramdas Pophale) SiO2 
 PCOD9438568
Probable space group: P B C M
;
_chemical_formula_sum "Si O2"
_cell_formula_units_Z 52
_cell_length_a 19.046240
_cell_length_b 9.481280
_cell_length_c 13.924092
_cell_angle_alpha 90.000000
_cell_angle_beta 90.000000
_cell_angle_gamma 90.000000
_cell_volume 2514.450607
_symmetry_space_group_name_H-M "P B C M"
_symmetry_group_IT_number 57
_symmetry_cell_setting 'orthorhombic'
loop_
_space_group_symop_operation_xyz
x,y,z
-x,-y,1/2+z
x,1/2-y,-z
-x,1/2+y,1/2-z
-x,-y,-z
x,y,1/2-z
-x,1/2+y,z
x,1/2-y,1/2+z
loop_
_atom_site_type_symbol
_atom_site_label
_atom_site_fract_x
_atom_site_fract_y
_atom_site_fract_z
Si Si1 0.432044 0.384423 0.632566
Si Si2 0.568239 0.293535 0.366484
Si Si3 0.700379 0.700669 0.865818
Si Si4 0.140357 0.233760 0.862746
Si Si5 0.917997 0.522423 0.017470
Si Si6 0.172481 0.750000 0.000000
Si Si7 0.709227 0.124121 0.365861
O O1 0.431526 0.388546 0.750000
O O2 0.501124 0.298080 0.604210
O O3 0.433554 0.545625 0.598519
O O4 0.362404 0.300957 0.601730
O O5 0.565451 0.299789 0.250000
O O6 0.640357 0.214817 0.389935
O O7 0.694113 0.694958 0.750000
O O8 0.777684 0.759798 0.886856
O O9 0.697783 0.537929 0.897699
O O10 0.134715 0.206922 0.750000
O O11 0.096290 0.368556 0.896361
O O12 0.114329 0.101394 0.924525
O O13 0.876949 0.377547 0.033822
O O14 0.000000 0.500000 0.000000
O O15 0.223657 0.809070 0.917296
O O16 0.718113 0.125016 0.250000
#
# Coordination Sequence:
#
# PCOD9438568 Si02
#       7
#     8   8   8   8   8   4   8
#     4   9  16  27  50  83 119 159 207 259 312 367
#     4   9  17  29  49  82 120 161 208 258 311 368
#     4   9  17  33  57  85 118 161 210 258 307 366
#     4  10  22  43  69  96 129 169 215 259 312 378
#     4  11  25  45  67  96 132 166 208 259 318 386
#     4  12  24  40  66  94 128 164 204 262 322 380
#     4  10  21  37  58  87 125 165 210 258 311 375
#
# _framework density 20.680461999999999
#
# number of rings (size 3 to 8) (size 9 to 14) (size 15 to 20)
#    0.000    2.154    1.538    1.846    2.154    4.923 
#    0.000    1.538    0.000    5.538    0.000    0.000 
#    0.000    0.000    0.000    0.000    0.000    0.000 
#
# Total GULP energy -290786.683871 kJ/mol
# GULP energy per Si atom -5592.051613 kJ/mol
# Density = 2.063339 g / cm^3
# Si number density = 20.680462 Si / 1000 Ang^3
#
#
#
# Elastic Constant Matrix: (Units=GPa)
#
#
# Indices 1 2 3 4 5 6 
#
# 1 163.5558 67.0368 -6.0861 0.0000 0.0000 0.0000
# 2 67.0368 132.5823 -6.7138 0.0000 0.0000 0.0000
# 3 -6.0861 -6.7138 67.0257 0.0000 0.0000 0.0000
# 4 0.0000 0.0000 0.0000 19.9808 0.0000 0.0000
# 5 0.0000 0.0000 0.0000 0.0000 -6.4686 0.0000
# 6 0.0000 0.0000 0.0000 0.0000 0.0000 36.2068
#
#
#
# Elastic Compliance Matrix: (Units=1/GPa)
#
#
# Indices 1 2 3 4 5 6 
#
# 1 0.007719 -0.003887 0.000312 0.000000 0.000000 0.000000
# 2 -0.003887 0.009538 0.000602 0.000000 0.000000 0.000000
# 3 0.000312 0.000602 0.015008 0.000000 0.000000 0.000000
# 4 0.000000 0.000000 0.000000 0.050048 0.000000 0.000000
# 5 0.000000 0.000000 0.000000 0.000000 -0.154593 0.000000
# 6 0.000000 0.000000 0.000000 0.000000 0.000000 0.027619
#
#
# Mechanical properties :
#
#
# Convention : Reuss Voigt Hill
#
# Bulk Modulus (GPa) = 37.99472 52.40417 45.19945
# Shear Modulus (GPa) = -166.99686 30.53893 -68.22897
#
# Velocity S-wave (km/s) = -8.99591 3.84696 -5.75010
# Velocity P-wave (km/s) = 9.45990 6.71767 4.70970
#
# Compressibility (1/GPa) = 0.02631945
#
# Stress axis : x y z
#
# Youngs Moduli (GPa) = 129.55177 104.83936 66.62989
#
# Poissons Ratio (x) = 0.40752 -0.02076
# Poissons Ratio (y) = 0.50358 -0.04014
# Poissons Ratio (z) = -0.04036 -0.06316
#
# Static dielectric constant tensor:
#      x y z
#    x 1.695490 0.000000 0.000000 
#    y 0.000000 1.729380 0.000000 
#    z 0.000000 0.000000 1.774750 
# 
# From -- ./inp_files/22850.got.cif
#   From: 2010.05.17/outbox.cif.g08.bks.cpg/sg57_12_cif.got.tgz:22850.got - 2010.06.03 13:58:18.
