data_PCOD9438095
_publ_section_title
;
Structure prediction by ZEFSAII (Michael W. Deem and Ramdas Pophale) SiO2 
 PCOD9438095
Probable space group: P B C M
;
_chemical_formula_sum "Si O2"
_cell_formula_units_Z 60
_cell_length_a 11.451863
_cell_length_b 9.188293
_cell_length_c 25.880350
_cell_angle_alpha 90.000000
_cell_angle_beta 90.000000
_cell_angle_gamma 90.000000
_cell_volume 2723.209948
_symmetry_space_group_name_H-M "P B C M"
_symmetry_group_IT_number 57
_symmetry_cell_setting 'orthorhombic'
loop_
_space_group_symop_operation_xyz
x,y,z
-x,-y,1/2+z
x,1/2-y,-z
-x,1/2+y,1/2-z
-x,-y,-z
x,y,1/2-z
-x,1/2+y,z
x,1/2-y,1/2+z
loop_
_atom_site_type_symbol
_atom_site_label
_atom_site_fract_x
_atom_site_fract_y
_atom_site_fract_z
Si Si1 0.577430 0.623713 0.809038
Si Si2 0.729529 0.107529 0.367686
Si Si3 0.652891 0.548035 0.053551
Si Si4 0.821531 0.750000 0.000000
Si Si5 0.082732 0.370845 0.103038
Si Si6 0.174881 0.583739 0.859730
Si Si7 0.195195 0.306949 0.805443
Si Si8 0.467740 0.718337 0.585708
O O1 0.532557 0.609319 0.750000
O O2 0.654884 0.484111 0.826010
O O3 0.670139 0.756814 0.809869
O O4 0.489132 0.651988 0.856446
O O5 0.789959 0.252312 0.346434
O O6 0.637548 0.167402 0.409579
O O7 0.827548 0.005011 0.392235
O O8 0.734084 0.486316 0.099610
O O9 0.564846 0.412036 0.046779
O O10 0.581161 0.690428 0.070810
O O11 0.739339 0.609672 0.010408
O O12 0.898211 0.712933 0.950324
O O13 0.123204 0.264936 0.148887
O O14 0.951086 0.416857 0.113476
O O15 0.180300 0.477971 0.811211
O O16 0.153414 0.252560 0.750000
#
# Coordination Sequence:
#
# PCOD9438095 Si02
#       8
#     8   8   8   4   8   8   8   8
#     4  10  20  38  65  98 137 185 229 278 343 410
#     4  10  23  40  66  98 139 177 224 290 338 416
#     4  11  24  43  69  98 132 177 223 279 341 414
#     4  12  26  46  76 100 136 186 238 286 358 404
#     4  11  24  47  71 101 138 184 231 292 343 413
#     4  11  22  43  69 101 135 176 231 280 347 408
#     4  10  21  41  69  99 138 183 229 279 345 414
#     4  11  21  43  66  95 141 177 225 283 344 416
#
# _framework density 22.032821999999999
#
# number of rings (size 3 to 8) (size 9 to 14) (size 15 to 20)
#    0.000    1.333    4.000    1.600    0.000    2.667 
#    0.000    6.000    0.000    0.000    0.000    0.000 
#    0.000    0.000    0.000    0.000    0.000    0.000 
#
# Total GULP energy -335439.588919 kJ/mol
# GULP energy per Si atom -5590.659815 kJ/mol
# Density = 2.198267 g / cm^3
# Si number density = 22.032822 Si / 1000 Ang^3
#
#
#
# Elastic Constant Matrix: (Units=GPa)
#
#
# Indices 1 2 3 4 5 6 
#
# 1 81.3423 24.9291 16.8061 0.0000 0.0000 0.0000
# 2 24.9291 106.4723 29.0711 0.0000 0.0000 0.0000
# 3 16.8061 29.0711 77.9834 0.0000 0.0000 0.0000
# 4 0.0000 0.0000 0.0000 3.7116 0.0000 0.0000
# 5 0.0000 0.0000 0.0000 0.0000 5.3065 0.0000
# 6 0.0000 0.0000 0.0000 0.0000 0.0000 22.2501
#
#
#
# Elastic Compliance Matrix: (Units=1/GPa)
#
#
# Indices 1 2 3 4 5 6 
#
# 1 0.013499 -0.002634 -0.001927 0.000000 0.000000 0.000000
# 2 -0.002634 0.010971 -0.003522 0.000000 0.000000 0.000000
# 3 -0.001927 -0.003522 0.014551 0.000000 0.000000 0.000000
# 4 0.000000 0.000000 0.000000 0.269423 0.000000 0.000000
# 5 0.000000 0.000000 0.000000 0.000000 0.188448 0.000000
# 6 0.000000 0.000000 0.000000 0.000000 0.000000 0.044944
#
#
# Mechanical properties :
#
#
# Convention : Reuss Voigt Hill
#
# Bulk Modulus (GPa) = 43.75549 45.26785 44.51167
# Shear Modulus (GPa) = 8.83985 19.25309 14.04647
#
# Velocity S-wave (km/s) = 2.00520 2.95928 2.52766
# Velocity P-wave (km/s) = 5.02628 5.68038 5.36331
#
# Compressibility (1/GPa) = 0.02285427
#
# Stress axis : x y z
#
# Youngs Moduli (GPa) = 74.07797 91.15300 68.72151
#
# Poissons Ratio (x) = 0.24014 0.13243
# Poissons Ratio (y) = 0.19516 0.24203
# Poissons Ratio (z) = 0.14276 0.32103
#
# Static dielectric constant tensor:
#      x y z
#    x 1.821870 0.000000 0.000000 
#    y 0.000000 1.830750 0.000000 
#    z 0.000000 0.000000 1.778700 
# 
# From -- ./inp_files/28603.got.cif
#   From: 2010.05.17/outbox.cif.g08.bks.cpg/sg57_15_cif.got.tgz:28603.got - 2010.06.03 13:58:18.
