data_PCOD9438317
_publ_section_title
;
Structure prediction by ZEFSAII (Michael W. Deem and Ramdas Pophale) SiO2 
 PCOD9438317
Probable space group: P B C M
;
_chemical_formula_sum "Si O2"
_cell_formula_units_Z 64
_cell_length_a 5.059273
_cell_length_b 29.120695
_cell_length_c 23.029253
_cell_angle_alpha 90.000000
_cell_angle_beta 90.000000
_cell_angle_gamma 90.000000
_cell_volume 3392.889388
_symmetry_space_group_name_H-M "P B C M"
_symmetry_group_IT_number 57
_symmetry_cell_setting 'orthorhombic'
loop_
_space_group_symop_operation_xyz
x,y,z
-x,-y,1/2+z
x,1/2-y,-z
-x,1/2+y,1/2-z
-x,-y,-z
x,y,1/2-z
-x,1/2+y,z
x,1/2-y,1/2+z
loop_
_atom_site_type_symbol
_atom_site_label
_atom_site_fract_x
_atom_site_fract_y
_atom_site_fract_z
Si Si1 0.526867 0.568176 0.876268
Si Si2 0.637666 0.137223 0.179960
Si Si3 0.337667 0.271547 0.679571
Si Si4 0.702175 0.041136 0.984230
Si Si5 0.115208 0.986690 0.904086
Si Si6 0.139341 0.081322 0.319421
Si Si7 0.838723 0.283555 0.179779
Si Si8 0.968337 0.112599 0.819477
O O1 0.447410 0.577156 0.943573
O O2 0.641175 0.516113 0.878759
O O3 0.270825 0.579181 0.838012
O O4 0.765855 0.597423 0.851120
O O5 0.647354 0.142556 0.250000
O O6 0.487451 0.182716 0.158134
O O7 0.934021 0.122461 0.163997
O O8 0.437482 0.095712 0.166624
O O9 0.316945 0.276736 0.750000
O O10 0.541728 0.230787 0.666023
O O11 0.050389 0.254685 0.659215
O O12 0.809369 0.052091 0.048024
O O13 0.933664 0.021254 0.942621
O O14 0.500000 0.000000 0.000000
O O15 0.953713 0.963311 0.853202
O O16 0.119030 0.075252 0.250000
O O17 0.856989 0.283033 0.250000
O O18 0.900670 0.335375 0.162276
O O19 0.003665 0.111121 0.750000
#
# Coordination Sequence:
#
# PCOD9438317 Si02
#       8
#     8   8   8   8   8   8   8   8
#     4  11  21  37  53  74 104 143 182 225 267 311
#     4   9  18  31  46  71 105 141 171 210 255 309
#     4   9  15  27  47  66  94 137 180 207 246 306
#     4   9  20  38  60  76  97 135 185 237 274 293
#     4  10  21  38  57  79 102 144 180 231 267 313
#     4  10  21  33  49  76 112 142 170 207 263 329
#     4   9  17  28  45  69  97 138 178 210 249 306
#     4  11  22  34  49  76 115 147 176 217 265 321
#
# _framework density 18.86298
#
# number of rings (size 3 to 8) (size 9 to 14) (size 15 to 20)
#    0.000    2.250    1.250    1.875    3.500    6.000 
#    0.000    0.000    0.000    0.000    0.000    0.000 
#    0.000   15.000    0.000    0.000    0.000    0.000 
#
# Total GULP energy -356554.166895 kJ/mol
# GULP energy per Si atom -5571.158858 kJ/mol
# Density = 1.882005 g / cm^3
# Si number density = 18.862980 Si / 1000 Ang^3
#
#
#
# Elastic Constant Matrix: (Units=GPa)
#
#
# Indices 1 2 3 4 5 6 
#
# 1 69.2057 -10.9974 4.0032 0.0000 0.0000 0.0000
# 2 -10.9974 34.8329 13.2282 0.0000 0.0000 0.0000
# 3 4.0032 13.2282 34.3701 0.0000 0.0000 0.0000
# 4 0.0000 0.0000 0.0000 -2.6177 0.0000 0.0000
# 5 0.0000 0.0000 0.0000 0.0000 25.6225 0.0000
# 6 0.0000 0.0000 0.0000 0.0000 0.0000 20.5089
#
#
#
# Elastic Compliance Matrix: (Units=1/GPa)
#
#
# Indices 1 2 3 4 5 6 
#
# 1 0.015759 0.006644 -0.004393 0.000000 0.000000 0.000000
# 2 0.006644 0.036424 -0.014792 0.000000 0.000000 0.000000
# 3 -0.004393 -0.014792 0.035300 0.000000 0.000000 0.000000
# 4 0.000000 0.000000 0.000000 -0.382015 0.000000 0.000000
# 5 0.000000 0.000000 0.000000 0.000000 0.039028 0.000000
# 6 0.000000 0.000000 0.000000 0.000000 0.000000 0.048759
#
#
# Mechanical properties :
#
#
# Convention : Reuss Voigt Hill
#
# Bulk Modulus (GPa) = 16.02551 16.76408 16.39479
# Shear Modulus (GPa) = -31.08250 17.51440 -6.78405
#
# Velocity S-wave (km/s) = -4.06372 3.05045 -1.89850
# Velocity P-wave (km/s) = 3.67481 4.61666 1.97602
#
# Compressibility (1/GPa) = 0.06240052
#
# Stress axis : x y z
#
# Youngs Moduli (GPa) = 63.45381 27.45478 28.32869
#
# Poissons Ratio (x) = -0.18240 0.12443
# Poissons Ratio (y) = -0.42157 0.41905
# Poissons Ratio (z) = 0.27872 0.40612
#
# Static dielectric constant tensor:
#      x y z
#    x 1.707780 0.000000 0.000000 
#    y 0.000000 1.699370 0.000000 
#    z 0.000000 0.000000 1.657150 
# 
# From -- ./inp_files/26414.got.cif
#   From: 2010.05.17/outbox.cif.g08.bks.cpg/sg57_14_cif.got.tgz:26414.got - 2010.06.03 13:58:18.
