data_PCOD9438287
_publ_section_title
;
Structure prediction by ZEFSAII (Michael W. Deem and Ramdas Pophale) SiO2 
 PCOD9438287
Probable space group: P B C M
;
_chemical_formula_sum "Si O2"
_cell_formula_units_Z 40
_cell_length_a 14.357631
_cell_length_b 9.639268
_cell_length_c 14.089186
_cell_angle_alpha 90.000000
_cell_angle_beta 90.000000
_cell_angle_gamma 90.000000
_cell_volume 1949.901822
_symmetry_space_group_name_H-M "P B C M"
_symmetry_group_IT_number 57
_symmetry_cell_setting 'orthorhombic'
loop_
_space_group_symop_operation_xyz
x,y,z
-x,-y,1/2+z
x,1/2-y,-z
-x,1/2+y,1/2-z
-x,-y,-z
x,y,1/2-z
-x,1/2+y,z
x,1/2-y,1/2+z
loop_
_atom_site_type_symbol
_atom_site_label
_atom_site_fract_x
_atom_site_fract_y
_atom_site_fract_z
Si Si1 0.132970 0.715551 0.750000
Si Si2 0.077833 0.099355 0.456460
Si Si3 0.448215 0.794469 0.750000
Si Si4 0.988009 0.556260 0.250000
Si Si5 0.571084 0.386305 0.539471
Si Si6 0.250785 0.565750 0.913090
Si Si7 0.625101 0.527422 0.250000
O O1 0.043832 0.607563 0.750000
O O2 0.195595 0.675660 0.843538
O O3 0.090877 0.871542 0.750000
O O4 0.074695 0.250000 0.500000
O O5 0.059349 0.111127 0.344884
O O6 0.174397 0.020751 0.468746
O O7 0.000000 0.000000 0.500000
O O8 0.413232 0.864677 0.848081
O O9 0.425201 0.628191 0.750000
O O10 0.555369 0.844177 0.750000
O O11 0.521871 0.250000 0.500000
O O12 0.500000 0.500000 0.500000
O O13 0.669764 0.391299 0.486277
O O14 0.308058 0.471582 0.839810
#
# Coordination Sequence:
#
# PCOD9438287 Si02
#       7
#     4   8   4   4   8   8   4
#     4   9  20  38  72  91 130 175 218 277 351 398
#     4  11  24  44  70  99 135 182 231 281 351 411
#     4  12  22  44  69  98 129 184 226 274 346 415
#     4  10  20  42  65  93 126 170 220 278 334 396
#     4  12  24  42  68  97 136 177 229 282 344 410
#     4  10  22  41  63  98 138 172 217 284 341 399
#     4  11  22  44  70  96 135 175 228 279 349 413
#
# _framework density 20.513853999999998
#
# number of rings (size 3 to 8) (size 9 to 14) (size 15 to 20)
#    0.000    1.200    4.000    3.000    0.000    3.200 
#    3.600    1.000    0.000    0.000    0.000    0.000 
#    0.000    0.000    0.000    0.000    0.000    0.000 
#
# Total GULP energy -222948.312784 kJ/mol
# GULP energy per Si atom -5573.707820 kJ/mol
# Density = 2.046716 g / cm^3
# Si number density = 20.513854 Si / 1000 Ang^3
#
#
#
# Elastic Constant Matrix: (Units=GPa)
#
#
# Indices 1 2 3 4 5 6 
#
# 1 124.3028 66.0901 18.4804 0.0000 0.0000 0.0000
# 2 66.0901 111.4901 32.4796 0.0000 0.0000 0.0000
# 3 18.4804 32.4796 122.9360 0.0000 0.0000 0.0000
# 4 0.0000 0.0000 0.0000 17.7655 0.0000 0.0000
# 5 0.0000 0.0000 0.0000 0.0000 36.0040 0.0000
# 6 0.0000 0.0000 0.0000 0.0000 0.0000 34.7908
#
#
#
# Elastic Compliance Matrix: (Units=1/GPa)
#
#
# Indices 1 2 3 4 5 6 
#
# 1 0.011748 -0.006987 0.000080 0.000000 0.000000 0.000000
# 2 -0.006987 0.013873 -0.002615 0.000000 0.000000 0.000000
# 3 0.000080 -0.002615 0.008813 0.000000 0.000000 0.000000
# 4 0.000000 0.000000 0.000000 0.056289 0.000000 0.000000
# 5 0.000000 0.000000 0.000000 0.000000 0.027775 0.000000
# 6 0.000000 0.000000 0.000000 0.000000 0.000000 0.028743
#
#
# Mechanical properties :
#
#
# Convention : Reuss Voigt Hill
#
# Bulk Modulus (GPa) = 64.97788 65.86991 65.42390
# Shear Modulus (GPa) = 29.16881 33.82398 31.49639
#
# Velocity S-wave (km/s) = 3.77491 4.06499 3.92263
# Velocity P-wave (km/s) = 7.12347 7.36287 7.24416
#
# Compressibility (1/GPa) = 0.01538985
#
# Stress axis : x y z
#
# Youngs Moduli (GPa) = 85.12013 72.08101 113.46689
#
# Poissons Ratio (x) = 0.50366 -0.00908
# Poissons Ratio (y) = 0.59477 0.29671
# Poissons Ratio (z) = -0.00681 0.18849
#
# Static dielectric constant tensor:
#      x y z
#    x 1.753020 0.000000 0.000000 
#    y 0.000000 1.629360 0.000000 
#    z 0.000000 0.000000 1.660420 
# 
# From -- ./inp_files/18324.got.cif
#   From: 2010.05.17/outbox.cif.g08.bks.cpg/sg57_10_cif.got.tgz:18324.got - 2010.06.03 13:58:18.
