data_PCOD9438895
_publ_section_title
;
Structure prediction by ZEFSAII (Michael W. Deem and Ramdas Pophale) SiO2 
 PCOD9438895
Probable space group: P B C M
;
_chemical_formula_sum "Si O2"
_cell_formula_units_Z 40
_cell_length_a 9.743789
_cell_length_b 14.474474
_cell_length_c 12.020811
_cell_angle_alpha 90.000000
_cell_angle_beta 90.000000
_cell_angle_gamma 90.000000
_cell_volume 1695.369751
_symmetry_space_group_name_H-M "P B C M"
_symmetry_group_IT_number 57
_symmetry_cell_setting 'orthorhombic'
loop_
_space_group_symop_operation_xyz
x,y,z
-x,-y,1/2+z
x,1/2-y,-z
-x,1/2+y,1/2-z
-x,-y,-z
x,y,1/2-z
-x,1/2+y,z
x,1/2-y,1/2+z
loop_
_atom_site_type_symbol
_atom_site_label
_atom_site_fract_x
_atom_site_fract_y
_atom_site_fract_z
Si Si1 0.361280 0.857425 0.623905
Si Si2 0.015026 0.396736 0.085487
Si Si3 0.662005 0.698767 0.117638
Si Si4 0.239737 0.492963 0.525031
Si Si5 0.942617 0.195977 0.135887
O O1 0.364286 0.897606 0.750000
O O2 0.346171 0.934516 0.528203
O O3 0.496795 0.796342 0.615158
O O4 0.220193 0.798945 0.616510
O O5 0.874697 0.453315 0.098576
O O6 0.005206 0.297502 0.140478
O O7 0.153666 0.455037 0.083957
O O8 0.702257 0.721417 0.250000
O O9 0.697017 0.591532 0.092565
O O10 0.709862 0.750000 0.000000
O O11 0.008880 0.363885 0.542170
O O12 0.966070 0.145392 0.250000
#
# Coordination Sequence:
#
# PCOD9438895 Si02
#       5
#     8   8   8   8   8
#     4   9  20  40  63  91 125 169 218 267 323 385
#     4   9  20  35  58  90 123 163 210 262 320 379
#     4  11  26  44  66  96 131 174 220 273 328 387
#     4  10  21  39  60  89 126 162 210 271 325 387
#     4   9  18  34  59  86 122 167 209 256 310 384
#
# _framework density 23.593672999999999
#
# number of rings (size 3 to 8) (size 9 to 14) (size 15 to 20)
#    0.000    2.400    0.000    0.600    8.400    3.200 
#    0.000    5.000    0.000    0.000    0.000    0.000 
#    0.000    0.000    0.000    0.000    0.000    0.000 
#
# Total GULP energy -222782.548991 kJ/mol
# GULP energy per Si atom -5569.563725 kJ/mol
# Density = 2.353997 g / cm^3
# Si number density = 23.593673 Si / 1000 Ang^3
#
#
#
# Elastic Constant Matrix: (Units=GPa)
#
#
# Indices 1 2 3 4 5 6 
#
# 1 76.8505 -3.8788 6.3789 0.0000 0.0000 0.0000
# 2 -3.8788 62.4262 26.4190 0.0000 0.0000 0.0000
# 3 6.3789 26.4190 159.4974 0.0000 0.0000 0.0000
# 4 0.0000 0.0000 0.0000 -565.0893 0.0000 0.0000
# 5 0.0000 0.0000 0.0000 0.0000 15.0892 0.0000
# 6 0.0000 0.0000 0.0000 0.0000 0.0000 29.3901
#
#
#
# Elastic Compliance Matrix: (Units=1/GPa)
#
#
# Indices 1 2 3 4 5 6 
#
# 1 0.013128 0.001116 -0.000710 0.000000 0.000000 0.000000
# 2 0.001116 0.017321 -0.002914 0.000000 0.000000 0.000000
# 3 -0.000710 -0.002914 0.006781 0.000000 0.000000 0.000000
# 4 0.000000 0.000000 0.000000 -0.001770 0.000000 0.000000
# 5 0.000000 0.000000 0.000000 0.000000 0.066272 0.000000
# 6 0.000000 0.000000 0.000000 0.000000 0.000000 0.034025
#
#
# Mechanical properties :
#
#
# Convention : Reuss Voigt Hill
#
# Bulk Modulus (GPa) = 31.04186 39.62359 35.33273
# Shear Modulus (GPa) = 33.00098 -86.13165 -26.56533
#
# Velocity S-wave (km/s) = 3.74401 -6.04860 -3.35916
# Velocity P-wave (km/s) = 5.64584 5.65244 0.19303
#
# Compressibility (1/GPa) = 0.03221456
#
# Stress axis : x y z
#
# Youngs Moduli (GPa) = 76.17577 57.73218 147.47708
#
# Poissons Ratio (x) = -0.06443 0.10469
# Poissons Ratio (y) = -0.08502 0.42971
# Poissons Ratio (z) = 0.05408 0.16822
#
# Static dielectric constant tensor:
#      x y z
#    x 1.957740 0.000000 0.000000 
#    y 0.000000 1.904970 0.000000 
#    z 0.000000 0.000000 2.006180 
# 
# From -- ./inp_files/16138.got.cif
#   From: 2010.05.17/outbox.cif.g08.bks.cpg/sg57_9_cif.got.tgz:16138.got - 2010.06.03 13:58:18.
