data_PCOD9438083
_publ_section_title
;
Structure prediction by ZEFSAII (Michael W. Deem and Ramdas Pophale) SiO2 
 PCOD9438083
Probable space group: P B C M
;
_chemical_formula_sum "Si O2"
_cell_formula_units_Z 64
_cell_length_a 12.872053
_cell_length_b 15.767628
_cell_length_c 15.149270
_cell_angle_alpha 90.000000
_cell_angle_beta 90.000000
_cell_angle_gamma 90.000000
_cell_volume 3074.722249
_symmetry_space_group_name_H-M "P B C M"
_symmetry_group_IT_number 57
_symmetry_cell_setting 'orthorhombic'
loop_
_space_group_symop_operation_xyz
x,y,z
-x,-y,1/2+z
x,1/2-y,-z
-x,1/2+y,1/2-z
-x,-y,-z
x,y,1/2-z
-x,1/2+y,z
x,1/2-y,1/2+z
loop_
_atom_site_type_symbol
_atom_site_label
_atom_site_fract_x
_atom_site_fract_y
_atom_site_fract_z
Si Si1 0.077017 0.642031 0.353433
Si Si2 0.319241 0.190265 0.913020
Si Si3 0.995992 0.036857 0.856465
Si Si4 0.274155 0.742960 0.142368
Si Si5 0.495187 0.302018 0.648094
Si Si6 0.244389 0.560578 0.855125
Si Si7 0.910478 0.717567 0.599859
Si Si8 0.601188 0.949481 0.970139
O O1 0.097138 0.626985 0.250000
O O2 0.047335 0.550076 0.391055
O O3 0.181088 0.684036 0.392095
O O4 0.984312 0.711345 0.356952
O O5 0.420041 0.220565 0.859782
O O6 0.208359 0.206838 0.867114
O O7 0.317887 0.250000 0.000000
O O8 0.337654 0.095598 0.949169
O O9 0.011534 0.043301 0.750000
O O10 0.038256 0.124838 0.894968
O O11 0.872954 0.030496 0.870201
O O12 0.273144 0.738479 0.250000
O O13 0.389260 0.716924 0.113529
O O14 0.252009 0.840419 0.121354
O O15 0.502878 0.327239 0.750000
O O16 0.441280 0.374945 0.592334
O O17 0.267235 0.551727 0.750000
O O18 0.322748 0.507615 0.913849
O O19 0.903952 0.750000 0.500000
O O20 0.500000 0.000000 0.000000
#
# Coordination Sequence:
#
# PCOD9438083 Si02
#       8
#     8   8   8   8   8   8   8   8
#     4  10  21  39  63  88 120 162 204 258 318 369
#     4   9  22  40  57  85 124 158 198 255 308 369
#     4  10  22  39  63  94 122 159 214 263 311 375
#     4   9  18  37  61  89 123 153 201 261 307 362
#     4  10  21  39  64  89 114 161 215 256 309 378
#     4  10  20  38  65  92 120 161 215 260 300 376
#     4  11  23  40  58  90 129 163 202 255 319 382
#     4  11  23  40  58  88 125 163 203 256 322 376
#
# _framework density 20.814888
#
# number of rings (size 3 to 8) (size 9 to 14) (size 15 to 20)
#    0.000    2.000    1.250    1.500    5.250    2.500 
#    2.250    1.250    0.000    0.000    0.000    0.000 
#    0.000    0.000    0.000    0.000    0.000    0.000 
#
# Total GULP energy -357473.798607 kJ/mol
# GULP energy per Si atom -5585.528103 kJ/mol
# Density = 2.076751 g / cm^3
# Si number density = 20.814888 Si / 1000 Ang^3
#
#
#
# Elastic Constant Matrix: (Units=GPa)
#
#
# Indices 1 2 3 4 5 6 
#
# 1 150.5815 77.1435 30.9160 0.0000 0.0000 0.0000
# 2 77.1435 159.1019 29.0671 0.0000 0.0000 0.0000
# 3 30.9160 29.0671 38.5277 0.0000 0.0000 0.0000
# 4 0.0000 0.0000 0.0000 -13.9728 0.0000 0.0000
# 5 0.0000 0.0000 0.0000 0.0000 -15.4936 0.0000
# 6 0.0000 0.0000 0.0000 0.0000 0.0000 40.3087
#
#
#
# Elastic Compliance Matrix: (Units=1/GPa)
#
#
# Indices 1 2 3 4 5 6 
#
# 1 0.009555 -0.003749 -0.004839 0.000000 0.000000 0.000000
# 2 -0.003749 0.008761 -0.003601 0.000000 0.000000 0.000000
# 3 -0.004839 -0.003601 0.032555 0.000000 0.000000 0.000000
# 4 0.000000 0.000000 0.000000 -0.071568 0.000000 0.000000
# 5 0.000000 0.000000 0.000000 0.000000 -0.064543 0.000000
# 6 0.000000 0.000000 0.000000 0.000000 0.000000 0.024809
#
#
# Mechanical properties :
#
#
# Convention : Reuss Voigt Hill
#
# Bulk Modulus (GPa) = 37.74608 69.16269 53.45438
# Shear Modulus (GPa) = -183.68185 16.24076 -83.72055
#
# Velocity S-wave (km/s) = -9.40409 2.79632 -6.34892
# Velocity P-wave (km/s) = 9.98711 6.61253 5.29230
#
# Compressibility (1/GPa) = 0.02649282
#
# Stress axis : x y z
#
# Youngs Moduli (GPa) = 104.65774 114.14299 30.71690
#
# Poissons Ratio (x) = 0.42790 0.14864
# Poissons Ratio (y) = 0.39235 0.11063
# Poissons Ratio (z) = 0.50643 0.41108
#
# Static dielectric constant tensor:
#      x y z
#    x 1.749590 0.000000 0.000000 
#    y 0.000000 1.738420 0.000000 
#    z 0.000000 0.000000 1.682240 
# 
# From -- ./inp_files/22064.got.cif
#   From: 2010.05.17/outbox.cif.g08.bks.cpg/sg57_12_cif.got.tgz:22064.got - 2010.06.03 13:58:18.
