data_PCOD9438439
_publ_section_title
;
Structure prediction by ZEFSAII (Michael W. Deem and Ramdas Pophale) SiO2 
 PCOD9438439
Probable space group: P B C M
;
_chemical_formula_sum "Si O2"
_cell_formula_units_Z 48
_cell_length_a 6.518462
_cell_length_b 8.933470
_cell_length_c 32.900188
_cell_angle_alpha 90.000000
_cell_angle_beta 90.000000
_cell_angle_gamma 90.000000
_cell_volume 1915.859695
_symmetry_space_group_name_H-M "P B C M"
_symmetry_group_IT_number 57
_symmetry_cell_setting 'orthorhombic'
loop_
_space_group_symop_operation_xyz
x,y,z
-x,-y,1/2+z
x,1/2-y,-z
-x,1/2+y,1/2-z
-x,-y,-z
x,y,1/2-z
-x,1/2+y,z
x,1/2-y,1/2+z
loop_
_atom_site_type_symbol
_atom_site_label
_atom_site_fract_x
_atom_site_fract_y
_atom_site_fract_z
Si Si1 0.787136 0.529566 0.834193
Si Si2 0.482494 0.753337 0.832488
Si Si3 0.014111 0.920148 0.750000
Si Si4 0.354798 0.109659 0.973843
Si Si5 0.036044 0.928029 0.579871
Si Si6 0.712427 0.140816 0.913590
Si Si7 0.710719 0.143437 0.750000
O O1 0.716609 0.701584 0.837419
O O2 0.582394 0.425528 0.834846
O O3 0.895501 0.488798 0.791945
O O4 0.906824 0.483528 0.874550
O O5 0.348666 0.674481 0.867527
O O6 0.413187 0.690391 0.789283
O O7 0.778056 0.970807 0.750000
O O8 0.084990 0.748448 0.750000
O O9 0.175646 0.015225 0.952777
O O10 0.509351 0.170510 0.939291
O O11 0.278446 0.250000 0.000000
O O12 0.500000 0.000000 0.000000
O O13 0.800827 0.977307 0.576429
O O14 0.105946 0.757335 0.576241
#
# Coordination Sequence:
#
# PCOD9438439 Si02
#       7
#     8   8   4   8   8   8   4
#     4  10  21  38  61  90 125 166 209 257 308 368
#     4  10  21  38  61  90 126 165 211 255 309 369
#     4  10  21  36  56  88 126 162 211 255 303 363
#     4  12  26  46  68  94 129 165 210 264 326 389
#     4  11  25  43  67  97 130 169 212 262 319 380
#     4  11  25  43  67  98 129 169 214 260 320 381
#     4  10  21  36  56  88 126 164 209 257 301 365
#
# _framework density 25.054027000000001
#
# number of rings (size 3 to 8) (size 9 to 14) (size 15 to 20)
#    0.000    1.333    3.333    1.500    2.333    4.000 
#    0.000    0.000    0.000    0.000    0.000    0.000 
#    0.000    0.000    0.000    0.000    0.000    0.000 
#
# Total GULP energy -268852.854243 kJ/mol
# GULP energy per Si atom -5601.101130 kJ/mol
# Density = 2.499700 g / cm^3
# Si number density = 25.054027 Si / 1000 Ang^3
#
#
#
# Elastic Constant Matrix: (Units=GPa)
#
#
# Indices 1 2 3 4 5 6 
#
# 1 24.2224 16.0073 19.3863 0.0000 0.0000 0.0000
# 2 16.0073 67.3474 26.6246 0.0000 0.0000 0.0000
# 3 19.3863 26.6246 110.6038 0.0000 0.0000 0.0000
# 4 0.0000 0.0000 0.0000 34.1245 0.0000 0.0000
# 5 0.0000 0.0000 0.0000 0.0000 7.0753 0.0000
# 6 0.0000 0.0000 0.0000 0.0000 0.0000 55.0601
#
#
#
# Elastic Compliance Matrix: (Units=1/GPa)
#
#
# Indices 1 2 3 4 5 6 
#
# 1 0.053436 -0.009945 -0.006972 0.000000 0.000000 0.000000
# 2 -0.009945 0.018261 -0.002653 0.000000 0.000000 0.000000
# 3 -0.006972 -0.002653 0.010902 0.000000 0.000000 0.000000
# 4 0.000000 0.000000 0.000000 0.029304 0.000000 0.000000
# 5 0.000000 0.000000 0.000000 0.000000 0.141336 0.000000
# 6 0.000000 0.000000 0.000000 0.000000 0.000000 0.018162
#
#
# Mechanical properties :
#
#
# Convention : Reuss Voigt Hill
#
# Bulk Modulus (GPa) = 23.00974 36.24557 29.62765
# Shear Modulus (GPa) = 15.38334 28.59568 21.98951
#
# Velocity S-wave (km/s) = 2.48060 3.38207 2.96579
# Velocity P-wave (km/s) = 4.17235 5.45432 4.85582
#
# Compressibility (1/GPa) = 0.04345986
#
# Stress axis : x y z
#
# Youngs Moduli (GPa) = 18.71390 54.76238 91.72690
#
# Poissons Ratio (x) = 0.54458 0.63955
# Poissons Ratio (y) = 0.18610 0.24332
# Poissons Ratio (z) = 0.13048 0.14527
#
# Static dielectric constant tensor:
#      x y z
#    x 1.953730 0.000000 0.000000 
#    y 0.000000 1.945020 0.000000 
#    z 0.000000 0.000000 1.968780 
# 
# From -- ./inp_files/29524.got.cif
#   From: 2010.05.17/outbox.cif.g08.bks.cpg/sg57_15_cif.got.tgz:29524.got - 2010.06.03 13:58:18.
