data_PCOD9438076
_publ_section_title
;
Structure prediction by ZEFSAII (Michael W. Deem and Ramdas Pophale) SiO2 
 PCOD9438076
Probable space group: P B C M
;
_chemical_formula_sum "Si O2"
_cell_formula_units_Z 40
_cell_length_a 14.751015
_cell_length_b 9.421047
_cell_length_c 14.229024
_cell_angle_alpha 90.000000
_cell_angle_beta 90.000000
_cell_angle_gamma 90.000000
_cell_volume 1977.407545
_symmetry_space_group_name_H-M "P B C M"
_symmetry_group_IT_number 57
_symmetry_cell_setting 'orthorhombic'
loop_
_space_group_symop_operation_xyz
x,y,z
-x,-y,1/2+z
x,1/2-y,-z
-x,1/2+y,1/2-z
-x,-y,-z
x,y,1/2-z
-x,1/2+y,z
x,1/2-y,1/2+z
loop_
_atom_site_type_symbol
_atom_site_label
_atom_site_fract_x
_atom_site_fract_y
_atom_site_fract_z
Si Si1 0.629624 0.863135 0.432055
Si Si2 0.282311 0.887505 0.446802
Si Si3 0.373480 0.850110 0.250000
Si Si4 0.105910 0.026840 0.492799
Si Si5 0.548463 0.024913 0.250000
Si Si6 0.821310 0.725308 0.639540
O O1 0.577795 0.750000 0.500000
O O2 0.584128 0.945243 0.344824
O O3 0.715265 0.779079 0.387545
O O4 0.670069 0.980369 0.502405
O O5 0.315703 0.750000 0.500000
O O6 0.311467 0.868514 0.340617
O O7 0.174330 0.904366 0.460656
O O8 0.443290 0.982248 0.250000
O O9 0.423071 0.692691 0.250000
O O10 0.129021 0.150198 0.417402
O O11 0.138946 0.081640 0.594678
O O12 0.000000 0.000000 0.500000
O O13 0.833043 0.736637 0.750000
#
# Coordination Sequence:
#
# PCOD9438076 Si02
#       6
#     8   8   4   8   4   8
#     4  11  22  43  72  98 133 185 223 285 347 413
#     4  11  24  45  68  96 142 181 226 285 355 403
#     4  12  30  46  70 105 137 184 234 289 349 416
#     4  10  23  40  62  96 134 174 225 285 338 416
#     4  12  28  46  70 105 141 174 244 291 335 426
#     4  10  20  38  64  93 126 171 229 274 345 410
#
# _framework density 20.228504999999998
#
# number of rings (size 3 to 8) (size 9 to 14) (size 15 to 20)
#    0.000    1.200    7.000    0.000    7.000    2.400 
#    0.000    0.000    0.000    0.000    0.000    0.000 
#    0.000    0.000    0.000    0.000    0.000    0.000 
#
# Total GULP energy -223226.459527 kJ/mol
# GULP energy per Si atom -5580.661488 kJ/mol
# Density = 2.018246 g / cm^3
# Si number density = 20.228505 Si / 1000 Ang^3
#
#
#
# Elastic Constant Matrix: (Units=GPa)
#
#
# Indices 1 2 3 4 5 6 
#
# 1 41.7576 23.5861 27.2177 0.0000 0.0000 0.0000
# 2 23.5861 85.8497 44.9539 0.0000 0.0000 0.0000
# 3 27.2177 44.9539 185.5135 0.0000 0.0000 0.0000
# 4 0.0000 0.0000 0.0000 28.8446 0.0000 0.0000
# 5 0.0000 0.0000 0.0000 0.0000 3.2149 0.0000
# 6 0.0000 0.0000 0.0000 0.0000 0.0000 20.9818
#
#
#
# Elastic Compliance Matrix: (Units=1/GPa)
#
#
# Indices 1 2 3 4 5 6 
#
# 1 0.029487 -0.006684 -0.002707 0.000000 0.000000 0.000000
# 2 -0.006684 0.014856 -0.002619 0.000000 0.000000 0.000000
# 3 -0.002707 -0.002619 0.006422 0.000000 0.000000 0.000000
# 4 0.000000 0.000000 0.000000 0.034669 0.000000 0.000000
# 5 0.000000 0.000000 0.000000 0.000000 0.311051 0.000000
# 6 0.000000 0.000000 0.000000 0.000000 0.000000 0.047660
#
#
# Mechanical properties :
#
#
# Convention : Reuss Voigt Hill
#
# Bulk Modulus (GPa) = 37.38893 56.07070 46.72981
# Shear Modulus (GPa) = 10.48042 25.09914 17.78978
#
# Velocity S-wave (km/s) = 2.27865 3.52629 2.96875
# Velocity P-wave (km/s) = 5.04445 6.66022 5.90783
#
# Compressibility (1/GPa) = 0.02674588
#
# Stress axis : x y z
#
# Youngs Moduli (GPa) = 33.91304 67.31207 155.70852
#
# Poissons Ratio (x) = 0.44991 0.42143
# Poissons Ratio (y) = 0.22667 0.40785
# Poissons Ratio (z) = 0.09179 0.17631
#
# Static dielectric constant tensor:
#      x y z
#    x 1.749040 0.000000 0.000000 
#    y 0.000000 1.792890 0.000000 
#    z 0.000000 0.000000 1.646650 
# 
# From -- ./inp_files/18281.got.cif
#   From: 2010.05.17/outbox.cif.g08.bks.cpg/sg57_10_cif.got.tgz:18281.got - 2010.06.03 13:58:18.
