data_PCOD9438312
_publ_section_title
;
Structure prediction by ZEFSAII (Michael W. Deem and Ramdas Pophale) SiO2 
 PCOD9438312
Probable space group: P B C M
;
_chemical_formula_sum "Si O2"
_cell_formula_units_Z 56
_cell_length_a 15.111413
_cell_length_b 9.104331
_cell_length_c 19.942257
_cell_angle_alpha 90.000000
_cell_angle_beta 90.000000
_cell_angle_gamma 90.000000
_cell_volume 2743.641875
_symmetry_space_group_name_H-M "P B C M"
_symmetry_group_IT_number 57
_symmetry_cell_setting 'orthorhombic'
loop_
_space_group_symop_operation_xyz
x,y,z
-x,-y,1/2+z
x,1/2-y,-z
-x,1/2+y,1/2-z
-x,-y,-z
x,y,1/2-z
-x,1/2+y,z
x,1/2-y,1/2+z
loop_
_atom_site_type_symbol
_atom_site_label
_atom_site_fract_x
_atom_site_fract_y
_atom_site_fract_z
Si Si1 0.613134 0.979422 0.537023
Si Si2 0.875217 0.958074 0.750000
Si Si3 0.823987 0.576906 0.873101
Si Si4 0.624580 0.977883 0.375487
Si Si5 0.905835 0.422467 0.501630
Si Si6 0.795674 0.586124 0.392200
Si Si7 0.481395 0.747497 0.397137
Si Si8 0.948312 0.630365 0.750000
O O1 0.580101 0.137014 0.563470
O O2 0.632703 0.976838 0.457704
O O3 0.697146 0.931572 0.580357
O O4 0.537173 0.862394 0.555272
O O5 0.813935 0.955285 0.684537
O O6 0.931066 0.805336 0.750000
O O7 0.949333 0.084673 0.750000
O O8 0.723504 0.546512 0.849145
O O9 0.823642 0.744123 0.900375
O O10 0.896568 0.569131 0.814780
O O11 0.851429 0.470172 0.932831
O O12 0.554754 0.847746 0.359695
O O13 0.580693 0.133938 0.356901
O O14 0.917262 0.250000 0.500000
O O15 0.853928 0.480143 0.437428
O O16 0.000000 0.500000 0.500000
#
# Coordination Sequence:
#
# PCOD9438312 Si02
#       8
#     8   4   8   8   8   8   8   4
#     4  11  19  33  56  89 129 164 210 251 318 359
#     4  10  24  46  68  91 119 168 216 257 315 390
#     4  11  23  40  66  93 130 165 211 263 314 376
#     4  11  19  33  56  89 129 164 210 251 318 359
#     4  12  26  42  64  95 128 159 201 263 330 381
#     4  11  23  40  66  93 130 165 211 263 314 376
#     4  10  21  32  54  89 128 171 204 257 302 381
#     4  10  24  46  68  91 119 168 216 257 315 390
#
# _framework density 20.410827999999999
#
# number of rings (size 3 to 8) (size 9 to 14) (size 15 to 20)
#    0.000    1.143    2.857    5.571    2.000    3.429 
#    0.000    0.000    0.000    5.143    0.000    0.000 
#    0.000    0.000    0.000    0.000    0.000    0.000 
#
# Total GULP energy -313101.740466 kJ/mol
# GULP energy per Si atom -5591.102508 kJ/mol
# Density = 2.036437 g / cm^3
# Si number density = 20.410828 Si / 1000 Ang^3
#
#
#
# Elastic Constant Matrix: (Units=GPa)
#
#
# Indices 1 2 3 4 5 6 
#
# 1 62.1428 22.5710 16.7185 0.0000 0.0000 0.0000
# 2 22.5710 130.9837 23.9819 0.0000 0.0000 0.0000
# 3 16.7185 23.9819 60.9758 0.0000 0.0000 0.0000
# 4 0.0000 0.0000 0.0000 -42.9995 0.0000 0.0000
# 5 0.0000 0.0000 0.0000 0.0000 16.0459 0.0000
# 6 0.0000 0.0000 0.0000 0.0000 0.0000 32.3564
#
#
#
# Elastic Compliance Matrix: (Units=1/GPa)
#
#
# Indices 1 2 3 4 5 6 
#
# 1 0.018033 -0.002373 -0.004011 0.000000 0.000000 0.000000
# 2 -0.002373 0.008539 -0.002708 0.000000 0.000000 0.000000
# 3 -0.004011 -0.002708 0.018565 0.000000 0.000000 0.000000
# 4 0.000000 0.000000 0.000000 -0.023256 0.000000 0.000000
# 5 0.000000 0.000000 0.000000 0.000000 0.062321 0.000000
# 6 0.000000 0.000000 0.000000 0.000000 0.000000 0.030906
#
#
# Mechanical properties :
#
#
# Convention : Reuss Voigt Hill
#
# Bulk Modulus (GPa) = 37.10147 42.29390 39.69768
# Shear Modulus (GPa) = 35.14294 13.80263 24.47278
#
# Velocity S-wave (km/s) = 4.15393 2.60328 3.46643
# Velocity P-wave (km/s) = 6.42057 5.45916 5.95928
#
# Compressibility (1/GPa) = 0.02695311
#
# Stress axis : x y z
#
# Youngs Moduli (GPa) = 55.45389 117.10639 53.86562
#
# Poissons Ratio (x) = 0.27790 0.21606
# Poissons Ratio (y) = 0.13160 0.14586
# Poissons Ratio (z) = 0.22243 0.31711
#
# Static dielectric constant tensor:
#      x y z
#    x 1.664390 0.000000 0.000000 
#    y 0.000000 1.733300 0.000000 
#    z 0.000000 0.000000 1.712780 
# 
# From -- ./inp_files/25433.got.cif
#   From: 2010.05.17/outbox.cif.g08.bks.cpg/sg57_13_cif.got.tgz:25433.got - 2010.06.03 13:58:18.
