data_PCOD9438473
_publ_section_title
;
Structure prediction by ZEFSAII (Michael W. Deem and Ramdas Pophale) SiO2 
 PCOD9438473
Probable space group: P B C M
;
_chemical_formula_sum "Si O2"
_cell_formula_units_Z 48
_cell_length_a 15.572746
_cell_length_b 16.512546
_cell_length_c 10.133507
_cell_angle_alpha 90.000000
_cell_angle_beta 90.000000
_cell_angle_gamma 90.000000
_cell_volume 2605.787596
_symmetry_space_group_name_H-M "P B C M"
_symmetry_group_IT_number 57
_symmetry_cell_setting 'orthorhombic'
loop_
_space_group_symop_operation_xyz
x,y,z
-x,-y,1/2+z
x,1/2-y,-z
-x,1/2+y,1/2-z
-x,-y,-z
x,y,1/2-z
-x,1/2+y,z
x,1/2-y,1/2+z
loop_
_atom_site_type_symbol
_atom_site_label
_atom_site_fract_x
_atom_site_fract_y
_atom_site_fract_z
Si Si1 0.152969 0.331443 0.750000
Si Si2 0.789127 0.922353 0.487232
Si Si3 0.375096 0.174097 0.596916
Si Si4 0.113381 0.149810 0.750000
Si Si5 0.968732 0.272440 0.750000
Si Si6 0.253683 0.905613 0.093285
Si Si7 0.429574 0.672795 0.905231
Si Si8 0.852067 0.250000 0.000000
O O1 0.189841 0.373077 0.620324
O O2 0.168029 0.234365 0.750000
O O3 0.048827 0.334232 0.750000
O O4 0.697881 0.891045 0.432747
O O5 0.860307 0.899271 0.379018
O O6 0.782746 0.016688 0.518920
O O7 0.361800 0.250000 0.500000
O O8 0.370163 0.199653 0.750000
O O9 0.472686 0.143513 0.575173
O O10 0.016939 0.184566 0.750000
O O11 0.911783 0.278633 0.879699
O O12 0.242048 0.917333 0.250000
O O13 0.354973 0.891655 0.067480
O O14 0.205959 0.823986 0.049709
O O15 0.420438 0.696204 0.750000
O O16 0.417409 0.750000 0.000000
#
# Coordination Sequence:
#
# PCOD9438473 Si02
#       8
#     4   8   8   4   4   8   8   4
#     4  10  22  41  68  88 128 167 199 255 327 380
#     4  12  22  39  63  97 131 168 205 258 314 368
#     4  10  21  36  61  95 129 167 216 250 305 374
#     4  10  22  41  64  94 128 157 207 255 313 386
#     4  10  24  42  70  94 116 166 208 252 322 390
#     4  11  24  42  65  94 131 163 216 263 310 370
#     4   9  19  39  61  89 126 168 211 262 302 358
#     4  12  22  46  70  88 120 166 212 260 312 390
#
# _framework density 18.420534
#
# number of rings (size 3 to 8) (size 9 to 14) (size 15 to 20)
#    0.500    1.000    3.333    2.500    1.167    1.333 
#    1.500    5.000    0.000    0.000    0.000    0.000 
#    0.000    0.000    0.000    0.000    0.000    0.000 
#
# Total GULP energy -267895.545419 kJ/mol
# GULP energy per Si atom -5581.157196 kJ/mol
# Density = 1.837861 g / cm^3
# Si number density = 18.420534 Si / 1000 Ang^3
#
#
#
# Elastic Constant Matrix: (Units=GPa)
#
#
# Indices 1 2 3 4 5 6 
#
# 1 62.1096 -0.4472 6.8716 0.0000 0.0000 0.0000
# 2 -0.4472 60.0401 4.7372 0.0000 0.0000 0.0000
# 3 6.8716 4.7372 86.4442 0.0000 0.0000 0.0000
# 4 0.0000 0.0000 0.0000 27.4686 0.0000 0.0000
# 5 0.0000 0.0000 0.0000 0.0000 26.0896 0.0000
# 6 0.0000 0.0000 0.0000 0.0000 0.0000 3.9777
#
#
#
# Elastic Compliance Matrix: (Units=1/GPa)
#
#
# Indices 1 2 3 4 5 6 
#
# 1 0.016246 0.000224 -0.001304 0.000000 0.000000 0.000000
# 2 0.000224 0.016731 -0.000935 0.000000 0.000000 0.000000
# 3 -0.001304 -0.000935 0.011723 0.000000 0.000000 0.000000
# 4 0.000000 0.000000 0.000000 0.036405 0.000000 0.000000
# 5 0.000000 0.000000 0.000000 0.000000 0.038329 0.000000
# 6 0.000000 0.000000 0.000000 0.000000 0.000000 0.251401
#
#
# Mechanical properties :
#
#
# Convention : Reuss Voigt Hill
#
# Bulk Modulus (GPa) = 24.58734 25.65747 25.12241
# Shear Modulus (GPa) = 12.87260 24.66934 18.77097
#
# Velocity S-wave (km/s) = 2.64638 3.66352 3.19568
# Velocity P-wave (km/s) = 4.76598 5.64395 5.22344
#
# Compressibility (1/GPa) = 0.04067133
#
# Stress axis : x y z
#
# Youngs Moduli (GPa) = 61.55200 59.76949 85.30230
#
# Poissons Ratio (x) = -0.01338 0.11121
# Poissons Ratio (y) = -0.01378 0.07973
# Poissons Ratio (z) = 0.08025 0.05586
#
# Static dielectric constant tensor:
#      x y z
#    x 1.653490 0.000000 0.000000 
#    y 0.000000 1.594550 0.000000 
#    z 0.000000 0.000000 1.613200 
# 
# From -- ./inp_files/6639.got.cif
#   From: 2010.05.17/outbox.cif.g08.bks.cpg/sg57_4_cif.got.tgz:6639.got - 2010.06.03 13:58:18.
