data_PCOD9438853
_publ_section_title
;
Structure prediction by ZEFSAII (Michael W. Deem and Ramdas Pophale) SiO2 
 PCOD9438853
Probable space group: P B C M
;
_chemical_formula_sum "Si O2"
_cell_formula_units_Z 60
_cell_length_a 7.334232
_cell_length_b 13.753058
_cell_length_c 23.655370
_cell_angle_alpha 90.000000
_cell_angle_beta 90.000000
_cell_angle_gamma 90.000000
_cell_volume 2386.072654
_symmetry_space_group_name_H-M "P B C M"
_symmetry_group_IT_number 57
_symmetry_cell_setting 'orthorhombic'
loop_
_space_group_symop_operation_xyz
x,y,z
-x,-y,1/2+z
x,1/2-y,-z
-x,1/2+y,1/2-z
-x,-y,-z
x,y,1/2-z
-x,1/2+y,z
x,1/2-y,1/2+z
loop_
_atom_site_type_symbol
_atom_site_label
_atom_site_fract_x
_atom_site_fract_y
_atom_site_fract_z
Si Si1 0.501831 0.860178 0.048823
Si Si2 0.262839 0.647237 0.654640
Si Si3 0.446469 0.418291 0.572171
Si Si4 0.953003 0.507962 0.090085
Si Si5 0.648849 0.836615 0.690480
Si Si6 0.480004 0.347519 0.250000
Si Si7 0.950903 0.181397 0.151778
Si Si8 0.909953 0.686125 0.948014
O O1 0.350291 0.827493 0.093289
O O2 0.693108 0.808567 0.057184
O O3 0.525192 0.973601 0.066163
O O4 0.469648 0.860690 0.981159
O O5 0.122342 0.560268 0.641114
O O6 0.402246 0.602408 0.699261
O O7 0.197259 0.750537 0.682287
O O8 0.224902 0.435922 0.565377
O O9 0.452520 0.373425 0.634539
O O10 0.095085 0.585718 0.115240
O O11 0.030510 0.425808 0.048942
O O12 0.580551 0.880317 0.750000
O O13 0.619651 0.721873 0.701179
O O14 0.866762 0.849424 0.684516
O O15 0.015868 0.262259 0.107275
O O16 0.975074 0.750000 0.000000
#
# Coordination Sequence:
#
# PCOD9438853 Si02
#       8
#     8   8   8   8   8   4   8   8
#     4  10  21  38  64  96 136 178 222 280 349 406
#     4  10  22  41  63  97 133 177 231 279 343 406
#     4   9  19  41  66  96 135 176 226 282 342 417
#     4   9  21  42  63  95 131 178 232 279 336 400
#     4   9  20  38  68  97 129 183 225 274 347 401
#     4  10  22  38  60  94 140 170 222 280 328 406
#     4  10  21  41  67  89 130 174 229 280 332 405
#     4  11  22  37  64  96 132 177 223 275 342 403
#
# _framework density 25.145924999999998
#
# number of rings (size 3 to 8) (size 9 to 14) (size 15 to 20)
#    0.400    1.867    0.000    2.400    0.933    3.200 
#   10.800   18.000    0.000    0.000    0.000    0.000 
#    0.000    0.000    0.000    0.000    0.000    0.000 
#
# Total GULP energy -334029.449036 kJ/mol
# GULP energy per Si atom -5567.157484 kJ/mol
# Density = 2.508869 g / cm^3
# Si number density = 25.145925 Si / 1000 Ang^3
#
#
#
# Elastic Constant Matrix: (Units=GPa)
#
#
# Indices 1 2 3 4 5 6 
#
# 1 34.8587 19.1650 15.6194 0.0000 0.0000 0.0000
# 2 19.1650 106.6635 33.0096 0.0000 0.0000 0.0000
# 3 15.6194 33.0096 155.9496 0.0000 0.0000 0.0000
# 4 0.0000 0.0000 0.0000 16.7432 0.0000 0.0000
# 5 0.0000 0.0000 0.0000 0.0000 -3.1550 0.0000
# 6 0.0000 0.0000 0.0000 0.0000 0.0000 35.3840
#
#
#
# Elastic Compliance Matrix: (Units=1/GPa)
#
#
# Indices 1 2 3 4 5 6 
#
# 1 0.032498 -0.005171 -0.002160 0.000000 0.000000 0.000000
# 2 -0.005171 0.010855 -0.001780 0.000000 0.000000 0.000000
# 3 -0.002160 -0.001780 0.007005 0.000000 0.000000 0.000000
# 4 0.000000 0.000000 0.000000 0.059726 0.000000 0.000000
# 5 0.000000 0.000000 0.000000 0.000000 -0.316958 0.000000
# 6 0.000000 0.000000 0.000000 0.000000 0.000000 0.028261
#
#
# Mechanical properties :
#
#
# Convention : Reuss Voigt Hill
#
# Bulk Modulus (GPa) = 31.11683 48.11774 39.61728
# Shear Modulus (GPa) = -33.40490 25.10631 -4.14930
#
# Velocity S-wave (km/s) = -3.64873 3.16321 -1.28595
# Velocity P-wave (km/s) = 2.31293 5.70247 3.68568
#
# Compressibility (1/GPa) = 0.03213695
#
# Stress axis : x y z
#
# Youngs Moduli (GPa) = 30.77109 92.12248 142.74621
#
# Poissons Ratio (x) = 0.47632 0.30840
# Poissons Ratio (y) = 0.15910 0.25406
# Poissons Ratio (z) = 0.06648 0.16396
#
# Static dielectric constant tensor:
#      x y z
#    x 2.140710 0.000000 0.000000 
#    y 0.000000 2.118320 0.000000 
#    z 0.000000 0.000000 1.922000 
# 
# From -- ./inp_files/26838.got.cif
#   From: 2010.05.17/outbox.cif.g08.bks.cpg/sg57_14_cif.got.tgz:26838.got - 2010.06.03 13:58:18.
