data_PCOD9438374
_publ_section_title
;
Structure prediction by ZEFSAII (Michael W. Deem and Ramdas Pophale) SiO2 
 PCOD9438374
Probable space group: P B C M
;
_chemical_formula_sum "Si O2"
_cell_formula_units_Z 48
_cell_length_a 11.945956
_cell_length_b 12.391956
_cell_length_c 14.419541
_cell_angle_alpha 90.000000
_cell_angle_beta 90.000000
_cell_angle_gamma 90.000000
_cell_volume 2134.578888
_symmetry_space_group_name_H-M "P B C M"
_symmetry_group_IT_number 57
_symmetry_cell_setting 'orthorhombic'
loop_
_space_group_symop_operation_xyz
x,y,z
-x,-y,1/2+z
x,1/2-y,-z
-x,1/2+y,1/2-z
-x,-y,-z
x,y,1/2-z
-x,1/2+y,z
x,1/2-y,1/2+z
loop_
_atom_site_type_symbol
_atom_site_label
_atom_site_fract_x
_atom_site_fract_y
_atom_site_fract_z
Si Si1 0.448191 0.949672 0.092276
Si Si2 0.310997 0.753697 0.637241
Si Si3 0.778054 0.576258 0.138300
Si Si4 0.316863 0.996008 0.646817
Si Si5 0.161611 0.314978 0.364497
Si Si6 0.912566 0.126401 0.862627
O O1 0.342875 0.024139 0.119194
O O2 0.557950 0.959770 0.154910
O O3 0.402040 0.828134 0.095837
O O4 0.500000 0.000000 0.000000
O O5 0.325708 0.749053 0.750000
O O6 0.319474 0.876773 0.604230
O O7 0.188095 0.708018 0.614931
O O8 0.788638 0.579561 0.250000
O O9 0.795678 0.697786 0.105039
O O10 0.871889 0.491367 0.104622
O O11 0.269152 0.977848 0.750000
O O12 0.240130 0.087232 0.601731
O O13 0.165860 0.315006 0.250000
O O14 0.034256 0.336574 0.393743
O O15 0.917442 0.122725 0.750000
#
# Coordination Sequence:
#
# PCOD9438374 Si02
#       6
#     8   8   8   8   8   8
#     4  11  23  38  56  79 109 152 194 235 280 340
#     4   9  19  36  58  83 114 148 183 232 289 337
#     4   9  18  34  56  83 115 149 187 234 290 340
#     4  10  21  35  55  83 112 144 186 232 283 340
#     4   9  18  30  53  87 115 143 182 231 283 340
#     4   8  15  29  52  83 114 140 175 227 285 336
#
# _framework density 22.486868999999999
#
# number of rings (size 3 to 8) (size 9 to 14) (size 15 to 20)
#    0.000    2.667    0.000    2.500    4.667    0.667 
#    0.000    0.000    0.000    4.000    8.667    0.000 
#    0.000    0.000    0.000    0.000    0.000    0.000 
#
# Total GULP energy -268097.978220 kJ/mol
# GULP energy per Si atom -5585.374546 kJ/mol
# Density = 2.243569 g / cm^3
# Si number density = 22.486869 Si / 1000 Ang^3
#
#
#
# Elastic Constant Matrix: (Units=GPa)
#
#
# Indices 1 2 3 4 5 6 
#
# 1 146.3399 121.6562 -0.7228 0.0000 0.0000 0.0000
# 2 121.6562 246.6778 6.2021 0.0000 0.0000 0.0000
# 3 -0.7228 6.2021 43.8079 0.0000 0.0000 0.0000
# 4 0.0000 0.0000 0.0000 15.7490 0.0000 0.0000
# 5 0.0000 0.0000 0.0000 0.0000 4.7606 0.0000
# 6 0.0000 0.0000 0.0000 0.0000 0.0000 18.1247
#
#
#
# Elastic Compliance Matrix: (Units=1/GPa)
#
#
# Indices 1 2 3 4 5 6 
#
# 1 0.011626 -0.005759 0.001007 0.000000 0.000000 0.000000
# 2 -0.005759 0.006921 -0.001075 0.000000 0.000000 0.000000
# 3 0.001007 -0.001075 0.022996 0.000000 0.000000 0.000000
# 4 0.000000 0.000000 0.000000 0.063496 0.000000 0.000000
# 5 0.000000 0.000000 0.000000 0.000000 0.210058 0.000000
# 6 0.000000 0.000000 0.000000 0.000000 0.000000 0.055173
#
#
# Mechanical properties :
#
#
# Convention : Reuss Voigt Hill
#
# Bulk Modulus (GPa) = 33.45674 76.78851 55.12262
# Shear Modulus (GPa) = 12.75878 28.37287 20.56583
#
# Velocity S-wave (km/s) = 2.38457 3.55597 3.02747
# Velocity P-wave (km/s) = 4.74260 7.14718 6.06525
#
# Compressibility (1/GPa) = 0.02988935
#
# Stress axis : x y z
#
# Youngs Moduli (GPa) = 86.01411 144.48534 43.48639
#
# Poissons Ratio (x) = 0.83209 -0.04380
# Poissons Ratio (y) = 0.49536 0.04674
# Poissons Ratio (z) = -0.08663 0.15530
#
# Static dielectric constant tensor:
#      x y z
#    x 1.574000 0.000000 0.000000 
#    y 0.000000 1.805180 0.000000 
#    z 0.000000 0.000000 1.370600 
# 
# From -- ./inp_files/21824.got.cif
#   From: 2010.05.17/outbox.cif.g08.bks.cpg/sg57_11_cif.got.tgz:21824.got - 2010.06.03 13:58:18.
