data_PCOD9438773
_publ_section_title
;
Structure prediction by ZEFSAII (Michael W. Deem and Ramdas Pophale) SiO2 
 PCOD9438773
Probable space group: P B C M
;
_chemical_formula_sum "Si O2"
_cell_formula_units_Z 40
_cell_length_a 11.645499
_cell_length_b 11.137848
_cell_length_c 12.460118
_cell_angle_alpha 90.000000
_cell_angle_beta 90.000000
_cell_angle_gamma 90.000000
_cell_volume 1616.149545
_symmetry_space_group_name_H-M "P B C M"
_symmetry_group_IT_number 57
_symmetry_cell_setting 'orthorhombic'
loop_
_space_group_symop_operation_xyz
x,y,z
-x,-y,1/2+z
x,1/2-y,-z
-x,1/2+y,1/2-z
-x,-y,-z
x,y,1/2-z
-x,1/2+y,z
x,1/2-y,1/2+z
loop_
_atom_site_type_symbol
_atom_site_label
_atom_site_fract_x
_atom_site_fract_y
_atom_site_fract_z
Si Si1 0.667991 0.750000 0.500000
Si Si2 0.937031 0.250000 0.500000
Si Si3 0.674671 0.111633 0.027811
Si Si4 0.540586 0.559918 0.367957
Si Si5 0.149840 0.431108 0.508898
Si Si6 0.937898 0.210017 0.750000
Si Si7 0.892362 0.565247 0.250000
O O1 0.589342 0.683413 0.415577
O O2 0.756191 0.653792 0.547896
O O3 0.027704 0.366228 0.497800
O O4 0.888690 0.234616 0.626679
O O5 0.596156 0.045438 0.938170
O O6 0.803657 0.059801 0.029551
O O7 0.676968 0.250000 0.000000
O O8 0.596780 0.074941 0.128119
O O9 0.580851 0.539401 0.250000
O O10 0.172840 0.433111 0.636958
O O11 0.037040 0.310666 0.750000
O O12 0.958920 0.064672 0.750000
#
# Coordination Sequence:
#
# PCOD9438773 Si02
#       7
#     4   4   8   8   8   4   4
#     4   9  18  36  60  91 116 174 224 259 300 400
#     4   9  20  44  68  97 132 174 224 261 332 422
#     4  10  21  39  54  90 127 162 222 271 324 392
#     4  10  21  38  61  83 122 176 222 272 328 377
#     4   9  20  38  62  92 129 168 211 271 329 394
#     4  10  22  42  74 102 134 172 220 276 336 436
#     4  10  22  44  70 100 130 174 210 274 350 410
#
# _framework density 24.750183
#
# number of rings (size 3 to 8) (size 9 to 14) (size 15 to 20)
#    0.000    2.400    1.000    0.000    5.600    4.000 
#    9.000    0.000    0.000    0.000    0.000    0.000 
#    0.000    0.000    0.000    0.000    0.000    0.000 
#
# Total GULP energy -222754.908499 kJ/mol
# GULP energy per Si atom -5568.872712 kJ/mol
# Density = 2.469385 g / cm^3
# Si number density = 24.750183 Si / 1000 Ang^3
#
#
#
# Elastic Constant Matrix: (Units=GPa)
#
#
# Indices 1 2 3 4 5 6 
#
# 1 132.4027 34.2876 20.3437 0.0000 0.0000 0.0000
# 2 34.2876 156.5242 32.2291 0.0000 0.0000 0.0000
# 3 20.3437 32.2291 143.7087 0.0000 0.0000 0.0000
# 4 0.0000 0.0000 0.0000 21.5295 0.0000 0.0000
# 5 0.0000 0.0000 0.0000 0.0000 19.7679 0.0000
# 6 0.0000 0.0000 0.0000 0.0000 0.0000 68.8451
#
#
#
# Elastic Compliance Matrix: (Units=1/GPa)
#
#
# Indices 1 2 3 4 5 6 
#
# 1 0.008090 -0.001611 -0.000784 0.000000 0.000000 0.000000
# 2 -0.001611 0.007019 -0.001346 0.000000 0.000000 0.000000
# 3 -0.000784 -0.001346 0.007371 0.000000 0.000000 0.000000
# 4 0.000000 0.000000 0.000000 0.046448 0.000000 0.000000
# 5 0.000000 0.000000 0.000000 0.000000 0.050587 0.000000
# 6 0.000000 0.000000 0.000000 0.000000 0.000000 0.014525
#
#
# Mechanical properties :
#
#
# Convention : Reuss Voigt Hill
#
# Bulk Modulus (GPa) = 66.67230 67.37293 67.02261
# Shear Modulus (GPa) = 34.12451 45.08018 39.60235
#
# Velocity S-wave (km/s) = 3.71719 4.27243 4.00444
# Velocity P-wave (km/s) = 6.73943 7.18460 6.96557
#
# Compressibility (1/GPa) = 0.01499873
#
# Stress axis : x y z
#
# Youngs Moduli (GPa) = 123.60447 142.47438 135.65969
#
# Poissons Ratio (x) = 0.22950 0.10636
# Poissons Ratio (y) = 0.19910 0.18261
# Poissons Ratio (z) = 0.09691 0.19178
#
# Static dielectric constant tensor:
#      x y z
#    x 2.079910 0.000000 0.000000 
#    y 0.000000 2.090940 0.000000 
#    z 0.000000 0.000000 1.781460 
# 
# From -- ./inp_files/13626.got.cif
#   From: 2010.05.17/outbox.cif.g08.bks.cpg/sg57_7_cif.got.tgz:13626.got - 2010.06.03 13:58:18.
