data_PCOD9438847
_publ_section_title
;
Structure prediction by ZEFSAII (Michael W. Deem and Ramdas Pophale) SiO2 
 PCOD9438847
Probable space group: P B C M
;
_chemical_formula_sum "Si O2"
_cell_formula_units_Z 48
_cell_length_a 8.101779
_cell_length_b 18.509724
_cell_length_c 15.756586
_cell_angle_alpha 90.000000
_cell_angle_beta 90.000000
_cell_angle_gamma 90.000000
_cell_volume 2362.884316
_symmetry_space_group_name_H-M "P B C M"
_symmetry_group_IT_number 57
_symmetry_cell_setting 'orthorhombic'
loop_
_space_group_symop_operation_xyz
x,y,z
-x,-y,1/2+z
x,1/2-y,-z
-x,1/2+y,1/2-z
-x,-y,-z
x,y,1/2-z
-x,1/2+y,z
x,1/2-y,1/2+z
loop_
_atom_site_type_symbol
_atom_site_label
_atom_site_fract_x
_atom_site_fract_y
_atom_site_fract_z
Si Si1 0.682712 0.778642 0.095708
Si Si2 0.630257 0.296765 0.583243
Si Si3 0.220399 0.440306 0.348574
Si Si4 0.045496 0.761496 0.653705
Si Si5 0.351462 0.552088 0.481938
Si Si6 0.835607 0.097691 0.845511
O O1 0.513098 0.745333 0.135433
O O2 0.701019 0.864271 0.115853
O O3 0.862454 0.745907 0.117407
O O4 0.660501 0.750000 0.000000
O O5 0.667962 0.250000 0.500000
O O6 0.812892 0.312959 0.619063
O O7 0.570582 0.374726 0.554522
O O8 0.275047 0.449565 0.250000
O O9 0.252724 0.507761 0.410072
O O10 0.023164 0.430335 0.347060
O O11 0.017716 0.780164 0.750000
O O12 0.137862 0.683976 0.647709
O O13 0.500000 0.500000 0.500000
O O14 0.258563 0.569849 0.570880
O O15 0.766033 0.082054 0.750000
#
# Coordination Sequence:
#
# PCOD9438847 Si02
#       6
#     8   8   8   8   8   8
#     4  10  21  39  66  95 126 164 220 271 326 391
#     4  11  22  40  62  94 129 163 216 268 329 388
#     4  10  23  43  66  94 130 176 223 268 325 391
#     4  10  21  38  64  93 122 166 214 267 329 385
#     4  12  24  40  64  96 132 173 217 264 331 394
#     4   9  20  41  67  93 122 170 223 267 324 387
#
# _framework density 20.314155
#
# number of rings (size 3 to 8) (size 9 to 14) (size 15 to 20)
#    0.000    1.667    1.667    4.500    2.333    2.667 
#    3.000    0.000    0.000    3.000    0.000    0.000 
#    0.000    0.000    0.000    0.000    0.000    0.000 
#
# Total GULP energy -267243.846545 kJ/mol
# GULP energy per Si atom -5567.580136 kJ/mol
# Density = 2.026792 g / cm^3
# Si number density = 20.314155 Si / 1000 Ang^3
#
#
#
# Elastic Constant Matrix: (Units=GPa)
#
#
# Indices 1 2 3 4 5 6 
#
# 1 80.6670 8.4389 19.2563 0.0000 0.0000 0.0000
# 2 8.4389 72.6488 13.4088 0.0000 0.0000 0.0000
# 3 19.2563 13.4088 94.9451 0.0000 0.0000 0.0000
# 4 0.0000 0.0000 0.0000 17.0089 0.0000 0.0000
# 5 0.0000 0.0000 0.0000 0.0000 129.4930 0.0000
# 6 0.0000 0.0000 0.0000 0.0000 0.0000 33.8969
#
#
#
# Elastic Compliance Matrix: (Units=1/GPa)
#
#
# Indices 1 2 3 4 5 6 
#
# 1 0.013106 -0.001059 -0.002509 0.000000 0.000000 0.000000
# 2 -0.001059 0.014219 -0.001793 0.000000 0.000000 0.000000
# 3 -0.002509 -0.001793 0.011294 0.000000 0.000000 0.000000
# 4 0.000000 0.000000 0.000000 0.058793 0.000000 0.000000
# 5 0.000000 0.000000 0.000000 0.000000 0.007722 0.000000
# 6 0.000000 0.000000 0.000000 0.000000 0.000000 0.029501
#
#
# Mechanical properties :
#
#
# Convention : Reuss Voigt Hill
#
# Bulk Modulus (GPa) = 35.84585 36.71878 36.28232
# Shear Modulus (GPa) = 32.32950 49.89021 41.10986
#
# Velocity S-wave (km/s) = 3.99366 4.96111 4.50344
# Velocity P-wave (km/s) = 6.24098 7.13664 6.70378
#
# Compressibility (1/GPa) = 0.02789723
#
# Stress axis : x y z
#
# Youngs Moduli (GPa) = 76.29918 70.32901 88.53925
#
# Poissons Ratio (x) = 0.07451 0.22210
# Poissons Ratio (y) = 0.08083 0.15877
# Poissons Ratio (z) = 0.19140 0.12612
#
# Static dielectric constant tensor:
#      x y z
#    x 1.255610 0.000000 0.000000 
#    y 0.000000 1.776220 0.000000 
#    z 0.000000 0.000000 1.742300 
# 
# From -- ./inp_files/16339.got.cif
#   From: 2010.05.17/outbox.cif.g08.bks.cpg/sg57_9_cif.got.tgz:16339.got - 2010.06.03 13:58:18.
