data_PCOD9438452
_publ_section_title
;
Structure prediction by ZEFSAII (Michael W. Deem and Ramdas Pophale) SiO2 
 PCOD9438452
Probable space group: P B C M
;
_chemical_formula_sum "Si O2"
_cell_formula_units_Z 64
_cell_length_a 31.156312
_cell_length_b 5.412092
_cell_length_c 18.367724
_cell_angle_alpha 90.000000
_cell_angle_beta 90.000000
_cell_angle_gamma 90.000000
_cell_volume 3097.180810
_symmetry_space_group_name_H-M "P B C M"
_symmetry_group_IT_number 57
_symmetry_cell_setting 'orthorhombic'
loop_
_space_group_symop_operation_xyz
x,y,z
-x,-y,1/2+z
x,1/2-y,-z
-x,1/2+y,1/2-z
-x,-y,-z
x,y,1/2-z
-x,1/2+y,z
x,1/2-y,1/2+z
loop_
_atom_site_type_symbol
_atom_site_label
_atom_site_fract_x
_atom_site_fract_y
_atom_site_fract_z
Si Si1 0.027480 0.686401 0.167159
Si Si2 0.830567 0.271468 0.925651
Si Si3 0.527179 0.512354 0.836039
Si Si4 0.299014 0.498724 0.452749
Si Si5 0.226809 0.043128 0.831715
Si Si6 0.602090 0.498052 0.547478
Si Si7 0.860300 0.869174 0.831193
Si Si8 0.087494 0.084159 0.569430
O O1 0.046584 0.676463 0.250000
O O2 0.057171 0.637007 0.096294
O O3 0.005229 0.953877 0.162357
O O4 0.799010 0.303473 0.858206
O O5 0.864239 0.485236 0.945153
O O6 0.859530 0.054010 0.897734
O O7 0.804668 0.250000 0.000000
O O8 0.537959 0.511493 0.750000
O O9 0.500481 0.764004 0.850575
O O10 0.568798 0.508415 0.886636
O O11 0.291387 0.750000 0.500000
O O12 0.265280 0.445862 0.388448
O O13 0.348407 0.518429 0.426640
O O14 0.296489 0.250000 0.500000
O O15 0.242668 0.034388 0.750000
O O16 0.186413 0.233438 0.834644
O O17 0.593865 0.250000 0.500000
O O18 0.597781 0.750000 0.500000
O O19 0.864571 0.970515 0.750000
O O20 0.902361 0.713179 0.852140
O O21 0.073615 0.250000 0.500000
#
# Coordination Sequence:
#
# PCOD9438452 Si02
#       8
#     8   8   8   8   8   8   8   8
#     4  10  24  44  65  91 123 162 202 242 295 354
#     4  11  22  37  62  89 121 159 196 246 302 359
#     4  10  21  36  57  87 122 159 200 251 313 372
#     4  10  23  41  62  87 120 163 204 254 309 363
#     4  10  23  38  58  89 119 157 206 250 300 359
#     4  10  21  38  59  87 119 156 207 253 305 368
#     4  10  22  39  59  88 122 155 198 250 295 356
#     4  11  23  39  61  91 122 155 200 243 301 355
#
# _framework density 20.663955000000001
#
# number of rings (size 3 to 8) (size 9 to 14) (size 15 to 20)
#    0.000    1.750    1.250    1.875    5.250    4.000 
#    0.000    0.000    0.000    4.500    0.000    0.000 
#    0.000    0.000    0.000    0.000    0.000    0.000 
#
# Total GULP energy -356420.012766 kJ/mol
# GULP energy per Si atom -5569.062699 kJ/mol
# Density = 2.061692 g / cm^3
# Si number density = 20.663955 Si / 1000 Ang^3
#
#
#
# Elastic Constant Matrix: (Units=GPa)
#
#
# Indices 1 2 3 4 5 6 
#
# 1 100.1284 28.2275 54.6188 0.0000 0.0000 0.0000
# 2 28.2275 94.5386 26.7970 0.0000 0.0000 0.0000
# 3 54.6188 26.7970 111.9311 0.0000 0.0000 0.0000
# 4 0.0000 0.0000 0.0000 17.3372 0.0000 0.0000
# 5 0.0000 0.0000 0.0000 0.0000 27.7592 0.0000
# 6 0.0000 0.0000 0.0000 0.0000 0.0000 -27.1017
#
#
#
# Elastic Compliance Matrix: (Units=1/GPa)
#
#
# Indices 1 2 3 4 5 6 
#
# 1 0.014110 -0.002426 -0.006304 0.000000 0.000000 0.000000
# 2 -0.002426 0.011765 -0.001633 0.000000 0.000000 0.000000
# 3 -0.006304 -0.001633 0.012401 0.000000 0.000000 0.000000
# 4 0.000000 0.000000 0.000000 0.057679 0.000000 0.000000
# 5 0.000000 0.000000 0.000000 0.000000 0.036024 0.000000
# 6 0.000000 0.000000 0.000000 0.000000 0.000000 -0.036898
#
#
# Mechanical properties :
#
#
# Convention : Reuss Voigt Hill
#
# Bulk Modulus (GPa) = 56.98070 58.43163 57.70617
# Shear Modulus (GPa) = 41.09873 16.72926 28.91400
#
# Velocity S-wave (km/s) = 4.46456 2.84841 3.74471
# Velocity P-wave (km/s) = 7.36282 6.25751 6.83255
#
# Compressibility (1/GPa) = 0.01754980
#
# Stress axis : x y z
#
# Youngs Moduli (GPa) = 70.87115 84.99888 80.63642
#
# Poissons Ratio (x) = 0.20621 0.50837
# Poissons Ratio (y) = 0.17193 0.13166
# Poissons Ratio (z) = 0.44681 0.13878
#
# Static dielectric constant tensor:
#      x y z
#    x 1.726640 0.000000 0.000000 
#    y 0.000000 1.867830 0.000000 
#    z 0.000000 0.000000 1.759920 
# 
# From -- ./inp_files/23210.got.cif
#   From: 2010.05.17/outbox.cif.g08.bks.cpg/sg57_12_cif.got.tgz:23210.got - 2010.06.03 13:58:18.
