data_PCOD9438470
_publ_section_title
;
Structure prediction by ZEFSAII (Michael W. Deem and Ramdas Pophale) SiO2 
 PCOD9438470
Probable space group: P B C M
;
_chemical_formula_sum "Si O2"
_cell_formula_units_Z 56
_cell_length_a 9.171007
_cell_length_b 15.032207
_cell_length_c 20.506119
_cell_angle_alpha 90.000000
_cell_angle_beta 90.000000
_cell_angle_gamma 90.000000
_cell_volume 2826.983319
_symmetry_space_group_name_H-M "P B C M"
_symmetry_group_IT_number 57
_symmetry_cell_setting 'orthorhombic'
loop_
_space_group_symop_operation_xyz
x,y,z
-x,-y,1/2+z
x,1/2-y,-z
-x,1/2+y,1/2-z
-x,-y,-z
x,y,1/2-z
-x,1/2+y,z
x,1/2-y,1/2+z
loop_
_atom_site_type_symbol
_atom_site_label
_atom_site_fract_x
_atom_site_fract_y
_atom_site_fract_z
Si Si1 0.985911 0.173449 0.910930
Si Si2 0.820079 0.976670 0.381160
Si Si3 0.366773 0.066404 0.416360
Si Si4 0.541896 0.604018 0.548408
Si Si5 0.959857 0.877315 0.562004
Si Si6 0.324030 0.734764 0.578149
Si Si7 0.615597 0.110198 0.176900
O O1 0.812552 0.173296 0.901683
O O2 0.075280 0.106359 0.865236
O O3 0.026874 0.278018 0.907843
O O4 0.023328 0.139213 0.984375
O O5 0.692327 0.936740 0.426869
O O6 0.726151 0.026848 0.326511
O O7 0.918156 0.052122 0.415989
O O8 0.434336 0.128990 0.473231
O O9 0.195909 0.082618 0.417362
O O10 0.456652 0.082084 0.350481
O O11 0.416603 0.970308 0.443355
O O12 0.478496 0.686515 0.587231
O O13 0.301406 0.750000 0.500000
O O14 0.323502 0.820253 0.623945
O O15 0.608257 0.145488 0.250000
#
# Coordination Sequence:
#
# PCOD9438470 Si02
#       7
#     8   8   8   8   8   8   8
#     4  11  22  32  62  98 131 167 209 271 332 397
#     4  11  22  41  61  94 132 170 211 267 331 394
#     4  10  21  36  61  91 129 164 210 267 329 393
#     4  10  22  33  62  98 122 165 210 270 326 386
#     4  11  21  35  59 101 136 161 208 273 338 388
#     4  12  21  39  63 100 135 172 224 282 335 399
#     4  11  25  45  65  88 131 180 221 276 341 403
#
# _framework density 19.809101999999999
#
# number of rings (size 3 to 8) (size 9 to 14) (size 15 to 20)
#    0.000    1.143    5.714    1.286    6.000    0.000 
#    0.000    4.286    0.000    0.000    0.000    0.000 
#    0.000    0.000    0.000    0.000    0.000    0.000 
#
# Total GULP energy -312364.727414 kJ/mol
# GULP energy per Si atom -5577.941561 kJ/mol
# Density = 1.976402 g / cm^3
# Si number density = 19.809102 Si / 1000 Ang^3
#
#
#
# Elastic Constant Matrix: (Units=GPa)
#
#
# Indices 1 2 3 4 5 6 
#
# 1 153.7278 58.4748 30.3115 0.0000 0.0000 0.0000
# 2 58.4748 94.0646 17.8859 0.0000 0.0000 0.0000
# 3 30.3115 17.8859 73.6878 0.0000 0.0000 0.0000
# 4 0.0000 0.0000 0.0000 11.7281 0.0000 0.0000
# 5 0.0000 0.0000 0.0000 0.0000 4.5131 0.0000
# 6 0.0000 0.0000 0.0000 0.0000 0.0000 41.7888
#
#
#
# Elastic Compliance Matrix: (Units=1/GPa)
#
#
# Indices 1 2 3 4 5 6 
#
# 1 0.008918 -0.005081 -0.002435 0.000000 0.000000 0.000000
# 2 -0.005081 0.014040 -0.001318 0.000000 0.000000 0.000000
# 3 -0.002435 -0.001318 0.014892 0.000000 0.000000 0.000000
# 4 0.000000 0.000000 0.000000 0.085265 0.000000 0.000000
# 5 0.000000 0.000000 0.000000 0.000000 0.221577 0.000000
# 6 0.000000 0.000000 0.000000 0.000000 0.000000 0.023930
#
#
# Mechanical properties :
#
#
# Convention : Reuss Voigt Hill
#
# Bulk Modulus (GPa) = 49.54748 59.42495 54.48621
# Shear Modulus (GPa) = 12.72209 25.92653 19.32431
#
# Velocity S-wave (km/s) = 2.53698 3.62169 3.12673
# Velocity P-wave (km/s) = 5.80073 6.89585 6.37186
#
# Compressibility (1/GPa) = 0.02018266
#
# Stress axis : x y z
#
# Youngs Moduli (GPa) = 112.13633 71.22540 67.14859
#
# Poissons Ratio (x) = 0.36187 0.16351
# Poissons Ratio (y) = 0.56972 0.08850
# Poissons Ratio (z) = 0.27306 0.09387
#
# Static dielectric constant tensor:
#      x y z
#    x 1.726650 0.000000 0.000000 
#    y 0.000000 1.769510 0.000000 
#    z 0.000000 0.000000 1.681770 
# 
# From -- ./inp_files/24433.got.cif
#   From: 2010.05.17/outbox.cif.g08.bks.cpg/sg57_13_cif.got.tgz:24433.got - 2010.06.03 13:58:18.
