data_PCOD9438657
_publ_section_title
;
Structure prediction by ZEFSAII (Michael W. Deem and Ramdas Pophale) SiO2 
 PCOD9438657
Probable space group: P B C M
;
_chemical_formula_sum "Si O2"
_cell_formula_units_Z 48
_cell_length_a 11.741423
_cell_length_b 9.033504
_cell_length_c 21.615613
_cell_angle_alpha 90.000000
_cell_angle_beta 90.000000
_cell_angle_gamma 90.000000
_cell_volume 2292.685751
_symmetry_space_group_name_H-M "P B C M"
_symmetry_group_IT_number 57
_symmetry_cell_setting 'orthorhombic'
loop_
_space_group_symop_operation_xyz
x,y,z
-x,-y,1/2+z
x,1/2-y,-z
-x,1/2+y,1/2-z
-x,-y,-z
x,y,1/2-z
-x,1/2+y,z
x,1/2-y,1/2+z
loop_
_atom_site_type_symbol
_atom_site_label
_atom_site_fract_x
_atom_site_fract_y
_atom_site_fract_z
Si Si1 0.622049 0.353236 0.942897
Si Si2 0.456629 0.932021 0.109797
Si Si3 0.151896 0.562026 0.111223
Si Si4 0.032713 0.241270 0.570588
Si Si5 0.663737 0.899118 0.181297
Si Si6 0.282650 0.175837 0.431785
O O1 0.550191 0.501828 0.938124
O O2 0.753466 0.394787 0.939737
O O3 0.580569 0.238758 0.890005
O O4 0.595872 0.250000 0.000000
O O5 0.348314 0.027044 0.087314
O O6 0.534127 0.956266 0.171023
O O7 0.079474 0.419759 0.089415
O O8 0.235763 0.518373 0.167703
O O9 0.063116 0.695251 0.115883
O O10 0.989123 0.250000 0.500000
O O11 0.146691 0.341894 0.570352
O O12 0.676837 0.838694 0.250000
O O13 0.683776 0.784111 0.125098
O O14 0.306748 0.250000 0.500000
#
# Coordination Sequence:
#
# PCOD9438657 Si02
#       6
#     8   8   8   8   8   8
#     4  11  23  34  59  89 131 166 215 263 328 385
#     4  11  22  37  58  91 123 169 214 268 322 392
#     4  10  23  39  58  95 120 174 209 268 315 393
#     4  10  21  37  62  90 134 165 214 263 329 383
#     4  10  23  43  62  89 129 170 217 274 333 396
#     4  10  22  37  64  96 132 169 216 272 334 394
#
# _framework density 20.936145
#
# number of rings (size 3 to 8) (size 9 to 14) (size 15 to 20)
#    0.000    1.667    1.667    2.000   11.667    0.667 
#    0.000    3.333    0.000    0.000    0.000    0.000 
#    0.000    0.000    0.000    0.000    0.000    0.000 
#
# Total GULP energy -267236.916418 kJ/mol
# GULP energy per Si atom -5567.435759 kJ/mol
# Density = 2.088849 g / cm^3
# Si number density = 20.936145 Si / 1000 Ang^3
#
#
#
# Elastic Constant Matrix: (Units=GPa)
#
#
# Indices 1 2 3 4 5 6 
#
# 1 109.9241 45.9711 3.5154 0.0000 0.0000 0.0000
# 2 45.9711 87.3918 13.5430 0.0000 0.0000 0.0000
# 3 3.5154 13.5430 93.7886 0.0000 0.0000 0.0000
# 4 0.0000 0.0000 0.0000 11.8600 0.0000 0.0000
# 5 0.0000 0.0000 0.0000 0.0000 16.0711 0.0000
# 6 0.0000 0.0000 0.0000 0.0000 0.0000 38.3769
#
#
#
# Elastic Compliance Matrix: (Units=1/GPa)
#
#
# Indices 1 2 3 4 5 6 
#
# 1 0.011682 -0.006217 0.000460 0.000000 0.000000 0.000000
# 2 -0.006217 0.015013 -0.001935 0.000000 0.000000 0.000000
# 3 0.000460 -0.001935 0.010924 0.000000 0.000000 0.000000
# 4 0.000000 0.000000 0.000000 0.084317 0.000000 0.000000
# 5 0.000000 0.000000 0.000000 0.000000 0.062223 0.000000
# 6 0.000000 0.000000 0.000000 0.000000 0.000000 0.026057
#
#
# Mechanical properties :
#
#
# Convention : Reuss Voigt Hill
#
# Bulk Modulus (GPa) = 44.97160 46.35152 45.66156
# Shear Modulus (GPa) = 21.45812 28.46662 24.96237
#
# Velocity S-wave (km/s) = 3.20493 3.69139 3.45673
# Velocity P-wave (km/s) = 5.93485 6.35264 6.14730
#
# Compressibility (1/GPa) = 0.02223626
#
# Stress axis : x y z
#
# Youngs Moduli (GPa) = 85.59970 66.61040 91.53802
#
# Poissons Ratio (x) = 0.41409 -0.04209
# Poissons Ratio (y) = 0.53213 0.17711
# Poissons Ratio (z) = -0.03936 0.12888
#
# Static dielectric constant tensor:
#      x y z
#    x 1.796930 0.000000 0.000000 
#    y 0.000000 1.835380 0.000000 
#    z 0.000000 0.000000 1.812130 
# 
# From -- ./inp_files/27102.got.cif
#   From: 2010.05.17/outbox.cif.g08.bks.cpg/sg57_14_cif.got.tgz:27102.got - 2010.06.03 13:58:18.
