data_PCOD9438026
_publ_section_title
;
Structure prediction by ZEFSAII (Michael W. Deem and Ramdas Pophale) SiO2 
 PCOD9438026
Probable space group: P B C M
;
_chemical_formula_sum "Si O2"
_cell_formula_units_Z 48
_cell_length_a 5.513175
_cell_length_b 12.668319
_cell_length_c 29.813294
_cell_angle_alpha 90.000000
_cell_angle_beta 90.000000
_cell_angle_gamma 90.000000
_cell_volume 2082.239744
_symmetry_space_group_name_H-M "P B C M"
_symmetry_group_IT_number 57
_symmetry_cell_setting 'orthorhombic'
loop_
_space_group_symop_operation_xyz
x,y,z
-x,-y,1/2+z
x,1/2-y,-z
-x,1/2+y,1/2-z
-x,-y,-z
x,y,1/2-z
-x,1/2+y,z
x,1/2-y,1/2+z
loop_
_atom_site_type_symbol
_atom_site_label
_atom_site_fract_x
_atom_site_fract_y
_atom_site_fract_z
Si Si1 0.046372 0.311564 0.546923
Si Si2 0.532230 0.024445 0.139475
Si Si3 0.546074 0.058343 0.453678
Si Si4 0.498726 0.359458 0.199019
Si Si5 0.195407 0.353989 0.799752
Si Si6 0.181882 0.741559 0.362776
O O1 0.052160 0.250000 0.500000
O O2 0.815227 0.390765 0.542909
O O3 0.979396 0.246051 0.592453
O O4 0.311269 0.364572 0.552638
O O5 0.532024 0.980309 0.089245
O O6 0.289763 0.059765 0.165523
O O7 0.649290 0.139534 0.129080
O O8 0.664539 0.952090 0.176874
O O9 0.500000 0.000000 0.500000
O O10 0.574526 0.386498 0.250000
O O11 0.380769 0.244374 0.202370
O O12 0.682789 0.342531 0.157227
O O13 0.160320 0.396002 0.750000
O O14 0.964075 0.298743 0.819841
#
# Coordination Sequence:
#
# PCOD9438026 Si02
#       6
#     8   8   8   8   8   8
#     4  11  24  43  69  97 131 175 221 271 341 396
#     4  10  22  40  61  88 130 169 211 272 335 391
#     4  11  24  43  66  99 131 170 224 273 334 403
#     4  10  22  38  61  93 123 168 223 269 329 398
#     4  10  20  38  62  87 123 166 213 269 326 393
#     4  10  22  40  61  89 130 166 218 272 332 398
#
# _framework density 23.052101
#
# number of rings (size 3 to 8) (size 9 to 14) (size 15 to 20)
#    0.000    1.667    1.667    2.000    2.333    4.667 
#    0.000    1.667    0.000    0.000    0.000    0.000 
#    0.000    0.000    0.000    0.000    0.000    0.000 
#
# Total GULP energy -267301.103384 kJ/mol
# GULP energy per Si atom -5568.772987 kJ/mol
# Density = 2.299963 g / cm^3
# Si number density = 23.052101 Si / 1000 Ang^3
#
#
#
# Elastic Constant Matrix: (Units=GPa)
#
#
# Indices 1 2 3 4 5 6 
#
# 1 68.1731 0.1537 14.8539 0.0000 0.0000 0.0000
# 2 0.1537 49.3618 37.2528 0.0000 0.0000 0.0000
# 3 14.8539 37.2528 170.4197 0.0000 0.0000 0.0000
# 4 0.0000 0.0000 0.0000 53.9474 0.0000 0.0000
# 5 0.0000 0.0000 0.0000 0.0000 129.8394 0.0000
# 6 0.0000 0.0000 0.0000 0.0000 0.0000 11.4639
#
#
#
# Elastic Compliance Matrix: (Units=1/GPa)
#
#
# Indices 1 2 3 4 5 6 
#
# 1 0.015005 0.001126 -0.001554 0.000000 0.000000 0.000000
# 2 0.001126 0.024345 -0.005420 0.000000 0.000000 0.000000
# 3 -0.001554 -0.005420 0.007188 0.000000 0.000000 0.000000
# 4 0.000000 0.000000 0.000000 0.018537 0.000000 0.000000
# 5 0.000000 0.000000 0.000000 0.000000 0.007702 0.000000
# 6 0.000000 0.000000 0.000000 0.000000 0.000000 0.087230
#
#
# Mechanical properties :
#
#
# Convention : Reuss Voigt Hill
#
# Bulk Modulus (GPa) = 28.70068 43.60839 36.15453
# Shear Modulus (GPa) = 27.27520 54.76310 41.01915
#
# Velocity S-wave (km/s) = 3.44350 4.87932 4.22288
# Velocity P-wave (km/s) = 5.31861 7.12054 6.28449
#
# Compressibility (1/GPa) = 0.03484238
#
# Stress axis : x y z
#
# Youngs Moduli (GPa) = 66.64629 41.07551 139.11937
#
# Poissons Ratio (x) = -0.04625 0.21619
# Poissons Ratio (y) = -0.07505 0.75401
# Poissons Ratio (z) = 0.10357 0.22263
#
# Static dielectric constant tensor:
#      x y z
#    x 1.957760 0.000000 0.000000 
#    y 0.000000 2.465390 0.000000 
#    z 0.000000 0.000000 1.807360 
# 
# From -- ./inp_files/27948.got.cif
#   From: 2010.05.17/outbox.cif.g08.bks.cpg/sg57_14_cif.got.tgz:27948.got - 2010.06.03 13:58:18.
