data_PCOD9438397
_publ_section_title
;
Structure prediction by ZEFSAII (Michael W. Deem and Ramdas Pophale) SiO2 
 PCOD9438397
Probable space group: P B C M
;
_chemical_formula_sum "Si O2"
_cell_formula_units_Z 32
_cell_length_a 7.460936
_cell_length_b 24.910145
_cell_length_c 7.466527
_cell_angle_alpha 90.000000
_cell_angle_beta 90.000000
_cell_angle_gamma 90.000000
_cell_volume 1387.676425
_symmetry_space_group_name_H-M "P B C M"
_symmetry_group_IT_number 57
_symmetry_cell_setting 'orthorhombic'
loop_
_space_group_symop_operation_xyz
x,y,z
-x,-y,1/2+z
x,1/2-y,-z
-x,1/2+y,1/2-z
-x,-y,-z
x,y,1/2-z
-x,1/2+y,z
x,1/2-y,1/2+z
loop_
_atom_site_type_symbol
_atom_site_label
_atom_site_fract_x
_atom_site_fract_y
_atom_site_fract_z
Si Si1 0.224909 0.900306 0.030090
Si Si2 0.619185 0.870279 0.045121
Si Si3 0.053104 0.310987 0.464635
Si Si4 0.291465 0.015018 0.462207
O O1 0.227810 0.902091 0.250000
O O2 0.424285 0.883085 0.967327
O O3 0.086657 0.855398 0.969804
O O4 0.187389 0.961865 0.973409
O O5 0.582946 0.854731 0.250000
O O6 0.749348 0.825874 0.963879
O O7 0.730633 0.926332 0.044805
O O8 0.001433 0.250000 0.500000
O O9 0.060034 0.317486 0.250000
O O10 0.267182 0.020735 0.250000
O O11 0.500000 0.000000 0.500000
#
# Coordination Sequence:
#
# PCOD9438397 Si02
#       4
#     8   8   8   8
#     4   8  16  32  51  71  98 129 157 193 244 293
#     4   9  18  33  52  73 100 131 159 197 249 294
#     4  10  21  36  51  69  96 130 168 206 243 286
#     4   9  16  29  51  77 103 129 160 198 243 298
#
# _framework density 23.060133
#
# number of rings (size 3 to 8) (size 9 to 14) (size 15 to 20)
#    0.000    3.000    0.000    2.250    0.000    3.000 
#    0.000    6.250    0.000    0.000    0.000    0.000 
#    0.000    0.000    0.000    0.000    0.000    0.000 
#
# Total GULP energy -178547.645340 kJ/mol
# GULP energy per Si atom -5579.613917 kJ/mol
# Density = 2.300765 g / cm^3
# Si number density = 23.060133 Si / 1000 Ang^3
#
#
#
# Elastic Constant Matrix: (Units=GPa)
#
#
# Indices 1 2 3 4 5 6 
#
# 1 69.5005 31.4543 -1.3594 0.0000 0.0000 0.0000
# 2 31.4543 80.4982 -16.0357 0.0000 0.0000 0.0000
# 3 -1.3594 -16.0357 76.0147 0.0000 0.0000 0.0000
# 4 0.0000 0.0000 0.0000 24.2010 0.0000 0.0000
# 5 0.0000 0.0000 0.0000 0.0000 -1.1999 0.0000
# 6 0.0000 0.0000 0.0000 0.0000 0.0000 36.5589
#
#
#
# Elastic Compliance Matrix: (Units=1/GPa)
#
#
# Indices 1 2 3 4 5 6 
#
# 1 0.017581 -0.007106 -0.001185 0.000000 0.000000 0.000000
# 2 -0.007106 0.015839 0.003214 0.000000 0.000000 0.000000
# 3 -0.001185 0.003214 0.013812 0.000000 0.000000 0.000000
# 4 0.000000 0.000000 0.000000 0.041321 0.000000 0.000000
# 5 0.000000 0.000000 0.000000 0.000000 -0.833401 0.000000
# 6 0.000000 0.000000 0.000000 0.000000 0.000000 0.027353
#
#
# Mechanical properties :
#
#
# Convention : Reuss Voigt Hill
#
# Bulk Modulus (GPa) = 26.96802 28.23685 27.60244
# Shear Modulus (GPa) = -7.19442 26.04227 9.42393
#
# Velocity S-wave (km/s) = -1.76823 3.36418 2.02375
# Velocity P-wave (km/s) = 2.74795 5.23085 4.17810
#
# Compressibility (1/GPa) = 0.03708096
#
# Stress axis : x y z
#
# Youngs Moduli (GPa) = 56.87929 63.13343 72.39954
#
# Poissons Ratio (x) = 0.44861 0.08576
# Poissons Ratio (y) = 0.40417 -0.23272
# Poissons Ratio (z) = 0.06738 -0.20293
#
# Static dielectric constant tensor:
#      x y z
#    x 1.987660 0.000000 0.000000 
#    y 0.000000 1.865690 0.000000 
#    z 0.000000 0.000000 1.862940 
# 
# From -- ./inp_files/1241.got.cif
#   From: 2010.05.17/outbox.cif.g08.bks.cpg/sg57_1_cif.got.tgz:1241.got - 2010.06.03 13:58:18.
