data_PCOD9438199
_publ_section_title
;
Structure prediction by ZEFSAII (Michael W. Deem and Ramdas Pophale) SiO2 
 PCOD9438199
Probable space group: P B C M
;
_chemical_formula_sum "Si O2"
_cell_formula_units_Z 48
_cell_length_a 9.286475
_cell_length_b 9.863146
_cell_length_c 28.444246
_cell_angle_alpha 90.000000
_cell_angle_beta 90.000000
_cell_angle_gamma 90.000000
_cell_volume 2605.318250
_symmetry_space_group_name_H-M "P B C M"
_symmetry_group_IT_number 57
_symmetry_cell_setting 'orthorhombic'
loop_
_space_group_symop_operation_xyz
x,y,z
-x,-y,1/2+z
x,1/2-y,-z
-x,1/2+y,1/2-z
-x,-y,-z
x,y,1/2-z
-x,1/2+y,z
x,1/2-y,1/2+z
loop_
_atom_site_type_symbol
_atom_site_label
_atom_site_fract_x
_atom_site_fract_y
_atom_site_fract_z
Si Si1 0.593274 0.772409 0.305105
Si Si2 0.705628 0.107503 0.026260
Si Si3 0.103168 0.529007 0.115002
Si Si4 0.829988 0.784043 0.878045
Si Si5 0.620305 0.633785 0.461027
Si Si6 0.335948 0.580541 0.194000
O O1 0.607449 0.745547 0.250000
O O2 0.734811 0.719181 0.331074
O O3 0.448268 0.696783 0.320343
O O4 0.587903 0.934044 0.312184
O O5 0.821315 0.074962 0.066294
O O6 0.546556 0.102991 0.050314
O O7 0.729598 0.250000 0.000000
O O8 0.694936 0.994682 0.985544
O O9 0.100867 0.365290 0.115664
O O10 0.200605 0.576651 0.159249
O O11 0.949951 0.600712 0.119859
O O12 0.713330 0.811632 0.918470
O O13 0.613641 0.750000 0.500000
O O14 0.300102 0.594204 0.250000
#
# Coordination Sequence:
#
# PCOD9438199 Si02
#       6
#     8   8   8   8   8   8
#     4   9  19  38  62  87 113 145 186 234 282 331
#     4  10  22  38  62  85 108 146 192 238 283 334
#     4  11  24  39  54  84 118 153 188 228 280 335
#     4  11  24  38  56  82 118 154 187 229 279 337
#     4  10  20  40  60  82 111 146 187 237 283 325
#     4   9  19  38  63  87 113 144 186 235 281 331
#
# _framework density 18.423852
#
# number of rings (size 3 to 8) (size 9 to 14) (size 15 to 20)
#    0.000    2.000    1.667    1.000    2.333    3.333 
#    0.000    0.000    0.000    0.000    0.000    0.000 
#    0.000    0.000    0.000    0.000    0.000    0.000 
#
# Total GULP energy -267946.789164 kJ/mol
# GULP energy per Si atom -5582.224774 kJ/mol
# Density = 1.838192 g / cm^3
# Si number density = 18.423852 Si / 1000 Ang^3
#
#
#
# Elastic Constant Matrix: (Units=GPa)
#
#
# Indices 1 2 3 4 5 6 
#
# 1 28.0501 -8.6018 3.1191 0.0000 0.0000 0.0000
# 2 -8.6018 32.1574 -3.5614 0.0000 0.0000 0.0000
# 3 3.1191 -3.5614 24.0805 0.0000 0.0000 0.0000
# 4 0.0000 0.0000 0.0000 21.9211 0.0000 0.0000
# 5 0.0000 0.0000 0.0000 0.0000 11.5279 0.0000
# 6 0.0000 0.0000 0.0000 0.0000 0.0000 40.7393
#
#
#
# Elastic Compliance Matrix: (Units=1/GPa)
#
#
# Indices 1 2 3 4 5 6 
#
# 1 0.039137 0.010072 -0.003580 0.000000 0.000000 0.000000
# 2 0.010072 0.034207 0.003754 0.000000 0.000000 0.000000
# 3 -0.003580 0.003754 0.042546 0.000000 0.000000 0.000000
# 4 0.000000 0.000000 0.000000 0.045618 0.000000 0.000000
# 5 0.000000 0.000000 0.000000 0.000000 0.086746 0.000000
# 6 0.000000 0.000000 0.000000 0.000000 0.000000 0.024546
#
#
# Mechanical properties :
#
#
# Convention : Reuss Voigt Hill
#
# Bulk Modulus (GPa) = 7.33221 7.35556 7.34388
# Shear Modulus (GPa) = 16.79154 21.05979 18.92566
#
# Velocity S-wave (km/s) = 3.02222 3.38460 3.20853
# Velocity P-wave (km/s) = 4.02079 4.39034 4.20963
#
# Compressibility (1/GPa) = 0.13638457
#
# Stress axis : x y z
#
# Youngs Moduli (GPa) = 25.55106 29.23373 23.50385
#
# Poissons Ratio (x) = -0.29445 0.08414
# Poissons Ratio (y) = -0.25736 -0.08824
# Poissons Ratio (z) = 0.09147 -0.10975
#
# Static dielectric constant tensor:
#      x y z
#    x 1.609450 0.000000 0.000000 
#    y 0.000000 1.368340 0.000000 
#    z 0.000000 0.000000 1.617760 
# 
# From -- ./inp_files/29484.got.cif
#   From: 2010.05.17/outbox.cif.g08.bks.cpg/sg57_15_cif.got.tgz:29484.got - 2010.06.03 13:58:18.
