data_PCOD9438453
_publ_section_title
;
Structure prediction by ZEFSAII (Michael W. Deem and Ramdas Pophale) SiO2 
 PCOD9438453
Probable space group: P B C M
;
_chemical_formula_sum "Si O2"
_cell_formula_units_Z 48
_cell_length_a 12.942027
_cell_length_b 20.435492
_cell_length_c 10.121753
_cell_angle_alpha 90.000000
_cell_angle_beta 90.000000
_cell_angle_gamma 90.000000
_cell_volume 2676.967723
_symmetry_space_group_name_H-M "P B C M"
_symmetry_group_IT_number 57
_symmetry_cell_setting 'orthorhombic'
loop_
_space_group_symop_operation_xyz
x,y,z
-x,-y,1/2+z
x,1/2-y,-z
-x,1/2+y,1/2-z
-x,-y,-z
x,y,1/2-z
-x,1/2+y,z
x,1/2-y,1/2+z
loop_
_atom_site_type_symbol
_atom_site_label
_atom_site_fract_x
_atom_site_fract_y
_atom_site_fract_z
Si Si1 0.644781 0.346077 0.015642
Si Si2 0.352328 0.445558 0.250000
Si Si3 0.876142 0.309172 0.404661
Si Si4 0.457504 0.815360 0.750000
Si Si5 0.701492 0.494967 0.018092
Si Si6 0.552799 0.959454 0.750000
Si Si7 0.484230 0.176844 0.750000
Si Si8 0.930596 0.042386 0.597516
O O1 0.612581 0.311102 0.880598
O O2 0.658317 0.422844 0.985064
O O3 0.753668 0.321207 0.071596
O O4 0.555062 0.339044 0.123147
O O5 0.293133 0.464709 0.383027
O O6 0.457945 0.489185 0.250000
O O7 0.387008 0.370505 0.250000
O O8 0.908899 0.250000 0.500000
O O9 0.892355 0.293916 0.250000
O O10 0.928159 0.379746 0.433987
O O11 0.511982 0.885563 0.750000
O O12 0.534839 0.754250 0.750000
O O13 0.622919 0.527141 0.121621
O O14 0.813023 0.483039 0.082037
O O15 0.962845 0.034987 0.750000
O O16 0.000000 0.000000 0.500000
#
# Coordination Sequence:
#
# PCOD9438453 Si02
#       8
#     8   4   8   4   8   4   4   8
#     4  11  20  34  51  79 118 153 190 234 291 349
#     4  12  22  34  59  82 113 160 201 230 277 347
#     4  10  21  36  57  87 123 154 183 234 302 368
#     4  12  24  32  50  80 114 158 203 238 279 339
#     4  11  21  38  59  87 113 153 200 244 287 345
#     4  12  20  38  57  80 117 156 201 232 277 341
#     4  12  22  34  50  76 118 158 193 240 281 327
#     4  10  23  42  65  91 120 150 195 254 307 351
#
# _framework density 17.930737000000001
#
# number of rings (size 3 to 8) (size 9 to 14) (size 15 to 20)
#    0.000    1.000    5.000    3.000    2.333    0.667 
#    0.000    0.000    0.000    2.000    0.000    0.000 
#    0.000    0.000    0.000    0.000    0.000    0.000 
#
# Total GULP energy -268248.757850 kJ/mol
# GULP energy per Si atom -5588.515789 kJ/mol
# Density = 1.788993 g / cm^3
# Si number density = 17.930737 Si / 1000 Ang^3
#
#
#
# Elastic Constant Matrix: (Units=GPa)
#
#
# Indices 1 2 3 4 5 6 
#
# 1 27.2131 28.8815 16.0942 0.0000 0.0000 0.0000
# 2 28.8815 131.2791 46.7569 0.0000 0.0000 0.0000
# 3 16.0942 46.7569 127.5411 0.0000 0.0000 0.0000
# 4 0.0000 0.0000 0.0000 50.0602 0.0000 0.0000
# 5 0.0000 0.0000 0.0000 0.0000 27.4270 0.0000
# 6 0.0000 0.0000 0.0000 0.0000 0.0000 27.6181
#
#
#
# Elastic Compliance Matrix: (Units=1/GPa)
#
#
# Indices 1 2 3 4 5 6 
#
# 1 0.048650 -0.009796 -0.002548 0.000000 0.000000 0.000000
# 2 -0.009796 0.010734 -0.002699 0.000000 0.000000 0.000000
# 3 -0.002548 -0.002699 0.009152 0.000000 0.000000 0.000000
# 4 0.000000 0.000000 0.000000 0.019976 0.000000 0.000000
# 5 0.000000 0.000000 0.000000 0.000000 0.036460 0.000000
# 6 0.000000 0.000000 0.000000 0.000000 0.000000 0.036208
#
#
# Mechanical properties :
#
#
# Convention : Reuss Voigt Hill
#
# Bulk Modulus (GPa) = 26.00755 52.16650 39.08703
# Shear Modulus (GPa) = 24.50002 33.97444 29.23723
#
# Velocity S-wave (km/s) = 3.70045 4.35761 4.04241
# Velocity P-wave (km/s) = 5.72658 7.38070 6.60562
#
# Compressibility (1/GPa) = 0.03845037
#
# Stress axis : x y z
#
# Youngs Moduli (GPa) = 20.55495 93.16500 109.27101
#
# Poissons Ratio (x) = 0.91260 0.27842
# Poissons Ratio (y) = 0.20135 0.29491
# Poissons Ratio (z) = 0.05237 0.25144
#
# Static dielectric constant tensor:
#      x y z
#    x 1.577980 0.000000 0.000000 
#    y 0.000000 1.629830 0.000000 
#    z 0.000000 0.000000 1.613990 
# 
# From -- ./inp_files/3237.got.cif
#   From: 2010.05.17/outbox.cif.g08.bks.cpg/sg57_2_cif.got.tgz:3237.got - 2010.06.03 13:58:18.
