data_PCOD9438944
_publ_section_title
;
Structure prediction by ZEFSAII (Michael W. Deem and Ramdas Pophale) SiO2 
 PCOD9438944
Probable space group: P B C M
;
_chemical_formula_sum "Si O2"
_cell_formula_units_Z 60
_cell_length_a 11.692196
_cell_length_b 25.664069
_cell_length_c 9.701492
_cell_angle_alpha 90.000000
_cell_angle_beta 90.000000
_cell_angle_gamma 90.000000
_cell_volume 2911.120155
_symmetry_space_group_name_H-M "P B C M"
_symmetry_group_IT_number 57
_symmetry_cell_setting 'orthorhombic'
loop_
_space_group_symop_operation_xyz
x,y,z
-x,-y,1/2+z
x,1/2-y,-z
-x,1/2+y,1/2-z
-x,-y,-z
x,y,1/2-z
-x,1/2+y,z
x,1/2-y,1/2+z
loop_
_atom_site_type_symbol
_atom_site_label
_atom_site_fract_x
_atom_site_fract_y
_atom_site_fract_z
Si Si1 0.482503 0.798554 0.593270
Si Si2 0.384689 0.994192 0.088381
Si Si3 0.757113 0.702088 0.094278
Si Si4 0.853741 0.980167 0.013635
Si Si5 0.019107 0.981100 0.750000
Si Si6 0.649119 0.371732 0.407861
Si Si7 0.106409 0.134014 0.905353
Si Si8 0.126305 0.697250 0.588093
O O1 0.442635 0.750000 0.500000
O O2 0.440379 0.794371 0.750000
O O3 0.620044 0.797369 0.596522
O O4 0.440979 0.850055 0.517095
O O5 0.401410 0.008406 0.250000
O O6 0.344287 0.933779 0.085156
O O7 0.500000 0.000000 0.000000
O O8 0.279908 0.025050 0.019396
O O9 0.799840 0.706707 0.250000
O O10 0.797244 0.750000 0.000000
O O11 0.803674 0.651332 0.019639
O O12 0.902699 0.927988 0.087196
O O13 0.883311 0.023642 0.126393
O O14 0.920404 0.986909 0.871262
O O15 0.614318 0.358287 0.250000
O O16 0.766808 0.341159 0.436667
O O17 0.142785 0.148699 0.750000
O O18 0.988642 0.163789 0.936535
O O19 0.130162 0.750000 0.500000
O O20 0.127567 0.711264 0.750000
#
# Coordination Sequence:
#
# PCOD9438944 Si02
#       8
#     8   8   8   8   4   8   8   8
#     4  10  21  39  62  91 122 161 211 265 316 382
#     4  11  27  47  68  97 139 182 232 291 349 411
#     4  10  22  39  61  88 124 162 206 260 320 385
#     4  11  24  45  69 100 132 178 227 286 343 409
#     4  10  24  42  74  96 134 166 228 288 340 408
#     4  10  23  42  66  89 123 173 214 266 328 389
#     4  11  24  40  64  94 130 172 213 264 327 399
#     4  10  23  42  63  94 132 168 212 265 325 393
#
# _framework density 20.610621999999999
#
# number of rings (size 3 to 8) (size 9 to 14) (size 15 to 20)
#    0.000    1.600    1.333    1.600    7.467    5.333 
#    0.000    0.000    0.000    0.000    0.000    0.000 
#    0.000    0.000    0.000    0.000    0.000    0.000 
#
# Total GULP energy -334148.390471 kJ/mol
# GULP energy per Si atom -5569.139841 kJ/mol
# Density = 2.056371 g / cm^3
# Si number density = 20.610622 Si / 1000 Ang^3
#
#
#
# Elastic Constant Matrix: (Units=GPa)
#
#
# Indices 1 2 3 4 5 6 
#
# 1 89.7705 11.6531 52.9428 0.0000 0.0000 0.0000
# 2 11.6531 59.5496 21.4326 0.0000 0.0000 0.0000
# 3 52.9428 21.4326 159.5361 0.0000 0.0000 0.0000
# 4 0.0000 0.0000 0.0000 23.4747 0.0000 0.0000
# 5 0.0000 0.0000 0.0000 0.0000 -42.5098 0.0000
# 6 0.0000 0.0000 0.0000 0.0000 0.0000 26.9030
#
#
#
# Elastic Compliance Matrix: (Units=1/GPa)
#
#
# Indices 1 2 3 4 5 6 
#
# 1 0.013920 -0.001115 -0.004470 0.000000 0.000000 0.000000
# 2 -0.001115 0.017735 -0.002012 0.000000 0.000000 0.000000
# 3 -0.004470 -0.002012 0.008022 0.000000 0.000000 0.000000
# 4 0.000000 0.000000 0.000000 0.042599 0.000000 0.000000
# 5 0.000000 0.000000 0.000000 0.000000 -0.023524 0.000000
# 6 0.000000 0.000000 0.000000 0.000000 0.000000 0.037171
#
#
# Mechanical properties :
#
#
# Convention : Reuss Voigt Hill
#
# Bulk Modulus (GPa) = 40.84563 53.43479 47.14021
# Shear Modulus (GPa) = 41.91857 16.42877 29.17367
#
# Velocity S-wave (km/s) = 4.51470 2.82636 3.76635
# Velocity P-wave (km/s) = 6.85838 6.05254 6.46802
#
# Compressibility (1/GPa) = 0.02448242
#
# Stress axis : x y z
#
# Youngs Moduli (GPa) = 71.83741 56.38475 124.66001
#
# Poissons Ratio (x) = 0.06289 0.55719
# Poissons Ratio (y) = 0.08012 0.25088
# Poissons Ratio (z) = 0.32109 0.11347
#
# Static dielectric constant tensor:
#      x y z
#    x 1.751690 0.000000 0.000000 
#    y 0.000000 1.821330 0.000000 
#    z 0.000000 0.000000 1.704700 
# 
# From -- ./inp_files/3464.got.cif
#   From: 2010.05.17/outbox.cif.g08.bks.cpg/sg57_2_cif.got.tgz:3464.got - 2010.06.03 13:58:18.
