data_PCOD9438519
_publ_section_title
;
Structure prediction by ZEFSAII (Michael W. Deem and Ramdas Pophale) SiO2 
 PCOD9438519
Probable space group: P B C M
;
_chemical_formula_sum "Si O2"
_cell_formula_units_Z 56
_cell_length_a 18.977384
_cell_length_b 5.211118
_cell_length_c 24.916381
_cell_angle_alpha 90.000000
_cell_angle_beta 90.000000
_cell_angle_gamma 90.000000
_cell_volume 2464.065318
_symmetry_space_group_name_H-M "P B C M"
_symmetry_group_IT_number 57
_symmetry_cell_setting 'orthorhombic'
loop_
_space_group_symop_operation_xyz
x,y,z
-x,-y,1/2+z
x,1/2-y,-z
-x,1/2+y,1/2-z
-x,-y,-z
x,y,1/2-z
-x,1/2+y,z
x,1/2-y,1/2+z
loop_
_atom_site_type_symbol
_atom_site_label
_atom_site_fract_x
_atom_site_fract_y
_atom_site_fract_z
Si Si1 0.827184 0.350239 0.162585
Si Si2 0.028908 0.478008 0.060142
Si Si3 0.177044 0.348544 0.407623
Si Si4 0.949418 0.402763 0.250000
Si Si5 0.326949 0.043329 0.591873
Si Si6 0.474085 0.196312 0.940091
Si Si7 0.670900 0.045062 0.837855
Si Si8 0.550160 0.106250 0.750000
O O1 0.829605 0.560556 0.114557
O O2 0.894201 0.393946 0.200303
O O3 0.749067 0.405381 0.186928
O O4 0.826415 0.058288 0.140754
O O5 0.110306 0.416643 0.057188
O O6 0.011296 0.744682 0.088072
O O7 0.000000 0.500000 0.000000
O O8 0.251900 0.401755 0.434702
O O9 0.998291 0.656852 0.250000
O O10 0.394425 0.105709 0.556759
O O11 0.330398 0.253799 0.640035
O O12 0.331215 0.755561 0.614263
O O13 0.483280 0.469289 0.912126
O O14 0.502598 0.250000 0.000000
O O15 0.604793 0.094382 0.799741
O O16 0.502573 0.362520 0.750000
#
# Coordination Sequence:
#
# PCOD9438519 Si02
#       8
#     8   8   8   4   8   8   8   4
#     4  10  22  40  60  82 115 157 191 241 292 344
#     4  10  21  37  57  82 117 151 186 231 287 356
#     4  10  21  38  61  85 113 152 198 235 284 349
#     4  12  25  38  57  90 116 142 200 244 293 340
#     4  10  21  38  61  87 111 154 202 240 280 347
#     4  10  21  37  58  84 117 150 187 237 299 343
#     4  10  22  40  60  82 119 157 196 235 294 347
#     4  12  25  38  57  90 124 154 198 246 297 350
#
# _framework density 22.726669999999999
#
# number of rings (size 3 to 8) (size 9 to 14) (size 15 to 20)
#    0.000    1.714    0.000    3.857    0.000    6.857 
#    2.571    5.714    6.286    0.000    0.000    0.000 
#    0.000    0.000    0.000    0.000    0.000    0.000 
#
# Total GULP energy -312774.103138 kJ/mol
# GULP energy per Si atom -5585.251842 kJ/mol
# Density = 2.267494 g / cm^3
# Si number density = 22.726670 Si / 1000 Ang^3
#
#
#
# Elastic Constant Matrix: (Units=GPa)
#
#
# Indices 1 2 3 4 5 6 
#
# 1 203.2637 37.3184 29.8779 0.0000 0.0000 0.0000
# 2 37.3184 149.7732 -1.6192 0.0000 0.0000 0.0000
# 3 29.8779 -1.6192 27.3268 0.0000 0.0000 0.0000
# 4 0.0000 0.0000 0.0000 11.8091 0.0000 0.0000
# 5 0.0000 0.0000 0.0000 0.0000 119.6607 0.0000
# 6 0.0000 0.0000 0.0000 0.0000 0.0000 40.5300
#
#
#
# Elastic Compliance Matrix: (Units=1/GPa)
#
#
# Indices 1 2 3 4 5 6 
#
# 1 0.006235 -0.001628 -0.006913 0.000000 0.000000 0.000000
# 2 -0.001628 0.007106 0.002201 0.000000 0.000000 0.000000
# 3 -0.006913 0.002201 0.044283 0.000000 0.000000 0.000000
# 4 0.000000 0.000000 0.000000 0.084680 0.000000 0.000000
# 5 0.000000 0.000000 0.000000 0.000000 0.008357 0.000000
# 6 0.000000 0.000000 0.000000 0.000000 0.000000 0.024673
#
#
# Mechanical properties :
#
#
# Convention : Reuss Voigt Hill
#
# Bulk Modulus (GPa) = 22.25002 56.83534 39.54268
# Shear Modulus (GPa) = 24.63092 55.38573 40.00833
#
# Velocity S-wave (km/s) = 3.29567 4.94199 4.20028
# Velocity P-wave (km/s) = 4.92884 7.59124 6.40001
#
# Compressibility (1/GPa) = 0.04494378
#
# Stress axis : x y z
#
# Youngs Moduli (GPa) = 160.38835 140.72087 22.58186
#
# Poissons Ratio (x) = 0.22913 0.15612
# Poissons Ratio (y) = 0.26115 -0.04971
# Poissons Ratio (z) = 1.10883 -0.30977
#
# Static dielectric constant tensor:
#      x y z
#    x 1.857420 0.000000 0.000000 
#    y 0.000000 1.954280 0.000000 
#    z 0.000000 0.000000 1.827000 
# 
# From -- ./inp_files/29875.got.cif
#   From: 2010.05.17/outbox.cif.g08.bks.cpg/sg57_15_cif.got.tgz:29875.got - 2010.06.03 13:58:18.
