data_PCOD9438932
_publ_section_title
;
Structure prediction by ZEFSAII (Michael W. Deem and Ramdas Pophale) SiO2 
 PCOD9438932
Probable space group: P B C M
;
_chemical_formula_sum "Si O2"
_cell_formula_units_Z 40
_cell_length_a 4.850516
_cell_length_b 17.526105
_cell_length_c 20.886591
_cell_angle_alpha 90.000000
_cell_angle_beta 90.000000
_cell_angle_gamma 90.000000
_cell_volume 1775.582734
_symmetry_space_group_name_H-M "P B C M"
_symmetry_group_IT_number 57
_symmetry_cell_setting 'orthorhombic'
loop_
_space_group_symop_operation_xyz
x,y,z
-x,-y,1/2+z
x,1/2-y,-z
-x,1/2+y,1/2-z
-x,-y,-z
x,y,1/2-z
-x,1/2+y,z
x,1/2-y,1/2+z
loop_
_atom_site_type_symbol
_atom_site_label
_atom_site_fract_x
_atom_site_fract_y
_atom_site_fract_z
Si Si1 0.303591 0.865551 0.594001
Si Si2 0.822476 0.664914 0.483555
Si Si3 0.522726 0.360050 0.324107
Si Si4 0.366427 0.031078 0.933176
Si Si5 0.968197 0.747954 0.821691
O O1 0.627913 0.858810 0.577250
O O2 0.150378 0.815352 0.647124
O O3 0.144522 0.834193 0.532148
O O4 0.231697 0.955302 0.596488
O O5 0.736096 0.750000 0.500000
O O6 0.801347 0.601863 0.538331
O O7 0.446137 0.380789 0.250000
O O8 0.526259 0.429074 0.374557
O O9 0.821397 0.322617 0.321834
O O10 0.312812 0.292015 0.346266
O O11 0.500000 0.000000 0.000000
O O12 0.899588 0.773403 0.750000
#
# Coordination Sequence:
#
# PCOD9438932 Si02
#       5
#     8   8   8   8   8
#     4  11  22  36  56  85 116 148 188 243 295 342
#     4  11  22  37  57  82 114 155 194 237 288 348
#     4  10  22  41  63  85 116 158 201 243 294 359
#     4  10  23  39  59  90 125 156 197 248 302 356
#     4  10  21  39  62  86 114 155 203 245 291 357
#
# _framework density 22.527815
#
# number of rings (size 3 to 8) (size 9 to 14) (size 15 to 20)
#    0.000    1.600    0.000    4.800    0.000    8.800 
#    0.000    0.000    0.000    8.400    0.000    0.000 
#    0.000    0.000    0.000    0.000    0.000    0.000 
#
# Total GULP energy -222744.164655 kJ/mol
# GULP energy per Si atom -5568.604116 kJ/mol
# Density = 2.247654 g / cm^3
# Si number density = 22.527815 Si / 1000 Ang^3
#
#
#
# Elastic Constant Matrix: (Units=GPa)
#
#
# Indices 1 2 3 4 5 6 
#
# 1 79.5451 -1.8515 -12.6002 0.0000 0.0000 0.0000
# 2 -1.8515 121.2754 37.2112 0.0000 0.0000 0.0000
# 3 -12.6002 37.2112 73.2837 0.0000 0.0000 0.0000
# 4 0.0000 0.0000 0.0000 2.8462 0.0000 0.0000
# 5 0.0000 0.0000 0.0000 0.0000 20.7928 0.0000
# 6 0.0000 0.0000 0.0000 0.0000 0.0000 2.4580
#
#
#
# Elastic Compliance Matrix: (Units=1/GPa)
#
#
# Indices 1 2 3 4 5 6 
#
# 1 0.012957 -0.000575 0.002520 0.000000 0.000000 0.000000
# 2 -0.000575 0.009793 -0.005072 0.000000 0.000000 0.000000
# 3 0.002520 -0.005072 0.016654 0.000000 0.000000 0.000000
# 4 0.000000 0.000000 0.000000 0.351340 0.000000 0.000000
# 5 0.000000 0.000000 0.000000 0.000000 0.048093 0.000000
# 6 0.000000 0.000000 0.000000 0.000000 0.000000 0.406840
#
#
# Mechanical properties :
#
#
# Convention : Reuss Voigt Hill
#
# Bulk Modulus (GPa) = 30.16543 35.51367 32.83955
# Shear Modulus (GPa) = 5.79387 21.97572 13.88480
#
# Velocity S-wave (km/s) = 1.60545 3.12668 2.48531
# Velocity P-wave (km/s) = 4.10560 5.36967 4.77961
#
# Compressibility (1/GPa) = 0.03315053
#
# Stress axis : x y z
#
# Youngs Moduli (GPa) = 77.17670 102.11361 60.04543
#
# Poissons Ratio (x) = 0.05876 -0.15132
# Poissons Ratio (y) = 0.04441 0.30452
# Poissons Ratio (z) = -0.19449 0.51787
#
# Static dielectric constant tensor:
#      x y z
#    x 1.849520 0.000000 0.000000 
#    y 0.000000 1.851660 0.000000 
#    z 0.000000 0.000000 1.951000 
# 
# From -- ./inp_files/23586.got.cif
#   From: 2010.05.17/outbox.cif.g08.bks.cpg/sg57_12_cif.got.tgz:23586.got - 2010.06.03 13:58:18.
