data_PCOD9438081
_publ_section_title
;
Structure prediction by ZEFSAII (Michael W. Deem and Ramdas Pophale) SiO2 
 PCOD9438081
Probable space group: P B C M
;
_chemical_formula_sum "Si O2"
_cell_formula_units_Z 48
_cell_length_a 5.473020
_cell_length_b 15.690105
_cell_length_c 24.988434
_cell_angle_alpha 90.000000
_cell_angle_beta 90.000000
_cell_angle_gamma 90.000000
_cell_volume 2145.813263
_symmetry_space_group_name_H-M "P B C M"
_symmetry_group_IT_number 57
_symmetry_cell_setting 'orthorhombic'
loop_
_space_group_symop_operation_xyz
x,y,z
-x,-y,1/2+z
x,1/2-y,-z
-x,1/2+y,1/2-z
-x,-y,-z
x,y,1/2-z
-x,1/2+y,z
x,1/2-y,1/2+z
loop_
_atom_site_type_symbol
_atom_site_label
_atom_site_fract_x
_atom_site_fract_y
_atom_site_fract_z
Si Si1 0.056433 0.486405 0.852959
Si Si2 0.692118 0.691901 0.581341
Si Si3 0.446768 0.380540 0.917513
Si Si4 0.191541 0.670215 0.850999
Si Si5 0.784045 0.518041 0.541859
Si Si6 0.261388 0.847057 0.807160
O O1 0.237774 0.441233 0.894469
O O2 0.158554 0.574156 0.829184
O O3 0.848750 0.515646 0.894555
O O4 0.958329 0.414784 0.813173
O O5 0.645978 0.788844 0.563127
O O6 0.451347 0.671084 0.617610
O O7 0.708852 0.616623 0.538167
O O8 0.956272 0.691182 0.611318
O O9 0.600012 0.438412 0.958562
O O10 0.593490 0.359728 0.862408
O O11 0.189102 0.748056 0.809734
O O12 0.000000 0.500000 0.500000
O O13 0.387732 0.863677 0.750000
#
# Coordination Sequence:
#
# PCOD9438081 Si02
#       6
#     8   8   8   8   8   8
#     4  10  20  39  66  87 131 174 216 275 346 396
#     4  10  20  39  67  92 129 176 222 267 344 403
#     4  10  20  40  66  91 134 183 218 284 345 412
#     4  10  20  38  65  91 126 178 215 271 337 407
#     4  10  22  40  68  99 134 176 231 284 341 419
#     4  10  22  38  61  94 129 171 228 280 334 407
#
# _framework density 22.369143999999999
#
# number of rings (size 3 to 8) (size 9 to 14) (size 15 to 20)
#    0.000    2.000    3.333    0.000    0.000    2.000 
#    0.000    0.833    7.333    0.000    0.000    0.000 
#    0.000    0.000    0.000    0.000    0.000    0.000 
#
# Total GULP energy -267400.477635 kJ/mol
# GULP energy per Si atom -5570.843284 kJ/mol
# Density = 2.231823 g / cm^3
# Si number density = 22.369144 Si / 1000 Ang^3
#
#
#
# Elastic Constant Matrix: (Units=GPa)
#
#
# Indices 1 2 3 4 5 6 
#
# 1 84.2663 32.1483 25.2143 0.0000 0.0000 0.0000
# 2 32.1483 216.0023 42.2581 0.0000 0.0000 0.0000
# 3 25.2143 42.2581 88.3319 0.0000 0.0000 0.0000
# 4 0.0000 0.0000 0.0000 -6.2423 0.0000 0.0000
# 5 0.0000 0.0000 0.0000 0.0000 4.1672 0.0000
# 6 0.0000 0.0000 0.0000 0.0000 0.0000 36.4319
#
#
#
# Elastic Compliance Matrix: (Units=1/GPa)
#
#
# Indices 1 2 3 4 5 6 
#
# 1 0.013332 -0.001368 -0.003151 0.000000 0.000000 0.000000
# 2 -0.001368 0.005248 -0.002120 0.000000 0.000000 0.000000
# 3 -0.003151 -0.002120 0.013235 0.000000 0.000000 0.000000
# 4 0.000000 0.000000 0.000000 -0.160197 0.000000 0.000000
# 5 0.000000 0.000000 0.000000 0.000000 0.239972 0.000000
# 6 0.000000 0.000000 0.000000 0.000000 0.000000 0.027448
#
#
# Mechanical properties :
#
#
# Convention : Reuss Voigt Hill
#
# Bulk Modulus (GPa) = 53.94848 65.31578 59.63213
# Shear Modulus (GPa) = 31.54670 26.13667 28.84168
#
# Velocity S-wave (km/s) = 3.75944 3.42193 3.59465
# Velocity P-wave (km/s) = 6.55852 6.69890 6.62908
#
# Compressibility (1/GPa) = 0.01853620
#
# Stress axis : x y z
#
# Youngs Moduli (GPa) = 75.00829 190.55118 75.55847
#
# Poissons Ratio (x) = 0.26062 0.23810
# Poissons Ratio (y) = 0.10259 0.16020
# Poissons Ratio (z) = 0.23637 0.40401
#
# Static dielectric constant tensor:
#      x y z
#    x 1.445480 0.000000 0.000000 
#    y 0.000000 1.894090 0.000000 
#    z 0.000000 0.000000 1.881480 
# 
# From -- ./inp_files/27951.got.cif
#   From: 2010.05.17/outbox.cif.g08.bks.cpg/sg57_14_cif.got.tgz:27951.got - 2010.06.03 13:58:18.
