data_PCOD9438120
_publ_section_title
;
Structure prediction by ZEFSAII (Michael W. Deem and Ramdas Pophale) SiO2 
 PCOD9438120
Probable space group: P B C M
;
_chemical_formula_sum "Si O2"
_cell_formula_units_Z 64
_cell_length_a 10.163847
_cell_length_b 10.634722
_cell_length_c 27.373671
_cell_angle_alpha 90.000000
_cell_angle_beta 90.000000
_cell_angle_gamma 90.000000
_cell_volume 2958.811539
_symmetry_space_group_name_H-M "P B C M"
_symmetry_group_IT_number 57
_symmetry_cell_setting 'orthorhombic'
loop_
_space_group_symop_operation_xyz
x,y,z
-x,-y,1/2+z
x,1/2-y,-z
-x,1/2+y,1/2-z
-x,-y,-z
x,y,1/2-z
-x,1/2+y,z
x,1/2-y,1/2+z
loop_
_atom_site_type_symbol
_atom_site_label
_atom_site_fract_x
_atom_site_fract_y
_atom_site_fract_z
Si Si1 0.645035 0.048097 0.986913
Si Si2 0.177230 0.421579 0.305642
Si Si3 0.081551 0.899324 0.620076
Si Si4 0.695582 0.269830 0.576163
Si Si5 0.829305 0.771593 0.604225
Si Si6 0.488076 0.085951 0.805288
Si Si7 0.880832 0.928486 0.028243
Si Si8 0.546709 0.843372 0.637820
O O1 0.696568 0.149085 0.026629
O O2 0.753142 0.940448 0.993911
O O3 0.652187 0.128051 0.937180
O O4 0.500000 0.000000 0.000000
O O5 0.139499 0.388917 0.250000
O O6 0.110438 0.546409 0.326908
O O7 0.151084 0.314726 0.346657
O O8 0.333228 0.448198 0.305816
O O9 0.167789 0.776706 0.605809
O O10 0.134963 0.994676 0.579093
O O11 0.927705 0.885766 0.612361
O O12 0.582537 0.342587 0.605096
O O13 0.882600 0.708233 0.553828
O O14 0.675691 0.806360 0.606609
O O15 0.537384 0.084654 0.750000
O O16 0.560296 0.977616 0.836019
O O17 0.484838 0.227793 0.825584
O O18 0.000000 0.000000 0.000000
#
# Coordination Sequence:
#
# PCOD9438120 Si02
#       8
#     8   8   8   8   8   8   8   8
#     4  10  21  35  56  82 116 150 204 251 305 367
#     4   9  19  38  61  83 116 160 198 249 320 382
#     4  10  20  39  58  82 116 154 206 244 311 371
#     4  10  21  36  57  83 114 160 198 252 305 372
#     4  10  22  37  59  88 118 156 206 261 312 364
#     4  10  21  40  65  93 123 164 206 254 321 387
#     4  10  21  38  59  81 117 163 201 253 306 376
#     4  11  22  39  65  91 127 161 206 263 314 375
#
# _framework density 21.630303999999999
#
# number of rings (size 3 to 8) (size 9 to 14) (size 15 to 20)
#    0.000    2.000    1.250    1.875    3.500    3.500 
#    4.500    0.000    0.000    0.000    0.000    0.000 
#    0.000    0.000    0.000    0.000    0.000    0.000 
#
# Total GULP energy -356718.759974 kJ/mol
# GULP energy per Si atom -5573.730625 kJ/mol
# Density = 2.158107 g / cm^3
# Si number density = 21.630304 Si / 1000 Ang^3
#
#
#
# Elastic Constant Matrix: (Units=GPa)
#
#
# Indices 1 2 3 4 5 6 
#
# 1 58.6971 -2.2392 2.4438 0.0000 0.0000 0.0000
# 2 -2.2392 51.9506 19.1021 0.0000 0.0000 0.0000
# 3 2.4438 19.1021 98.3972 0.0000 0.0000 0.0000
# 4 0.0000 0.0000 0.0000 27.2157 0.0000 0.0000
# 5 0.0000 0.0000 0.0000 0.0000 9.8084 0.0000
# 6 0.0000 0.0000 0.0000 0.0000 0.0000 22.5365
#
#
#
# Elastic Compliance Matrix: (Units=1/GPa)
#
#
# Indices 1 2 3 4 5 6 
#
# 1 0.017099 0.000962 -0.000611 0.000000 0.000000 0.000000
# 2 0.000962 0.020783 -0.004059 0.000000 0.000000 0.000000
# 3 -0.000611 -0.004059 0.010966 0.000000 0.000000 0.000000
# 4 0.000000 0.000000 0.000000 0.036743 0.000000 0.000000
# 5 0.000000 0.000000 0.000000 0.000000 0.101953 0.000000
# 6 0.000000 0.000000 0.000000 0.000000 0.000000 0.044373
#
#
# Mechanical properties :
#
#
# Convention : Reuss Voigt Hill
#
# Bulk Modulus (GPa) = 24.13631 27.51759 25.82695
# Shear Modulus (GPa) = 19.75165 24.56133 22.15649
#
# Velocity S-wave (km/s) = 3.02511 3.37338 3.20398
# Velocity P-wave (km/s) = 4.83575 5.28416 5.06492
#
# Compressibility (1/GPa) = 0.04143135
#
# Stress axis : x y z
#
# Youngs Moduli (GPa) = 58.48377 48.11673 91.19123
#
# Poissons Ratio (x) = -0.04628 0.05575
# Poissons Ratio (y) = -0.05625 0.37010
# Poissons Ratio (z) = 0.03576 0.19528
#
# Static dielectric constant tensor:
#      x y z
#    x 1.777240 0.000000 0.000000 
#    y 0.000000 2.033010 0.000000 
#    z 0.000000 0.000000 1.775570 
# 
# From -- ./inp_files/29617.got.cif
#   From: 2010.05.17/outbox.cif.g08.bks.cpg/sg57_15_cif.got.tgz:29617.got - 2010.06.03 13:58:18.
