data_PCOD9438019
_publ_section_title
;
Structure prediction by ZEFSAII (Michael W. Deem and Ramdas Pophale) SiO2 
 PCOD9438019
Probable space group: P B C M
;
_chemical_formula_sum "Si O2"
_cell_formula_units_Z 48
_cell_length_a 5.069312
_cell_length_b 18.295500
_cell_length_c 21.372861
_cell_angle_alpha 90.000000
_cell_angle_beta 90.000000
_cell_angle_gamma 90.000000
_cell_volume 1982.238768
_symmetry_space_group_name_H-M "P B C M"
_symmetry_group_IT_number 57
_symmetry_cell_setting 'orthorhombic'
loop_
_space_group_symop_operation_xyz
x,y,z
-x,-y,1/2+z
x,1/2-y,-z
-x,1/2+y,1/2-z
-x,-y,-z
x,y,1/2-z
-x,1/2+y,z
x,1/2-y,1/2+z
loop_
_atom_site_type_symbol
_atom_site_label
_atom_site_fract_x
_atom_site_fract_y
_atom_site_fract_z
Si Si1 0.635468 0.890085 0.872349
Si Si2 0.766523 0.055682 0.614489
Si Si3 0.442188 0.941254 0.750000
Si Si4 0.002784 0.739871 0.177264
Si Si5 0.391015 0.766844 0.937577
Si Si6 0.941373 0.034760 0.750000
Si Si7 0.755922 0.855292 0.099213
O O1 0.421142 0.901977 0.816434
O O2 0.843380 0.832494 0.843812
O O3 0.493511 0.848863 0.929020
O O4 0.757829 0.967881 0.891666
O O5 0.474437 0.085646 0.606209
O O6 0.984806 0.101268 0.576587
O O7 0.856420 0.071195 0.685924
O O8 0.750244 0.963680 0.750000
O O9 0.242156 0.008800 0.750000
O O10 0.077484 0.736378 0.250000
O O11 0.815865 0.809469 0.162783
O O12 0.234856 0.749595 0.126511
O O13 0.631464 0.709472 0.941619
O O14 0.228881 0.750000 0.000000
#
# Coordination Sequence:
#
# PCOD9438019 Si02
#       7
#     8   8   4   8   8   4   8
#     4  10  24  41  74 104 146 189 247 307 367 437
#     4  11  23  42  69 109 146 189 237 305 371 440
#     4  10  20  38  62 108 140 180 231 296 359 428
#     4  11  25  45  74 111 148 195 248 306 361 442
#     4  11  27  50  74 103 148 203 248 299 371 449
#     4  10  22  34  62 102 156 184 215 284 381 436
#     4  11  25  46  70 104 150 188 242 297 376 437
#
# _framework density 24.215046999999998
#
# number of rings (size 3 to 8) (size 9 to 14) (size 15 to 20)
#    0.000    1.333    2.500    2.000   10.500    3.333 
#    0.000    1.667    0.000    0.000    0.000    0.000 
#    0.000    0.000    0.000    0.000    0.000    0.000 
#
# Total GULP energy -268181.613038 kJ/mol
# GULP energy per Si atom -5587.116938 kJ/mol
# Density = 2.415993 g / cm^3
# Si number density = 24.215047 Si / 1000 Ang^3
#
#
#
# Elastic Constant Matrix: (Units=GPa)
#
#
# Indices 1 2 3 4 5 6 
#
# 1 109.3789 53.8270 20.3975 0.0000 0.0000 0.0000
# 2 53.8270 134.2872 32.4610 0.0000 0.0000 0.0000
# 3 20.3975 32.4610 84.9015 0.0000 0.0000 0.0000
# 4 0.0000 0.0000 0.0000 21.6459 0.0000 0.0000
# 5 0.0000 0.0000 0.0000 0.0000 11.4470 0.0000
# 6 0.0000 0.0000 0.0000 0.0000 0.0000 43.9167
#
#
#
# Elastic Compliance Matrix: (Units=1/GPa)
#
#
# Indices 1 2 3 4 5 6 
#
# 1 0.011482 -0.004336 -0.001101 0.000000 0.000000 0.000000
# 2 -0.004336 0.009843 -0.002721 0.000000 0.000000 0.000000
# 3 -0.001101 -0.002721 0.013083 0.000000 0.000000 0.000000
# 4 0.000000 0.000000 0.000000 0.046198 0.000000 0.000000
# 5 0.000000 0.000000 0.000000 0.000000 0.087359 0.000000
# 6 0.000000 0.000000 0.000000 0.000000 0.000000 0.022770
#
#
# Mechanical properties :
#
#
# Convention : Reuss Voigt Hill
#
# Bulk Modulus (GPa) = 55.27560 60.21540 57.74550
# Shear Modulus (GPa) = 23.46516 30.19407 26.82961
#
# Velocity S-wave (km/s) = 3.11631 3.53500 3.33223
# Velocity P-wave (km/s) = 5.98540 6.44845 6.22123
#
# Compressibility (1/GPa) = 0.01809117
#
# Stress axis : x y z
#
# Youngs Moduli (GPa) = 87.09521 101.59824 76.43350
#
# Poissons Ratio (x) = 0.44055 0.08412
# Poissons Ratio (y) = 0.37766 0.20801
# Poissons Ratio (z) = 0.09585 0.27649
#
# Static dielectric constant tensor:
#      x y z
#    x 1.986750 0.000000 0.000000 
#    y 0.000000 1.963260 0.000000 
#    z 0.000000 0.000000 2.030600 
# 
# From -- ./inp_files/26241.got.cif
#   From: 2010.05.17/outbox.cif.g08.bks.cpg/sg57_14_cif.got.tgz:26241.got - 2010.06.03 13:58:18.
