data_PCOD9438138
_publ_section_title
;
Structure prediction by ZEFSAII (Michael W. Deem and Ramdas Pophale) SiO2 
 PCOD9438138
Probable space group: P B C M
;
_chemical_formula_sum "Si O2"
_cell_formula_units_Z 64
_cell_length_a 9.524466
_cell_length_b 15.509234
_cell_length_c 19.840902
_cell_angle_alpha 90.000000
_cell_angle_beta 90.000000
_cell_angle_gamma 90.000000
_cell_volume 2930.841932
_symmetry_space_group_name_H-M "P B C M"
_symmetry_group_IT_number 57
_symmetry_cell_setting 'orthorhombic'
loop_
_space_group_symop_operation_xyz
x,y,z
-x,-y,1/2+z
x,1/2-y,-z
-x,1/2+y,1/2-z
-x,-y,-z
x,y,1/2-z
-x,1/2+y,z
x,1/2-y,1/2+z
loop_
_atom_site_type_symbol
_atom_site_label
_atom_site_fract_x
_atom_site_fract_y
_atom_site_fract_z
Si Si1 0.054723 0.558283 0.668222
Si Si2 0.231384 0.532230 0.174122
Si Si3 0.672888 0.665604 0.825277
Si Si4 0.278141 0.424546 0.676309
Si Si5 0.856939 0.211623 0.574762
Si Si6 0.450304 0.629040 0.565755
Si Si7 0.518917 0.422516 0.583212
Si Si8 0.051209 0.279039 0.674927
O O1 0.039341 0.578699 0.750000
O O2 0.208644 0.516284 0.661807
O O3 0.058080 0.631558 0.610375
O O4 0.927114 0.492749 0.653807
O O5 0.231638 0.569989 0.250000
O O6 0.299499 0.436535 0.179138
O O7 0.331641 0.579494 0.120920
O O8 0.626605 0.695302 0.750000
O O9 0.561841 0.674402 0.885056
O O10 0.822690 0.710431 0.838564
O O11 0.343831 0.428897 0.750000
O O12 0.393319 0.386961 0.627841
O O13 0.142497 0.364810 0.676392
O O14 0.884384 0.250000 0.500000
O O15 0.698324 0.176483 0.577291
O O16 0.920245 0.283382 0.625053
O O17 0.471053 0.524268 0.576636
O O18 0.476385 0.629556 0.485826
O O19 0.996842 0.262594 0.750000
#
# Coordination Sequence:
#
# PCOD9438138 Si02
#       8
#     8   8   8   8   8   8   8   8
#     4  10  20  40  67  94 124 161 211 270 320 377
#     4   9  17  33  63  93 119 155 205 261 317 371
#     4   9  18  36  63  90 114 153 211 264 312 373
#     4  10  21  38  66  97 125 164 211 262 326 382
#     4  12  25  41  60  92 128 173 215 254 312 388
#     4  10  23  39  58  90 128 169 212 256 322 373
#     4  10  20  39  61  92 131 164 207 266 315 381
#     4  10  22  42  64  92 126 160 210 273 323 371
#
# _framework density 21.836728000000001
#
# number of rings (size 3 to 8) (size 9 to 14) (size 15 to 20)
#    0.000    2.000    2.500    0.750    0.000    4.500 
#    2.250    1.250    0.000    6.750    0.000    0.000 
#    0.000    0.000    0.000    0.000    0.000    0.000 
#
# Total GULP energy -356386.027329 kJ/mol
# GULP energy per Si atom -5568.531677 kJ/mol
# Density = 2.178703 g / cm^3
# Si number density = 21.836728 Si / 1000 Ang^3
#
#
#
# Elastic Constant Matrix: (Units=GPa)
#
#
# Indices 1 2 3 4 5 6 
#
# 1 136.1063 21.7308 119.4411 0.0000 0.0000 0.0000
# 2 21.7308 46.7209 34.3282 0.0000 0.0000 0.0000
# 3 119.4411 34.3282 160.8981 0.0000 0.0000 0.0000
# 4 0.0000 0.0000 0.0000 17.3160 0.0000 0.0000
# 5 0.0000 0.0000 0.0000 0.0000 32.5201 0.0000
# 6 0.0000 0.0000 0.0000 0.0000 0.0000 26.8423
#
#
#
# Elastic Compliance Matrix: (Units=1/GPa)
#
#
# Indices 1 2 3 4 5 6 
#
# 1 0.021239 0.002023 -0.016198 0.000000 0.000000 0.000000
# 2 0.002023 0.025575 -0.006958 0.000000 0.000000 0.000000
# 3 -0.016198 -0.006958 0.019724 0.000000 0.000000 0.000000
# 4 0.000000 0.000000 0.000000 0.057750 0.000000 0.000000
# 5 0.000000 0.000000 0.000000 0.000000 0.030750 0.000000
# 6 0.000000 0.000000 0.000000 0.000000 0.000000 0.037255
#
#
# Mechanical properties :
#
#
# Convention : Reuss Voigt Hill
#
# Bulk Modulus (GPa) = 41.20047 77.19174 59.19611
# Shear Modulus (GPa) = 20.60568 26.55069 23.57819
#
# Velocity S-wave (km/s) = 3.07518 3.49072 3.28952
# Velocity P-wave (km/s) = 5.61404 7.18840 6.44944
#
# Compressibility (1/GPa) = 0.02427157
#
# Stress axis : x y z
#
# Youngs Moduli (GPa) = 47.08297 39.10009 50.69889
#
# Poissons Ratio (x) = -0.07910 0.82123
# Poissons Ratio (y) = -0.09525 0.35278
# Poissons Ratio (z) = 0.76266 0.27207
#
# Static dielectric constant tensor:
#      x y z
#    x 1.766340 0.000000 0.000000 
#    y 0.000000 2.002260 0.000000 
#    z 0.000000 0.000000 1.807320 
# 
# From -- ./inp_files/24619.got.cif
#   From: 2010.05.17/outbox.cif.g08.bks.cpg/sg57_13_cif.got.tgz:24619.got - 2010.06.03 13:58:18.
