data_PCOD9438207
_publ_section_title
;
Structure prediction by ZEFSAII (Michael W. Deem and Ramdas Pophale) SiO2 
 PCOD9438207
Probable space group: P B C M
;
_chemical_formula_sum "Si O2"
_cell_formula_units_Z 40
_cell_length_a 12.401714
_cell_length_b 11.109578
_cell_length_c 14.654800
_cell_angle_alpha 90.000000
_cell_angle_beta 90.000000
_cell_angle_gamma 90.000000
_cell_volume 2019.106236
_symmetry_space_group_name_H-M "P B C M"
_symmetry_group_IT_number 57
_symmetry_cell_setting 'orthorhombic'
loop_
_space_group_symop_operation_xyz
x,y,z
-x,-y,1/2+z
x,1/2-y,-z
-x,1/2+y,1/2-z
-x,-y,-z
x,y,1/2-z
-x,1/2+y,z
x,1/2-y,1/2+z
loop_
_atom_site_type_symbol
_atom_site_label
_atom_site_fract_x
_atom_site_fract_y
_atom_site_fract_z
Si Si1 0.666046 0.981006 0.921409
Si Si2 0.187885 0.088159 0.750000
Si Si3 0.564733 0.139140 0.433110
Si Si4 0.683730 0.147256 0.250000
Si Si5 0.855081 0.786801 0.901189
Si Si6 0.030772 0.060950 0.250000
Si Si7 0.767971 0.112710 0.750000
O O1 0.545561 0.929888 0.910265
O O2 0.752982 0.873713 0.921698
O O3 0.703393 0.065366 0.838439
O O4 0.652526 0.056500 0.014335
O O5 0.183804 0.175046 0.661498
O O6 0.284960 0.992819 0.750000
O O7 0.083509 0.002483 0.750000
O O8 0.539763 0.250000 0.500000
O O9 0.615513 0.177541 0.338780
O O10 0.780254 0.243907 0.250000
O O11 0.940500 0.858765 0.838654
O O12 0.899327 0.750000 0.000000
O O13 0.118378 0.953897 0.250000
#
# Coordination Sequence:
#
# PCOD9438207 Si02
#       7
#     8   4   8   4   8   4   4
#     4  10  21  40  62  90 124 164 202 247 299 362
#     4  11  25  42  63  93 121 157 208 258 309 363
#     4  11  22  38  60  93 127 162 203 248 298 364
#     4  12  24  37  58  92 123 159 202 250 308 361
#     4  10  21  42  66  90 120 160 205 250 307 363
#     4   9  23  41  65  89 120 159 202 260 310 356
#     4  10  20  40  62  84 126 159 202 252 309 362
#
# _framework density 19.810745000000001
#
# number of rings (size 3 to 8) (size 9 to 14) (size 15 to 20)
#    0.000    1.600    2.000    3.000    2.800    2.400 
#    3.600    1.000    0.000    0.000    0.000    0.000 
#    0.000    0.000    0.000    0.000    0.000    0.000 
#
# Total GULP energy -223325.475255 kJ/mol
# GULP energy per Si atom -5583.136881 kJ/mol
# Density = 1.976566 g / cm^3
# Si number density = 19.810745 Si / 1000 Ang^3
#
#
#
# Elastic Constant Matrix: (Units=GPa)
#
#
# Indices 1 2 3 4 5 6 
#
# 1 36.6714 -2.9358 13.9161 0.0000 0.0000 0.0000
# 2 -2.9358 80.2057 18.2187 0.0000 0.0000 0.0000
# 3 13.9161 18.2187 114.4573 0.0000 0.0000 0.0000
# 4 0.0000 0.0000 0.0000 114.0756 0.0000 0.0000
# 5 0.0000 0.0000 0.0000 0.0000 13.6887 0.0000
# 6 0.0000 0.0000 0.0000 0.0000 0.0000 17.0699
#
#
#
# Elastic Compliance Matrix: (Units=1/GPa)
#
#
# Indices 1 2 3 4 5 6 
#
# 1 0.028872 0.001924 -0.003817 0.000000 0.000000 0.000000
# 2 0.001924 0.013064 -0.002313 0.000000 0.000000 0.000000
# 3 -0.003817 -0.002313 0.009569 0.000000 0.000000 0.000000
# 4 0.000000 0.000000 0.000000 0.008766 0.000000 0.000000
# 5 0.000000 0.000000 0.000000 0.000000 0.073053 0.000000
# 6 0.000000 0.000000 0.000000 0.000000 0.000000 0.058583
#
#
# Mechanical properties :
#
#
# Convention : Reuss Voigt Hill
#
# Bulk Modulus (GPa) = 23.20600 32.19247 27.69923
# Shear Modulus (GPa) = 23.29020 42.44253 32.86637
#
# Velocity S-wave (km/s) = 3.43247 4.63363 4.07752
# Velocity P-wave (km/s) = 5.23913 6.70169 6.01503
#
# Compressibility (1/GPa) = 0.04309230
#
# Stress axis : x y z
#
# Youngs Moduli (GPa) = 34.63618 76.54723 104.50276
#
# Poissons Ratio (x) = -0.14726 0.39884
# Poissons Ratio (y) = -0.06663 0.24175
# Poissons Ratio (z) = 0.13219 0.17708
#
# Static dielectric constant tensor:
#      x y z
#    x 1.657480 0.000000 0.000000 
#    y 0.000000 1.729410 0.000000 
#    z 0.000000 0.000000 1.712460 
# 
# From -- ./inp_files/17474.got.cif
#   From: 2010.05.17/outbox.cif.g08.bks.cpg/sg57_9_cif.got.tgz:17474.got - 2010.06.03 13:58:18.
