data_PCOD9438638
_publ_section_title
;
Structure prediction by ZEFSAII (Michael W. Deem and Ramdas Pophale) SiO2 
 PCOD9438638
Probable space group: P B C M
;
_chemical_formula_sum "Si O2"
_cell_formula_units_Z 48
_cell_length_a 5.307952
_cell_length_b 19.054086
_cell_length_c 24.728273
_cell_angle_alpha 90.000000
_cell_angle_beta 90.000000
_cell_angle_gamma 90.000000
_cell_volume 2500.972375
_symmetry_space_group_name_H-M "P B C M"
_symmetry_group_IT_number 57
_symmetry_cell_setting 'orthorhombic'
loop_
_space_group_symop_operation_xyz
x,y,z
-x,-y,1/2+z
x,1/2-y,-z
-x,1/2+y,1/2-z
-x,-y,-z
x,y,1/2-z
-x,1/2+y,z
x,1/2-y,1/2+z
loop_
_atom_site_type_symbol
_atom_site_label
_atom_site_fract_x
_atom_site_fract_y
_atom_site_fract_z
Si Si1 0.473801 0.322872 0.013132
Si Si2 0.863269 0.583118 0.452292
Si Si3 0.166840 0.832189 0.629466
Si Si4 0.135107 0.570863 0.935126
Si Si5 0.898504 0.694675 0.889399
Si Si6 0.326677 0.199324 0.313659
O O1 0.639768 0.380970 0.042893
O O2 0.252896 0.300519 0.054503
O O3 0.611472 0.250000 0.000000
O O4 0.352597 0.358665 0.959943
O O5 0.787642 0.509341 0.425633
O O6 0.095001 0.616730 0.419653
O O7 0.941118 0.568285 0.514360
O O8 0.433639 0.836588 0.658217
O O9 0.123656 0.751467 0.610624
O O10 0.931962 0.840990 0.671216
O O11 0.004015 0.615745 0.887781
O O12 0.721656 0.724421 0.841750
O O13 0.362467 0.205126 0.250000
#
# Coordination Sequence:
#
# PCOD9438638 Si02
#       6
#     8   8   8   8   8   8
#     4  11  19  32  54  85 122 165 208 246 295 366
#     4  10  22  36  51  88 125 168 199 252 300 375
#     4  10  21  37  61  90 113 156 198 254 311 356
#     4  10  22  34  55  83 129 168 204 240 308 370
#     4   9  21  34  52  90 109 157 198 248 300 357
#     4  10  21  38  63  89 114 147 205 267 314 355
#
# _framework density 19.192534999999999
#
# number of rings (size 3 to 8) (size 9 to 14) (size 15 to 20)
#    1.000    1.000    1.667    2.000    7.000    0.000 
#    0.000    0.000    0.000    2.000    0.000    0.000 
#    0.000    0.000    0.000    0.000    0.000    0.000 
#
# Total GULP energy -267388.034709 kJ/mol
# GULP energy per Si atom -5570.584056 kJ/mol
# Density = 1.914885 g / cm^3
# Si number density = 19.192535 Si / 1000 Ang^3
#
#
#
# Elastic Constant Matrix: (Units=GPa)
#
#
# Indices 1 2 3 4 5 6 
#
# 1 83.2108 13.0075 18.7235 0.0000 0.0000 0.0000
# 2 13.0075 103.3920 -2.6225 0.0000 0.0000 0.0000
# 3 18.7235 -2.6225 54.3824 0.0000 0.0000 0.0000
# 4 0.0000 0.0000 0.0000 4.3908 0.0000 0.0000
# 5 0.0000 0.0000 0.0000 0.0000 22.2755 0.0000
# 6 0.0000 0.0000 0.0000 0.0000 0.0000 11.4173
#
#
#
# Elastic Compliance Matrix: (Units=1/GPa)
#
#
# Indices 1 2 3 4 5 6 
#
# 1 0.013353 -0.001799 -0.004684 0.000000 0.000000 0.000000
# 2 -0.001799 0.009926 0.001098 0.000000 0.000000 0.000000
# 3 -0.004684 0.001098 0.020054 0.000000 0.000000 0.000000
# 4 0.000000 0.000000 0.000000 0.227749 0.000000 0.000000
# 5 0.000000 0.000000 0.000000 0.000000 0.044892 0.000000
# 6 0.000000 0.000000 0.000000 0.000000 0.000000 0.087586
#
#
# Mechanical properties :
#
#
# Convention : Reuss Voigt Hill
#
# Bulk Modulus (GPa) = 30.70945 33.24468 31.97706
# Shear Modulus (GPa) = 11.75960 21.74185 16.75072
#
# Velocity S-wave (km/s) = 2.47800 3.36940 2.95748
# Velocity P-wave (km/s) = 4.92166 5.70057 5.32537
#
# Compressibility (1/GPa) = 0.03256327
#
# Stress axis : x y z
#
# Youngs Moduli (GPa) = 74.89059 100.74490 49.86554
#
# Poissons Ratio (x) = 0.18121 0.23357
# Poissons Ratio (y) = 0.13470 -0.05475
# Poissons Ratio (z) = 0.35079 -0.11061
#
# Static dielectric constant tensor:
#      x y z
#    x 1.753140 0.000000 0.000000 
#    y 0.000000 1.714060 0.000000 
#    z 0.000000 0.000000 1.659860 
# 
# From -- ./inp_files/28026.got.cif
#   From: 2010.05.17/outbox.cif.g08.bks.cpg/sg57_15_cif.got.tgz:28026.got - 2010.06.03 13:58:18.
