data_PCOD9438179
_publ_section_title
;
Structure prediction by ZEFSAII (Michael W. Deem and Ramdas Pophale) SiO2 
 PCOD9438179
Probable space group: P B C M
;
_chemical_formula_sum "Si O2"
_cell_formula_units_Z 64
_cell_length_a 15.305013
_cell_length_b 8.657262
_cell_length_c 25.503719
_cell_angle_alpha 90.000000
_cell_angle_beta 90.000000
_cell_angle_gamma 90.000000
_cell_volume 3379.230206
_symmetry_space_group_name_H-M "P B C M"
_symmetry_group_IT_number 57
_symmetry_cell_setting 'orthorhombic'
loop_
_space_group_symop_operation_xyz
x,y,z
-x,-y,1/2+z
x,1/2-y,-z
-x,1/2+y,1/2-z
-x,-y,-z
x,y,1/2-z
-x,1/2+y,z
x,1/2-y,1/2+z
loop_
_atom_site_type_symbol
_atom_site_label
_atom_site_fract_x
_atom_site_fract_y
_atom_site_fract_z
Si Si1 0.932588 0.398959 0.033729
Si Si2 0.209451 0.902678 0.190708
Si Si3 0.057702 0.851894 0.689327
Si Si4 0.599321 0.797929 0.559656
Si Si5 0.475857 0.020036 0.876068
Si Si6 0.793832 0.887109 0.588784
Si Si7 0.067579 0.338683 0.374030
Si Si8 0.600202 0.242555 0.811019
O O1 0.851317 0.502068 0.051660
O O2 0.988181 0.349147 0.084590
O O3 0.906468 0.250000 0.000000
O O4 0.000000 0.500000 0.000000
O O5 0.206021 0.967961 0.250000
O O6 0.128332 0.785521 0.184866
O O7 0.298740 0.805234 0.186119
O O8 0.211093 0.028424 0.145097
O O9 0.052792 0.899961 0.750000
O O10 0.966206 0.782760 0.669348
O O11 0.081349 0.996748 0.653008
O O12 0.582439 0.750000 0.500000
O O13 0.582825 0.648869 0.596144
O O14 0.532684 0.927660 0.580877
O O15 0.698027 0.856608 0.566775
O O16 0.420402 0.896697 0.843332
O O17 0.542446 0.107874 0.837262
O O18 0.848458 0.730099 0.597124
O O19 0.576627 0.261852 0.750000
#
# Coordination Sequence:
#
# PCOD9438179 Si02
#       8
#     8   8   8   8   8   8   8   8
#     4  12  24  43  63  88 123 169 215 265 317 360
#     4  10  22  41  62  90 130 165 207 262 318 380
#     4  11  22  39  63  90 124 173 212 255 319 376
#     4  11  25  45  67  96 127 167 215 268 321 382
#     4  10  22  43  69  92 127 166 206 261 329 393
#     4  12  25  43  64  96 127 165 219 264 318 374
#     4  12  23  40  62  88 127 163 215 267 304 375
#     4  10  20  39  65  96 127 163 206 259 323 393
#
# _framework density 18.939226000000001
#
# number of rings (size 3 to 8) (size 9 to 14) (size 15 to 20)
#    0.000    1.000    5.000    1.125    3.500    2.000 
#    2.250    1.250    0.000    0.000    0.000    0.000 
#    0.000    0.000    0.000    0.000    0.000    0.000 
#
# Total GULP energy -357824.098448 kJ/mol
# GULP energy per Si atom -5591.001538 kJ/mol
# Density = 1.889612 g / cm^3
# Si number density = 18.939226 Si / 1000 Ang^3
#
#
#
# Elastic Constant Matrix: (Units=GPa)
#
#
# Indices 1 2 3 4 5 6 
#
# 1 70.8017 8.3017 28.1986 0.0000 0.0000 0.0000
# 2 8.3017 62.4701 20.9432 0.0000 0.0000 0.0000
# 3 28.1986 20.9432 99.4549 0.0000 0.0000 0.0000
# 4 0.0000 0.0000 0.0000 30.6993 0.0000 0.0000
# 5 0.0000 0.0000 0.0000 0.0000 27.5025 0.0000
# 6 0.0000 0.0000 0.0000 0.0000 0.0000 3.5817
#
#
#
# Elastic Compliance Matrix: (Units=1/GPa)
#
#
# Indices 1 2 3 4 5 6 
#
# 1 0.015946 -0.000649 -0.004385 0.000000 0.000000 0.000000
# 2 -0.000649 0.017250 -0.003448 0.000000 0.000000 0.000000
# 3 -0.004385 -0.003448 0.012024 0.000000 0.000000 0.000000
# 4 0.000000 0.000000 0.000000 0.032574 0.000000 0.000000
# 5 0.000000 0.000000 0.000000 0.000000 0.036360 0.000000
# 6 0.000000 0.000000 0.000000 0.000000 0.000000 0.279197
#
#
# Mechanical properties :
#
#
# Convention : Reuss Voigt Hill
#
# Bulk Modulus (GPa) = 35.39061 38.62376 37.00719
# Shear Modulus (GPa) = 11.91227 24.04225 17.97726
#
# Velocity S-wave (km/s) = 2.51065 3.56679 3.08426
# Velocity P-wave (km/s) = 5.20879 6.11559 5.68031
#
# Compressibility (1/GPa) = 0.02825608
#
# Stress axis : x y z
#
# Youngs Moduli (GPa) = 62.71028 57.97092 83.16600
#
# Poissons Ratio (x) = 0.03763 0.36465
# Poissons Ratio (y) = 0.04071 0.28679
# Poissons Ratio (z) = 0.27496 0.19991
#
# Static dielectric constant tensor:
#      x y z
#    x 1.624700 0.000000 0.000000 
#    y 0.000000 1.644340 0.000000 
#    z 0.000000 0.000000 1.671950 
# 
# From -- ./inp_files/27516.got.cif
#   From: 2010.05.17/outbox.cif.g08.bks.cpg/sg57_14_cif.got.tgz:27516.got - 2010.06.03 13:58:18.
