data_PCOD9438705
_publ_section_title
;
Structure prediction by ZEFSAII (Michael W. Deem and Ramdas Pophale) SiO2 
 PCOD9438705
Probable space group: P B C M
;
_chemical_formula_sum "Si O2"
_cell_formula_units_Z 48
_cell_length_a 16.919362
_cell_length_b 18.374804
_cell_length_c 8.715814
_cell_angle_alpha 90.000000
_cell_angle_beta 90.000000
_cell_angle_gamma 90.000000
_cell_volume 2709.659071
_symmetry_space_group_name_H-M "P B C M"
_symmetry_group_IT_number 57
_symmetry_cell_setting 'orthorhombic'
loop_
_space_group_symop_operation_xyz
x,y,z
-x,-y,1/2+z
x,1/2-y,-z
-x,1/2+y,1/2-z
-x,-y,-z
x,y,1/2-z
-x,1/2+y,z
x,1/2-y,1/2+z
loop_
_atom_site_type_symbol
_atom_site_label
_atom_site_fract_x
_atom_site_fract_y
_atom_site_fract_z
Si Si1 0.639991 0.330112 0.066770
Si Si2 0.507783 0.581684 0.066607
Si Si3 0.247519 0.959707 0.433936
Si Si4 0.324319 0.102930 0.567424
Si Si5 0.917011 0.524763 0.066271
Si Si6 0.831303 0.827216 0.934337
O O1 0.629260 0.326954 0.250000
O O2 0.715619 0.381362 0.034757
O O3 0.648986 0.250000 0.000000
O O4 0.564751 0.370327 0.993371
O O5 0.507603 0.577940 0.250000
O O6 0.500000 0.500000 0.000000
O O7 0.590329 0.614630 0.007136
O O8 0.255188 0.974142 0.250000
O O9 0.297472 0.021244 0.521075
O O10 0.156073 0.971741 0.475590
O O11 0.328448 0.110335 0.750000
O O12 0.255520 0.153799 0.499578
O O13 0.923026 0.524794 0.250000
O O14 0.888086 0.605621 0.019427
O O15 0.000000 0.500000 0.000000
O O16 0.827556 0.825317 0.750000
O O17 0.857648 0.750000 0.000000
#
# Coordination Sequence:
#
# PCOD9438705 Si02
#       6
#     8   8   8   8   8   8
#     4  11  23  39  58  81 113 151 192 241 290 336
#     4  12  23  37  57  83 114 151 196 241 285 337
#     4   9  19  37  58  79 110 148 187 232 282 334
#     4  11  21  34  57  85 111 147 191 230 281 340
#     4   9  19  36  59  87 115 147 186 231 280 338
#     4  10  21  38  58  84 118 151 187 235 291 342
#
# _framework density 17.714406
#
# number of rings (size 3 to 8) (size 9 to 14) (size 15 to 20)
#    0.000    1.667    1.667    5.000    0.000    4.667 
#    0.000    4.167    0.000    4.000    0.000    0.000 
#    0.000    0.000    0.000    0.000    0.000    0.000 
#
# Total GULP energy -268120.093581 kJ/mol
# GULP energy per Si atom -5585.835283 kJ/mol
# Density = 1.767409 g / cm^3
# Si number density = 17.714406 Si / 1000 Ang^3
#
#
#
# Elastic Constant Matrix: (Units=GPa)
#
#
# Indices 1 2 3 4 5 6 
#
# 1 157.9213 81.0551 56.5974 0.0000 0.0000 0.0000
# 2 81.0551 132.4719 56.6948 0.0000 0.0000 0.0000
# 3 56.5974 56.6948 94.9559 0.0000 0.0000 0.0000
# 4 0.0000 0.0000 0.0000 32.2689 0.0000 0.0000
# 5 0.0000 0.0000 0.0000 0.0000 31.0489 0.0000
# 6 0.0000 0.0000 0.0000 0.0000 0.0000 17.2663
#
#
#
# Elastic Compliance Matrix: (Units=1/GPa)
#
#
# Indices 1 2 3 4 5 6 
#
# 1 0.009849 -0.004720 -0.003052 0.000000 0.000000 0.000000
# 2 -0.004720 0.012402 -0.004591 0.000000 0.000000 0.000000
# 3 -0.003052 -0.004591 0.015092 0.000000 0.000000 0.000000
# 4 0.000000 0.000000 0.000000 0.030990 0.000000 0.000000
# 5 0.000000 0.000000 0.000000 0.000000 0.032207 0.000000
# 6 0.000000 0.000000 0.000000 0.000000 0.000000 0.057916
#
#
# Mechanical properties :
#
#
# Convention : Reuss Voigt Hill
#
# Bulk Modulus (GPa) = 79.26845 86.00486 82.63665
# Shear Modulus (GPa) = 26.68274 28.85027 27.76650
#
# Velocity S-wave (km/s) = 3.88528 4.04001 3.96340
# Velocity P-wave (km/s) = 8.06055 8.39157 8.22772
#
# Compressibility (1/GPa) = 0.01261536
#
# Stress axis : x y z
#
# Youngs Moduli (GPa) = 101.53715 80.63425 66.26127
#
# Poissons Ratio (x) = 0.38058 0.20224
# Poissons Ratio (y) = 0.47923 0.30423
# Poissons Ratio (z) = 0.30990 0.37023
#
# Static dielectric constant tensor:
#      x y z
#    x 1.593050 0.000000 0.000000 
#    y 0.000000 1.599110 0.000000 
#    z 0.000000 0.000000 1.587410 
# 
# From -- ./inp_files/4663.got.cif
#   From: 2010.05.17/outbox.cif.g08.bks.cpg/sg57_3_cif.got.tgz:4663.got - 2010.06.03 13:58:18.
