data_PCOD9438140
_publ_section_title
;
Structure prediction by ZEFSAII (Michael W. Deem and Ramdas Pophale) SiO2 
 PCOD9438140
Probable space group: P B C M
;
_chemical_formula_sum "Si O2"
_cell_formula_units_Z 48
_cell_length_a 13.528445
_cell_length_b 7.884975
_cell_length_c 21.616726
_cell_angle_alpha 90.000000
_cell_angle_beta 90.000000
_cell_angle_gamma 90.000000
_cell_volume 2305.887520
_symmetry_space_group_name_H-M "P B C M"
_symmetry_group_IT_number 57
_symmetry_cell_setting 'orthorhombic'
loop_
_space_group_symop_operation_xyz
x,y,z
-x,-y,1/2+z
x,1/2-y,-z
-x,1/2+y,1/2-z
-x,-y,-z
x,y,1/2-z
-x,1/2+y,z
x,1/2-y,1/2+z
loop_
_atom_site_type_symbol
_atom_site_label
_atom_site_fract_x
_atom_site_fract_y
_atom_site_fract_z
Si Si1 0.353588 0.426104 0.121431
Si Si2 0.617080 0.453818 0.007698
Si Si3 0.472397 0.384544 0.821336
Si Si4 0.709062 0.041014 0.641387
Si Si5 0.161284 0.393345 0.750000
Si Si6 0.040630 0.040092 0.750000
Si Si7 0.805778 0.372594 0.680293
O O1 0.408701 0.261421 0.146237
O O2 0.430115 0.574650 0.140651
O O3 0.253751 0.465634 0.156737
O O4 0.336429 0.443074 0.049068
O O5 0.673819 0.499153 0.071254
O O6 0.624624 0.250000 0.000000
O O7 0.500000 0.500000 0.000000
O O8 0.491737 0.348971 0.750000
O O9 0.398233 0.546465 0.825454
O O10 0.773029 0.921928 0.688194
O O11 0.772947 0.213461 0.640003
O O12 0.076564 0.539985 0.750000
O O13 0.099507 0.217664 0.750000
O O14 0.081918 0.931137 0.808594
O O15 0.769214 0.333411 0.750000
#
# Coordination Sequence:
#
# PCOD9438140 Si02
#       7
#     8   8   8   8   4   4   8
#     4  12  23  38  58  82 135 172 230 263 333 387
#     4  12  25  43  58  89 131 194 233 272 317 390
#     4  12  23  36  57  92 126 176 214 286 321 397
#     4  12  23  38  65  91 134 169 225 266 334 394
#     4  12  22  46  69 108 125 170 210 288 352 404
#     4  10  24  42  75 102 139 156 212 278 368 416
#     4  10  20  39  61  96 121 167 203 274 330 398
#
# _framework density 20.816279999999999
#
# number of rings (size 3 to 8) (size 9 to 14) (size 15 to 20)
#    0.500    0.000    5.000    5.500    0.000    0.000 
#    0.000    0.000    0.000    1.000    0.000    0.000 
#    0.000    0.000    0.000    0.000    0.000    0.000 
#
# Total GULP energy -267840.112988 kJ/mol
# GULP energy per Si atom -5580.002354 kJ/mol
# Density = 2.076890 g / cm^3
# Si number density = 20.816280 Si / 1000 Ang^3
#
#
#
# Elastic Constant Matrix: (Units=GPa)
#
#
# Indices 1 2 3 4 5 6 
#
# 1 101.1522 10.6051 53.4199 0.0000 0.0000 0.0000
# 2 10.6051 88.1037 35.9869 0.0000 0.0000 0.0000
# 3 53.4199 35.9869 164.9464 0.0000 0.0000 0.0000
# 4 0.0000 0.0000 0.0000 25.2423 0.0000 0.0000
# 5 0.0000 0.0000 0.0000 0.0000 7.2053 0.0000
# 6 0.0000 0.0000 0.0000 0.0000 0.0000 33.4490
#
#
#
# Elastic Compliance Matrix: (Units=1/GPa)
#
#
# Indices 1 2 3 4 5 6 
#
# 1 0.011928 0.000156 -0.003897 0.000000 0.000000 0.000000
# 2 0.000156 0.012463 -0.002770 0.000000 0.000000 0.000000
# 3 -0.003897 -0.002770 0.007929 0.000000 0.000000 0.000000
# 4 0.000000 0.000000 0.000000 0.039616 0.000000 0.000000
# 5 0.000000 0.000000 0.000000 0.000000 0.138787 0.000000
# 6 0.000000 0.000000 0.000000 0.000000 0.000000 0.029896
#
#
# Mechanical properties :
#
#
# Convention : Reuss Voigt Hill
#
# Bulk Modulus (GPa) = 51.81790 61.58066 56.69928
# Shear Modulus (GPa) = 19.22539 30.12535 24.67537
#
# Velocity S-wave (km/s) = 3.04233 3.80834 3.44668
# Velocity P-wave (km/s) = 6.10640 6.99893 6.56784
#
# Compressibility (1/GPa) = 0.01929835
#
# Stress axis : x y z
#
# Youngs Moduli (GPa) = 83.83776 80.23916 126.12072
#
# Poissons Ratio (x) = -0.01252 0.49149
# Poissons Ratio (y) = -0.01308 0.34930
# Poissons Ratio (z) = 0.32672 0.22223
#
# Static dielectric constant tensor:
#      x y z
#    x 1.721830 0.000000 0.000000 
#    y 0.000000 1.932590 0.000000 
#    z 0.000000 0.000000 1.817360 
# 
# From -- ./inp_files/25271.got.cif
#   From: 2010.05.17/outbox.cif.g08.bks.cpg/sg57_13_cif.got.tgz:25271.got - 2010.06.03 13:58:18.
