data_PCOD9438726
_publ_section_title
;
Structure prediction by ZEFSAII (Michael W. Deem and Ramdas Pophale) SiO2 
 PCOD9438726
Probable space group: P B C M
;
_chemical_formula_sum "Si O2"
_cell_formula_units_Z 40
_cell_length_a 26.338481
_cell_length_b 9.220184
_cell_length_c 8.709147
_cell_angle_alpha 90.000000
_cell_angle_beta 90.000000
_cell_angle_gamma 90.000000
_cell_volume 2114.978387
_symmetry_space_group_name_H-M "P B C M"
_symmetry_group_IT_number 57
_symmetry_cell_setting 'orthorhombic'
loop_
_space_group_symop_operation_xyz
x,y,z
-x,-y,1/2+z
x,1/2-y,-z
-x,1/2+y,1/2-z
-x,-y,-z
x,y,1/2-z
-x,1/2+y,z
x,1/2-y,1/2+z
loop_
_atom_site_type_symbol
_atom_site_label
_atom_site_fract_x
_atom_site_fract_y
_atom_site_fract_z
Si Si1 0.149561 0.911710 0.934078
Si Si2 0.654038 0.087942 0.934288
Si Si3 0.452694 0.912420 0.933852
Si Si4 0.244375 0.411568 0.933848
Si Si5 0.952320 0.912122 0.434260
O O1 0.152783 0.904697 0.750000
O O2 0.099345 0.003164 0.975605
O O3 0.146241 0.750000 0.000000
O O4 0.198756 0.993042 0.998824
O O5 0.648562 0.097132 0.750000
O O6 0.702118 0.988264 0.971643
O O7 0.662332 0.250000 0.000000
O O8 0.601679 0.030125 0.006720
O O9 0.453589 0.910780 0.750000
O O10 0.455930 0.750000 0.000000
O O11 0.500000 0.000000 0.000000
O O12 0.239666 0.406466 0.750000
O O13 0.242283 0.250000 0.000000
O O14 0.951504 0.750000 0.500000
O O15 0.955914 0.906072 0.250000
O O16 0.000000 0.000000 0.500000
#
# Coordination Sequence:
#
# PCOD9438726 Si02
#       5
#     8   8   8   8   8
#     4  11  24  41  63  90 121 157 199 244 294 351
#     4  10  21  38  59  85 115 151 195 241 291 349
#     4  11  22  38  60  86 117 154 195 241 292 348
#     4  11  24  40  61  88 120 156 196 243 295 349
#     4  11  24  41  63  91 123 160 200 247 297 351
#
# _framework density 18.912724000000001
#
# number of rings (size 3 to 8) (size 9 to 14) (size 15 to 20)
#    0.000    1.200    0.000    7.200    0.000   12.000 
#    0.000    2.000    0.000    0.000    0.000    0.000 
#    0.000    0.000    0.000    0.000    0.000    0.000 
#
# Total GULP energy -223773.144979 kJ/mol
# GULP energy per Si atom -5594.328624 kJ/mol
# Density = 1.886968 g / cm^3
# Si number density = 18.912724 Si / 1000 Ang^3
#
#
#
# Elastic Constant Matrix: (Units=GPa)
#
#
# Indices 1 2 3 4 5 6 
#
# 1 218.2968 119.7290 95.8182 0.0000 0.0000 0.0000
# 2 119.7290 162.3539 66.5582 0.0000 0.0000 0.0000
# 3 95.8182 66.5582 103.7052 0.0000 0.0000 0.0000
# 4 0.0000 0.0000 0.0000 39.5964 0.0000 0.0000
# 5 0.0000 0.0000 0.0000 0.0000 35.2551 0.0000
# 6 0.0000 0.0000 0.0000 0.0000 0.0000 40.0336
#
#
#
# Elastic Compliance Matrix: (Units=1/GPa)
#
#
# Indices 1 2 3 4 5 6 
#
# 1 0.009860 -0.004799 -0.006030 0.000000 0.000000 0.000000
# 2 -0.004799 0.010695 -0.002430 0.000000 0.000000 0.000000
# 3 -0.006030 -0.002430 0.016773 0.000000 0.000000 0.000000
# 4 0.000000 0.000000 0.000000 0.025255 0.000000 0.000000
# 5 0.000000 0.000000 0.000000 0.000000 0.028365 0.000000
# 6 0.000000 0.000000 0.000000 0.000000 0.000000 0.024979
#
#
# Mechanical properties :
#
#
# Convention : Reuss Voigt Hill
#
# Bulk Modulus (GPa) = 92.50303 116.50740 104.50521
# Shear Modulus (GPa) = 34.23553 36.46040 35.34797
#
# Velocity S-wave (km/s) = 4.25924 4.39546 4.32789
# Velocity P-wave (km/s) = 8.55598 9.35396 8.96385
#
# Compressibility (1/GPa) = 0.01081046
#
# Stress axis : x y z
#
# Youngs Moduli (GPa) = 101.42129 93.50469 59.61859
#
# Poissons Ratio (x) = 0.44875 0.35949
# Poissons Ratio (y) = 0.48675 0.14485
# Poissons Ratio (z) = 0.61155 0.22718
#
# Static dielectric constant tensor:
#      x y z
#    x 1.645820 0.000000 0.000000 
#    y 0.000000 1.590420 0.000000 
#    z 0.000000 0.000000 1.633210 
# 
# From -- ./inp_files/8896.got.cif
#   From: 2010.05.17/outbox.cif.g08.bks.cpg/sg57_5_cif.got.tgz:8896.got - 2010.06.03 13:58:18.
