data_PCOD9438728
_publ_section_title
;
Structure prediction by ZEFSAII (Michael W. Deem and Ramdas Pophale) SiO2 
 PCOD9438728
Probable space group: P B C M
;
_chemical_formula_sum "Si O2"
_cell_formula_units_Z 64
_cell_length_a 24.787234
_cell_length_b 15.072537
_cell_length_c 8.418090
_cell_angle_alpha 90.000000
_cell_angle_beta 90.000000
_cell_angle_gamma 90.000000
_cell_volume 3145.053155
_symmetry_space_group_name_H-M "P B C M"
_symmetry_group_IT_number 57
_symmetry_cell_setting 'orthorhombic'
loop_
_space_group_symop_operation_xyz
x,y,z
-x,-y,1/2+z
x,1/2-y,-z
-x,1/2+y,1/2-z
-x,-y,-z
x,y,1/2-z
-x,1/2+y,z
x,1/2-y,1/2+z
loop_
_atom_site_type_symbol
_atom_site_label
_atom_site_fract_x
_atom_site_fract_y
_atom_site_fract_z
Si Si1 0.619795 0.339853 0.940586
Si Si2 0.237774 0.043173 0.557665
Si Si3 0.876003 0.965950 0.563026
Si Si4 0.653449 0.649002 0.942250
Si Si5 0.029676 0.345931 0.062454
Si Si6 0.560471 0.516634 0.942061
Si Si7 0.089924 0.848958 0.562984
Si Si8 0.256187 0.658006 0.058946
O O1 0.620210 0.339717 0.750000
O O2 0.592125 0.428907 0.994941
O O3 0.681484 0.339910 0.995502
O O4 0.592637 0.250000 0.000000
O O5 0.236237 0.046055 0.750000
O O6 0.292471 0.094375 0.508109
O O7 0.180940 0.076315 0.490121
O O8 0.238617 0.939675 0.507960
O O9 0.883425 0.955182 0.750000
O O10 0.879070 0.070218 0.519258
O O11 0.925113 0.918113 0.473682
O O12 0.653553 0.647914 0.750000
O O13 0.598116 0.599218 0.994520
O O14 0.655580 0.750000 0.000000
O O15 0.018210 0.341273 0.250000
O O16 0.048716 0.250000 0.000000
O O17 0.973546 0.364627 0.972866
O O18 0.559270 0.519725 0.750000
O O19 0.500000 0.500000 0.000000
O O20 0.101717 0.750000 0.500000
O O21 0.100740 0.852196 0.750000
O O22 0.253879 0.659756 0.250000
O O23 0.230310 0.750000 0.000000
#
# Coordination Sequence:
#
# PCOD9438728 Si02
#       8
#     8   8   8   8   8   8   8   8
#     4   9  17  32  54  80 109 142 179 222 277 338
#     4  10  21  40  61  82 114 158 200 246 303 360
#     4  12  25  40  59  89 125 162 207 257 306 365
#     4  10  22  42  65  86 116 157 202 247 298 354
#     4  11  22  40  64  91 122 160 205 256 312 369
#     4  10  21  38  59  85 118 154 191 237 292 350
#     4  11  22  40  64  92 125 164 206 253 310 370
#     4   9  17  32  56  81 107 141 181 226 282 346
#
# _framework density 20.349416999999999
#
# number of rings (size 3 to 8) (size 9 to 14) (size 15 to 20)
#    0.000    1.750    1.250    4.500    0.000    3.500 
#    0.000    5.000    0.000    0.000    0.000    0.000 
#    0.000    0.000    0.000    0.000    0.000    0.000 
#
# Total GULP energy -357278.239524 kJ/mol
# GULP energy per Si atom -5582.472493 kJ/mol
# Density = 2.030310 g / cm^3
# Si number density = 20.349417 Si / 1000 Ang^3
#
#
#
# Elastic Constant Matrix: (Units=GPa)
#
#
# Indices 1 2 3 4 5 6 
#
# 1 112.0014 49.7702 -4.9376 0.0000 0.0000 0.0000
# 2 49.7702 116.4833 -1.6177 0.0000 0.0000 0.0000
# 3 -4.9376 -1.6177 22.8919 0.0000 0.0000 0.0000
# 4 0.0000 0.0000 0.0000 34.8176 0.0000 0.0000
# 5 0.0000 0.0000 0.0000 0.0000 29.3794 0.0000
# 6 0.0000 0.0000 0.0000 0.0000 0.0000 -2.0920
#
#
#
# Elastic Compliance Matrix: (Units=1/GPa)
#
#
# Indices 1 2 3 4 5 6 
#
# 1 0.011118 -0.004722 0.002064 0.000000 0.000000 0.000000
# 2 -0.004722 0.010599 -0.000269 0.000000 0.000000 0.000000
# 3 0.002064 -0.000269 0.044110 0.000000 0.000000 0.000000
# 4 0.000000 0.000000 0.000000 0.028721 0.000000 0.000000
# 5 0.000000 0.000000 0.000000 0.000000 0.034037 0.000000
# 6 0.000000 0.000000 0.000000 0.000000 0.000000 -0.478008
#
#
# Mechanical properties :
#
#
# Convention : Reuss Voigt Hill
#
# Bulk Modulus (GPa) = 16.67430 37.53406 27.10418
# Shear Modulus (GPa) = -15.45216 26.29843 5.42314
#
# Velocity S-wave (km/s) = -2.75861 3.59882 1.63426
# Velocity P-wave (km/s) = 1.39095 5.97942 4.11210
#
# Compressibility (1/GPa) = 0.05997254
#
# Stress axis : x y z
#
# Youngs Moduli (GPa) = 89.94745 94.35217 22.67071
#
# Poissons Ratio (x) = 0.44549 -0.04680
# Poissons Ratio (y) = 0.42469 0.00611
# Poissons Ratio (z) = -0.18568 0.02542
#
# Static dielectric constant tensor:
#      x y z
#    x 1.744670 0.000000 0.000000 
#    y 0.000000 1.746260 0.000000 
#    z 0.000000 0.000000 1.692910 
# 
# From -- ./inp_files/9287.got.cif
#   From: 2010.05.17/outbox.cif.g08.bks.cpg/sg57_5_cif.got.tgz:9287.got - 2010.06.03 13:58:18.
