data_PCOD9438718
_publ_section_title
;
Structure prediction by ZEFSAII (Michael W. Deem and Ramdas Pophale) SiO2 
 PCOD9438718
Probable space group: P B C M
;
_chemical_formula_sum "Si O2"
_cell_formula_units_Z 64
_cell_length_a 14.909072
_cell_length_b 9.792298
_cell_length_c 24.493921
_cell_angle_alpha 90.000000
_cell_angle_beta 90.000000
_cell_angle_gamma 90.000000
_cell_volume 3575.967362
_symmetry_space_group_name_H-M "P B C M"
_symmetry_group_IT_number 57
_symmetry_cell_setting 'orthorhombic'
loop_
_space_group_symop_operation_xyz
x,y,z
-x,-y,1/2+z
x,1/2-y,-z
-x,1/2+y,1/2-z
-x,-y,-z
x,y,1/2-z
-x,1/2+y,z
x,1/2-y,1/2+z
loop_
_atom_site_type_symbol
_atom_site_label
_atom_site_fract_x
_atom_site_fract_y
_atom_site_fract_z
Si Si1 0.740893 0.928635 0.399032
Si Si2 0.599777 0.897382 0.688844
Si Si3 0.234429 0.393366 0.608424
Si Si4 0.460826 0.624388 0.533372
Si Si5 0.748857 0.097244 0.989132
Si Si6 0.451432 0.399683 0.149363
Si Si7 0.067431 0.151660 0.186650
Si Si8 0.101276 0.032458 0.686473
O O1 0.750160 0.765006 0.409994
O O2 0.643900 0.955556 0.371996
O O3 0.816012 0.969715 0.354946
O O4 0.750717 0.013395 0.454457
O O5 0.636502 0.914648 0.750000
O O6 0.676028 0.928068 0.643569
O O7 0.569793 0.740307 0.680681
O O8 0.513013 0.992926 0.681027
O O9 0.216197 0.498802 0.559270
O O10 0.149497 0.392494 0.648698
O O11 0.498690 0.750000 0.500000
O O12 0.500000 0.500000 0.500000
O O13 0.354204 0.620801 0.528692
O O14 0.493098 0.633292 0.594775
O O15 0.787807 0.250000 0.000000
O O16 0.087338 0.118095 0.250000
O O17 0.060084 0.315299 0.182726
O O18 0.975053 0.076755 0.172463
O O19 0.129122 0.012465 0.750000
#
# Coordination Sequence:
#
# PCOD9438718 Si02
#       8
#     8   8   8   8   8   8   8   8
#     4  10  22  36  59  83 114 149 190 230 281 341
#     4  11  23  37  54  79 113 152 194 234 280 338
#     4  10  21  38  59  81 113 151 192 231 282 343
#     4  11  21  33  55  79 107 146 195 240 276 323
#     4  11  23  36  54  83 116 146 189 241 285 326
#     4  11  22  36  55  79 112 153 190 234 282 330
#     4   9  18  36  62  88 113 146 187 235 285 342
#     4   9  19  37  61  89 115 143 186 235 286 344
#
# _framework density 17.897254
#
# number of rings (size 3 to 8) (size 9 to 14) (size 15 to 20)
#    0.000    1.750    2.500    1.875    3.500    4.500 
#    0.000    0.625    0.000    3.750    0.000    0.000 
#    0.000    0.000    0.000    0.000    0.000    0.000 
#
# Total GULP energy -357034.594654 kJ/mol
# GULP energy per Si atom -5578.665541 kJ/mol
# Density = 1.785652 g / cm^3
# Si number density = 17.897254 Si / 1000 Ang^3
#
#
#
# Elastic Constant Matrix: (Units=GPa)
#
#
# Indices 1 2 3 4 5 6 
#
# 1 63.4726 29.8289 44.5659 0.0000 0.0000 0.0000
# 2 29.8289 73.1970 52.0871 0.0000 0.0000 0.0000
# 3 44.5659 52.0871 104.7412 0.0000 0.0000 0.0000
# 4 0.0000 0.0000 0.0000 25.5192 0.0000 0.0000
# 5 0.0000 0.0000 0.0000 0.0000 25.0187 0.0000
# 6 0.0000 0.0000 0.0000 0.0000 0.0000 26.2310
#
#
#
# Elastic Compliance Matrix: (Units=1/GPa)
#
#
# Indices 1 2 3 4 5 6 
#
# 1 0.023112 -0.003747 -0.007971 0.000000 0.000000 0.000000
# 2 -0.003747 0.021751 -0.009223 0.000000 0.000000 0.000000
# 3 -0.007971 -0.009223 0.017525 0.000000 0.000000 0.000000
# 4 0.000000 0.000000 0.000000 0.039186 0.000000 0.000000
# 5 0.000000 0.000000 0.000000 0.000000 0.039970 0.000000
# 6 0.000000 0.000000 0.000000 0.000000 0.000000 0.038123
#
#
# Mechanical properties :
#
#
# Convention : Reuss Voigt Hill
#
# Bulk Modulus (GPa) = 48.75994 54.93053 51.84523
# Shear Modulus (GPa) = 21.89295 23.01569 22.45432
#
# Velocity S-wave (km/s) = 3.50130 3.58996 3.54591
# Velocity P-wave (km/s) = 6.60674 6.92406 6.76726
#
# Compressibility (1/GPa) = 0.02050864
#
# Stress axis : x y z
#
# Youngs Moduli (GPa) = 43.26763 45.97387 57.06072
#
# Poissons Ratio (x) = 0.17224 0.45481
# Poissons Ratio (y) = 0.16210 0.52626
# Poissons Ratio (z) = 0.34487 0.42401
#
# Static dielectric constant tensor:
#      x y z
#    x 1.583040 0.000000 0.000000 
#    y 0.000000 1.638860 0.000000 
#    z 0.000000 0.000000 1.608580 
# 
# From -- ./inp_files/27499.got.cif
#   From: 2010.05.17/outbox.cif.g08.bks.cpg/sg57_14_cif.got.tgz:27499.got - 2010.06.03 13:58:18.
