data_PCOD9438274
_publ_section_title
;
Structure prediction by ZEFSAII (Michael W. Deem and Ramdas Pophale) SiO2 
 PCOD9438274
Probable space group: P B C M
;
_chemical_formula_sum "Si O2"
_cell_formula_units_Z 40
_cell_length_a 5.572344
_cell_length_b 18.375750
_cell_length_c 16.947140
_cell_angle_alpha 90.000000
_cell_angle_beta 90.000000
_cell_angle_gamma 90.000000
_cell_volume 1735.319352
_symmetry_space_group_name_H-M "P B C M"
_symmetry_group_IT_number 57
_symmetry_cell_setting 'orthorhombic'
loop_
_space_group_symop_operation_xyz
x,y,z
-x,-y,1/2+z
x,1/2-y,-z
-x,1/2+y,1/2-z
-x,-y,-z
x,y,1/2-z
-x,1/2+y,z
x,1/2-y,1/2+z
loop_
_atom_site_type_symbol
_atom_site_label
_atom_site_fract_x
_atom_site_fract_y
_atom_site_fract_z
Si Si1 0.961942 0.508033 0.250000
Si Si2 0.477608 0.159155 0.566864
Si Si3 0.312358 0.696216 0.393798
Si Si4 0.766152 0.471924 0.411840
Si Si5 0.459349 0.902581 0.750000
Si Si6 0.083900 0.118569 0.028160
O O1 0.924385 0.466803 0.332820
O O2 0.720994 0.559812 0.250000
O O3 0.225343 0.544170 0.250000
O O4 0.610083 0.220135 0.618270
O O5 0.577333 0.175604 0.478735
O O6 0.532012 0.078092 0.598107
O O7 0.198402 0.162655 0.544696
O O8 0.422719 0.648076 0.325629
O O9 0.036180 0.671434 0.407670
O O10 0.743585 0.556908 0.433593
O O11 0.888104 0.432681 0.486304
#
# Coordination Sequence:
#
# PCOD9438274 Si02
#       6
#     4   8   8   8   4   8
#     4  12  26  43  71  96 142 177 236 278 356 404
#     4  10  22  39  67  97 132 176 230 287 335 410
#     4  10  23  41  65  98 136 178 229 276 350 405
#     4  10  22  38  65 101 127 180 219 294 331 418
#     4  12  26  47  67 102 134 187 222 286 340 426
#     4  10  20  41  67  95 133 175 229 283 342 407
#
# _framework density 23.050512999999999
#
# number of rings (size 3 to 8) (size 9 to 14) (size 15 to 20)
#    0.000    1.600    2.000    1.800    2.800    7.200 
#    0.000    1.000    0.000    0.000    0.000    0.000 
#    0.000    0.000    0.000    0.000    0.000    0.000 
#
# Total GULP energy -222862.842684 kJ/mol
# GULP energy per Si atom -5571.571067 kJ/mol
# Density = 2.299805 g / cm^3
# Si number density = 23.050513 Si / 1000 Ang^3
#
#
#
# Elastic Constant Matrix: (Units=GPa)
#
#
# Indices 1 2 3 4 5 6 
#
# 1 64.1778 59.8661 -15.2046 0.0000 0.0000 0.0000
# 2 59.8661 104.5775 18.9369 0.0000 0.0000 0.0000
# 3 -15.2046 18.9369 47.7701 0.0000 0.0000 0.0000
# 4 0.0000 0.0000 0.0000 18.4692 0.0000 0.0000
# 5 0.0000 0.0000 0.0000 0.0000 -4.5970 0.0000
# 6 0.0000 0.0000 0.0000 0.0000 0.0000 15.6552
#
#
#
# Elastic Compliance Matrix: (Units=1/GPa)
#
#
# Indices 1 2 3 4 5 6 
#
# 1 0.068453 -0.046467 0.040208 0.000000 0.000000 0.000000
# 2 -0.046467 0.041845 -0.031378 0.000000 0.000000 0.000000
# 3 0.040208 -0.031378 0.046170 0.000000 0.000000 0.000000
# 4 0.000000 0.000000 0.000000 0.054144 0.000000 0.000000
# 5 0.000000 0.000000 0.000000 0.000000 -0.217531 0.000000
# 6 0.000000 0.000000 0.000000 0.000000 0.000000 0.063876
#
#
# Mechanical properties :
#
#
# Convention : Reuss Voigt Hill
#
# Bulk Modulus (GPa) = 12.31619 38.19135 25.25377
# Shear Modulus (GPa) = 31.38798 16.10060 23.74429
#
# Velocity S-wave (km/s) = 3.69413 2.64577 3.21300
# Velocity P-wave (km/s) = 4.85285 5.09293 4.97434
#
# Compressibility (1/GPa) = 0.08119391
#
# Stress axis : x y z
#
# Youngs Moduli (GPa) = 14.60853 23.89781 21.65898
#
# Poissons Ratio (x) = 1.11047 -0.87087
# Poissons Ratio (y) = 0.67882 0.67962
# Poissons Ratio (z) = -0.58738 0.74987
#
# Static dielectric constant tensor:
#      x y z
#    x 2.119660 0.000000 0.000000 
#    y 0.000000 1.933000 0.000000 
#    z 0.000000 0.000000 1.857290 
# 
# From -- ./inp_files/20006.got.cif
#   From: 2010.05.17/outbox.cif.g08.bks.cpg/sg57_11_cif.got.tgz:20006.got - 2010.06.03 13:58:18.
