data_PCOD9438930
_publ_section_title
;
Structure prediction by ZEFSAII (Michael W. Deem and Ramdas Pophale) SiO2 
 PCOD9438930
Probable space group: P B C M
;
_chemical_formula_sum "Si O2"
_cell_formula_units_Z 36
_cell_length_a 9.603893
_cell_length_b 20.209608
_cell_length_c 8.191744
_cell_angle_alpha 90.000000
_cell_angle_beta 90.000000
_cell_angle_gamma 90.000000
_cell_volume 1589.943070
_symmetry_space_group_name_H-M "P B C M"
_symmetry_group_IT_number 57
_symmetry_cell_setting 'orthorhombic'
loop_
_space_group_symop_operation_xyz
x,y,z
-x,-y,1/2+z
x,1/2-y,-z
-x,1/2+y,1/2-z
-x,-y,-z
x,y,1/2-z
-x,1/2+y,z
x,1/2-y,1/2+z
loop_
_atom_site_type_symbol
_atom_site_label
_atom_site_fract_x
_atom_site_fract_y
_atom_site_fract_z
Si Si1 0.259794 0.031394 0.552876
Si Si2 0.478932 0.137263 0.933838
Si Si3 0.060534 0.353181 0.057245
Si Si4 0.736549 0.750000 0.500000
Si Si5 0.233611 0.619030 0.441373
O O1 0.274569 0.029307 0.750000
O O2 0.390532 0.075569 0.494047
O O3 0.120380 0.073675 0.520442
O O4 0.252271 0.956478 0.495196
O O5 0.522848 0.120540 0.750000
O O6 0.372434 0.198358 0.923400
O O7 0.617335 0.152688 0.033039
O O8 0.092820 0.339156 0.250000
O O9 0.149190 0.304115 0.943021
O O10 0.897247 0.348718 0.029741
O O11 0.200014 0.616530 0.250000
#
# Coordination Sequence:
#
# PCOD9438930 Si02
#       5
#     8   8   8   4   8
#     4   8  17  36  60  87 117 151 189 231 283 341
#     4  10  21  39  62  84 114 154 192 235 288 343
#     4  10  21  39  62  84 114 154 192 235 288 343
#     4  10  22  40  62  80 102 146 202 242 278 336
#     4  11  22  35  57  91 123 148 186 236 283 340
#
# _framework density 22.642320000000002
#
# number of rings (size 3 to 8) (size 9 to 14) (size 15 to 20)
#    0.000    2.222    0.000    4.000    0.000    4.444 
#    0.000    5.556    0.000    0.000    0.000    0.000 
#    0.000    0.000    0.000    0.000    0.000    0.000 
#
# Total GULP energy -200573.273768 kJ/mol
# GULP energy per Si atom -5571.479827 kJ/mol
# Density = 2.259079 g / cm^3
# Si number density = 22.642320 Si / 1000 Ang^3
#
#
#
# Elastic Constant Matrix: (Units=GPa)
#
#
# Indices 1 2 3 4 5 6 
#
# 1 163.9874 33.6521 18.3019 0.0000 0.0000 0.0000
# 2 33.6521 78.6383 19.0491 0.0000 0.0000 0.0000
# 3 18.3019 19.0491 37.5550 0.0000 0.0000 0.0000
# 4 0.0000 0.0000 0.0000 -23.2718 0.0000 0.0000
# 5 0.0000 0.0000 0.0000 0.0000 -2.1515 0.0000
# 6 0.0000 0.0000 0.0000 0.0000 0.0000 13.9446
#
#
#
# Elastic Compliance Matrix: (Units=1/GPa)
#
#
# Indices 1 2 3 4 5 6 
#
# 1 0.006828 -0.002412 -0.002104 0.000000 0.000000 0.000000
# 2 -0.002412 0.015350 -0.006610 0.000000 0.000000 0.000000
# 3 -0.002104 -0.006610 0.031006 0.000000 0.000000 0.000000
# 4 0.000000 0.000000 0.000000 -0.042971 0.000000 0.000000
# 5 0.000000 0.000000 0.000000 0.000000 -0.464801 0.000000
# 6 0.000000 0.000000 0.000000 0.000000 0.000000 0.071712
#
#
# Mechanical properties :
#
#
# Convention : Reuss Voigt Hill
#
# Bulk Modulus (GPa) = 32.33037 46.90965 39.62001
# Shear Modulus (GPa) = -14.27299 11.64945 -1.31177
#
# Velocity S-wave (km/s) = -2.51344 2.27072 -0.76197
# Velocity P-wave (km/s) = 2.42623 5.25714 4.09415
#
# Compressibility (1/GPa) = 0.03093067
#
# Stress axis : x y z
#
# Youngs Moduli (GPa) = 146.45884 65.14647 32.25186
#
# Poissons Ratio (x) = 0.15715 0.06785
# Poissons Ratio (y) = 0.35329 0.21320
# Poissons Ratio (z) = 0.30813 0.43065
#
# Static dielectric constant tensor:
#      x y z
#    x 1.810710 0.000000 0.000000 
#    y 0.000000 1.859790 0.000000 
#    z 0.000000 0.000000 1.817470 
# 
# From -- ./inp_files/1330.got.cif
#   From: 2010.05.17/outbox.cif.g08.bks.cpg/sg57_1_cif.got.tgz:1330.got - 2010.06.03 13:58:18.
