data_PCOD9438650
_publ_section_title
;
Structure prediction by ZEFSAII (Michael W. Deem and Ramdas Pophale) SiO2 
 PCOD9438650
Probable space group: P B C M
;
_chemical_formula_sum "Si O2"
_cell_formula_units_Z 64
_cell_length_a 8.290356
_cell_length_b 24.541916
_cell_length_c 16.058888
_cell_angle_alpha 90.000000
_cell_angle_beta 90.000000
_cell_angle_gamma 90.000000
_cell_volume 3267.360953
_symmetry_space_group_name_H-M "P B C M"
_symmetry_group_IT_number 57
_symmetry_cell_setting 'orthorhombic'
loop_
_space_group_symop_operation_xyz
x,y,z
-x,-y,1/2+z
x,1/2-y,-z
-x,1/2+y,1/2-z
-x,-y,-z
x,y,1/2-z
-x,1/2+y,z
x,1/2-y,1/2+z
loop_
_atom_site_type_symbol
_atom_site_label
_atom_site_fract_x
_atom_site_fract_y
_atom_site_fract_z
Si Si1 0.383300 0.873521 0.654885
Si Si2 0.999455 0.871847 0.845756
Si Si3 0.999362 0.252805 0.399942
Si Si4 0.703729 0.561878 0.841718
Si Si5 0.360893 0.749793 0.901939
Si Si6 0.543700 0.980352 0.591706
Si Si7 0.676876 0.690088 0.843422
Si Si8 0.866239 0.543726 0.022655
O O1 0.437270 0.878701 0.750000
O O2 0.399917 0.811121 0.627300
O O3 0.480284 0.918822 0.604118
O O4 0.191356 0.884251 0.651079
O O5 0.945412 0.884686 0.750000
O O6 0.972644 0.807617 0.862570
O O7 0.926989 0.904702 0.923908
O O8 0.996114 0.250000 0.500000
O O9 0.149602 0.291666 0.378871
O O10 0.817193 0.268186 0.369034
O O11 0.783247 0.550912 0.750000
O O12 0.552381 0.520697 0.848009
O O13 0.659604 0.625238 0.841766
O O14 0.795247 0.555906 0.930323
O O15 0.516424 0.713703 0.884307
O O16 0.341152 0.750000 0.000000
O O17 0.735523 0.981378 0.586895
O O18 0.500000 0.000000 0.500000
O O19 0.676032 0.712025 0.750000
O O20 0.000000 0.500000 0.000000
#
# Coordination Sequence:
#
# PCOD9438650 Si02
#       8
#     8   8   8   8   8   8   8   8
#     4  10  21  39  63  92 128 169 212 272 330 382
#     4  10  21  37  61  94 132 165 213 277 334 391
#     4  10  21  40  61  93 128 171 217 271 330 397
#     4  10  23  44  63  89 128 174 219 268 328 393
#     4  10  23  38  64  96 128 168 215 268 330 395
#     4  10  22  38  63  87 119 164 212 263 319 387
#     4  11  23  39  63  89 127 174 213 265 324 391
#     4  11  24  41  64  96 124 167 211 271 334 392
#
# _framework density 19.587672999999999
#
# number of rings (size 3 to 8) (size 9 to 14) (size 15 to 20)
#    0.000    1.750    0.000    3.750    5.250    4.000 
#    4.500    0.000    0.000    0.000    0.000    0.000 
#    0.000    0.000    0.000    0.000    0.000    0.000 
#
# Total GULP energy -356532.128015 kJ/mol
# GULP energy per Si atom -5570.814500 kJ/mol
# Density = 1.954309 g / cm^3
# Si number density = 19.587673 Si / 1000 Ang^3
#
#
#
# Elastic Constant Matrix: (Units=GPa)
#
#
# Indices 1 2 3 4 5 6 
#
# 1 77.1210 30.9898 5.8291 0.0000 0.0000 0.0000
# 2 30.9898 49.1013 4.3087 0.0000 0.0000 0.0000
# 3 5.8291 4.3087 100.7726 0.0000 0.0000 0.0000
# 4 0.0000 0.0000 0.0000 -27.6884 0.0000 0.0000
# 5 0.0000 0.0000 0.0000 0.0000 31.7839 0.0000
# 6 0.0000 0.0000 0.0000 0.0000 0.0000 -0.3536
#
#
#
# Elastic Compliance Matrix: (Units=1/GPa)
#
#
# Indices 1 2 3 4 5 6 
#
# 1 0.017402 -0.010936 -0.000539 0.000000 0.000000 0.000000
# 2 -0.010936 0.027315 -0.000535 0.000000 0.000000 0.000000
# 3 -0.000539 -0.000535 0.009977 0.000000 0.000000 0.000000
# 4 0.000000 0.000000 0.000000 -0.036116 0.000000 0.000000
# 5 0.000000 0.000000 0.000000 0.000000 0.031463 0.000000
# 6 0.000000 0.000000 0.000000 0.000000 0.000000 -2.828219
#
#
# Mechanical properties :
#
#
# Convention : Reuss Voigt Hill
#
# Bulk Modulus (GPa) = 32.60081 34.36115 33.48098
# Shear Modulus (GPa) = -1.82220 13.13952 5.65866
#
# Velocity S-wave (km/s) = -0.96556 2.59280 1.70152
# Velocity P-wave (km/s) = 3.92894 5.15207 4.58151
#
# Compressibility (1/GPa) = 0.03067409
#
# Stress axis : x y z
#
# Youngs Moduli (GPa) = 57.46574 36.61004 100.22652
#
# Poissons Ratio (x) = 0.40035 0.05402
# Poissons Ratio (y) = 0.62842 0.05365
# Poissons Ratio (z) = 0.03098 0.01960
#
# Static dielectric constant tensor:
#      x y z
#    x 1.753260 0.000000 0.000000 
#    y 0.000000 1.675080 0.000000 
#    z 0.000000 0.000000 1.693920 
# 
# From -- ./inp_files/16953.got.cif
#   From: 2010.05.17/outbox.cif.g08.bks.cpg/sg57_9_cif.got.tgz:16953.got - 2010.06.03 13:58:18.
