data_PCOD9438151
_publ_section_title
;
Structure prediction by ZEFSAII (Michael W. Deem and Ramdas Pophale) SiO2 
 PCOD9438151
Probable space group: P B C M
;
_chemical_formula_sum "Si O2"
_cell_formula_units_Z 64
_cell_length_a 12.211720
_cell_length_b 31.786871
_cell_length_c 8.611713
_cell_angle_alpha 90.000000
_cell_angle_beta 90.000000
_cell_angle_gamma 90.000000
_cell_volume 3342.829031
_symmetry_space_group_name_H-M "P B C M"
_symmetry_group_IT_number 57
_symmetry_cell_setting 'orthorhombic'
loop_
_space_group_symop_operation_xyz
x,y,z
-x,-y,1/2+z
x,1/2-y,-z
-x,1/2+y,1/2-z
-x,-y,-z
x,y,1/2-z
-x,1/2+y,z
x,1/2-y,1/2+z
loop_
_atom_site_type_symbol
_atom_site_label
_atom_site_fract_x
_atom_site_fract_y
_atom_site_fract_z
Si Si1 0.228610 0.453751 0.561914
Si Si2 0.003371 0.081689 0.564229
Si Si3 0.995766 0.176192 0.063925
Si Si4 0.376782 0.375343 0.560757
Si Si5 0.236951 0.951522 0.436551
Si Si6 0.763783 0.705218 0.062741
Si Si7 0.628783 0.126668 0.435950
Si Si8 0.234935 0.794825 0.434392
O O1 0.221310 0.452770 0.750000
O O2 0.109480 0.442773 0.495558
O O3 0.312676 0.417380 0.511831
O O4 0.263399 0.500759 0.516237
O O5 0.009142 0.086852 0.750000
O O6 0.999860 0.127468 0.485687
O O7 0.890250 0.057986 0.526959
O O8 0.986914 0.179008 0.250000
O O9 0.110443 0.196977 0.014365
O O10 0.889603 0.197198 0.989300
O O11 0.376007 0.375372 0.750000
O O12 0.310111 0.334016 0.510273
O O13 0.502612 0.374181 0.510945
O O14 0.249237 0.948018 0.250000
O O15 0.310629 0.915962 0.514022
O O16 0.761728 0.705846 0.250000
O O17 0.725713 0.750000 0.000000
O O18 0.631071 0.130042 0.250000
O O19 0.692913 0.166478 0.504594
O O20 0.272888 0.750000 0.500000
O O21 0.238097 0.794063 0.250000
#
# Coordination Sequence:
#
# PCOD9438151 Si02
#       8
#     8   8   8   8   8   8   8   8
#     4  10  20  39  63  85 118 161 200 244 300 361
#     4  11  21  34  56  90 126 156 193 246 299 357
#     4  11  21  37  63  90 119 161 198 235 296 361
#     4   9  20  40  61  84 114 155 204 251 294 350
#     4  10  22  38  59  88 122 158 196 246 303 354
#     4  10  21  38  60  87 119 151 192 238 291 351
#     4  11  23  40  63  86 116 158 204 249 297 351
#     4  12  25  42  63  90 124 156 197 246 296 355
#
# _framework density 19.145458999999999
#
# number of rings (size 3 to 8) (size 9 to 14) (size 15 to 20)
#    0.000    1.500    2.500    3.000    0.000    4.000 
#    0.000    3.750    0.000    0.000    0.000    0.000 
#    0.000    0.000    0.000    0.000    0.000    0.000 
#
# Total GULP energy -357747.419191 kJ/mol
# GULP energy per Si atom -5589.803425 kJ/mol
# Density = 1.910188 g / cm^3
# Si number density = 19.145459 Si / 1000 Ang^3
#
#
#
# Elastic Constant Matrix: (Units=GPa)
#
#
# Indices 1 2 3 4 5 6 
#
# 1 154.2404 85.4334 41.5523 0.0000 0.0000 0.0000
# 2 85.4334 187.0419 44.2779 0.0000 0.0000 0.0000
# 3 41.5523 44.2779 45.2746 0.0000 0.0000 0.0000
# 4 0.0000 0.0000 0.0000 30.7961 0.0000 0.0000
# 5 0.0000 0.0000 0.0000 0.0000 -17.1395 0.0000
# 6 0.0000 0.0000 0.0000 0.0000 0.0000 -1.3276
#
#
#
# Elastic Compliance Matrix: (Units=1/GPa)
#
#
# Indices 1 2 3 4 5 6 
#
# 1 0.009790 -0.003051 -0.006001 0.000000 0.000000 0.000000
# 2 -0.003051 0.007908 -0.004934 0.000000 0.000000 0.000000
# 3 -0.006001 -0.004934 0.032420 0.000000 0.000000 0.000000
# 4 0.000000 0.000000 0.000000 0.032472 0.000000 0.000000
# 5 0.000000 0.000000 0.000000 0.000000 -0.058345 0.000000
# 6 0.000000 0.000000 0.000000 0.000000 0.000000 -0.753228
#
#
# Mechanical properties :
#
#
# Convention : Reuss Voigt Hill
#
# Bulk Modulus (GPa) = 45.15406 81.00935 63.08170
# Shear Modulus (GPa) = -7.20847 16.81868 4.80510
#
# Velocity S-wave (km/s) = -1.94249 2.96711 1.58595
# Velocity P-wave (km/s) = 4.31334 7.35818 6.03107
#
# Compressibility (1/GPa) = 0.02214640
#
# Stress axis : x y z
#
# Youngs Moduli (GPa) = 102.14377 126.45549 30.84481
#
# Poissons Ratio (x) = 0.38582 0.18511
# Poissons Ratio (y) = 0.31165 0.15218
# Poissons Ratio (z) = 0.61300 0.62388
#
# Static dielectric constant tensor:
#      x y z
#    x 1.647130 0.000000 0.000000 
#    y 0.000000 1.652630 0.000000 
#    z 0.000000 0.000000 1.655860 
# 
# From -- ./inp_files/3840.got.cif
#   From: 2010.05.17/outbox.cif.g08.bks.cpg/sg57_2_cif.got.tgz:3840.got - 2010.06.03 13:58:18.
