data_PCOD9438828
_publ_section_title
;
Structure prediction by ZEFSAII (Michael W. Deem and Ramdas Pophale) SiO2 
 PCOD9438828
Probable space group: P B C M
;
_chemical_formula_sum "Si O2"
_cell_formula_units_Z 44
_cell_length_a 7.505976
_cell_length_b 19.173615
_cell_length_c 13.339564
_cell_angle_alpha 90.000000
_cell_angle_beta 90.000000
_cell_angle_gamma 90.000000
_cell_volume 1919.785951
_symmetry_space_group_name_H-M "P B C M"
_symmetry_group_IT_number 57
_symmetry_cell_setting 'orthorhombic'
loop_
_space_group_symop_operation_xyz
x,y,z
-x,-y,1/2+z
x,1/2-y,-z
-x,1/2+y,1/2-z
-x,-y,-z
x,y,1/2-z
-x,1/2+y,z
x,1/2-y,1/2+z
loop_
_atom_site_type_symbol
_atom_site_label
_atom_site_fract_x
_atom_site_fract_y
_atom_site_fract_z
Si Si1 0.150455 0.696945 0.250000
Si Si2 0.215302 0.267604 0.250000
Si Si3 0.532843 0.436991 0.138815
Si Si4 0.490148 0.143007 0.250000
Si Si5 0.083592 0.173855 0.957046
Si Si6 0.311499 0.064065 0.436711
Si Si7 0.693373 0.203667 0.916580
O O1 0.293751 0.635046 0.250000
O O2 0.218743 0.741119 0.343601
O O3 0.937687 0.705419 0.250000
O O4 0.399484 0.222022 0.250000
O O5 0.170980 0.317189 0.153947
O O6 0.466249 0.454214 0.250000
O O7 0.700307 0.488020 0.114234
O O8 0.581624 0.355967 0.134253
O O9 0.403401 0.447525 0.045135
O O10 0.422378 0.107063 0.352653
O O11 0.870451 0.166445 0.957741
O O12 0.125893 0.250000 0.000000
O O13 0.152256 0.113725 0.030169
O O14 0.594825 0.250000 0.000000
#
# Coordination Sequence:
#
# PCOD9438828 Si02
#       7
#     4   4   8   4   8   8   8
#     4  10  22  37  61  99 127 170 215 270 330 385
#     4  10  22  38  61  98 137 163 217 282 325 391
#     4  11  24  44  64  88 133 171 221 281 327 410
#     4  12  22  41  70  97 134 179 222 266 341 394
#     4  10  21  38  62  94 130 165 215 277 325 394
#     4  11  25  41  63  94 127 176 228 269 332 404
#     4  10  21  39  64  94 127 164 211 273 338 394
#
# _framework density 22.919222000000001
#
# number of rings (size 3 to 8) (size 9 to 14) (size 15 to 20)
#    0.000    1.455    3.636    1.091    3.818    1.455 
#    0.000    0.000    0.000    0.000    0.000    0.000 
#    0.000    0.000    0.000    0.000    0.000    0.000 
#
# Total GULP energy -245214.213156 kJ/mol
# GULP energy per Si atom -5573.050299 kJ/mol
# Density = 2.286706 g / cm^3
# Si number density = 22.919222 Si / 1000 Ang^3
#
#
#
# Elastic Constant Matrix: (Units=GPa)
#
#
# Indices 1 2 3 4 5 6 
#
# 1 59.0614 -4.3124 13.7122 0.0000 0.0000 0.0000
# 2 -4.3124 65.7112 17.9940 0.0000 0.0000 0.0000
# 3 13.7122 17.9940 128.1237 0.0000 0.0000 0.0000
# 4 0.0000 0.0000 0.0000 32.0236 0.0000 0.0000
# 5 0.0000 0.0000 0.0000 0.0000 19.3188 0.0000
# 6 0.0000 0.0000 0.0000 0.0000 0.0000 9.9447
#
#
#
# Elastic Compliance Matrix: (Units=1/GPa)
#
#
# Indices 1 2 3 4 5 6 
#
# 1 0.017551 0.001733 -0.002122 0.000000 0.000000 0.000000
# 2 0.001733 0.015998 -0.002432 0.000000 0.000000 0.000000
# 3 -0.002122 -0.002432 0.008374 0.000000 0.000000 0.000000
# 4 0.000000 0.000000 0.000000 0.031227 0.000000 0.000000
# 5 0.000000 0.000000 0.000000 0.000000 0.051763 0.000000
# 6 0.000000 0.000000 0.000000 0.000000 0.000000 0.100556
#
#
# Mechanical properties :
#
#
# Convention : Reuss Voigt Hill
#
# Bulk Modulus (GPa) = 27.56350 34.18709 30.87530
# Shear Modulus (GPa) = 20.55893 27.29093 23.92493
#
# Velocity S-wave (km/s) = 2.99827 3.45446 3.23442
# Velocity P-wave (km/s) = 4.90292 5.55516 5.23920
#
# Compressibility (1/GPa) = 0.03627986
#
# Stress axis : x y z
#
# Youngs Moduli (GPa) = 56.97795 62.50843 119.42282
#
# Poissons Ratio (x) = -0.10831 0.25338
# Poissons Ratio (y) = -0.09873 0.29046
# Poissons Ratio (z) = 0.12089 0.15203
#
# Static dielectric constant tensor:
#      x y z
#    x 1.990880 0.000000 0.000000 
#    y 0.000000 1.924180 0.000000 
#    z 0.000000 0.000000 2.061250 
# 
# From -- ./inp_files/16240.got.cif
#   From: 2010.05.17/outbox.cif.g08.bks.cpg/sg57_9_cif.got.tgz:16240.got - 2010.06.03 13:58:18.
