data_PCOD9438249
_publ_section_title
;
Structure prediction by ZEFSAII (Michael W. Deem and Ramdas Pophale) SiO2 
 PCOD9438249
Probable space group: P B C M
;
_chemical_formula_sum "Si O2"
_cell_formula_units_Z 64
_cell_length_a 11.930189
_cell_length_b 8.953198
_cell_length_c 27.713727
_cell_angle_alpha 90.000000
_cell_angle_beta 90.000000
_cell_angle_gamma 90.000000
_cell_volume 2960.195864
_symmetry_space_group_name_H-M "P B C M"
_symmetry_group_IT_number 57
_symmetry_cell_setting 'orthorhombic'
loop_
_space_group_symop_operation_xyz
x,y,z
-x,-y,1/2+z
x,1/2-y,-z
-x,1/2+y,1/2-z
-x,-y,-z
x,y,1/2-z
-x,1/2+y,z
x,1/2-y,1/2+z
loop_
_atom_site_type_symbol
_atom_site_label
_atom_site_fract_x
_atom_site_fract_y
_atom_site_fract_z
Si Si1 0.161894 0.645623 0.338137
Si Si2 0.453427 0.290696 0.882961
Si Si3 0.986226 0.639494 0.964683
Si Si4 0.365411 0.697751 0.802324
Si Si5 0.759156 0.580624 0.154069
Si Si6 0.060424 0.326202 0.351724
Si Si7 0.226430 0.825477 0.074968
Si Si8 0.467777 0.570643 0.550337
O O1 0.264987 0.681996 0.303585
O O2 0.107029 0.483489 0.332085
O O3 0.219819 0.680718 0.390310
O O4 0.064533 0.773375 0.336440
O O5 0.548728 0.235088 0.845768
O O6 0.336027 0.297937 0.856638
O O7 0.472577 0.453856 0.905352
O O8 0.446630 0.193827 0.931258
O O9 0.938501 0.644897 0.910192
O O10 0.114795 0.686058 0.955390
O O11 0.920274 0.750000 0.000000
O O12 0.000000 0.500000 0.000000
O O13 0.421522 0.697114 0.750000
O O14 0.300614 0.540211 0.811052
O O15 0.866346 0.682506 0.163964
O O16 0.785167 0.475875 0.107723
O O17 0.345340 0.850811 0.049565
O O18 0.500000 0.500000 0.500000
#
# Coordination Sequence:
#
# PCOD9438249 Si02
#       8
#     8   8   8   8   8   8   8   8
#     4  10  20  40  67  93 126 173 211 267 336 399
#     4  11  22  43  64  96 136 173 222 276 325 394
#     4  11  21  33  55  89 127 168 226 270 309 379
#     4  11  24  46  72  96 128 169 220 282 345 401
#     4  10  22  41  66  90 130 173 212 270 340 390
#     4  11  22  39  66  92 131 180 211 269 343 389
#     4   9  19  39  54  82 130 172 216 268 318 372
#     4  11  23  39  63  93 135 180 222 263 323 387
#
# _framework density 21.620190999999998
#
# number of rings (size 3 to 8) (size 9 to 14) (size 15 to 20)
#    0.000    1.500    3.750    4.875    1.750    2.500 
#    0.000    4.375    0.000    0.000    0.000    0.000 
#    0.000    0.000    0.000    0.000    0.000    0.000 
#
# Total GULP energy -356490.666218 kJ/mol
# GULP energy per Si atom -5570.166660 kJ/mol
# Density = 2.157098 g / cm^3
# Si number density = 21.620191 Si / 1000 Ang^3
#
#
#
# Elastic Constant Matrix: (Units=GPa)
#
#
# Indices 1 2 3 4 5 6 
#
# 1 70.9762 5.9290 26.9313 0.0000 0.0000 0.0000
# 2 5.9290 61.0838 2.4178 0.0000 0.0000 0.0000
# 3 26.9313 2.4178 73.1502 0.0000 0.0000 0.0000
# 4 0.0000 0.0000 0.0000 0.2006 0.0000 0.0000
# 5 0.0000 0.0000 0.0000 0.0000 14.6935 0.0000
# 6 0.0000 0.0000 0.0000 0.0000 0.0000 33.8835
#
#
#
# Elastic Compliance Matrix: (Units=1/GPa)
#
#
# Indices 1 2 3 4 5 6 
#
# 1 0.016489 -0.001362 -0.006026 0.000000 0.000000 0.000000
# 2 -0.001362 0.016505 -0.000044 0.000000 0.000000 0.000000
# 3 -0.006026 -0.000044 0.015890 0.000000 0.000000 0.000000
# 4 0.000000 0.000000 0.000000 4.985003 0.000000 0.000000
# 5 0.000000 0.000000 0.000000 0.000000 0.068057 0.000000
# 6 0.000000 0.000000 0.000000 0.000000 0.000000 0.029513
#
#
# Mechanical properties :
#
#
# Convention : Reuss Voigt Hill
#
# Bulk Modulus (GPa) = 29.39364 30.64072 30.01718
# Shear Modulus (GPa) = 0.96943 21.08432 11.02688
#
# Velocity S-wave (km/s) = 0.67035 3.12623 2.26083
# Velocity P-wave (km/s) = 3.77149 5.21863 4.55292
#
# Compressibility (1/GPa) = 0.03402097
#
# Stress axis : x y z
#
# Youngs Moduli (GPa) = 60.64488 60.58806 62.93088
#
# Poissons Ratio (x) = 0.08252 0.37921
# Poissons Ratio (y) = 0.08260 0.00277
# Poissons Ratio (z) = 0.36543 0.00267
#
# Static dielectric constant tensor:
#      x y z
#    x 1.803010 0.000000 0.000000 
#    y 0.000000 1.879000 0.000000 
#    z 0.000000 0.000000 1.995610 
# 
# From -- ./inp_files/29757.got.cif
#   From: 2010.05.17/outbox.cif.g08.bks.cpg/sg57_15_cif.got.tgz:29757.got - 2010.06.03 13:58:18.
