data_PCOD9438694
_publ_section_title
;
Structure prediction by ZEFSAII (Michael W. Deem and Ramdas Pophale) SiO2 
 PCOD9438694
Probable space group: P B C M
;
_chemical_formula_sum "Si O2"
_cell_formula_units_Z 24
_cell_length_a 4.997378
_cell_length_b 4.903586
_cell_length_c 32.510598
_cell_angle_alpha 90.000000
_cell_angle_beta 90.000000
_cell_angle_gamma 90.000000
_cell_volume 796.674571
_symmetry_space_group_name_H-M "P B C M"
_symmetry_group_IT_number 57
_symmetry_cell_setting 'orthorhombic'
loop_
_space_group_symop_operation_xyz
x,y,z
-x,-y,1/2+z
x,1/2-y,-z
-x,1/2+y,1/2-z
-x,-y,-z
x,y,1/2-z
-x,1/2+y,z
x,1/2-y,1/2+z
loop_
_atom_site_type_symbol
_atom_site_label
_atom_site_fract_x
_atom_site_fract_y
_atom_site_fract_z
Si Si1 0.000000 0.000000 0.500000
Si Si2 0.686685 0.265654 0.422924
Si Si3 0.306976 0.614200 0.161809
Si Si4 0.307946 0.604919 0.250000
O O1 0.235789 0.250000 0.500000
O O2 0.135908 0.764486 0.536204
O O3 0.440699 0.059414 0.421915
O O4 0.839050 0.191181 0.380496
O O5 0.563551 0.816866 0.161155
O O6 0.169753 0.656230 0.206099
O O7 0.435781 0.306083 0.250000
#
# Coordination Sequence:
#
# PCOD9438694 Si02
#       4
#     4   8   8   4
#     4  12  26  40  58  84 108 146 194 236 280 332
#     4  10  21  38  58  81 113 149 185 229 280 331
#     4   8  14  25  44  71 103 138 172 211 263 323
#     4   8  12  20  38  68 102 132 168 208 252 320
#
# _framework density 30.125226000000001
#
# number of rings (size 3 to 8) (size 9 to 14) (size 15 to 20)
#    0.000    2.667    0.000    2.000    0.000    4.000 
#    0.000    0.000    0.000    0.000    0.000    2.333 
#    0.000    0.000    0.000    3.000    0.000    1.000 
#
# Total GULP energy -134020.640695 kJ/mol
# GULP energy per Si atom -5584.193362 kJ/mol
# Density = 3.005666 g / cm^3
# Si number density = 30.125226 Si / 1000 Ang^3
#
#
#
# Elastic Constant Matrix: (Units=GPa)
#
#
# Indices 1 2 3 4 5 6 
#
# 1 83.5018 45.2401 46.9399 0.0000 0.0000 0.0000
# 2 45.2401 207.3143 33.2191 0.0000 0.0000 0.0000
# 3 46.9399 33.2191 378.7284 0.0000 0.0000 0.0000
# 4 0.0000 0.0000 0.0000 32.1307 0.0000 0.0000
# 5 0.0000 0.0000 0.0000 0.0000 -75.6788 0.0000
# 6 0.0000 0.0000 0.0000 0.0000 0.0000 78.4178
#
#
#
# Elastic Compliance Matrix: (Units=1/GPa)
#
#
# Indices 1 2 3 4 5 6 
#
# 1 0.014407 -0.002899 -0.001531 0.000000 0.000000 0.000000
# 2 -0.002899 0.005476 -0.000121 0.000000 0.000000 0.000000
# 3 -0.001531 -0.000121 0.002841 0.000000 0.000000 0.000000
# 4 0.000000 0.000000 0.000000 0.031123 0.000000 0.000000
# 5 0.000000 0.000000 0.000000 0.000000 -0.013214 0.000000
# 6 0.000000 0.000000 0.000000 0.000000 0.000000 0.012752
#
#
# Mechanical properties :
#
#
# Convention : Reuss Voigt Hill
#
# Bulk Modulus (GPa) = 73.41334 102.26030 87.83682
# Shear Modulus (GPa) = 74.59678 43.25029 58.92353
#
# Velocity S-wave (km/s) = 4.98156 3.79315 4.42741
# Velocity P-wave (km/s) = 7.58355 7.29402 7.44020
#
# Compressibility (1/GPa) = 0.01362150
#
# Stress axis : x y z
#
# Youngs Moduli (GPa) = 69.41063 182.63169 352.00971
#
# Poissons Ratio (x) = 0.52936 0.53906
# Poissons Ratio (y) = 0.20119 0.04260
# Poissons Ratio (z) = 0.10629 0.02210
#
# Static dielectric constant tensor:
#      x y z
#    x 2.055580 0.000000 0.000000 
#    y 0.000000 2.495160 0.000000 
#    z 0.000000 0.000000 2.634120 
# 
# From -- ./inp_files/28964.got.cif
#   From: 2010.05.17/outbox.cif.g08.bks.cpg/sg57_15_cif.got.tgz:28964.got - 2010.06.03 13:58:18.
