data_PCOD9438720
_publ_section_title
;
Structure prediction by ZEFSAII (Michael W. Deem and Ramdas Pophale) SiO2 
 PCOD9438720
Probable space group: P B C M
;
_chemical_formula_sum "Si O2"
_cell_formula_units_Z 48
_cell_length_a 15.920212
_cell_length_b 18.363179
_cell_length_c 8.456153
_cell_angle_alpha 90.000000
_cell_angle_beta 90.000000
_cell_angle_gamma 90.000000
_cell_volume 2472.119991
_symmetry_space_group_name_H-M "P B C M"
_symmetry_group_IT_number 57
_symmetry_cell_setting 'orthorhombic'
loop_
_space_group_symop_operation_xyz
x,y,z
-x,-y,1/2+z
x,1/2-y,-z
-x,1/2+y,1/2-z
-x,-y,-z
x,y,1/2-z
-x,1/2+y,z
x,1/2-y,1/2+z
loop_
_atom_site_type_symbol
_atom_site_label
_atom_site_fract_x
_atom_site_fract_y
_atom_site_fract_z
Si Si1 0.664064 0.414187 0.441373
Si Si2 0.997023 0.417554 0.939761
Si Si3 0.501329 0.667515 0.060365
Si Si4 0.834044 0.332477 0.439806
Si Si5 0.668363 0.917701 0.942916
Si Si6 0.835371 0.832533 0.941242
O O1 0.662254 0.413604 0.250000
O O2 0.581337 0.374109 0.502222
O O3 0.748004 0.371749 0.492292
O O4 0.666840 0.498277 0.493941
O O5 0.996668 0.418059 0.750000
O O6 0.080179 0.373910 0.993166
O O7 0.914197 0.376937 0.999935
O O8 0.000000 0.500000 0.000000
O O9 0.501428 0.668313 0.250000
O O10 0.584976 0.625021 0.005690
O O11 0.501758 0.750000 0.000000
O O12 0.836722 0.250000 0.500000
O O13 0.835404 0.332279 0.250000
O O14 0.668841 0.917899 0.750000
O O15 0.752514 0.876152 0.994588
O O16 0.834935 0.831906 0.750000
O O17 0.834086 0.750000 0.000000
#
# Coordination Sequence:
#
# PCOD9438720 Si02
#       6
#     8   8   8   8   8   8
#     4  10  21  39  61  83 112 150 190 236 288 339
#     4  11  23  39  61  87 117 153 193 238 288 343
#     4  11  22  36  57  84 114 148 187 232 281 337
#     4  11  23  39  60  85 116 154 194 238 289 343
#     4   9  19  37  59  83 113 148 186 230 281 336
#     4  10  21  38  59  84 114 149 187 228 279 336
#
# _framework density 19.416533000000001
#
# number of rings (size 3 to 8) (size 9 to 14) (size 15 to 20)
#    0.000    1.667    0.000    4.500    0.000    8.000 
#    0.000    2.500    0.000    0.000    0.000    0.000 
#    0.000    0.000    0.000    0.000    0.000    0.000 
#
# Total GULP energy -268389.023183 kJ/mol
# GULP energy per Si atom -5591.437983 kJ/mol
# Density = 1.937234 g / cm^3
# Si number density = 19.416533 Si / 1000 Ang^3
#
#
#
# Elastic Constant Matrix: (Units=GPa)
#
#
# Indices 1 2 3 4 5 6 
#
# 1 218.2705 123.1245 36.9811 0.0000 0.0000 0.0000
# 2 123.1245 215.7428 32.7023 0.0000 0.0000 0.0000
# 3 36.9811 32.7023 25.3535 0.0000 0.0000 0.0000
# 4 0.0000 0.0000 0.0000 28.2226 0.0000 0.0000
# 5 0.0000 0.0000 0.0000 0.0000 13.1468 0.0000
# 6 0.0000 0.0000 0.0000 0.0000 0.0000 47.5168
#
#
#
# Elastic Compliance Matrix: (Units=1/GPa)
#
#
# Indices 1 2 3 4 5 6 
#
# 1 0.007602 -0.003303 -0.006827 0.000000 0.000000 0.000000
# 2 -0.003303 0.007197 -0.004465 0.000000 0.000000 0.000000
# 3 -0.006827 -0.004465 0.055159 0.000000 0.000000 0.000000
# 4 0.000000 0.000000 0.000000 0.035433 0.000000 0.000000
# 5 0.000000 0.000000 0.000000 0.000000 0.076064 0.000000
# 6 0.000000 0.000000 0.000000 0.000000 0.000000 0.021045
#
#
# Mechanical properties :
#
#
# Convention : Reuss Voigt Hill
#
# Bulk Modulus (GPa) = 24.52935 93.88694 59.20815
# Shear Modulus (GPa) = 20.38492 35.54782 27.96637
#
# Velocity S-wave (km/s) = 3.24369 4.28343 3.79930
# Velocity P-wave (km/s) = 5.16617 8.53948 7.05734
#
# Compressibility (1/GPa) = 0.04076749
#
# Stress axis : x y z
#
# Youngs Moduli (GPa) = 131.55222 138.94320 18.12937
#
# Poissons Ratio (x) = 0.45898 0.12377
# Poissons Ratio (y) = 0.43457 0.08095
# Poissons Ratio (z) = 0.89809 0.62037
#
# Static dielectric constant tensor:
#      x y z
#    x 1.653610 0.000000 0.000000 
#    y 0.000000 1.632740 0.000000 
#    z 0.000000 0.000000 1.677150 
# 
# From -- ./inp_files/4573.got.cif
#   From: 2010.05.17/outbox.cif.g08.bks.cpg/sg57_3_cif.got.tgz:4573.got - 2010.06.03 13:58:18.
