data_PCOD9438155
_publ_section_title
;
Structure prediction by ZEFSAII (Michael W. Deem and Ramdas Pophale) SiO2 
 PCOD9438155
Probable space group: P B C M
;
_chemical_formula_sum "Si O2"
_cell_formula_units_Z 40
_cell_length_a 12.724479
_cell_length_b 18.834054
_cell_length_c 8.887198
_cell_angle_alpha 90.000000
_cell_angle_beta 90.000000
_cell_angle_gamma 90.000000
_cell_volume 2129.848325
_symmetry_space_group_name_H-M "P B C M"
_symmetry_group_IT_number 57
_symmetry_cell_setting 'orthorhombic'
loop_
_space_group_symop_operation_xyz
x,y,z
-x,-y,1/2+z
x,1/2-y,-z
-x,1/2+y,1/2-z
-x,-y,-z
x,y,1/2-z
-x,1/2+y,z
x,1/2-y,1/2+z
loop_
_atom_site_type_symbol
_atom_site_label
_atom_site_fract_x
_atom_site_fract_y
_atom_site_fract_z
Si Si1 0.953304 0.072163 0.069268
Si Si2 0.275871 0.921339 0.430945
Si Si3 0.344933 0.079232 0.068971
Si Si4 0.471588 0.672630 0.929977
Si Si5 0.858195 0.672833 0.430449
O O1 0.953551 0.066385 0.250000
O O2 0.033000 0.135170 0.025125
O O3 0.836354 0.084647 0.009511
O O4 0.000000 0.000000 0.000000
O O5 0.260261 0.922274 0.250000
O O6 0.357069 0.858976 0.469071
O O7 0.328583 0.996982 0.471914
O O8 0.358131 0.083172 0.250000
O O9 0.238676 0.121673 0.028184
O O10 0.441912 0.117696 0.990635
O O11 0.479515 0.676915 0.750000
O O12 0.488394 0.750000 0.000000
O O13 0.845710 0.750000 0.500000
O O14 0.857382 0.679004 0.250000
#
# Coordination Sequence:
#
# PCOD9438155 Si02
#       5
#     8   8   8   8   8
#     4  11  22  39  62  88 120 158 199 243 294 354
#     4  10  22  41  63  88 120 156 198 251 301 353
#     4  10  20  39  63  87 120 153 196 252 300 355
#     4  11  24  40  60  87 122 161 201 246 300 356
#     4  10  22  38  58  87 121 155 194 244 298 349
#
# _framework density 18.78068
#
# number of rings (size 3 to 8) (size 9 to 14) (size 15 to 20)
#    0.000    1.600    2.000    2.400    0.000    7.200 
#    0.000    4.000    0.000    0.000    0.000    0.000 
#    0.000    0.000    0.000    0.000    0.000    0.000 
#
# Total GULP energy -223569.324433 kJ/mol
# GULP energy per Si atom -5589.233111 kJ/mol
# Density = 1.873793 g / cm^3
# Si number density = 18.780680 Si / 1000 Ang^3
#
#
#
# Elastic Constant Matrix: (Units=GPa)
#
#
# Indices 1 2 3 4 5 6 
#
# 1 100.7785 -6.9286 29.3179 0.0000 0.0000 0.0000
# 2 -6.9286 33.8399 6.3014 0.0000 0.0000 0.0000
# 3 29.3179 6.3014 23.1020 0.0000 0.0000 0.0000
# 4 0.0000 0.0000 0.0000 25.7405 0.0000 0.0000
# 5 0.0000 0.0000 0.0000 0.0000 36.2951 0.0000
# 6 0.0000 0.0000 0.0000 0.0000 0.0000 20.4337
#
#
#
# Elastic Compliance Matrix: (Units=1/GPa)
#
#
# Indices 1 2 3 4 5 6 
#
# 1 0.017656 0.008204 -0.024645 0.000000 0.000000 0.000000
# 2 0.008204 0.034944 -0.019943 0.000000 0.000000 0.000000
# 3 -0.024645 -0.019943 0.080002 0.000000 0.000000 0.000000
# 4 0.000000 0.000000 0.000000 0.038849 0.000000 0.000000
# 5 0.000000 0.000000 0.000000 0.000000 0.027552 0.000000
# 6 0.000000 0.000000 0.000000 0.000000 0.000000 0.048939
#
#
# Mechanical properties :
#
#
# Convention : Reuss Voigt Hill
#
# Bulk Modulus (GPa) = 16.71264 23.90019 20.30642
# Shear Modulus (GPa) = 14.67762 25.09586 19.88674
#
# Velocity S-wave (km/s) = 2.79861 3.65945 3.25759
# Velocity P-wave (km/s) = 4.40013 5.53254 4.99851
#
# Compressibility (1/GPa) = 0.05983496
#
# Stress axis : x y z
#
# Youngs Moduli (GPa) = 56.63690 28.61698 12.49972
#
# Poissons Ratio (x) = -0.23478 0.30805
# Poissons Ratio (y) = -0.46466 0.24928
# Poissons Ratio (z) = 1.39581 0.57071
#
# Static dielectric constant tensor:
#      x y z
#    x 1.633410 0.000000 0.000000 
#    y 0.000000 1.622110 0.000000 
#    z 0.000000 0.000000 1.633520 
# 
# From -- ./inp_files/2629.got.cif
#   From: 2010.05.17/outbox.cif.g08.bks.cpg/sg57_2_cif.got.tgz:2629.got - 2010.06.03 13:58:18.
