data_PCOD9438331
_publ_section_title
;
Structure prediction by ZEFSAII (Michael W. Deem and Ramdas Pophale) SiO2 
 PCOD9438331
Probable space group: P B C M
;
_chemical_formula_sum "Si O2"
_cell_formula_units_Z 48
_cell_length_a 15.146279
_cell_length_b 18.942607
_cell_length_c 8.281982
_cell_angle_alpha 90.000000
_cell_angle_beta 90.000000
_cell_angle_gamma 90.000000
_cell_volume 2376.183543
_symmetry_space_group_name_H-M "P B C M"
_symmetry_group_IT_number 57
_symmetry_cell_setting 'orthorhombic'
loop_
_space_group_symop_operation_xyz
x,y,z
-x,-y,1/2+z
x,1/2-y,-z
-x,1/2+y,1/2-z
-x,-y,-z
x,y,1/2-z
-x,1/2+y,z
x,1/2-y,1/2+z
loop_
_atom_site_type_symbol
_atom_site_label
_atom_site_fract_x
_atom_site_fract_y
_atom_site_fract_z
Si Si1 0.519992 0.829244 0.561518
Si Si2 0.675870 0.914213 0.059314
Si Si3 0.941191 0.100681 0.555816
Si Si4 0.874025 0.552390 0.554194
Si Si5 0.772758 0.325753 0.444265
Si Si6 0.374297 0.935645 0.441133
O O1 0.505450 0.750000 0.500000
O O2 0.499429 0.832479 0.750000
O O3 0.619854 0.854455 0.529316
O O4 0.458174 0.886260 0.472884
O O5 0.676169 0.899077 0.250000
O O6 0.777108 0.923198 0.001918
O O7 0.628460 0.989557 0.029125
O O8 0.943006 0.104721 0.750000
O O9 0.872153 0.158978 0.496137
O O10 0.042782 0.100466 0.500778
O O11 0.898560 0.025372 0.509017
O O12 0.873074 0.549453 0.750000
O O13 0.740075 0.250000 0.500000
O O14 0.771879 0.326515 0.250000
O O15 0.709063 0.388800 0.497749
O O16 0.366643 0.949443 0.250000
#
# Coordination Sequence:
#
# PCOD9438331 Si02
#       6
#     8   8   8   8   8   8
#     4  12  26  44  63  85 115 154 194 242 296 354
#     4  11  22  38  61  91 120 153 195 245 292 346
#     4   9  17  33  53  79 113 149 188 234 285 338
#     4   9  18  32  56  84 112 146 188 236 283 334
#     4  10  21  34  53  80 116 155 191 236 290 347
#     4  11  22  39  61  88 117 153 195 243 294 349
#
# _framework density 20.200461000000001
#
# number of rings (size 3 to 8) (size 9 to 14) (size 15 to 20)
#    0.000    1.667    1.667    3.500    0.000    4.000 
#    0.000    0.833    0.000    2.000    0.000    0.000 
#    0.000    0.000    0.000    0.000    0.000    0.000 
#
# Total GULP energy -268099.217282 kJ/mol
# GULP energy per Si atom -5585.400360 kJ/mol
# Density = 2.015448 g / cm^3
# Si number density = 20.200461 Si / 1000 Ang^3
#
#
#
# Elastic Constant Matrix: (Units=GPa)
#
#
# Indices 1 2 3 4 5 6 
#
# 1 102.4222 13.5594 -7.2856 0.0000 0.0000 0.0000
# 2 13.5594 43.3956 0.8474 0.0000 0.0000 0.0000
# 3 -7.2856 0.8474 13.0061 0.0000 0.0000 0.0000
# 4 0.0000 0.0000 0.0000 25.2276 0.0000 0.0000
# 5 0.0000 0.0000 0.0000 0.0000 14.1757 0.0000
# 6 0.0000 0.0000 0.0000 0.0000 0.0000 13.5299
#
#
#
# Elastic Compliance Matrix: (Units=1/GPa)
#
#
# Indices 1 2 3 4 5 6 
#
# 1 0.010661 -0.003452 0.006197 0.000000 0.000000 0.000000
# 2 -0.003452 0.024191 -0.003510 0.000000 0.000000 0.000000
# 3 0.006197 -0.003510 0.080587 0.000000 0.000000 0.000000
# 4 0.000000 0.000000 0.000000 0.039639 0.000000 0.000000
# 5 0.000000 0.000000 0.000000 0.000000 0.070543 0.000000
# 6 0.000000 0.000000 0.000000 0.000000 0.000000 0.073910
#
#
# Mechanical properties :
#
#
# Convention : Reuss Voigt Hill
#
# Bulk Modulus (GPa) = 8.77893 19.22958 14.00425
# Shear Modulus (GPa) = 14.74788 20.70017 17.72402
#
# Velocity S-wave (km/s) = 2.70492 3.20462 2.96532
# Velocity P-wave (km/s) = 3.75644 4.82005 4.32109
#
# Compressibility (1/GPa) = 0.11390916
#
# Stress axis : x y z
#
# Youngs Moduli (GPa) = 93.79671 41.33765 12.40895
#
# Poissons Ratio (x) = 0.14271 -0.07690
# Poissons Ratio (y) = 0.32381 0.04355
# Poissons Ratio (z) = -0.58126 0.14509
#
# Static dielectric constant tensor:
#      x y z
#    x 1.786180 0.000000 0.000000 
#    y 0.000000 1.672410 0.000000 
#    z 0.000000 0.000000 1.681230 
# 
# From -- ./inp_files/4588.got.cif
#   From: 2010.05.17/outbox.cif.g08.bks.cpg/sg57_3_cif.got.tgz:4588.got - 2010.06.03 13:58:18.
