data_PCOD9438900
_publ_section_title
;
Structure prediction by ZEFSAII (Michael W. Deem and Ramdas Pophale) SiO2 
 PCOD9438900
Probable space group: P B C M
;
_chemical_formula_sum "Si O2"
_cell_formula_units_Z 64
_cell_length_a 9.365773
_cell_length_b 15.969062
_cell_length_c 20.648399
_cell_angle_alpha 90.000000
_cell_angle_beta 90.000000
_cell_angle_gamma 90.000000
_cell_volume 3088.228441
_symmetry_space_group_name_H-M "P B C M"
_symmetry_group_IT_number 57
_symmetry_cell_setting 'orthorhombic'
loop_
_space_group_symop_operation_xyz
x,y,z
-x,-y,1/2+z
x,1/2-y,-z
-x,1/2+y,1/2-z
-x,-y,-z
x,y,1/2-z
-x,1/2+y,z
x,1/2-y,1/2+z
loop_
_atom_site_type_symbol
_atom_site_label
_atom_site_fract_x
_atom_site_fract_y
_atom_site_fract_z
Si Si1 0.799797 0.831020 0.363893
Si Si2 0.006321 0.970427 0.322760
Si Si3 0.753620 0.574991 0.498256
Si Si4 0.483077 0.418052 0.605775
Si Si5 0.031254 0.196416 0.064769
Si Si6 0.812845 0.427802 0.919985
Si Si7 0.327318 0.924422 0.328169
Si Si8 0.498179 0.237781 0.824769
O O1 0.759000 0.875779 0.432859
O O2 0.895923 0.750349 0.379730
O O3 0.655020 0.807090 0.328937
O O4 0.898847 0.892683 0.324044
O O5 0.022615 0.004295 0.250000
O O6 0.924862 0.033943 0.369316
O O7 0.161554 0.939392 0.345599
O O8 0.600591 0.580260 0.463135
O O9 0.864664 0.618970 0.450439
O O10 0.810496 0.482325 0.514437
O O11 0.650810 0.435548 0.601978
O O12 0.412033 0.494696 0.645209
O O13 0.477364 0.324734 0.636377
O O14 0.870459 0.165501 0.073161
O O15 0.036016 0.250000 0.000000
O O16 0.338454 0.924058 0.250000
O O17 0.391245 0.834073 0.349646
O O18 0.534745 0.257787 0.750000
#
# Coordination Sequence:
#
# PCOD9438900 Si02
#       8
#     8   8   8   8   8   8   8   8
#     4  10  21  40  65  92 128 164 212 262 324 382
#     4  10  22  41  67  92 124 169 216 269 324 381
#     4  10  21  42  62  90 126 165 210 261 320 381
#     4  12  24  41  66  96 132 170 217 264 322 384
#     4  10  21  39  60  91 127 167 204 262 320 384
#     4  11  24  40  62  94 125 170 216 261 321 385
#     4  10  23  43  65  94 130 170 216 269 325 381
#     4  11  24  42  66  93 127 171 214 264 323 385
#
# _framework density 20.723855
#
# number of rings (size 3 to 8) (size 9 to 14) (size 15 to 20)
#    0.000    1.500    1.250    3.750    1.750    4.000 
#    2.250    0.625    0.000    0.000    0.000    0.000 
#    0.000    0.000    0.000    0.000    0.000    0.000 
#
# Total GULP energy -357222.208483 kJ/mol
# GULP energy per Si atom -5581.597008 kJ/mol
# Density = 2.067669 g / cm^3
# Si number density = 20.723855 Si / 1000 Ang^3
#
#
#
# Elastic Constant Matrix: (Units=GPa)
#
#
# Indices 1 2 3 4 5 6 
#
# 1 96.1301 48.1718 28.2199 0.0000 0.0000 0.0000
# 2 48.1718 73.4735 19.6737 0.0000 0.0000 0.0000
# 3 28.2199 19.6737 53.5025 0.0000 0.0000 0.0000
# 4 0.0000 0.0000 0.0000 13.4296 0.0000 0.0000
# 5 0.0000 0.0000 0.0000 0.0000 22.5433 0.0000
# 6 0.0000 0.0000 0.0000 0.0000 0.0000 41.2427
#
#
#
# Elastic Compliance Matrix: (Units=1/GPa)
#
#
# Indices 1 2 3 4 5 6 
#
# 1 0.016756 -0.009561 -0.005322 0.000000 0.000000 0.000000
# 2 -0.009561 0.020552 -0.002515 0.000000 0.000000 0.000000
# 3 -0.005322 -0.002515 0.022423 0.000000 0.000000 0.000000
# 4 0.000000 0.000000 0.000000 0.074462 0.000000 0.000000
# 5 0.000000 0.000000 0.000000 0.000000 0.044359 0.000000
# 6 0.000000 0.000000 0.000000 0.000000 0.000000 0.024247
#
#
# Mechanical properties :
#
#
# Convention : Reuss Voigt Hill
#
# Bulk Modulus (GPa) = 40.10340 46.13743 43.12042
# Shear Modulus (GPa) = 20.33301 23.91249 22.12275
#
# Velocity S-wave (km/s) = 3.13571 3.40054 3.27081
# Velocity P-wave (km/s) = 5.70119 6.14244 5.92592
#
# Compressibility (1/GPa) = 0.02493554
#
# Stress axis : x y z
#
# Youngs Moduli (GPa) = 59.68035 48.65724 44.59780
#
# Poissons Ratio (x) = 0.46519 0.23736
# Poissons Ratio (y) = 0.57058 0.11214
# Poissons Ratio (z) = 0.31764 0.12235
#
# Static dielectric constant tensor:
#      x y z
#    x 1.733760 0.000000 0.000000 
#    y 0.000000 1.811320 0.000000 
#    z 0.000000 0.000000 1.747260 
# 
# From -- ./inp_files/24631.got.cif
#   From: 2010.05.17/outbox.cif.g08.bks.cpg/sg57_13_cif.got.tgz:24631.got - 2010.06.03 13:58:18.
