data_PCOD9438400
_publ_section_title
;
Structure prediction by ZEFSAII (Michael W. Deem and Ramdas Pophale) SiO2 
 PCOD9438400
Probable space group: P B C M
;
_chemical_formula_sum "Si O2"
_cell_formula_units_Z 40
_cell_length_a 7.238075
_cell_length_b 31.312345
_cell_length_c 7.493202
_cell_angle_alpha 90.000000
_cell_angle_beta 90.000000
_cell_angle_gamma 90.000000
_cell_volume 1698.267555
_symmetry_space_group_name_H-M "P B C M"
_symmetry_group_IT_number 57
_symmetry_cell_setting 'orthorhombic'
loop_
_space_group_symop_operation_xyz
x,y,z
-x,-y,1/2+z
x,1/2-y,-z
-x,1/2+y,1/2-z
-x,-y,-z
x,y,1/2-z
-x,1/2+y,z
x,1/2-y,1/2+z
loop_
_atom_site_type_symbol
_atom_site_label
_atom_site_fract_x
_atom_site_fract_y
_atom_site_fract_z
Si Si1 0.294286 0.054020 0.453324
Si Si2 0.813449 0.128108 0.465007
Si Si3 0.087799 0.298849 0.536811
Si Si4 0.603305 0.643285 0.468741
Si Si5 0.279385 0.536831 0.537562
O O1 0.226536 0.056914 0.250000
O O2 0.282388 0.101442 0.530965
O O3 0.518722 0.046760 0.454402
O O4 0.218231 0.009762 0.532291
O O5 0.814622 0.129929 0.250000
O O6 0.947394 0.165163 0.531874
O O7 0.606397 0.138975 0.529040
O O8 0.846803 0.078267 0.508906
O O9 0.043067 0.250000 0.500000
O O10 0.086595 0.302812 0.750000
O O11 0.290427 0.314171 0.476256
O O12 0.599530 0.641318 0.250000
O O13 0.307986 0.532470 0.750000
#
# Coordination Sequence:
#
# PCOD9438400 Si02
#       5
#     8   8   8   8   8
#     4   8  14  26  45  69  99 132 161 191 232 282
#     4   9  18  33  51  70  96 130 160 188 233 290
#     4  10  21  36  53  71  92 121 158 200 244 287
#     4   8  15  31  52  70  92 125 160 189 226 283
#     4   9  15  24  44  73 100 127 160 197 232 270
#
# _framework density 23.553415999999999
#
# number of rings (size 3 to 8) (size 9 to 14) (size 15 to 20)
#    0.000    3.200    0.000    1.800    0.000    2.400 
#    0.000    5.000    0.000    0.000    0.000    0.000 
#    0.000    0.000    0.000    0.000    0.000    0.000 
#
# Total GULP energy -223157.317339 kJ/mol
# GULP energy per Si atom -5578.932933 kJ/mol
# Density = 2.349981 g / cm^3
# Si number density = 23.553416 Si / 1000 Ang^3
#
#
#
# Elastic Constant Matrix: (Units=GPa)
#
#
# Indices 1 2 3 4 5 6 
#
# 1 55.4834 42.3604 2.3170 0.0000 0.0000 0.0000
# 2 42.3604 169.9990 -0.1445 0.0000 0.0000 0.0000
# 3 2.3170 -0.1445 77.9804 0.0000 0.0000 0.0000
# 4 0.0000 0.0000 0.0000 22.4119 0.0000 0.0000
# 5 0.0000 0.0000 0.0000 0.0000 0.9703 0.0000
# 6 0.0000 0.0000 0.0000 0.0000 0.0000 37.9016
#
#
#
# Elastic Compliance Matrix: (Units=1/GPa)
#
#
# Indices 1 2 3 4 5 6 
#
# 1 0.022293 -0.005556 -0.000673 0.000000 0.000000 0.000000
# 2 -0.005556 0.007267 0.000179 0.000000 0.000000 0.000000
# 3 -0.000673 0.000179 0.012844 0.000000 0.000000 0.000000
# 4 0.000000 0.000000 0.000000 0.044619 0.000000 0.000000
# 5 0.000000 0.000000 0.000000 0.000000 1.030655 0.000000
# 6 0.000000 0.000000 0.000000 0.000000 0.000000 0.026384
#
#
# Mechanical properties :
#
#
# Convention : Reuss Voigt Hill
#
# Bulk Modulus (GPa) = 32.99833 43.61428 38.30630
# Shear Modulus (GPa) = 4.28719 29.51874 16.90297
#
# Velocity S-wave (km/s) = 1.35061 3.54399 2.68179
# Velocity P-wave (km/s) = 4.05865 5.94171 5.08805
#
# Compressibility (1/GPa) = 0.03030457
#
# Stress axis : x y z
#
# Youngs Moduli (GPa) = 44.85703 137.61077 77.85702
#
# Poissons Ratio (x) = 0.76450 0.05237
# Poissons Ratio (y) = 0.24921 -0.01390
# Poissons Ratio (z) = 0.03017 -0.02457
#
# Static dielectric constant tensor:
#      x y z
#    x 1.910320 0.000000 0.000000 
#    y 0.000000 1.918020 0.000000 
#    z 0.000000 0.000000 1.909560 
# 
# From -- ./inp_files/1717.got.cif
#   From: 2010.05.17/outbox.cif.g08.bks.cpg/sg57_1_cif.got.tgz:1717.got - 2010.06.03 13:58:18.
