data_PCOD9438781
_publ_section_title
;
Structure prediction by ZEFSAII (Michael W. Deem and Ramdas Pophale) SiO2 
 PCOD9438781
Probable space group: P B C M
;
_chemical_formula_sum "Si O2"
_cell_formula_units_Z 40
_cell_length_a 25.429770
_cell_length_b 5.259744
_cell_length_c 14.806204
_cell_angle_alpha 90.000000
_cell_angle_beta 90.000000
_cell_angle_gamma 90.000000
_cell_volume 1980.390197
_symmetry_space_group_name_H-M "P B C M"
_symmetry_group_IT_number 57
_symmetry_cell_setting 'orthorhombic'
loop_
_space_group_symop_operation_xyz
x,y,z
-x,-y,1/2+z
x,1/2-y,-z
-x,1/2+y,1/2-z
-x,-y,-z
x,y,1/2-z
-x,1/2+y,z
x,1/2-y,1/2+z
loop_
_atom_site_type_symbol
_atom_site_label
_atom_site_fract_x
_atom_site_fract_y
_atom_site_fract_z
Si Si1 0.877134 0.677984 0.103785
Si Si2 0.374698 0.507438 0.944995
Si Si3 0.810289 0.329327 0.853924
Si Si4 0.965521 0.582521 0.250000
Si Si5 0.475420 0.397691 0.855060
Si Si6 0.727006 0.250000 0.000000
O O1 0.840191 0.427834 0.113659
O O2 0.928524 0.619810 0.162700
O O3 0.848258 0.927130 0.142866
O O4 0.888370 0.750000 0.000000
O O5 0.414144 0.468842 0.862828
O O6 0.378634 0.250000 0.000000
O O7 0.312712 0.573393 0.941377
O O8 0.395684 0.750000 0.000000
O O9 0.792908 0.291882 0.750000
O O10 0.763904 0.380604 0.925743
O O11 0.990990 0.303939 0.250000
O O12 0.489664 0.372924 0.750000
O O13 0.489978 0.125096 0.895593
#
# Coordination Sequence:
#
# PCOD9438781 Si02
#       6
#     8   8   8   4   8   4
#     4  12  24  44  71 101 132 175 227 270 323 387
#     4  10  23  39  57  88 127 155 203 261 324 381
#     4  12  23  42  70  96 130 176 223 277 321 389
#     4  12  26  44  70 102 148 170 218 278 336 394
#     4  10  21  38  61  87 117 162 211 260 317 388
#     4  10  26  40  64  96 130 166 224 268 334 384
#
# _framework density 20.198039999999999
#
# number of rings (size 3 to 8) (size 9 to 14) (size 15 to 20)
#    0.600    0.400    4.000    2.400    2.800    4.000 
#    0.000    1.000    0.000    0.000    0.000    0.000 
#    0.000    0.000    0.000    0.000    0.000    0.000 
#
# Total GULP energy -223023.450566 kJ/mol
# GULP energy per Si atom -5575.586264 kJ/mol
# Density = 2.015207 g / cm^3
# Si number density = 20.198040 Si / 1000 Ang^3
#
#
#
# Elastic Constant Matrix: (Units=GPa)
#
#
# Indices 1 2 3 4 5 6 
#
# 1 72.9682 4.3437 19.3504 0.0000 0.0000 0.0000
# 2 4.3437 113.2586 -5.1343 0.0000 0.0000 0.0000
# 3 19.3504 -5.1343 71.8013 0.0000 0.0000 0.0000
# 4 0.0000 0.0000 0.0000 20.4873 0.0000 0.0000
# 5 0.0000 0.0000 0.0000 0.0000 25.3327 0.0000
# 6 0.0000 0.0000 0.0000 0.0000 0.0000 30.3149
#
#
#
# Elastic Compliance Matrix: (Units=1/GPa)
#
#
# Indices 1 2 3 4 5 6 
#
# 1 0.014823 -0.000752 -0.004049 0.000000 0.000000 0.000000
# 2 -0.000752 0.008896 0.000839 0.000000 0.000000 0.000000
# 3 -0.004049 0.000839 0.015078 0.000000 0.000000 0.000000
# 4 0.000000 0.000000 0.000000 0.048811 0.000000 0.000000
# 5 0.000000 0.000000 0.000000 0.000000 0.039475 0.000000
# 6 0.000000 0.000000 0.000000 0.000000 0.000000 0.032987
#
#
# Mechanical properties :
#
#
# Convention : Reuss Voigt Hill
#
# Bulk Modulus (GPa) = 32.38964 32.79418 32.59191
# Shear Modulus (GPa) = 28.04498 31.19153 29.61825
#
# Velocity S-wave (km/s) = 3.73030 3.93400 3.83350
# Velocity P-wave (km/s) = 5.88425 6.07509 5.98043
#
# Compressibility (1/GPa) = 0.03087407
#
# Stress axis : x y z
#
# Youngs Moduli (GPa) = 67.46270 112.40726 66.32004
#
# Poissons Ratio (x) = 0.08453 0.26850
# Poissons Ratio (y) = 0.05073 -0.05563
# Poissons Ratio (z) = 0.27313 -0.09429
#
# Static dielectric constant tensor:
#      x y z
#    x 1.735940 0.000000 0.000000 
#    y 0.000000 1.718720 0.000000 
#    z 0.000000 0.000000 1.714670 
# 
# From -- ./inp_files/19442.got.cif
#   From: 2010.05.17/outbox.cif.g08.bks.cpg/sg57_10_cif.got.tgz:19442.got - 2010.06.03 13:58:18.
