data_PCOD9438201
_publ_section_title
;
Structure prediction by ZEFSAII (Michael W. Deem and Ramdas Pophale) SiO2 
 PCOD9438201
Probable space group: P B C M
;
_chemical_formula_sum "Si O2"
_cell_formula_units_Z 48
_cell_length_a 6.024030
_cell_length_b 14.535166
_cell_length_c 24.715257
_cell_angle_alpha 90.000000
_cell_angle_beta 90.000000
_cell_angle_gamma 90.000000
_cell_volume 2164.074725
_symmetry_space_group_name_H-M "P B C M"
_symmetry_group_IT_number 57
_symmetry_cell_setting 'orthorhombic'
loop_
_space_group_symop_operation_xyz
x,y,z
-x,-y,1/2+z
x,1/2-y,-z
-x,1/2+y,1/2-z
-x,-y,-z
x,y,1/2-z
-x,1/2+y,z
x,1/2-y,1/2+z
loop_
_atom_site_type_symbol
_atom_site_label
_atom_site_fract_x
_atom_site_fract_y
_atom_site_fract_z
Si Si1 0.394291 0.799293 0.451157
Si Si2 0.139959 0.628195 0.415087
Si Si3 0.268828 0.362912 0.139352
Si Si4 0.519260 0.536560 0.148277
Si Si5 0.854148 0.676016 0.190080
Si Si6 0.116200 0.541168 0.928563
O O1 0.523514 0.750000 0.500000
O O2 0.198120 0.726666 0.439211
O O3 0.545195 0.815947 0.399072
O O4 0.278411 0.896374 0.464728
O O5 0.374043 0.581645 0.399702
O O6 0.017432 0.644311 0.357673
O O7 0.985391 0.556120 0.447421
O O8 0.366278 0.453160 0.169419
O O9 0.187601 0.283592 0.178997
O O10 0.082342 0.399619 0.097590
O O11 0.625784 0.617278 0.183777
O O12 0.727783 0.485747 0.121766
O O13 0.944781 0.660500 0.250000
#
# Coordination Sequence:
#
# PCOD9438201 Si02
#       6
#     8   8   8   8   8   8
#     4  11  22  37  63  92 121 165 207 245 305 363
#     4  10  20  40  61  85 125 154 197 257 295 356
#     4  10  20  40  60  89 128 156 201 257 294 352
#     4   9  20  39  63  83 121 160 191 248 303 350
#     4  11  22  37  63  91 117 159 202 242 305 364
#     4   9  20  39  62  86 121 162 194 249 305 348
#
# _framework density 22.18038
#
# number of rings (size 3 to 8) (size 9 to 14) (size 15 to 20)
#    0.000    2.000    3.333    0.000    0.000    2.667 
#    0.000   14.167    0.000    0.000    0.000    0.000 
#    0.000    0.000    0.000    0.000    0.000    0.000 
#
# Total GULP energy -267710.665172 kJ/mol
# GULP energy per Si atom -5577.305524 kJ/mol
# Density = 2.212990 g / cm^3
# Si number density = 22.180380 Si / 1000 Ang^3
#
#
#
# Elastic Constant Matrix: (Units=GPa)
#
#
# Indices 1 2 3 4 5 6 
#
# 1 42.6231 9.6469 -9.0433 0.0000 0.0000 0.0000
# 2 9.6469 97.4672 -1.5687 0.0000 0.0000 0.0000
# 3 -9.0433 -1.5687 38.1691 0.0000 0.0000 0.0000
# 4 0.0000 0.0000 0.0000 11.2616 0.0000 0.0000
# 5 0.0000 0.0000 0.0000 0.0000 17.8430 0.0000
# 6 0.0000 0.0000 0.0000 0.0000 0.0000 35.3690
#
#
#
# Elastic Compliance Matrix: (Units=1/GPa)
#
#
# Indices 1 2 3 4 5 6 
#
# 1 0.025254 -0.002405 0.005885 0.000000 0.000000 0.000000
# 2 -0.002405 0.010496 -0.000138 0.000000 0.000000 0.000000
# 3 0.005885 -0.000138 0.027588 0.000000 0.000000 0.000000
# 4 0.000000 0.000000 0.000000 0.088798 0.000000 0.000000
# 5 0.000000 0.000000 0.000000 0.000000 0.056044 0.000000
# 6 0.000000 0.000000 0.000000 0.000000 0.000000 0.028273
#
#
# Mechanical properties :
#
#
# Convention : Reuss Voigt Hill
#
# Bulk Modulus (GPa) = 14.28156 19.59213 16.93685
# Shear Modulus (GPa) = 19.75423 24.84302 22.29862
#
# Velocity S-wave (km/s) = 2.98756 3.35034 3.17414
# Velocity P-wave (km/s) = 4.28410 4.88043 4.59195
#
# Compressibility (1/GPa) = 0.07002034
#
# Stress axis : x y z
#
# Youngs Moduli (GPa) = 39.59726 95.27747 36.24797
#
# Poissons Ratio (x) = 0.22913 -0.21331
# Poissons Ratio (y) = 0.09523 0.00502
# Poissons Ratio (z) = -0.23301 0.01319
#
# Static dielectric constant tensor:
#      x y z
#    x 1.813900 0.000000 0.000000 
#    y 0.000000 1.852710 0.000000 
#    z 0.000000 0.000000 1.821550 
# 
# From -- ./inp_files/27941.got.cif
#   From: 2010.05.17/outbox.cif.g08.bks.cpg/sg57_14_cif.got.tgz:27941.got - 2010.06.03 13:58:18.
