data_PCOD9438887
_publ_section_title
;
Structure prediction by ZEFSAII (Michael W. Deem and Ramdas Pophale) SiO2 
 PCOD9438887
Probable space group: P B C M
;
_chemical_formula_sum "Si O2"
_cell_formula_units_Z 64
_cell_length_a 19.745487
_cell_length_b 8.350153
_cell_length_c 16.904700
_cell_angle_alpha 90.000000
_cell_angle_beta 90.000000
_cell_angle_gamma 90.000000
_cell_volume 2787.210380
_symmetry_space_group_name_H-M "P B C M"
_symmetry_group_IT_number 57
_symmetry_cell_setting 'orthorhombic'
loop_
_space_group_symop_operation_xyz
x,y,z
-x,-y,1/2+z
x,1/2-y,-z
-x,1/2+y,1/2-z
-x,-y,-z
x,y,1/2-z
-x,1/2+y,z
x,1/2-y,1/2+z
loop_
_atom_site_type_symbol
_atom_site_label
_atom_site_fract_x
_atom_site_fract_y
_atom_site_fract_z
Si Si1 0.161046 0.172309 0.086311
Si Si2 0.780192 0.983092 0.156402
Si Si3 0.587119 0.598640 0.158441
Si Si4 0.091195 0.827647 0.842841
Si Si5 0.348522 0.639201 0.342864
Si Si6 0.270600 0.521495 0.841617
Si Si7 0.025951 0.510804 0.910094
Si Si8 0.520840 0.211307 0.910715
O O1 0.189749 0.308760 0.143323
O O2 0.209520 0.020021 0.100580
O O3 0.084507 0.120726 0.102004
O O4 0.165801 0.250000 0.000000
O O5 0.774402 0.013202 0.250000
O O6 0.836369 0.109475 0.126701
O O7 0.704542 0.009530 0.124449
O O8 0.579788 0.548085 0.250000
O O9 0.667123 0.600861 0.143712
O O10 0.552410 0.462255 0.105057
O O11 0.544981 0.757910 0.142660
O O12 0.096883 0.786194 0.750000
O O13 0.060230 0.679661 0.890390
O O14 0.037683 0.971388 0.854760
O O15 0.363851 0.612764 0.250000
O O16 0.418643 0.667367 0.386636
O O17 0.305393 0.805030 0.349279
O O18 0.247781 0.507426 0.750000
O O19 0.000000 0.500000 0.000000
O O20 0.502347 0.250000 0.000000
#
# Coordination Sequence:
#
# PCOD9438887 Si02
#       8
#     8   8   8   8   8   8   8   8
#     4  12  25  39  59  87 120 157 194 239 298 360
#     4  10  22  39  61  90 121 152 200 256 303 356
#     4  10  21  39  60  85 120 165 208 248 303 373
#     4  11  23  40  64  91 115 150 199 250 294 345
#     4   9  19  39  62  85 116 158 202 246 303 373
#     4   9  20  39  62  86 116 155 202 250 300 359
#     4  12  25  43  63  87 123 162 196 237 299 369
#     4  11  22  36  59  91 124 159 204 260 310 357
#
# _framework density 22.962028
#
# number of rings (size 3 to 8) (size 9 to 14) (size 15 to 20)
#    0.000    1.500    0.000    6.375    0.000    7.500 
#    0.000    3.750    0.000    0.000    0.000    0.000 
#    0.000    0.000    0.000    0.000    0.000    0.000 
#
# Total GULP energy -358077.840182 kJ/mol
# GULP energy per Si atom -5594.966253 kJ/mol
# Density = 2.290977 g / cm^3
# Si number density = 22.962028 Si / 1000 Ang^3
#
#
#
# Elastic Constant Matrix: (Units=GPa)
#
#
# Indices 1 2 3 4 5 6 
#
# 1 94.9795 1.5761 7.4919 0.0000 0.0000 0.0000
# 2 1.5761 51.6532 -3.7889 0.0000 0.0000 0.0000
# 3 7.4919 -3.7889 29.6493 0.0000 0.0000 0.0000
# 4 0.0000 0.0000 0.0000 19.9011 0.0000 0.0000
# 5 0.0000 0.0000 0.0000 0.0000 20.2414 0.0000
# 6 0.0000 0.0000 0.0000 0.0000 0.0000 37.0151
#
#
#
# Elastic Compliance Matrix: (Units=1/GPa)
#
#
# Indices 1 2 3 4 5 6 
#
# 1 0.010757 -0.000533 -0.002786 0.000000 0.000000 0.000000
# 2 -0.000533 0.019569 0.002635 0.000000 0.000000 0.000000
# 3 -0.002786 0.002635 0.034768 0.000000 0.000000 0.000000
# 4 0.000000 0.000000 0.000000 0.050248 0.000000 0.000000
# 5 0.000000 0.000000 0.000000 0.000000 0.049404 0.000000
# 6 0.000000 0.000000 0.000000 0.000000 0.000000 0.027016
#
#
# Mechanical properties :
#
#
# Convention : Reuss Voigt Hill
#
# Bulk Modulus (GPa) = 15.69166 20.76002 18.22584
# Shear Modulus (GPa) = 23.32385 26.83172 25.07778
#
# Velocity S-wave (km/s) = 3.19055 3.42208 3.30834
# Velocity P-wave (km/s) = 4.51901 4.96737 4.74849
#
# Compressibility (1/GPa) = 0.06372811
#
# Stress axis : x y z
#
# Youngs Moduli (GPa) = 92.96103 51.10008 28.76174
#
# Poissons Ratio (x) = 0.02722 0.08014
# Poissons Ratio (y) = 0.04951 -0.07580
# Poissons Ratio (z) = 0.25901 -0.13467
#
# Static dielectric constant tensor:
#      x y z
#    x 1.838490 0.000000 0.000000 
#    y 0.000000 1.923440 0.000000 
#    z 0.000000 0.000000 1.835560 
# 
# From -- ./inp_files/23078.got.cif
#   From: 2010.05.17/outbox.cif.g08.bks.cpg/sg57_12_cif.got.tgz:23078.got - 2010.06.03 13:58:18.
