data_PCOD9438306
_publ_section_title
;
Structure prediction by ZEFSAII (Michael W. Deem and Ramdas Pophale) SiO2 
 PCOD9438306
Probable space group: P B C M
;
_chemical_formula_sum "Si O2"
_cell_formula_units_Z 48
_cell_length_a 9.068655
_cell_length_b 18.326231
_cell_length_c 14.420645
_cell_angle_alpha 90.000000
_cell_angle_beta 90.000000
_cell_angle_gamma 90.000000
_cell_volume 2396.628517
_symmetry_space_group_name_H-M "P B C M"
_symmetry_group_IT_number 57
_symmetry_cell_setting 'orthorhombic'
loop_
_space_group_symop_operation_xyz
x,y,z
-x,-y,1/2+z
x,1/2-y,-z
-x,1/2+y,1/2-z
-x,-y,-z
x,y,1/2-z
-x,1/2+y,z
x,1/2-y,1/2+z
loop_
_atom_site_type_symbol
_atom_site_label
_atom_site_fract_x
_atom_site_fract_y
_atom_site_fract_z
Si Si1 0.093947 0.982739 0.750000
Si Si2 0.847043 0.915497 0.649739
Si Si3 0.558690 0.929673 0.947030
Si Si4 0.391426 0.894470 0.750000
Si Si5 0.045138 0.155336 0.750000
Si Si6 0.208859 0.251187 0.891469
Si Si7 0.719182 0.223120 0.750000
Si Si8 0.471861 0.701462 0.579234
O O1 0.056501 0.068163 0.750000
O O2 0.260117 0.954494 0.750000
O O3 0.010039 0.947832 0.660196
O O4 0.781584 0.937838 0.750000
O O5 0.732356 0.939973 0.573150
O O6 0.848253 0.828176 0.645584
O O7 0.481147 0.908160 0.847614
O O8 0.534913 0.866017 0.021990
O O9 0.500000 0.000000 0.000000
O O10 0.320118 0.811244 0.750000
O O11 0.132155 0.185769 0.838712
O O12 0.887292 0.196036 0.750000
O O13 0.385290 0.243698 0.880163
O O14 0.178750 0.250000 0.000000
O O15 0.640585 0.188520 0.839374
O O16 0.396578 0.750000 0.500000
#
# Coordination Sequence:
#
# PCOD9438306 Si02
#       8
#     4   8   8   4   4   8   4   8
#     4  10  27  42  66  93 135 183 214 258 344 385
#     4  10  20  45  67  88 133 180 212 259 332 393
#     4  12  26  41  72 104 134 170 221 271 341 391
#     4  12  23  47  68  94 139 179 212 272 336 403
#     4  12  27  44  62 101 133 171 222 276 318 387
#     4  11  21  41  73  97 122 170 233 267 310 390
#     4  12  25  43  68  96 145 165 214 284 338 379
#     4  11  23  42  71 107 123 167 226 276 321 392
#
# _framework density 20.028134000000001
#
# number of rings (size 3 to 8) (size 9 to 14) (size 15 to 20)
#    0.500    0.333    6.667    1.500    4.667    1.333 
#    3.000    1.667    0.000    0.000    0.000    0.000 
#    0.000    0.000    0.000    0.000    0.000    0.000 
#
# Total GULP energy -267596.852946 kJ/mol
# GULP energy per Si atom -5574.934436 kJ/mol
# Density = 1.998255 g / cm^3
# Si number density = 20.028134 Si / 1000 Ang^3
#
#
#
# Elastic Constant Matrix: (Units=GPa)
#
#
# Indices 1 2 3 4 5 6 
#
# 1 83.7354 20.6668 37.3323 0.0000 0.0000 0.0000
# 2 20.6668 71.3789 -0.4845 0.0000 0.0000 0.0000
# 3 37.3323 -0.4845 84.4374 0.0000 0.0000 0.0000
# 4 0.0000 0.0000 0.0000 28.1864 0.0000 0.0000
# 5 0.0000 0.0000 0.0000 0.0000 7.3322 0.0000
# 6 0.0000 0.0000 0.0000 0.0000 0.0000 22.2570
#
#
#
# Elastic Compliance Matrix: (Units=1/GPa)
#
#
# Indices 1 2 3 4 5 6 
#
# 1 0.016361 -0.004786 -0.007261 0.000000 0.000000 0.000000
# 2 -0.004786 0.015411 0.002205 0.000000 0.000000 0.000000
# 3 -0.007261 0.002205 0.015066 0.000000 0.000000 0.000000
# 4 0.000000 0.000000 0.000000 0.035478 0.000000 0.000000
# 5 0.000000 0.000000 0.000000 0.000000 0.136385 0.000000
# 6 0.000000 0.000000 0.000000 0.000000 0.000000 0.044930
#
#
# Mechanical properties :
#
#
# Convention : Reuss Voigt Hill
#
# Bulk Modulus (GPa) = 36.82995 39.39789 38.11392
# Shear Modulus (GPa) = 17.10180 23.69091 20.39636
#
# Velocity S-wave (km/s) = 2.92531 3.44304 3.19468
# Velocity P-wave (km/s) = 5.46250 5.95986 5.71659
#
# Compressibility (1/GPa) = 0.02715182
#
# Stress axis : x y z
#
# Youngs Moduli (GPa) = 61.12097 64.89071 66.37410
#
# Poissons Ratio (x) = 0.31059 0.48195
# Poissons Ratio (y) = 0.29255 -0.14633
# Poissons Ratio (z) = 0.44381 -0.14306
#
# Static dielectric constant tensor:
#      x y z
#    x 1.707080 0.000000 0.000000 
#    y 0.000000 1.752230 0.000000 
#    z 0.000000 0.000000 1.468590 
# 
# From -- ./inp_files/16431.got.cif
#   From: 2010.05.17/outbox.cif.g08.bks.cpg/sg57_9_cif.got.tgz:16431.got - 2010.06.03 13:58:18.
