data_PCOD9438910
_publ_section_title
;
Structure prediction by ZEFSAII (Michael W. Deem and Ramdas Pophale) SiO2 
 PCOD9438910
Probable space group: P B C M
;
_chemical_formula_sum "Si O2"
_cell_formula_units_Z 40
_cell_length_a 7.804247
_cell_length_b 16.773774
_cell_length_c 14.002027
_cell_angle_alpha 90.000000
_cell_angle_beta 90.000000
_cell_angle_gamma 90.000000
_cell_volume 1832.958804
_symmetry_space_group_name_H-M "P B C M"
_symmetry_group_IT_number 57
_symmetry_cell_setting 'orthorhombic'
loop_
_space_group_symop_operation_xyz
x,y,z
-x,-y,1/2+z
x,1/2-y,-z
-x,1/2+y,1/2-z
-x,-y,-z
x,y,1/2-z
-x,1/2+y,z
x,1/2-y,1/2+z
loop_
_atom_site_type_symbol
_atom_site_label
_atom_site_fract_x
_atom_site_fract_y
_atom_site_fract_z
Si Si1 0.094617 0.108020 0.642143
Si Si2 0.537705 0.122112 0.446580
Si Si3 0.235803 0.210977 0.360109
Si Si4 0.534704 0.545882 0.639648
Si Si5 0.088910 0.658385 0.466277
O O1 0.025688 0.100277 0.750000
O O2 0.176819 0.197025 0.632400
O O3 0.257753 0.050735 0.630929
O O4 0.956714 0.104130 0.558157
O O5 0.406095 0.190090 0.417296
O O6 0.534750 0.106712 0.560325
O O7 0.733037 0.137064 0.417876
O O8 0.476823 0.041329 0.394119
O O9 0.267536 0.193825 0.250000
O O10 0.078152 0.158995 0.399847
O O11 0.492079 0.563102 0.750000
O O12 0.109417 0.750000 0.500000
#
# Coordination Sequence:
#
# PCOD9438910 Si02
#       5
#     8   8   8   8   8
#     4   9  19  39  62  84 122 161 193 244 299 351
#     4  11  23  38  64  89 119 159 200 247 300 352
#     4  10  21  39  61  87 122 160 199 245 301 353
#     4  10  22  40  59  87 123 159 202 244 295 360
#     4  10  22  37  62  91 118 148 201 248 292 352
#
# _framework density 21.82264
#
# number of rings (size 3 to 8) (size 9 to 14) (size 15 to 20)
#    0.000    2.000    2.000    0.600    2.800    3.200 
#    0.000    0.000    0.000    0.000    0.000    0.000 
#    0.000    0.000    0.000    0.000    0.000    0.000 
#
# Total GULP energy -223507.894422 kJ/mol
# GULP energy per Si atom -5587.697361 kJ/mol
# Density = 2.177297 g / cm^3
# Si number density = 21.822640 Si / 1000 Ang^3
#
#
#
# Elastic Constant Matrix: (Units=GPa)
#
#
# Indices 1 2 3 4 5 6 
#
# 1 97.6615 8.6523 27.7306 0.0000 0.0000 0.0000
# 2 8.6523 24.5175 21.6479 0.0000 0.0000 0.0000
# 3 27.7306 21.6479 101.0131 0.0000 0.0000 0.0000
# 4 0.0000 0.0000 0.0000 8.3132 0.0000 0.0000
# 5 0.0000 0.0000 0.0000 0.0000 -24.7083 0.0000
# 6 0.0000 0.0000 0.0000 0.0000 0.0000 9.1139
#
#
#
# Elastic Compliance Matrix: (Units=1/GPa)
#
#
# Indices 1 2 3 4 5 6 
#
# 1 0.011151 -0.001520 -0.002735 0.000000 0.000000 0.000000
# 2 -0.001520 0.050514 -0.010408 0.000000 0.000000 0.000000
# 3 -0.002735 -0.010408 0.012881 0.000000 0.000000 0.000000
# 4 0.000000 0.000000 0.000000 0.120291 0.000000 0.000000
# 5 0.000000 0.000000 0.000000 0.000000 -0.040472 0.000000
# 6 0.000000 0.000000 0.000000 0.000000 0.000000 0.109723
#
#
# Mechanical properties :
#
#
# Convention : Reuss Voigt Hill
#
# Bulk Modulus (GPa) = 22.11480 37.69485 29.90483
# Shear Modulus (GPa) = 16.20810 9.55449 12.88129
#
# Velocity S-wave (km/s) = 2.72824 2.09470 2.43219
# Velocity P-wave (km/s) = 4.48110 4.81260 4.64981
#
# Compressibility (1/GPa) = 0.04521860
#
# Stress axis : x y z
#
# Youngs Moduli (GPa) = 89.67945 19.79661 77.63231
#
# Poissons Ratio (x) = 0.03009 0.21236
# Poissons Ratio (y) = 0.13630 0.80802
# Poissons Ratio (z) = 0.24531 0.20605
#
# Static dielectric constant tensor:
#      x y z
#    x 1.791650 0.000000 0.000000 
#    y 0.000000 1.817770 0.000000 
#    z 0.000000 0.000000 1.801540 
# 
# From -- ./inp_files/16102.got.cif
#   From: 2010.05.17/outbox.cif.g08.bks.cpg/sg57_9_cif.got.tgz:16102.got - 2010.06.03 13:58:18.
