data_PCOD9438115
_publ_section_title
;
Structure prediction by ZEFSAII (Michael W. Deem and Ramdas Pophale) SiO2 
 PCOD9438115
Probable space group: P B C M
;
_chemical_formula_sum "Si O2"
_cell_formula_units_Z 32
_cell_length_a 5.096594
_cell_length_b 28.971874
_cell_length_c 8.277679
_cell_angle_alpha 90.000000
_cell_angle_beta 90.000000
_cell_angle_gamma 90.000000
_cell_volume 1222.264526
_symmetry_space_group_name_H-M "P B C M"
_symmetry_group_IT_number 57
_symmetry_cell_setting 'orthorhombic'
loop_
_space_group_symop_operation_xyz
x,y,z
-x,-y,1/2+z
x,1/2-y,-z
-x,1/2+y,1/2-z
-x,-y,-z
x,y,1/2-z
-x,1/2+y,z
x,1/2-y,1/2+z
loop_
_atom_site_type_symbol
_atom_site_label
_atom_site_fract_x
_atom_site_fract_y
_atom_site_fract_z
Si Si1 0.281647 0.322591 0.250000
Si Si2 0.895718 0.401229 0.574050
Si Si3 0.767910 0.384975 0.250000
Si Si4 0.253663 0.029828 0.555552
Si Si5 0.981365 0.705699 0.434611
O O1 0.058091 0.362767 0.250000
O O2 0.231030 0.297962 0.421279
O O3 0.565624 0.343805 0.250000
O O4 0.805917 0.417099 0.750000
O O5 0.735866 0.413404 0.413142
O O6 0.184424 0.422273 0.538767
O O7 0.892604 0.345317 0.572169
O O8 0.250820 0.036138 0.750000
O O9 0.500000 0.000000 0.500000
O O10 0.000000 0.000000 0.500000
O O11 0.144780 0.750000 0.500000
O O12 0.894246 0.713505 0.250000
#
# Coordination Sequence:
#
# PCOD9438115 Si02
#       5
#     4   8   4   8   8
#     4  10  22  40  64  94 132 172 230 274 336 408
#     4  10  22  43  70 106 141 187 237 293 358 428
#     4  10  22  42  66  96 130 176 222 282 340 406
#     4  12  26  47  74 108 148 193 244 305 369 442
#     4  10  20  38  70 100 141 183 233 288 352 421
#
# _framework density 26.180913
#
# number of rings (size 3 to 8) (size 9 to 14) (size 15 to 20)
#    0.000    1.500    2.500    2.250    0.000    5.000 
#    0.000   10.000    0.000    0.000    0.000    0.000 
#    0.000    0.000    0.000    0.000    0.000    0.000 
#
# Total GULP energy -178771.592835 kJ/mol
# GULP energy per Si atom -5586.612276 kJ/mol
# Density = 2.612132 g / cm^3
# Si number density = 26.180913 Si / 1000 Ang^3
#
#
#
# Elastic Constant Matrix: (Units=GPa)
#
#
# Indices 1 2 3 4 5 6 
#
# 1 72.4476 18.8700 23.1304 0.0000 0.0000 0.0000
# 2 18.8700 143.9705 31.6945 0.0000 0.0000 0.0000
# 3 23.1304 31.6945 309.3736 0.0000 0.0000 0.0000
# 4 0.0000 0.0000 0.0000 48.2753 0.0000 0.0000
# 5 0.0000 0.0000 0.0000 0.0000 28.3659 0.0000
# 6 0.0000 0.0000 0.0000 0.0000 0.0000 26.8981
#
#
#
# Elastic Compliance Matrix: (Units=1/GPa)
#
#
# Indices 1 2 3 4 5 6 
#
# 1 0.014538 -0.001705 -0.000912 0.000000 0.000000 0.000000
# 2 -0.001705 0.007306 -0.000621 0.000000 0.000000 0.000000
# 3 -0.000912 -0.000621 0.003364 0.000000 0.000000 0.000000
# 4 0.000000 0.000000 0.000000 0.020715 0.000000 0.000000
# 5 0.000000 0.000000 0.000000 0.000000 0.035254 0.000000
# 6 0.000000 0.000000 0.000000 0.000000 0.000000 0.037177
#
#
# Mechanical properties :
#
#
# Convention : Reuss Voigt Hill
#
# Bulk Modulus (GPa) = 53.38320 74.79794 64.09057
# Shear Modulus (GPa) = 38.14630 50.84764 44.49697
#
# Velocity S-wave (km/s) = 3.82124 4.41178 4.12709
# Velocity P-wave (km/s) = 6.31693 7.38806 6.87339
#
# Compressibility (1/GPa) = 0.01873249
#
# Stress axis : x y z
#
# Youngs Moduli (GPa) = 68.78356 136.87351 297.25009
#
# Poissons Ratio (x) = 0.23332 0.27119
# Poissons Ratio (y) = 0.11725 0.18460
# Poissons Ratio (z) = 0.06275 0.08500
#
# Static dielectric constant tensor:
#      x y z
#    x 2.067560 0.000000 0.000000 
#    y 0.000000 2.229190 0.000000 
#    z 0.000000 0.000000 2.088360 
# 
# From -- ./inp_files/792.got.cif
#   From: 2010.05.17/outbox.cif.g08.bks.cpg/sg57_1_cif.got.tgz:792.got - 2010.06.03 13:58:18.
