data_PCOD9438343
_publ_section_title
;
Structure prediction by ZEFSAII (Michael W. Deem and Ramdas Pophale) SiO2 
 PCOD9438343
Probable space group: P B C M
;
_chemical_formula_sum "Si O2"
_cell_formula_units_Z 48
_cell_length_a 11.326087
_cell_length_b 14.818941
_cell_length_c 13.952652
_cell_angle_alpha 90.000000
_cell_angle_beta 90.000000
_cell_angle_gamma 90.000000
_cell_volume 2341.821693
_symmetry_space_group_name_H-M "P B C M"
_symmetry_group_IT_number 57
_symmetry_cell_setting 'orthorhombic'
loop_
_space_group_symop_operation_xyz
x,y,z
-x,-y,1/2+z
x,1/2-y,-z
-x,1/2+y,1/2-z
-x,-y,-z
x,y,1/2-z
-x,1/2+y,z
x,1/2-y,1/2+z
loop_
_atom_site_type_symbol
_atom_site_label
_atom_site_fract_x
_atom_site_fract_y
_atom_site_fract_z
Si Si1 0.725859 0.069370 0.141339
Si Si2 0.314309 0.279837 0.856812
Si Si3 0.953113 0.759789 0.136748
Si Si4 0.049869 0.600689 0.482875
Si Si5 0.558988 0.590341 0.646799
Si Si6 0.520015 0.151069 0.464414
O O1 0.770082 0.086292 0.250000
O O2 0.817247 0.090506 0.057017
O O3 0.605783 0.123756 0.120646
O O4 0.678104 0.967373 0.136374
O O5 0.302702 0.319680 0.750000
O O6 0.186999 0.241240 0.884532
O O7 0.400744 0.193947 0.850810
O O8 0.383914 0.344422 0.929096
O O9 0.970507 0.772917 0.250000
O O10 0.991313 0.660390 0.101706
O O11 0.977482 0.335866 0.075368
O O12 0.000000 0.500000 0.500000
O O13 0.505967 0.565437 0.750000
O O14 0.474753 0.584625 0.555507
O O15 0.556692 0.250000 0.500000
#
# Coordination Sequence:
#
# PCOD9438343 Si02
#       6
#     8   8   8   8   8   8
#     4  11  23  40  60  87 125 167 204 257 322 386
#     4   9  18  35  61  89 115 153 202 257 308 372
#     4  10  23  42  65  91 127 167 215 270 323 375
#     4  11  25  40  66  92 126 169 223 263 317 381
#     4   9  19  35  57  86 120 156 201 250 312 378
#     4  10  21  34  62  90 122 157 204 252 318 381
#
# _framework density 20.496863999999999
#
# number of rings (size 3 to 8) (size 9 to 14) (size 15 to 20)
#    0.000    2.000    0.000    2.500   11.667    3.333 
#    0.000    0.833    0.000    0.000    0.000    0.000 
#    0.000    0.000    0.000    0.000    0.000    0.000 
#
# Total GULP energy -267432.764168 kJ/mol
# GULP energy per Si atom -5571.515920 kJ/mol
# Density = 2.045021 g / cm^3
# Si number density = 20.496864 Si / 1000 Ang^3
#
#
#
# Elastic Constant Matrix: (Units=GPa)
#
#
# Indices 1 2 3 4 5 6 
#
# 1 54.4659 24.0130 42.5020 0.0000 0.0000 0.0000
# 2 24.0130 79.7085 42.9291 0.0000 0.0000 0.0000
# 3 42.5020 42.9291 143.5312 0.0000 0.0000 0.0000
# 4 0.0000 0.0000 0.0000 23.0353 0.0000 0.0000
# 5 0.0000 0.0000 0.0000 0.0000 31.7494 0.0000
# 6 0.0000 0.0000 0.0000 0.0000 0.0000 18.3998
#
#
#
# Elastic Compliance Matrix: (Units=1/GPa)
#
#
# Indices 1 2 3 4 5 6 
#
# 1 0.025019 -0.004228 -0.006144 0.000000 0.000000 0.000000
# 2 -0.004228 0.015669 -0.003435 0.000000 0.000000 0.000000
# 3 -0.006144 -0.003435 0.009814 0.000000 0.000000 0.000000
# 4 0.000000 0.000000 0.000000 0.043412 0.000000 0.000000
# 5 0.000000 0.000000 0.000000 0.000000 0.031497 0.000000
# 6 0.000000 0.000000 0.000000 0.000000 0.000000 0.054348
#
#
# Mechanical properties :
#
#
# Convention : Reuss Voigt Hill
#
# Bulk Modulus (GPa) = 43.69020 55.17709 49.43365
# Shear Modulus (GPa) = 23.25575 25.85432 24.55504
#
# Velocity S-wave (km/s) = 3.37204 3.55544 3.46495
# Velocity P-wave (km/s) = 6.04340 6.62066 6.33860
#
# Compressibility (1/GPa) = 0.02288843
#
# Stress axis : x y z
#
# Youngs Moduli (GPa) = 39.97039 63.81926 101.89889
#
# Poissons Ratio (x) = 0.26984 0.62605
# Poissons Ratio (y) = 0.16900 0.34997
# Poissons Ratio (z) = 0.24557 0.21919
#
# Static dielectric constant tensor:
#      x y z
#    x 1.746600 0.000000 0.000000 
#    y 0.000000 1.774550 0.000000 
#    z 0.000000 0.000000 1.822260 
# 
# From -- ./inp_files/17599.got.cif
#   From: 2010.05.17/outbox.cif.g08.bks.cpg/sg57_9_cif.got.tgz:17599.got - 2010.06.03 13:58:18.
