data_PCOD9438535
_publ_section_title
;
Structure prediction by ZEFSAII (Michael W. Deem and Ramdas Pophale) SiO2 
 PCOD9438535
Probable space group: P B C M
;
_chemical_formula_sum "Si O2"
_cell_formula_units_Z 56
_cell_length_a 19.299969
_cell_length_b 7.293002
_cell_length_c 17.033935
_cell_angle_alpha 90.000000
_cell_angle_beta 90.000000
_cell_angle_gamma 90.000000
_cell_volume 2397.606624
_symmetry_space_group_name_H-M "P B C M"
_symmetry_group_IT_number 57
_symmetry_cell_setting 'orthorhombic'
loop_
_space_group_symop_operation_xyz
x,y,z
-x,-y,1/2+z
x,1/2-y,-z
-x,1/2+y,1/2-z
-x,-y,-z
x,y,1/2-z
-x,1/2+y,z
x,1/2-y,1/2+z
loop_
_atom_site_type_symbol
_atom_site_label
_atom_site_fract_x
_atom_site_fract_y
_atom_site_fract_z
Si Si1 0.597074 0.506460 0.162894
Si Si2 0.633646 0.544880 0.509852
Si Si3 0.565292 0.938414 0.164137
Si Si4 0.218253 0.967742 0.492849
Si Si5 0.163151 0.585268 0.835552
Si Si6 0.965040 0.680582 0.162188
Si Si7 0.900606 0.049326 0.106751
O O1 0.625464 0.452278 0.250000
O O2 0.592841 0.729287 0.164419
O O3 0.517726 0.437179 0.159727
O O4 0.629077 0.457122 0.077268
O O5 0.604186 0.750000 0.500000
O O6 0.594712 0.465699 0.585795
O O7 0.715016 0.557779 0.530515
O O8 0.583593 0.019963 0.250000
O O9 0.228793 0.750000 0.500000
O O10 0.210625 0.004792 0.401187
O O11 0.143888 0.007486 0.531430
O O12 0.192395 0.557966 0.750000
O O13 0.088965 0.485025 0.840335
O O14 0.148079 0.799751 0.851512
O O15 0.997358 0.682391 0.250000
O O16 0.025356 0.650917 0.098676
O O17 0.922060 0.865900 0.151456
#
# Coordination Sequence:
#
# PCOD9438535 Si02
#       7
#     8   8   8   8   8   8   8
#     4   9  18  33  57  88 119 150 196 247 293 346
#     4  10  21  37  58  79 118 163 196 242 293 352
#     4   9  18  34  55  87 120 151 196 246 295 347
#     4  10  25  43  56  84 117 156 201 242 294 363
#     4  10  22  41  60  84 118 149 192 251 301 361
#     4  11  21  36  63  90 113 149 190 239 309 364
#     4  11  22  39  62  88 120 148 193 251 303 365
#
# _framework density 23.356625999999999
#
# number of rings (size 3 to 8) (size 9 to 14) (size 15 to 20)
#    0.000    2.000    1.429    1.714    2.000    2.286 
#    2.571    4.286    0.000    0.000    0.000    0.000 
#    0.000    0.000    0.000    0.000    0.000    0.000 
#
# Total GULP energy -312468.449005 kJ/mol
# GULP energy per Si atom -5579.793732 kJ/mol
# Density = 2.330347 g / cm^3
# Si number density = 23.356626 Si / 1000 Ang^3
#
#
#
# Elastic Constant Matrix: (Units=GPa)
#
#
# Indices 1 2 3 4 5 6 
#
# 1 70.4397 -7.9436 58.1617 0.0000 0.0000 0.0000
# 2 -7.9436 72.0791 7.7307 0.0000 0.0000 0.0000
# 3 58.1617 7.7307 161.8197 0.0000 0.0000 0.0000
# 4 0.0000 0.0000 0.0000 2.5134 0.0000 0.0000
# 5 0.0000 0.0000 0.0000 0.0000 30.6458 0.0000
# 6 0.0000 0.0000 0.0000 0.0000 0.0000 15.5150
#
#
#
# Elastic Compliance Matrix: (Units=1/GPa)
#
#
# Indices 1 2 3 4 5 6 
#
# 1 0.020863 0.003119 -0.007648 0.000000 0.000000 0.000000
# 2 0.003119 0.014412 -0.001810 0.000000 0.000000 0.000000
# 3 -0.007648 -0.001810 0.009015 0.000000 0.000000 0.000000
# 4 0.000000 0.000000 0.000000 0.397862 0.000000 0.000000
# 5 0.000000 0.000000 0.000000 0.000000 0.032631 0.000000
# 6 0.000000 0.000000 0.000000 0.000000 0.000000 0.064454
#
#
# Mechanical properties :
#
#
# Convention : Reuss Voigt Hill
#
# Bulk Modulus (GPa) = 31.63190 46.69288 39.16239
# Shear Modulus (GPa) = 8.88969 26.16084 17.52527
#
# Velocity S-wave (km/s) = 1.95303 3.35036 2.74219
# Velocity P-wave (km/s) = 4.31951 5.91618 5.17974
#
# Compressibility (1/GPa) = 0.03161366
#
# Stress axis : x y z
#
# Youngs Moduli (GPa) = 47.93184 69.38890 110.92737
#
# Poissons Ratio (x) = -0.21646 0.84833
# Poissons Ratio (y) = -0.14952 0.20074
# Poissons Ratio (z) = 0.36657 0.12557
#
# Static dielectric constant tensor:
#      x y z
#    x 1.847770 0.000000 0.000000 
#    y 0.000000 1.901940 0.000000 
#    z 0.000000 0.000000 1.949780 
# 
# From -- ./inp_files/19357.got.cif
#   From: 2010.05.17/outbox.cif.g08.bks.cpg/sg57_10_cif.got.tgz:19357.got - 2010.06.03 13:58:18.
