data_PCOD9438502
_publ_section_title
;
Structure prediction by ZEFSAII (Michael W. Deem and Ramdas Pophale) SiO2 
 PCOD9438502
Probable space group: P B C M
;
_chemical_formula_sum "Si O2"
_cell_formula_units_Z 64
_cell_length_a 20.079669
_cell_length_b 20.263936
_cell_length_c 8.833978
_cell_angle_alpha 90.000000
_cell_angle_beta 90.000000
_cell_angle_gamma 90.000000
_cell_volume 3594.484937
_symmetry_space_group_name_H-M "P B C M"
_symmetry_group_IT_number 57
_symmetry_cell_setting 'orthorhombic'
loop_
_space_group_symop_operation_xyz
x,y,z
-x,-y,1/2+z
x,1/2-y,-z
-x,1/2+y,1/2-z
-x,-y,-z
x,y,1/2-z
-x,1/2+y,z
x,1/2-y,1/2+z
loop_
_atom_site_type_symbol
_atom_site_label
_atom_site_fract_x
_atom_site_fract_y
_atom_site_fract_z
Si Si1 0.939231 0.316972 0.923389
Si Si2 0.777037 0.317241 0.578285
Si Si3 0.943572 0.045597 0.929376
Si Si4 0.202481 0.539316 0.433634
Si Si5 0.616811 0.682152 0.069964
Si Si6 0.440421 0.543224 0.428131
Si Si7 0.468437 0.680281 0.568538
Si Si8 0.318288 0.057295 0.927802
O O1 0.961177 0.323875 0.750000
O O2 0.858138 0.314324 0.920096
O O3 0.962957 0.250000 0.000000
O O4 0.958724 0.379495 0.021965
O O5 0.753491 0.250000 0.500000
O O6 0.752152 0.316246 0.750000
O O7 0.765355 0.390607 0.513029
O O8 0.941681 0.038763 0.750000
O O9 0.870648 0.031382 0.998301
O O10 0.000000 0.000000 0.000000
O O11 0.197177 0.544672 0.250000
O O12 0.249605 0.478156 0.469572
O O13 0.607960 0.687981 0.250000
O O14 0.644434 0.750000 0.000000
O O15 0.544608 0.672989 0.991101
O O16 0.661407 0.619789 0.026510
O O17 0.500000 0.500000 0.500000
O O18 0.454324 0.554074 0.250000
O O19 0.433443 0.614048 0.508432
O O20 0.374857 0.498734 0.442095
O O21 0.443542 0.750000 0.500000
O O22 0.467559 0.683041 0.750000
O O23 0.316379 0.076602 0.750000
#
# Coordination Sequence:
#
# PCOD9438502 Si02
#       8
#     8   8   8   8   8   8   8   8
#     4   9  16  28  47  74 105 136 172 215 260 310
#     4   8  14  25  44  68  96 130 168 207 249 295
#     4  11  21  34  54  80 109 143 181 224 271 324
#     4   9  19  36  54  76 107 143 180 222 270 325
#     4  11  21  34  55  80 107 136 178 227 274 326
#     4  11  21  34  54  80 109 143 180 222 270 322
#     4  11  21  35  54  77 107 142 183 229 278 327
#     4  10  21  37  57  79 109 145 181 221 274 327
#
# _framework density 17.805053999999998
#
# number of rings (size 3 to 8) (size 9 to 14) (size 15 to 20)
#    0.000    2.000    1.250    5.625    0.000    4.000 
#    0.000    0.625    0.000    2.250    0.000    1.750 
#    0.000    0.000    0.000    0.000    0.000    0.000 
#
# Total GULP energy -357138.904245 kJ/mol
# GULP energy per Si atom -5580.295379 kJ/mol
# Density = 1.776453 g / cm^3
# Si number density = 17.805054 Si / 1000 Ang^3
#
#
#
# Elastic Constant Matrix: (Units=GPa)
#
#
# Indices 1 2 3 4 5 6 
#
# 1 33.7403 23.9548 22.0865 0.0000 0.0000 0.0000
# 2 23.9548 118.4761 56.4688 0.0000 0.0000 0.0000
# 3 22.0865 56.4688 112.0987 0.0000 0.0000 0.0000
# 4 0.0000 0.0000 0.0000 34.7529 0.0000 0.0000
# 5 0.0000 0.0000 0.0000 0.0000 14.3183 0.0000
# 6 0.0000 0.0000 0.0000 0.0000 0.0000 9.3487
#
#
#
# Elastic Compliance Matrix: (Units=1/GPa)
#
#
# Indices 1 2 3 4 5 6 
#
# 1 0.036284 -0.005170 -0.004544 0.000000 0.000000 0.000000
# 2 -0.005170 0.011844 -0.004948 0.000000 0.000000 0.000000
# 3 -0.004544 -0.004948 0.012308 0.000000 0.000000 0.000000
# 4 0.000000 0.000000 0.000000 0.028775 0.000000 0.000000
# 5 0.000000 0.000000 0.000000 0.000000 0.069841 0.000000
# 6 0.000000 0.000000 0.000000 0.000000 0.000000 0.106967
#
#
# Mechanical properties :
#
#
# Convention : Reuss Voigt Hill
#
# Bulk Modulus (GPa) = 32.14240 52.14837 42.14538
# Shear Modulus (GPa) = 16.35516 22.47097 19.41307
#
# Velocity S-wave (km/s) = 3.03408 3.55640 3.30557
# Velocity P-wave (km/s) = 5.51051 6.79824 6.18796
#
# Compressibility (1/GPa) = 0.03111155
#
# Stress axis : x y z
#
# Youngs Moduli (GPa) = 27.56058 84.43031 81.24505
#
# Poissons Ratio (x) = 0.43652 0.36921
# Poissons Ratio (y) = 0.14249 0.40197
# Poissons Ratio (z) = 0.12525 0.41773
#
# Static dielectric constant tensor:
#      x y z
#    x 1.598780 0.000000 0.000000 
#    y 0.000000 1.597490 0.000000 
#    z 0.000000 0.000000 1.599370 
# 
# From -- ./inp_files/7271.got.cif
#   From: 2010.05.17/outbox.cif.g08.bks.cpg/sg57_4_cif.got.tgz:7271.got - 2010.06.03 13:58:18.
