data_PCOD9438024
_publ_section_title
;
Structure prediction by ZEFSAII (Michael W. Deem and Ramdas Pophale) SiO2 
 PCOD9438024
Probable space group: P B C M
;
_chemical_formula_sum "Si O2"
_cell_formula_units_Z 64
_cell_length_a 11.511948
_cell_length_b 14.883650
_cell_length_c 15.404612
_cell_angle_alpha 90.000000
_cell_angle_beta 90.000000
_cell_angle_gamma 90.000000
_cell_volume 2639.423214
_symmetry_space_group_name_H-M "P B C M"
_symmetry_group_IT_number 57
_symmetry_cell_setting 'orthorhombic'
loop_
_space_group_symop_operation_xyz
x,y,z
-x,-y,1/2+z
x,1/2-y,-z
-x,1/2+y,1/2-z
-x,-y,-z
x,y,1/2-z
-x,1/2+y,z
x,1/2-y,1/2+z
loop_
_atom_site_type_symbol
_atom_site_label
_atom_site_fract_x
_atom_site_fract_y
_atom_site_fract_z
Si Si1 0.369897 0.436064 0.399522
Si Si2 0.303121 0.754011 0.855643
Si Si3 0.066669 0.663408 0.852241
Si Si4 0.600363 0.538985 0.105680
Si Si5 0.950177 0.666384 0.150693
Si Si6 0.562264 0.748773 0.146819
Si Si7 0.814458 0.432324 0.608187
Si Si8 0.155684 0.000758 0.084404
O O1 0.379965 0.461847 0.501354
O O2 0.489319 0.481277 0.364220
O O3 0.362365 0.328929 0.392569
O O4 0.257436 0.482725 0.357032
O O5 0.302099 0.758116 0.750000
O O6 0.194463 0.693710 0.885208
O O7 0.431237 0.727324 0.883692
O O8 0.280425 0.852992 0.892145
O O9 0.066515 0.679887 0.750000
O O10 0.057669 0.558617 0.868365
O O11 0.973130 0.734131 0.885379
O O12 0.587445 0.644167 0.128904
O O13 0.721744 0.494570 0.135092
O O14 0.904595 0.667535 0.250000
O O15 0.873110 0.605242 0.089429
O O16 0.075989 0.616261 0.152010
O O17 0.567810 0.760085 0.250000
O O18 0.848201 0.461722 0.511682
#
# Coordination Sequence:
#
# PCOD9438024 Si02
#       8
#     8   8   8   8   8   8   8   8
#     4  10  21  39  61  88 125 166 206 246 304 374
#     4   9  18  34  55  84 122 158 200 252 292 347
#     4   9  19  37  60  86 115 156 202 245 304 360
#     4  10  22  40  59  89 125 165 198 253 311 359
#     4  10  22  40  61  85 120 158 195 255 315 363
#     4  11  22  35  57  90 125 164 206 248 302 365
#     4  10  20  38  62  87 118 154 209 253 301 361
#     4  11  22  38  63  91 120 154 205 254 303 368
#
# _framework density 24.247720999999999
#
# number of rings (size 3 to 8) (size 9 to 14) (size 15 to 20)
#    0.000    2.000    1.250    3.000    0.000    4.500 
#    4.500    0.000    2.750    0.000    0.000    0.000 
#    0.000    0.000    0.000    0.000    0.000    0.000 
#
# Total GULP energy -357441.659801 kJ/mol
# GULP energy per Si atom -5585.025934 kJ/mol
# Density = 2.419253 g / cm^3
# Si number density = 24.247721 Si / 1000 Ang^3
#
#
#
# Elastic Constant Matrix: (Units=GPa)
#
#
# Indices 1 2 3 4 5 6 
#
# 1 16.7068 -9.4591 -5.3579 0.0000 0.0000 0.0000
# 2 -9.4591 108.6566 -12.9063 0.0000 0.0000 0.0000
# 3 -5.3579 -12.9063 39.1629 0.0000 0.0000 0.0000
# 4 0.0000 0.0000 0.0000 41.0263 0.0000 0.0000
# 5 0.0000 0.0000 0.0000 0.0000 14.5820 0.0000
# 6 0.0000 0.0000 0.0000 0.0000 0.0000 36.0695
#
#
#
# Elastic Compliance Matrix: (Units=1/GPa)
#
#
# Indices 1 2 3 4 5 6 
#
# 1 0.067719 0.007281 0.011664 0.000000 0.000000 0.000000
# 2 0.007281 0.010361 0.004411 0.000000 0.000000 0.000000
# 3 0.011664 0.004411 0.028584 0.000000 0.000000 0.000000
# 4 0.000000 0.000000 0.000000 0.024375 0.000000 0.000000
# 5 0.000000 0.000000 0.000000 0.000000 0.068578 0.000000
# 6 0.000000 0.000000 0.000000 0.000000 0.000000 0.027724
#
#
# Mechanical properties :
#
#
# Convention : Reuss Voigt Hill
#
# Bulk Modulus (GPa) = 6.51999 12.11997 9.31998
# Shear Modulus (GPa) = 21.57459 31.15220 26.36339
#
# Velocity S-wave (km/s) = 2.98612 3.58823 3.30093
# Velocity P-wave (km/s) = 3.81889 4.70918 4.28721
#
# Compressibility (1/GPa) = 0.15337456
#
# Stress axis : x y z
#
# Youngs Moduli (GPa) = 14.76692 96.51563 34.98494
#
# Poissons Ratio (x) = -0.70270 -0.40807
# Poissons Ratio (y) = -0.10751 -0.15430
# Poissons Ratio (z) = -0.17224 -0.42569
#
# Static dielectric constant tensor:
#      x y z
#    x 2.029130 0.000000 0.000000 
#    y 0.000000 1.927430 0.000000 
#    z 0.000000 0.000000 2.031010 
# 
# From -- ./inp_files/22025.got.cif
#   From: 2010.05.17/outbox.cif.g08.bks.cpg/sg57_12_cif.got.tgz:22025.got - 2010.06.03 13:58:18.
