data_PCOD9438456
_publ_section_title
;
Structure prediction by ZEFSAII (Michael W. Deem and Ramdas Pophale) SiO2 
 PCOD9438456
Probable space group: P B C M
;
_chemical_formula_sum "Si O2"
_cell_formula_units_Z 64
_cell_length_a 7.440906
_cell_length_b 24.481782
_cell_length_c 15.592121
_cell_angle_alpha 90.000000
_cell_angle_beta 90.000000
_cell_angle_gamma 90.000000
_cell_volume 2840.364271
_symmetry_space_group_name_H-M "P B C M"
_symmetry_group_IT_number 57
_symmetry_cell_setting 'orthorhombic'
loop_
_space_group_symop_operation_xyz
x,y,z
-x,-y,1/2+z
x,1/2-y,-z
-x,1/2+y,1/2-z
-x,-y,-z
x,y,1/2-z
-x,1/2+y,z
x,1/2-y,1/2+z
loop_
_atom_site_type_symbol
_atom_site_label
_atom_site_fract_x
_atom_site_fract_y
_atom_site_fract_z
Si Si1 0.310646 0.129598 0.843213
Si Si2 0.765078 0.634685 0.344279
Si Si3 0.722842 0.387562 0.153047
Si Si4 0.201883 0.554980 0.021460
Si Si5 0.729449 0.747244 0.598227
Si Si6 0.797089 0.352384 0.848906
Si Si7 0.791388 0.563296 0.002151
Si Si8 0.862343 0.234018 0.647050
O O1 0.226166 0.120157 0.750000
O O2 0.508664 0.104850 0.845664
O O3 0.342457 0.193968 0.855145
O O4 0.201558 0.104385 0.921766
O O5 0.723852 0.613244 0.250000
O O6 0.690063 0.695561 0.356886
O O7 0.700275 0.595797 0.420369
O O8 0.982971 0.643195 0.349965
O O9 0.789146 0.398818 0.250000
O O10 0.788630 0.425000 0.076280
O O11 0.771878 0.324394 0.131907
O O12 0.988817 0.550410 0.039234
O O13 0.271090 0.601765 0.085658
O O14 0.285138 0.494759 0.028006
O O15 0.670830 0.750000 0.500000
O O16 0.945203 0.736960 0.601316
O O17 0.740627 0.361109 0.750000
O O18 0.757358 0.289732 0.875861
O O19 0.895316 0.238081 0.750000
#
# Coordination Sequence:
#
# PCOD9438456 Si02
#       8
#     8   8   8   8   8   8   8   8
#     4  11  23  40  57  79 117 156 190 230 278 337
#     4   9  17  32  53  79 111 141 173 224 285 338
#     4  10  23  39  56  81 116 156 190 228 280 337
#     4  10  21  36  58  85 112 143 188 246 278 330
#     4  11  19  32  57  86 111 141 182 234 281 341
#     4   8  16  31  52  80 111 141 174 222 286 340
#     4  10  21  37  58  86 110 142 194 237 286 325
#     4   9  18  33  55  83 110 142 183 228 282 341
#
# _framework density 22.532322000000001
#
# number of rings (size 3 to 8) (size 9 to 14) (size 15 to 20)
#    0.000    2.250    1.250    2.625    3.500    3.000 
#    2.250    2.500    0.000    0.750    0.000    0.000 
#    0.000    0.000    0.000    0.000    0.000    0.000 
#
# Total GULP energy -357449.653085 kJ/mol
# GULP energy per Si atom -5585.150829 kJ/mol
# Density = 2.248104 g / cm^3
# Si number density = 22.532322 Si / 1000 Ang^3
#
#
#
# Elastic Constant Matrix: (Units=GPa)
#
#
# Indices 1 2 3 4 5 6 
#
# 1 40.1407 -24.1563 -21.2450 0.0000 0.0000 0.0000
# 2 -24.1563 112.3519 40.2627 0.0000 0.0000 0.0000
# 3 -21.2450 40.2627 101.3267 0.0000 0.0000 0.0000
# 4 0.0000 0.0000 0.0000 13.3465 0.0000 0.0000
# 5 0.0000 0.0000 0.0000 0.0000 -3.3410 0.0000
# 6 0.0000 0.0000 0.0000 0.0000 0.0000 -32.4740
#
#
#
# Elastic Compliance Matrix: (Units=1/GPa)
#
#
# Indices 1 2 3 4 5 6 
#
# 1 0.030190 0.004924 0.004373 0.000000 0.000000 0.000000
# 2 0.004924 0.011182 -0.003411 0.000000 0.000000 0.000000
# 3 0.004373 -0.003411 0.012141 0.000000 0.000000 0.000000
# 4 0.000000 0.000000 0.000000 0.074926 0.000000 0.000000
# 5 0.000000 0.000000 0.000000 0.000000 -0.299312 0.000000
# 6 0.000000 0.000000 0.000000 0.000000 0.000000 -0.030794
#
#
# Mechanical properties :
#
#
# Convention : Reuss Voigt Hill
#
# Bulk Modulus (GPa) = 15.31723 27.06023 21.18873
# Shear Modulus (GPa) = -26.08542 12.77016 -6.65763
#
# Velocity S-wave (km/s) = -3.40617 2.38323 -1.72079
# Velocity P-wave (km/s) = 2.94223 4.42816 2.34008
#
# Compressibility (1/GPa) = 0.06528595
#
# Stress axis : x y z
#
# Youngs Moduli (GPa) = 33.12343 89.43338 82.36364
#
# Poissons Ratio (x) = -0.44035 -0.36021
# Poissons Ratio (y) = -0.16309 0.28092
# Poissons Ratio (z) = -0.14486 0.30503
#
# Static dielectric constant tensor:
#      x y z
#    x 1.891000 0.000000 0.000000 
#    y 0.000000 1.836850 0.000000 
#    z 0.000000 0.000000 1.806320 
# 
# From -- ./inp_files/16984.got.cif
#   From: 2010.05.17/outbox.cif.g08.bks.cpg/sg57_9_cif.got.tgz:16984.got - 2010.06.03 13:58:18.
