data_PCOD9438314
_publ_section_title
;
Structure prediction by ZEFSAII (Michael W. Deem and Ramdas Pophale) SiO2 
 PCOD9438314
Probable space group: P B C M
;
_chemical_formula_sum "Si O2"
_cell_formula_units_Z 48
_cell_length_a 13.934272
_cell_length_b 9.806141
_cell_length_c 16.343640
_cell_angle_alpha 90.000000
_cell_angle_beta 90.000000
_cell_angle_gamma 90.000000
_cell_volume 2233.218438
_symmetry_space_group_name_H-M "P B C M"
_symmetry_group_IT_number 57
_symmetry_cell_setting 'orthorhombic'
loop_
_space_group_symop_operation_xyz
x,y,z
-x,-y,1/2+z
x,1/2-y,-z
-x,1/2+y,1/2-z
-x,-y,-z
x,y,1/2-z
-x,1/2+y,z
x,1/2-y,1/2+z
loop_
_atom_site_type_symbol
_atom_site_label
_atom_site_fract_x
_atom_site_fract_y
_atom_site_fract_z
Si Si1 0.537970 0.846236 0.750000
Si Si2 0.102624 0.494738 0.750000
Si Si3 0.651728 0.734491 0.411412
Si Si4 0.241295 0.538225 0.888686
Si Si5 0.819626 0.570483 0.656451
Si Si6 0.913695 0.396722 0.980653
Si Si7 0.972230 0.729214 0.750000
Si Si8 0.372117 0.648475 0.750000
O O1 0.586415 0.782252 0.668760
O O2 0.430705 0.788115 0.750000
O O3 0.561072 0.009279 0.750000
O O4 0.167098 0.466913 0.827050
O O5 0.016068 0.389830 0.750000
O O6 0.069939 0.648753 0.750000
O O7 0.602006 0.750000 0.500000
O O8 0.698617 0.586063 0.422617
O O9 0.733842 0.847520 0.389543
O O10 0.175651 0.603349 0.956639
O O11 0.306261 0.633001 0.830825
O O12 0.788852 0.533378 0.750000
O O13 0.864590 0.447039 0.603941
O O14 0.908209 0.675503 0.674065
O O15 0.957937 0.250000 0.000000
O O16 0.000000 0.500000 0.000000
#
# Coordination Sequence:
#
# PCOD9438314 Si02
#       8
#     4   4   8   8   8   8   4   4
#     4  10  21  44  69 107 135 170 234 283 366 435
#     4  11  20  35  56  89 123 169 220 281 328 402
#     4  11  19  38  74  98 129 181 231 286 349 436
#     4  10  21  40  65  88 134 175 222 278 355 402
#     4  10  21  41  63  93 132 177 235 286 347 414
#     4  12  28  44  63  98 140 186 244 294 346 412
#     4  10  21  32  57  89 121 169 225 272 329 390
#     4   9  22  45  70 101 133 178 219 294 359 431
#
# _framework density 21.493644
#
# number of rings (size 3 to 8) (size 9 to 14) (size 15 to 20)
#    0.500    1.000    4.167    1.500    2.333    4.000 
#    6.000    4.167    0.000    0.000    0.000    0.000 
#    0.000    0.000    0.000    0.000    0.000    0.000 
#
# Total GULP energy -267583.683449 kJ/mol
# GULP energy per Si atom -5574.660072 kJ/mol
# Density = 2.144472 g / cm^3
# Si number density = 21.493644 Si / 1000 Ang^3
#
#
#
# Elastic Constant Matrix: (Units=GPa)
#
#
# Indices 1 2 3 4 5 6 
#
# 1 50.5235 17.0041 12.4714 0.0000 0.0000 0.0000
# 2 17.0041 46.4459 8.7829 0.0000 0.0000 0.0000
# 3 12.4714 8.7829 127.8865 0.0000 0.0000 0.0000
# 4 0.0000 0.0000 0.0000 22.3326 0.0000 0.0000
# 5 0.0000 0.0000 0.0000 0.0000 263.6210 0.0000
# 6 0.0000 0.0000 0.0000 0.0000 0.0000 32.4473
#
#
#
# Elastic Compliance Matrix: (Units=1/GPa)
#
#
# Indices 1 2 3 4 5 6 
#
# 1 0.022926 -0.008075 -0.001681 0.000000 0.000000 0.000000
# 2 -0.008075 0.024658 -0.000906 0.000000 0.000000 0.000000
# 3 -0.001681 -0.000906 0.008046 0.000000 0.000000 0.000000
# 4 0.000000 0.000000 0.000000 0.044778 0.000000 0.000000
# 5 0.000000 0.000000 0.000000 0.000000 0.003793 0.000000
# 6 0.000000 0.000000 0.000000 0.000000 0.000000 0.030819
#
#
# Mechanical properties :
#
#
# Convention : Reuss Voigt Hill
#
# Bulk Modulus (GPa) = 29.15058 33.48584 31.31821
# Shear Modulus (GPa) = 29.80112 76.12001 52.96057
#
# Velocity S-wave (km/s) = 3.72762 5.95752 4.96927
# Velocity P-wave (km/s) = 5.66734 7.93322 6.89401
#
# Compressibility (1/GPa) = 0.03430464
#
# Stress axis : x y z
#
# Youngs Moduli (GPa) = 43.61947 40.55458 124.29163
#
# Poissons Ratio (x) = 0.32749 0.20895
# Poissons Ratio (y) = 0.35224 0.11260
# Poissons Ratio (z) = 0.07333 0.03674
#
# Static dielectric constant tensor:
#      x y z
#    x 1.764020 0.000000 0.000000 
#    y 0.000000 1.837840 0.000000 
#    z 0.000000 0.000000 1.826760 
# 
# From -- ./inp_files/22553.got.cif
#   From: 2010.05.17/outbox.cif.g08.bks.cpg/sg57_12_cif.got.tgz:22553.got - 2010.06.03 13:58:18.
