data_PCOD9438702
_publ_section_title
;
Structure prediction by ZEFSAII (Michael W. Deem and Ramdas Pophale) SiO2 
 PCOD9438702
Probable space group: P B C M
;
_chemical_formula_sum "Si O2"
_cell_formula_units_Z 48
_cell_length_a 15.198740
_cell_length_b 21.057512
_cell_length_c 8.791379
_cell_angle_alpha 90.000000
_cell_angle_beta 90.000000
_cell_angle_gamma 90.000000
_cell_volume 2813.660189
_symmetry_space_group_name_H-M "P B C M"
_symmetry_group_IT_number 57
_symmetry_cell_setting 'orthorhombic'
loop_
_space_group_symop_operation_xyz
x,y,z
-x,-y,1/2+z
x,1/2-y,-z
-x,1/2+y,1/2-z
-x,-y,-z
x,y,1/2-z
-x,1/2+y,z
x,1/2-y,1/2+z
loop_
_atom_site_type_symbol
_atom_site_label
_atom_site_fract_x
_atom_site_fract_y
_atom_site_fract_z
Si Si1 0.268200 0.511335 0.429589
Si Si2 0.888020 0.315639 0.069394
Si Si3 0.566999 0.947503 0.568505
Si Si4 0.693127 0.141792 0.572297
Si Si5 0.079096 0.958794 0.433523
Si Si6 0.497416 0.316038 0.071382
O O1 0.262188 0.500468 0.250000
O O2 0.335603 0.463039 0.507291
O O3 0.309081 0.580649 0.465153
O O4 0.171701 0.514505 0.504053
O O5 0.899290 0.311985 0.250000
O O6 0.783189 0.321605 0.037991
O O7 0.926394 0.384057 0.019322
O O8 0.922013 0.250000 0.000000
O O9 0.564112 0.952251 0.750000
O O10 0.538974 0.878000 0.512570
O O11 0.500000 0.000000 0.500000
O O12 0.699511 0.120218 0.750000
O O13 0.603593 0.180100 0.557463
O O14 0.079540 0.960787 0.250000
O O15 0.000000 0.000000 0.500000
O O16 0.475953 0.319459 0.250000
O O17 0.466509 0.250000 0.000000
#
# Coordination Sequence:
#
# PCOD9438702 Si02
#       6
#     8   8   8   8   8   8
#     4  11  21  34  56  83 109 144 185 227 279 333
#     4   9  18  31  49  76 109 143 176 216 266 324
#     4  12  23  37  56  80 110 147 191 235 278 329
#     4   9  18  32  49  73 109 146 181 223 268 322
#     4  10  21  38  58  83 113 144 182 230 279 332
#     4  11  22  35  52  76 110 150 191 235 282 332
#
# _framework density 17.059629000000001
#
# number of rings (size 3 to 8) (size 9 to 14) (size 15 to 20)
#    0.000    1.667    1.667    5.500    0.000    4.000 
#    0.000    0.000    0.000    1.000    0.000    4.667 
#    0.000    0.000    0.000    0.000    0.000    0.000 
#
# Total GULP energy -267910.414959 kJ/mol
# GULP energy per Si atom -5581.466978 kJ/mol
# Density = 1.702080 g / cm^3
# Si number density = 17.059629 Si / 1000 Ang^3
#
#
#
# Elastic Constant Matrix: (Units=GPa)
#
#
# Indices 1 2 3 4 5 6 
#
# 1 75.8970 62.6046 46.1450 0.0000 0.0000 0.0000
# 2 62.6046 143.3376 68.1825 0.0000 0.0000 0.0000
# 3 46.1450 68.1825 113.1397 0.0000 0.0000 0.0000
# 4 0.0000 0.0000 0.0000 31.0222 0.0000 0.0000
# 5 0.0000 0.0000 0.0000 0.0000 26.0838 0.0000
# 6 0.0000 0.0000 0.0000 0.0000 0.0000 16.8169
#
#
#
# Elastic Compliance Matrix: (Units=1/GPa)
#
#
# Indices 1 2 3 4 5 6 
#
# 1 0.022107 -0.007523 -0.004483 0.000000 0.000000 0.000000
# 2 -0.007523 0.012340 -0.004368 0.000000 0.000000 0.000000
# 3 -0.004483 -0.004368 0.013300 0.000000 0.000000 0.000000
# 4 0.000000 0.000000 0.000000 0.032235 0.000000 0.000000
# 5 0.000000 0.000000 0.000000 0.000000 0.038338 0.000000
# 6 0.000000 0.000000 0.000000 0.000000 0.000000 0.059464
#
#
# Mechanical properties :
#
#
# Convention : Reuss Voigt Hill
#
# Bulk Modulus (GPa) = 66.67488 76.24871 71.46179
# Shear Modulus (GPa) = 23.19849 25.14739 24.17294
#
# Velocity S-wave (km/s) = 3.69161 3.84355 3.76835
# Velocity P-wave (km/s) = 7.57225 8.03054 7.80476
#
# Compressibility (1/GPa) = 0.01499815
#
# Stress axis : x y z
#
# Youngs Moduli (GPa) = 45.23511 81.03540 75.19074
#
# Poissons Ratio (x) = 0.60964 0.33706
# Poissons Ratio (y) = 0.34031 0.32846
# Poissons Ratio (z) = 0.20278 0.35399
#
# Static dielectric constant tensor:
#      x y z
#    x 1.573180 0.000000 0.000000 
#    y 0.000000 1.583750 0.000000 
#    z 0.000000 0.000000 1.575880 
# 
# From -- ./inp_files/4867.got.cif
#   From: 2010.05.17/outbox.cif.g08.bks.cpg/sg57_3_cif.got.tgz:4867.got - 2010.06.03 13:58:18.
