data_PCOD9438032
_publ_section_title
;
Structure prediction by ZEFSAII (Michael W. Deem and Ramdas Pophale) SiO2 
 PCOD9438032
Probable space group: P B C M
;
_chemical_formula_sum "Si O2"
_cell_formula_units_Z 56
_cell_length_a 14.125710
_cell_length_b 9.704354
_cell_length_c 19.634306
_cell_angle_alpha 90.000000
_cell_angle_beta 90.000000
_cell_angle_gamma 90.000000
_cell_volume 2691.488148
_symmetry_space_group_name_H-M "P B C M"
_symmetry_group_IT_number 57
_symmetry_cell_setting 'orthorhombic'
loop_
_space_group_symop_operation_xyz
x,y,z
-x,-y,1/2+z
x,1/2-y,-z
-x,1/2+y,1/2-z
-x,-y,-z
x,y,1/2-z
-x,1/2+y,z
x,1/2-y,1/2+z
loop_
_atom_site_type_symbol
_atom_site_label
_atom_site_fract_x
_atom_site_fract_y
_atom_site_fract_z
Si Si1 0.472172 0.007091 0.250000
Si Si2 0.091079 0.134995 0.058838
Si Si3 0.478531 0.053334 0.903993
Si Si4 0.612011 0.821877 0.565442
Si Si5 0.383493 0.734975 0.250000
Si Si6 0.710568 0.446915 0.634211
Si Si7 0.878485 0.394860 0.963778
Si Si8 0.768217 0.744635 0.171050
O O1 0.513993 0.960087 0.322320
O O2 0.507914 0.168705 0.250000
O O3 0.381907 0.901498 0.250000
O O4 0.142234 0.196938 0.125212
O O5 0.983065 0.082978 0.068629
O O6 0.089181 0.250000 0.000000
O O7 0.143164 0.008418 0.021681
O O8 0.562117 0.968587 0.938547
O O9 0.374997 0.989123 0.915993
O O10 0.472743 0.212732 0.922095
O O11 0.661815 0.750000 0.500000
O O12 0.679453 0.821317 0.630746
O O13 0.330286 0.666041 0.186009
O O14 0.799192 0.394051 0.592783
O O15 0.746053 0.591442 0.667427
O O16 0.881512 0.250000 0.000000
O O17 0.774634 0.704111 0.250000
#
# Coordination Sequence:
#
# PCOD9438032 Si02
#       8
#     4   8   8   8   4   8   8   8
#     4  10  20  38  62  88 120 172 222 260 318 394
#     4  10  20  42  73  96 121 166 219 262 318 399
#     4  10  22  37  62  86 126 168 214 261 322 372
#     4  11  24  40  60  90 126 167 218 270 315 381
#     4  10  20  38  62  90 128 176 222 264 322 384
#     4  10  20  38  62  92 126 169 210 260 326 389
#     4  10  22  40  69  97 128 164 209 268 335 387
#     4  11  23  41  66  96 124 171 222 266 319 397
#
# _framework density 20.806334
#
# number of rings (size 3 to 8) (size 9 to 14) (size 15 to 20)
#    0.000    1.714    2.143    2.571    6.000    0.571 
#    6.429    0.000    0.000    0.000    0.000    0.000 
#    0.000    0.000    0.000    0.000    0.000    0.000 
#
# Total GULP energy -312227.890911 kJ/mol
# GULP energy per Si atom -5575.498052 kJ/mol
# Density = 2.075898 g / cm^3
# Si number density = 20.806334 Si / 1000 Ang^3
#
#
#
# Elastic Constant Matrix: (Units=GPa)
#
#
# Indices 1 2 3 4 5 6 
#
# 1 86.5334 18.8282 57.9488 0.0000 0.0000 0.0000
# 2 18.8282 58.6055 23.0477 0.0000 0.0000 0.0000
# 3 57.9488 23.0477 137.0269 0.0000 0.0000 0.0000
# 4 0.0000 0.0000 0.0000 14.9250 0.0000 0.0000
# 5 0.0000 0.0000 0.0000 0.0000 27.5310 0.0000
# 6 0.0000 0.0000 0.0000 0.0000 0.0000 37.5142
#
#
#
# Elastic Compliance Matrix: (Units=1/GPa)
#
#
# Indices 1 2 3 4 5 6 
#
# 1 0.016523 -0.002742 -0.006527 0.000000 0.000000 0.000000
# 2 -0.002742 0.018727 -0.001990 0.000000 0.000000 0.000000
# 3 -0.006527 -0.001990 0.010393 0.000000 0.000000 0.000000
# 4 0.000000 0.000000 0.000000 0.067002 0.000000 0.000000
# 5 0.000000 0.000000 0.000000 0.000000 0.036323 0.000000
# 6 0.000000 0.000000 0.000000 0.000000 0.000000 0.026657
#
#
# Mechanical properties :
#
#
# Convention : Reuss Voigt Hill
#
# Bulk Modulus (GPa) = 43.24218 53.53502 48.38860
# Shear Modulus (GPa) = 24.28954 28.15012 26.21983
#
# Velocity S-wave (km/s) = 3.42045 3.68225 3.55376
# Velocity P-wave (km/s) = 6.03553 6.62304 6.33610
#
# Compressibility (1/GPa) = 0.02312557
#
# Stress axis : x y z
#
# Youngs Moduli (GPa) = 60.51993 53.39936 96.22111
#
# Poissons Ratio (x) = 0.14641 0.62800
# Poissons Ratio (y) = 0.16593 0.19151
# Poissons Ratio (z) = 0.39499 0.10628
#
# Static dielectric constant tensor:
#      x y z
#    x 1.779650 0.000000 0.000000 
#    y 0.000000 1.778170 0.000000 
#    z 0.000000 0.000000 1.777260 
# 
# From -- ./inp_files/25451.got.cif
#   From: 2010.05.17/outbox.cif.g08.bks.cpg/sg57_13_cif.got.tgz:25451.got - 2010.06.03 13:58:18.
