data_PCOD9438193
_publ_section_title
;
Structure prediction by ZEFSAII (Michael W. Deem and Ramdas Pophale) SiO2 
 PCOD9438193
Probable space group: P B C M
;
_chemical_formula_sum "Si O2"
_cell_formula_units_Z 32
_cell_length_a 11.155673
_cell_length_b 15.366705
_cell_length_c 9.600741
_cell_angle_alpha 90.000000
_cell_angle_beta 90.000000
_cell_angle_gamma 90.000000
_cell_volume 1645.816013
_symmetry_space_group_name_H-M "P B C M"
_symmetry_group_IT_number 57
_symmetry_cell_setting 'orthorhombic'
loop_
_space_group_symop_operation_xyz
x,y,z
-x,-y,1/2+z
x,1/2-y,-z
-x,1/2+y,1/2-z
-x,-y,-z
x,y,1/2-z
-x,1/2+y,z
x,1/2-y,1/2+z
loop_
_atom_site_type_symbol
_atom_site_label
_atom_site_fract_x
_atom_site_fract_y
_atom_site_fract_z
Si Si1 0.928913 0.306321 0.250000
Si Si2 0.506503 0.648289 0.250000
Si Si3 0.734617 0.937589 0.750000
Si Si4 0.789156 0.730533 0.750000
Si Si5 0.874565 0.452411 0.027385
Si Si6 0.223135 0.628200 0.250000
Si Si7 0.367720 0.250000 0.500000
O O1 0.897666 0.365454 0.116958
O O2 0.851549 0.218455 0.250000
O O3 0.071197 0.289528 0.250000
O O4 0.590308 0.562616 0.250000
O O5 0.365206 0.641552 0.250000
O O6 0.549652 0.697040 0.391838
O O7 0.773945 0.836113 0.750000
O O8 0.790257 0.985031 0.882433
O O9 0.720857 0.700143 0.891016
O O10 0.814925 0.425682 0.884382
O O11 0.000000 0.500000 0.000000
#
# Coordination Sequence:
#
# PCOD9438193 Si02
#       7
#     4   4   4   4   8   4   4
#     4  11  25  38  67  98 129 166 216 280 325 387
#     4  10  23  42  65  92 134 169 222 263 313 398
#     4   9  22  43  60  88 138 169 212 268 319 394
#     4  10  20  39  68  98 122 167 214 271 327 370
#     4  11  24  43  63  95 134 172 212 274 332 392
#     4  12  26  40  68  98 125 177 220 270 330 379
#     4   8  20  38  62  94 124 162 210 274 302 380
#
# _framework density 19.443242999999999
#
# number of rings (size 3 to 8) (size 9 to 14) (size 15 to 20)
#    0.000    2.000    0.000    3.750   14.000    1.000 
#    0.000    0.000    0.000    0.000    0.000    0.000 
#    0.000    0.000    0.000    0.000    0.000    0.000 
#
# Total GULP energy -178652.372006 kJ/mol
# GULP energy per Si atom -5582.886625 kJ/mol
# Density = 1.939899 g / cm^3
# Si number density = 19.443243 Si / 1000 Ang^3
#
#
#
# Elastic Constant Matrix: (Units=GPa)
#
#
# Indices 1 2 3 4 5 6 
#
# 1 200.8602 46.6034 94.4608 0.0000 0.0000 0.0000
# 2 46.6034 77.3386 58.8211 0.0000 0.0000 0.0000
# 3 94.4608 58.8211 200.4587 0.0000 0.0000 0.0000
# 4 0.0000 0.0000 0.0000 26.5139 0.0000 0.0000
# 5 0.0000 0.0000 0.0000 0.0000 -16.3787 0.0000
# 6 0.0000 0.0000 0.0000 0.0000 0.0000 28.0913
#
#
#
# Elastic Compliance Matrix: (Units=1/GPa)
#
#
# Indices 1 2 3 4 5 6 
#
# 1 0.006648 -0.002090 -0.002520 0.000000 0.000000 0.000000
# 2 -0.002090 0.017302 -0.004092 0.000000 0.000000 0.000000
# 3 -0.002520 -0.004092 0.007377 0.000000 0.000000 0.000000
# 4 0.000000 0.000000 0.000000 0.037716 0.000000 0.000000
# 5 0.000000 0.000000 0.000000 0.000000 -0.061055 0.000000
# 6 0.000000 0.000000 0.000000 0.000000 0.000000 0.035598
#
#
# Mechanical properties :
#
#
# Convention : Reuss Voigt Hill
#
# Bulk Modulus (GPa) = 71.82071 97.60312 84.71191
# Shear Modulus (GPa) = 76.18399 26.23012 51.20706
#
# Velocity S-wave (km/s) = 6.26640 3.67694 5.13750
# Velocity P-wave (km/s) = 9.45388 8.26647 8.88005
#
# Compressibility (1/GPa) = 0.01392356
#
# Stress axis : x y z
#
# Youngs Moduli (GPa) = 150.41146 57.79739 135.56322
#
# Poissons Ratio (x) = 0.12079 0.34157
# Poissons Ratio (y) = 0.31435 0.55474
# Poissons Ratio (z) = 0.37898 0.23651
#
# Static dielectric constant tensor:
#      x y z
#    x 1.672840 0.000000 0.000000 
#    y 0.000000 1.685520 0.000000 
#    z 0.000000 0.000000 1.710260 
# 
# From -- ./inp_files/2474.got.cif
#   From: 2010.05.17/outbox.cif.g08.bks.cpg/sg57_2_cif.got.tgz:2474.got - 2010.06.03 13:58:18.
