data_PCOD9438512
_publ_section_title
;
Structure prediction by ZEFSAII (Michael W. Deem and Ramdas Pophale) SiO2 
 PCOD9438512
Probable space group: P B C M
;
_chemical_formula_sum "Si O2"
_cell_formula_units_Z 48
_cell_length_a 17.854298
_cell_length_b 8.249383
_cell_length_c 16.846728
_cell_angle_alpha 90.000000
_cell_angle_beta 90.000000
_cell_angle_gamma 90.000000
_cell_volume 2481.303057
_symmetry_space_group_name_H-M "P B C M"
_symmetry_group_IT_number 57
_symmetry_cell_setting 'orthorhombic'
loop_
_space_group_symop_operation_xyz
x,y,z
-x,-y,1/2+z
x,1/2-y,-z
-x,1/2+y,1/2-z
-x,-y,-z
x,y,1/2-z
-x,1/2+y,z
x,1/2-y,1/2+z
loop_
_atom_site_type_symbol
_atom_site_label
_atom_site_fract_x
_atom_site_fract_y
_atom_site_fract_z
Si Si1 0.251273 0.196652 0.591344
Si Si2 0.587399 0.660915 0.843032
Si Si3 0.966029 0.954900 0.341102
Si Si4 0.146709 0.919045 0.544568
Si Si5 0.896613 0.874197 0.892694
Si Si6 0.464684 0.628877 0.060721
O O1 0.264827 0.250000 0.500000
O O2 0.327773 0.210764 0.638500
O O3 0.186480 0.311274 0.628253
O O4 0.216665 0.015279 0.583474
O O5 0.570544 0.669618 0.750000
O O6 0.529264 0.772691 0.892463
O O7 0.579870 0.477825 0.876332
O O8 0.942335 0.940265 0.250000
O O9 0.945351 0.789043 0.385547
O O10 0.916597 0.088374 0.387700
O O11 0.053319 0.999427 0.344364
O O12 0.162423 0.750000 0.500000
O O13 0.114563 0.041918 0.477667
O O14 0.422455 0.750000 0.000000
O O15 0.500000 0.500000 0.000000
#
# Coordination Sequence:
#
# PCOD9438512 Si02
#       6
#     8   8   8   8   8   8
#     4   9  20  37  56  81 114 155 195 233 282 344
#     4  11  21  36  61  91 122 150 186 239 290 336
#     4  11  21  34  55  82 113 145 188 246 298 343
#     4  10  21  38  60  82 109 149 197 242 285 346
#     4  10  21  37  57  81 110 151 198 238 285 347
#     4   9  19  36  60  87 116 154 193 226 270 340
#
# _framework density 19.344674999999999
#
# number of rings (size 3 to 8) (size 9 to 14) (size 15 to 20)
#    0.000    2.000    0.000    5.500    0.000    6.000 
#    0.000    2.500    0.000    1.000    0.000    0.000 
#    0.000    0.000    0.000    0.000    0.000    0.000 
#
# Total GULP energy -267366.857829 kJ/mol
# GULP energy per Si atom -5570.142871 kJ/mol
# Density = 1.930065 g / cm^3
# Si number density = 19.344675 Si / 1000 Ang^3
#
#
#
# Elastic Constant Matrix: (Units=GPa)
#
#
# Indices 1 2 3 4 5 6 
#
# 1 85.8519 32.7166 29.4224 0.0000 0.0000 0.0000
# 2 32.7166 79.2959 35.1969 0.0000 0.0000 0.0000
# 3 29.4224 35.1969 84.0529 0.0000 0.0000 0.0000
# 4 0.0000 0.0000 0.0000 12.8171 0.0000 0.0000
# 5 0.0000 0.0000 0.0000 0.0000 -146.4102 0.0000
# 6 0.0000 0.0000 0.0000 0.0000 0.0000 24.2001
#
#
#
# Elastic Compliance Matrix: (Units=1/GPa)
#
#
# Indices 1 2 3 4 5 6 
#
# 1 0.014470 -0.004572 -0.003151 0.000000 0.000000 0.000000
# 2 -0.004572 0.016934 -0.005491 0.000000 0.000000 0.000000
# 3 -0.003151 -0.005491 0.015300 0.000000 0.000000 0.000000
# 4 0.000000 0.000000 0.000000 0.078021 0.000000 0.000000
# 5 0.000000 0.000000 0.000000 0.000000 -0.006830 0.000000
# 6 0.000000 0.000000 0.000000 0.000000 0.000000 0.041322
#
#
# Mechanical properties :
#
#
# Convention : Reuss Voigt Hill
#
# Bulk Modulus (GPa) = 49.31656 49.31914 49.31785
# Shear Modulus (GPa) = 25.98721 -11.75428 7.11646
#
# Velocity S-wave (km/s) = 3.66919 -2.46768 1.92009
# Velocity P-wave (km/s) = 6.59542 4.17505 5.51954
#
# Compressibility (1/GPa) = 0.02027716
#
# Stress axis : x y z
#
# Youngs Moduli (GPa) = 69.10879 59.05124 65.36148
#
# Poissons Ratio (x) = 0.26996 0.20594
# Poissons Ratio (y) = 0.31594 0.35890
# Poissons Ratio (z) = 0.21775 0.32425
#
# Static dielectric constant tensor:
#      x y z
#    x 1.683820 0.000000 0.000000 
#    y 0.000000 1.743250 0.000000 
#    z 0.000000 0.000000 1.690940 
# 
# From -- ./inp_files/22835.got.cif
#   From: 2010.05.17/outbox.cif.g08.bks.cpg/sg57_12_cif.got.tgz:22835.got - 2010.06.03 13:58:18.
