data_PCOD9438398
_publ_section_title
;
Structure prediction by ZEFSAII (Michael W. Deem and Ramdas Pophale) SiO2 
 PCOD9438398
Probable space group: P B C M
;
_chemical_formula_sum "Si O2"
_cell_formula_units_Z 64
_cell_length_a 22.302149
_cell_length_b 19.950930
_cell_length_c 8.789334
_cell_angle_alpha 90.000000
_cell_angle_beta 90.000000
_cell_angle_gamma 90.000000
_cell_volume 3910.801977
_symmetry_space_group_name_H-M "P B C M"
_symmetry_group_IT_number 57
_symmetry_cell_setting 'orthorhombic'
loop_
_space_group_symop_operation_xyz
x,y,z
-x,-y,1/2+z
x,1/2-y,-z
-x,1/2+y,1/2-z
-x,-y,-z
x,y,1/2-z
-x,1/2+y,z
x,1/2-y,1/2+z
loop_
_atom_site_type_symbol
_atom_site_label
_atom_site_fract_x
_atom_site_fract_y
_atom_site_fract_z
Si Si1 0.696239 0.545585 0.566167
Si Si2 0.979924 0.319249 0.567628
Si Si3 0.630810 0.823654 0.931563
Si Si4 0.940283 0.464943 0.933443
Si Si5 0.118616 0.318613 0.568009
Si Si6 0.173934 0.459418 0.566880
Si Si7 0.414087 0.537769 0.075155
Si Si8 0.519562 0.607168 0.923586
O O1 0.693670 0.549973 0.750000
O O2 0.672707 0.616737 0.499274
O O3 0.762014 0.528070 0.507769
O O4 0.650500 0.486347 0.517127
O O5 0.956510 0.250000 0.500000
O O6 0.980603 0.314217 0.750000
O O7 0.945131 0.386399 0.526693
O O8 0.049438 0.327144 0.516206
O O9 0.637204 0.822240 0.750000
O O10 0.643631 0.750000 0.000000
O O11 0.562974 0.845846 0.977678
O O12 0.940765 0.471862 0.750000
O O13 0.880481 0.496344 0.003165
O O14 0.000000 0.500000 0.000000
O O15 0.142619 0.250000 0.500000
O O16 0.117729 0.313721 0.750000
O O17 0.156284 0.383142 0.526139
O O18 0.176642 0.465205 0.750000
O O19 0.409419 0.559928 0.250000
O O20 0.449543 0.466569 0.075365
O O21 0.453118 0.591789 0.984617
O O22 0.519217 0.631417 0.750000
#
# Coordination Sequence:
#
# PCOD9438398 Si02
#       8
#     8   8   8   8   8   8   8   8
#     4  10  21  36  51  71  99 134 175 214 256 304
#     4   9  18  33  51  74 100 126 160 202 253 311
#     4  11  21  34  51  72 102 140 178 215 253 296
#     4  11  21  35  54  77 104 133 168 216 270 322
#     4   9  18  32  47  67  95 127 165 207 249 303
#     4  11  22  36  51  73 103 136 177 219 263 319
#     4   8  15  28  46  68  95 124 158 201 246 293
#     4   9  16  27  46  72  98 125 161 203 246 291
#
# _framework density 16.364929
#
# number of rings (size 3 to 8) (size 9 to 14) (size 15 to 20)
#    0.000    2.250    1.250    3.375    0.000    6.000 
#    0.000    1.250    0.000    0.000    0.000    0.875 
#    0.000    4.000    0.000    0.000    0.000    0.000 
#
# Total GULP energy -356791.297786 kJ/mol
# GULP energy per Si atom -5574.864028 kJ/mol
# Density = 1.632768 g / cm^3
# Si number density = 16.364929 Si / 1000 Ang^3
#
#
#
# Elastic Constant Matrix: (Units=GPa)
#
#
# Indices 1 2 3 4 5 6 
#
# 1 120.5637 44.6131 38.6848 0.0000 0.0000 0.0000
# 2 44.6131 55.1202 23.6258 0.0000 0.0000 0.0000
# 3 38.6848 23.6258 61.4112 0.0000 0.0000 0.0000
# 4 0.0000 0.0000 0.0000 24.7356 0.0000 0.0000
# 5 0.0000 0.0000 0.0000 0.0000 25.6098 0.0000
# 6 0.0000 0.0000 0.0000 0.0000 0.0000 15.4424
#
#
#
# Elastic Compliance Matrix: (Units=1/GPa)
#
#
# Indices 1 2 3 4 5 6 
#
# 1 0.012988 -0.008389 -0.004954 0.000000 0.000000 0.000000
# 2 -0.008389 0.027143 -0.005158 0.000000 0.000000 0.000000
# 3 -0.004954 -0.005158 0.021389 0.000000 0.000000 0.000000
# 4 0.000000 0.000000 0.000000 0.040428 0.000000 0.000000
# 5 0.000000 0.000000 0.000000 0.000000 0.039048 0.000000
# 6 0.000000 0.000000 0.000000 0.000000 0.000000 0.064757
#
#
# Mechanical properties :
#
#
# Convention : Reuss Voigt Hill
#
# Bulk Modulus (GPa) = 40.78682 50.10473 45.44577
# Shear Modulus (GPa) = 19.92615 21.83563 20.88089
#
# Velocity S-wave (km/s) = 3.49322 3.65676 3.57592
# Velocity P-wave (km/s) = 6.42242 6.96511 6.69927
#
# Compressibility (1/GPa) = 0.02451773
#
# Stress axis : x y z
#
# Youngs Moduli (GPa) = 76.99270 36.84231 46.75331
#
# Poissons Ratio (x) = 0.30906 0.23163
# Poissons Ratio (y) = 0.64588 0.24115
# Poissons Ratio (z) = 0.38145 0.19003
#
# Static dielectric constant tensor:
#      x y z
#    x 1.564030 0.000000 0.000000 
#    y 0.000000 1.537030 0.000000 
#    z 0.000000 0.000000 1.554960 
# 
# From -- ./inp_files/8749.got.cif
#   From: 2010.05.17/outbox.cif.g08.bks.cpg/sg57_5_cif.got.tgz:8749.got - 2010.06.03 13:58:18.
