data_PCOD9438659
_publ_section_title
;
Structure prediction by ZEFSAII (Michael W. Deem and Ramdas Pophale) SiO2 
 PCOD9438659
Probable space group: P B C M
;
_chemical_formula_sum "Si O2"
_cell_formula_units_Z 64
_cell_length_a 11.683309
_cell_length_b 14.692767
_cell_length_c 17.828906
_cell_angle_alpha 90.000000
_cell_angle_beta 90.000000
_cell_angle_gamma 90.000000
_cell_volume 3060.512445
_symmetry_space_group_name_H-M "P B C M"
_symmetry_group_IT_number 57
_symmetry_cell_setting 'orthorhombic'
loop_
_space_group_symop_operation_xyz
x,y,z
-x,-y,1/2+z
x,1/2-y,-z
-x,1/2+y,1/2-z
-x,-y,-z
x,y,1/2-z
-x,1/2+y,z
x,1/2-y,1/2+z
loop_
_atom_site_type_symbol
_atom_site_label
_atom_site_fract_x
_atom_site_fract_y
_atom_site_fract_z
Si Si1 0.876469 0.304977 0.933071
Si Si2 0.950969 0.799308 0.336633
Si Si3 0.568174 0.942267 0.339988
Si Si4 0.112663 0.540089 0.662714
Si Si5 0.921101 0.578742 0.031509
Si Si6 0.667391 0.153388 0.659747
Si Si7 0.685628 0.367347 0.660086
Si Si8 0.740031 0.675074 0.939580
O O1 0.795196 0.378921 0.894177
O O2 0.935592 0.253460 0.863440
O O3 0.989213 0.340563 0.974411
O O4 0.814698 0.250000 0.000000
O O5 0.927336 0.780402 0.250000
O O6 0.840007 0.782340 0.387061
O O7 0.994070 0.903892 0.343938
O O8 0.583689 0.928244 0.250000
O O9 0.440490 0.909424 0.360076
O O10 0.650277 0.875377 0.386657
O O11 0.598733 0.048884 0.354074
O O12 0.132321 0.522941 0.750000
O O13 0.106261 0.448352 0.616227
O O14 0.217181 0.602938 0.632439
O O15 0.806952 0.599411 0.987597
O O16 0.000000 0.500000 0.000000
O O17 0.676331 0.153603 0.750000
O O18 0.652703 0.261266 0.641370
O O19 0.711518 0.369946 0.750000
O O20 0.697645 0.750000 0.000000
#
# Coordination Sequence:
#
# PCOD9438659 Si02
#       8
#     8   8   8   8   8   8   8   8
#     4  12  21  37  58  90 129 172 207 253 317 380
#     4  11  20  36  60  87 119 161 211 257 313 373
#     4  10  23  44  70  97 125 164 218 275 325 377
#     4  10  21  37  62  93 125 164 211 268 321 381
#     4  12  22  37  58  87 132 168 204 254 322 381
#     4   9  19  42  69  93 126 163 212 277 327 369
#     4  10  21  39  68  99 122 161 221 272 316 381
#     4  12  23  43  59  86 133 175 205 254 324 391
#
# _framework density 20.911531
#
# number of rings (size 3 to 8) (size 9 to 14) (size 15 to 20)
#    0.000    1.250    5.000    1.500    0.000    1.000 
#    2.250    1.250    0.000    0.000    0.000    0.000 
#    0.000    0.000    0.000    0.000    0.000    0.000 
#
# Total GULP energy -356800.431777 kJ/mol
# GULP energy per Si atom -5575.006747 kJ/mol
# Density = 2.086394 g / cm^3
# Si number density = 20.911531 Si / 1000 Ang^3
#
#
#
# Elastic Constant Matrix: (Units=GPa)
#
#
# Indices 1 2 3 4 5 6 
#
# 1 59.6104 19.3785 11.4488 0.0000 0.0000 0.0000
# 2 19.3785 83.5238 23.7451 0.0000 0.0000 0.0000
# 3 11.4488 23.7451 73.0132 0.0000 0.0000 0.0000
# 4 0.0000 0.0000 0.0000 37.9770 0.0000 0.0000
# 5 0.0000 0.0000 0.0000 0.0000 20.0359 0.0000
# 6 0.0000 0.0000 0.0000 0.0000 0.0000 27.5972
#
#
#
# Elastic Compliance Matrix: (Units=1/GPa)
#
#
# Indices 1 2 3 4 5 6 
#
# 1 0.018321 -0.003784 -0.001642 0.000000 0.000000 0.000000
# 2 -0.003784 0.013974 -0.003951 0.000000 0.000000 0.000000
# 3 -0.001642 -0.003951 0.015239 0.000000 0.000000 0.000000
# 4 0.000000 0.000000 0.000000 0.026332 0.000000 0.000000
# 5 0.000000 0.000000 0.000000 0.000000 0.049910 0.000000
# 6 0.000000 0.000000 0.000000 0.000000 0.000000 0.036236
#
#
# Mechanical properties :
#
#
# Convention : Reuss Voigt Hill
#
# Bulk Modulus (GPa) = 34.74758 36.14359 35.44558
# Shear Modulus (GPa) = 26.54506 27.89367 27.21936
#
# Velocity S-wave (km/s) = 3.56673 3.65621 3.61174
# Velocity P-wave (km/s) = 5.79781 5.92835 5.86344
#
# Compressibility (1/GPa) = 0.02877898
#
# Stress axis : x y z
#
# Youngs Moduli (GPa) = 54.58187 71.56241 65.62257
#
# Poissons Ratio (x) = 0.27078 0.10777
# Poissons Ratio (y) = 0.20653 0.25929
# Poissons Ratio (z) = 0.08964 0.28276
#
# Static dielectric constant tensor:
#      x y z
#    x 1.744010 0.000000 0.000000 
#    y 0.000000 1.595100 0.000000 
#    z 0.000000 0.000000 1.764820 
# 
# From -- ./inp_files/22044.got.cif
#   From: 2010.05.17/outbox.cif.g08.bks.cpg/sg57_12_cif.got.tgz:22044.got - 2010.06.03 13:58:18.
