data_PCOD9438268
_publ_section_title
;
Structure prediction by ZEFSAII (Michael W. Deem and Ramdas Pophale) SiO2 
 PCOD9438268
Probable space group: P B C M
;
_chemical_formula_sum "Si O2"
_cell_formula_units_Z 48
_cell_length_a 5.318916
_cell_length_b 28.538377
_cell_length_c 14.105256
_cell_angle_alpha 90.000000
_cell_angle_beta 90.000000
_cell_angle_gamma 90.000000
_cell_volume 2141.082369
_symmetry_space_group_name_H-M "P B C M"
_symmetry_group_IT_number 57
_symmetry_cell_setting 'orthorhombic'
loop_
_space_group_symop_operation_xyz
x,y,z
-x,-y,1/2+z
x,1/2-y,-z
-x,1/2+y,1/2-z
-x,-y,-z
x,y,1/2-z
-x,1/2+y,z
x,1/2-y,1/2+z
loop_
_atom_site_type_symbol
_atom_site_label
_atom_site_fract_x
_atom_site_fract_y
_atom_site_fract_z
Si Si1 0.219660 0.393935 0.966243
Si Si2 0.155279 0.301923 0.250000
Si Si3 0.520679 0.421754 0.150564
Si Si4 0.502605 0.295151 0.546714
Si Si5 0.249642 0.007356 0.063174
Si Si6 0.866696 0.155251 0.915915
Si Si7 0.347240 0.757928 0.750000
O O1 0.337613 0.414944 0.062555
O O2 0.942095 0.379275 0.997842
O O3 0.350441 0.344126 0.945913
O O4 0.238909 0.438998 0.898754
O O5 0.093290 0.329158 0.152214
O O6 0.934495 0.262453 0.250000
O O7 0.433986 0.281634 0.250000
O O8 0.382606 0.426950 0.250000
O O9 0.709319 0.465476 0.137077
O O10 0.681693 0.374497 0.148367
O O11 0.360420 0.250000 0.500000
O O12 0.721964 0.303388 0.468914
O O13 0.603431 0.285131 0.651935
O O14 0.500000 0.000000 0.000000
O O15 0.000000 0.000000 0.000000
#
# Coordination Sequence:
#
# PCOD9438268 Si02
#       7
#     8   4   8   8   8   8   4
#     4  10  23  39  66  92 135 182 223 278 336 414
#     4  12  26  42  68  99 133 173 229 290 344 410
#     4  10  21  37  62  98 135 168 219 281 339 400
#     4  11  24  44  66  95 134 182 228 281 342 406
#     4  10  20  41  63  91 129 173 212 264 337 398
#     4  11  22  37  68  98 133 174 223 280 349 401
#     4  12  28  48  66  95 137 181 229 286 342 408
#
# _framework density 22.418566999999999
#
# number of rings (size 3 to 8) (size 9 to 14) (size 15 to 20)
#    0.000    1.333    4.167    1.000    5.833    0.667 
#    1.500    0.000    0.000    0.000    0.000    0.000 
#    0.000    0.000    0.000    0.000    0.000    0.000 
#
# Total GULP energy -267778.209272 kJ/mol
# GULP energy per Si atom -5578.712693 kJ/mol
# Density = 2.236754 g / cm^3
# Si number density = 22.418567 Si / 1000 Ang^3
#
#
#
# Elastic Constant Matrix: (Units=GPa)
#
#
# Indices 1 2 3 4 5 6 
#
# 1 60.9834 18.7177 -1.9324 0.0000 0.0000 0.0000
# 2 18.7177 147.9857 38.9224 0.0000 0.0000 0.0000
# 3 -1.9324 38.9224 88.9632 0.0000 0.0000 0.0000
# 4 0.0000 0.0000 0.0000 16.1928 0.0000 0.0000
# 5 0.0000 0.0000 0.0000 0.0000 12.9778 0.0000
# 6 0.0000 0.0000 0.0000 0.0000 0.0000 30.6447
#
#
#
# Elastic Compliance Matrix: (Units=1/GPa)
#
#
# Indices 1 2 3 4 5 6 
#
# 1 0.017236 -0.002575 0.001501 0.000000 0.000000 0.000000
# 2 -0.002575 0.008021 -0.003565 0.000000 0.000000 0.000000
# 3 0.001501 -0.003565 0.012833 0.000000 0.000000 0.000000
# 4 0.000000 0.000000 0.000000 0.061756 0.000000 0.000000
# 5 0.000000 0.000000 0.000000 0.000000 0.077055 0.000000
# 6 0.000000 0.000000 0.000000 0.000000 0.000000 0.032632
#
#
# Mechanical properties :
#
#
# Convention : Reuss Voigt Hill
#
# Bulk Modulus (GPa) = 34.70842 45.48309 40.09575
# Shear Modulus (GPa) = 21.89006 28.11135 25.00071
#
# Velocity S-wave (km/s) = 3.12817 3.54493 3.34305
# Velocity P-wave (km/s) = 5.34442 6.08996 5.72933
#
# Compressibility (1/GPa) = 0.02881145
#
# Stress axis : x y z
#
# Youngs Moduli (GPa) = 58.01898 124.67667 77.92427
#
# Poissons Ratio (x) = 0.32101 -0.11695
# Poissons Ratio (y) = 0.14939 0.27781
# Poissons Ratio (z) = -0.08708 0.44448
#
# Static dielectric constant tensor:
#      x y z
#    x 1.854060 0.000000 0.000000 
#    y 0.000000 2.069080 0.000000 
#    z 0.000000 0.000000 2.081410 
# 
# From -- ./inp_files/15154.got.cif
#   From: 2010.05.17/outbox.cif.g08.bks.cpg/sg57_8_cif.got.tgz:15154.got - 2010.06.03 13:58:18.
