data_PCOD9438959
_publ_section_title
;
Structure prediction by ZEFSAII (Michael W. Deem and Ramdas Pophale) SiO2 
 PCOD9438959
Probable space group: P B C M
;
_chemical_formula_sum "Si O2"
_cell_formula_units_Z 64
_cell_length_a 18.171076
_cell_length_b 8.013058
_cell_length_c 20.984776
_cell_angle_alpha 90.000000
_cell_angle_beta 90.000000
_cell_angle_gamma 90.000000
_cell_volume 3055.506900
_symmetry_space_group_name_H-M "P B C M"
_symmetry_group_IT_number 57
_symmetry_cell_setting 'orthorhombic'
loop_
_space_group_symop_operation_xyz
x,y,z
-x,-y,1/2+z
x,1/2-y,-z
-x,1/2+y,1/2-z
-x,-y,-z
x,y,1/2-z
-x,1/2+y,z
x,1/2-y,1/2+z
loop_
_atom_site_type_symbol
_atom_site_label
_atom_site_fract_x
_atom_site_fract_y
_atom_site_fract_z
Si Si1 0.068330 0.704715 0.322543
Si Si2 0.604257 0.548953 0.178880
Si Si3 0.948572 0.695639 0.065556
Si Si4 0.841546 0.507690 0.598034
Si Si5 0.138111 0.869053 0.074004
Si Si6 0.304228 0.554071 0.937512
Si Si7 0.444908 0.069724 0.821826
Si Si8 0.673478 0.050169 0.077662
O O1 0.046606 0.723101 0.250000
O O2 0.116823 0.539033 0.336173
O O3 0.001118 0.703491 0.372891
O O4 0.122403 0.848901 0.349337
O O5 0.629563 0.498904 0.250000
O O6 0.664181 0.534502 0.124195
O O7 0.530953 0.445211 0.161862
O O8 0.577062 0.738148 0.181431
O O9 0.921040 0.507923 0.056250
O O10 0.881370 0.827156 0.073138
O O11 0.986983 0.750000 0.000000
O O12 0.753516 0.516265 0.600910
O O13 0.858443 0.332417 0.558717
O O14 0.216336 0.949876 0.059132
O O15 0.321140 0.750039 0.928193
O O16 0.336397 0.490300 0.004603
O O17 0.435946 0.996482 0.750000
O O18 0.391417 0.990953 0.874011
#
# Coordination Sequence:
#
# PCOD9438959 Si02
#       8
#     8   8   8   8   8   8   8   8
#     4  10  24  46  66  90 127 170 211 264 325 376
#     4  10  22  40  62  90 124 163 206 248 296 361
#     4  12  24  38  66  96 121 168 215 260 325 380
#     4   9  23  42  61  92 127 164 209 264 310 380
#     4   9  23  42  61  92 127 164 209 264 310 380
#     4  10  21  39  63  90 123 159 201 256 310 361
#     4  10  22  40  62  90 124 163 206 248 296 361
#     4  10  21  39  63  90 123 159 201 256 310 361
#
# _framework density 20.945789000000001
#
# number of rings (size 3 to 8) (size 9 to 14) (size 15 to 20)
#    0.750    1.250    0.000    2.250    1.750   10.000 
#    0.000    0.000    0.000    0.000    0.000    0.000 
#    0.000    0.000    0.000    0.000    0.000    0.000 
#
# Total GULP energy -356844.727791 kJ/mol
# GULP energy per Si atom -5575.698872 kJ/mol
# Density = 2.089811 g / cm^3
# Si number density = 20.945789 Si / 1000 Ang^3
#
#
#
# Elastic Constant Matrix: (Units=GPa)
#
#
# Indices 1 2 3 4 5 6 
#
# 1 52.1981 12.4591 41.2186 0.0000 0.0000 0.0000
# 2 12.4591 51.1700 26.4724 0.0000 0.0000 0.0000
# 3 41.2186 26.4724 118.3534 0.0000 0.0000 0.0000
# 4 0.0000 0.0000 0.0000 25.8798 0.0000 0.0000
# 5 0.0000 0.0000 0.0000 0.0000 26.1551 0.0000
# 6 0.0000 0.0000 0.0000 0.0000 0.0000 26.6825
#
#
#
# Elastic Compliance Matrix: (Units=1/GPa)
#
#
# Indices 1 2 3 4 5 6 
#
# 1 0.026588 -0.001904 -0.008834 0.000000 0.000000 0.000000
# 2 -0.001904 0.022236 -0.004311 0.000000 0.000000 0.000000
# 3 -0.008834 -0.004311 0.012490 0.000000 0.000000 0.000000
# 4 0.000000 0.000000 0.000000 0.038640 0.000000 0.000000
# 5 0.000000 0.000000 0.000000 0.000000 0.038233 0.000000
# 6 0.000000 0.000000 0.000000 0.000000 0.000000 0.037478
#
#
# Mechanical properties :
#
#
# Convention : Reuss Voigt Hill
#
# Bulk Modulus (GPa) = 32.03297 42.44687 37.23992
# Shear Modulus (GPa) = 23.13018 25.18159 24.15588
#
# Velocity S-wave (km/s) = 3.32669 3.47108 3.39965
# Velocity P-wave (km/s) = 5.48473 6.03105 5.76437
#
# Compressibility (1/GPa) = 0.03121783
#
# Stress axis : x y z
#
# Youngs Moduli (GPa) = 37.61107 44.97151 80.06390
#
# Poissons Ratio (x) = 0.08561 0.70728
# Poissons Ratio (y) = 0.07160 0.34513
# Poissons Ratio (z) = 0.33225 0.19386
#
# Static dielectric constant tensor:
#      x y z
#    x 1.756870 0.000000 0.000000 
#    y 0.000000 1.784280 0.000000 
#    z 0.000000 0.000000 1.805830 
# 
# From -- ./inp_files/25634.got.cif
#   From: 2010.05.17/outbox.cif.g08.bks.cpg/sg57_13_cif.got.tgz:25634.got - 2010.06.03 13:58:18.
