data_PCOD9438354
_publ_section_title
;
Structure prediction by ZEFSAII (Michael W. Deem and Ramdas Pophale) SiO2 
 PCOD9438354
Probable space group: P B C M
;
_chemical_formula_sum "Si O2"
_cell_formula_units_Z 64
_cell_length_a 24.071394
_cell_length_b 8.935596
_cell_length_c 13.927077
_cell_angle_alpha 90.000000
_cell_angle_beta 90.000000
_cell_angle_gamma 90.000000
_cell_volume 2995.606355
_symmetry_space_group_name_H-M "P B C M"
_symmetry_group_IT_number 57
_symmetry_cell_setting 'orthorhombic'
loop_
_space_group_symop_operation_xyz
x,y,z
-x,-y,1/2+z
x,1/2-y,-z
-x,1/2+y,1/2-z
-x,-y,-z
x,y,1/2-z
-x,1/2+y,z
x,1/2-y,1/2+z
loop_
_atom_site_type_symbol
_atom_site_label
_atom_site_fract_x
_atom_site_fract_y
_atom_site_fract_z
Si Si1 0.463924 0.174264 0.638016
Si Si2 0.357206 0.421716 0.025913
Si Si3 0.964250 0.498918 0.632484
Si Si4 0.181758 0.012514 0.363131
Si Si5 0.927712 0.670533 0.132768
Si Si6 0.855514 0.169851 0.136795
Si Si7 0.573710 0.481324 0.137896
Si Si8 0.252077 0.578187 0.473735
O O1 0.462633 0.133408 0.750000
O O2 0.414071 0.088428 0.585999
O O3 0.451726 0.350545 0.629723
O O4 0.525135 0.129560 0.603887
O O5 0.373192 0.514595 0.930429
O O6 0.304696 0.499937 0.074068
O O7 0.343621 0.250000 0.000000
O O8 0.965619 0.497705 0.750000
O O9 0.946765 0.664930 0.603532
O O10 0.915589 0.384980 0.602442
O O11 0.025216 0.447115 0.601836
O O12 0.193781 0.032392 0.250000
O O13 0.154854 0.846558 0.375800
O O14 0.235598 0.011388 0.429700
O O15 0.134332 0.127109 0.395917
O O16 0.926823 0.666875 0.250000
O O17 0.853197 0.139393 0.250000
O O18 0.804426 0.085145 0.087453
O O19 0.586767 0.453687 0.250000
O O20 0.265092 0.750000 0.500000
#
# Coordination Sequence:
#
# PCOD9438354 Si02
#       8
#     8   8   8   8   8   8   8   8
#     4   9  18  33  53  78 106 134 165 202 245 292
#     4  10  21  35  51  73 103 136 167 204 248 290
#     4   9  16  27  47  75 102 128 161 201 248 303
#     4   9  18  34  53  71  96 129 163 205 253 295
#     4   9  16  27  47  75 102 128 161 201 248 303
#     4   9  18  34  53  71  96 129 163 205 253 295
#     4   9  18  33  53  78 106 134 165 202 245 292
#     4  10  22  37  52  73  99 130 172 212 245 290
#
# _framework density 21.364622000000001
#
# number of rings (size 3 to 8) (size 9 to 14) (size 15 to 20)
#    0.000    2.750    0.000    1.125    0.000    6.000 
#    0.000    0.625    0.000    0.000    0.000    0.000 
#    0.000    0.000    0.000    0.000    0.000    0.000 
#
# Total GULP energy -357543.903553 kJ/mol
# GULP energy per Si atom -5586.623493 kJ/mol
# Density = 2.131600 g / cm^3
# Si number density = 21.364622 Si / 1000 Ang^3
#
#
#
# Elastic Constant Matrix: (Units=GPa)
#
#
# Indices 1 2 3 4 5 6 
#
# 1 56.1749 5.5616 11.0942 0.0000 0.0000 0.0000
# 2 5.5616 16.5106 7.1543 0.0000 0.0000 0.0000
# 3 11.0942 7.1543 47.6777 0.0000 0.0000 0.0000
# 4 0.0000 0.0000 0.0000 18.6121 0.0000 0.0000
# 5 0.0000 0.0000 0.0000 0.0000 22.0086 0.0000
# 6 0.0000 0.0000 0.0000 0.0000 0.0000 33.5400
#
#
#
# Elastic Compliance Matrix: (Units=1/GPa)
#
#
# Indices 1 2 3 4 5 6 
#
# 1 0.019008 -0.004798 -0.003703 0.000000 0.000000 0.000000
# 2 -0.004798 0.065990 -0.008786 0.000000 0.000000 0.000000
# 3 -0.003703 -0.008786 0.023154 0.000000 0.000000 0.000000
# 4 0.000000 0.000000 0.000000 0.053728 0.000000 0.000000
# 5 0.000000 0.000000 0.000000 0.000000 0.045437 0.000000
# 6 0.000000 0.000000 0.000000 0.000000 0.000000 0.029815
#
#
# Mechanical properties :
#
#
# Convention : Reuss Voigt Hill
#
# Bulk Modulus (GPa) = 13.59092 18.66482 16.12787
# Shear Modulus (GPa) = 16.87860 21.26902 19.07381
#
# Velocity S-wave (km/s) = 2.81379 3.15862 2.99118
# Velocity P-wave (km/s) = 4.11482 4.69657 4.41529
#
# Compressibility (1/GPa) = 0.07357854
#
# Stress axis : x y z
#
# Youngs Moduli (GPa) = 52.60967 15.15371 43.18873
#
# Poissons Ratio (x) = 0.07271 0.15993
# Poissons Ratio (y) = 0.25244 0.37945
# Poissons Ratio (z) = 0.19481 0.13314
#
# Static dielectric constant tensor:
#      x y z
#    x 1.713140 0.000000 0.000000 
#    y 0.000000 1.749950 0.000000 
#    z 0.000000 0.000000 1.831830 
# 
# From -- ./inp_files/19485.got.cif
#   From: 2010.05.17/outbox.cif.g08.bks.cpg/sg57_10_cif.got.tgz:19485.got - 2010.06.03 13:58:18.
