data_PCOD9438680
_publ_section_title
;
Structure prediction by ZEFSAII (Michael W. Deem and Ramdas Pophale) SiO2 
 PCOD9438680
Probable space group: P B C M
;
_chemical_formula_sum "Si O2"
_cell_formula_units_Z 48
_cell_length_a 13.176190
_cell_length_b 9.179077
_cell_length_c 21.761371
_cell_angle_alpha 90.000000
_cell_angle_beta 90.000000
_cell_angle_gamma 90.000000
_cell_volume 2631.934730
_symmetry_space_group_name_H-M "P B C M"
_symmetry_group_IT_number 57
_symmetry_cell_setting 'orthorhombic'
loop_
_space_group_symop_operation_xyz
x,y,z
-x,-y,1/2+z
x,1/2-y,-z
-x,1/2+y,1/2-z
-x,-y,-z
x,y,1/2-z
-x,1/2+y,z
x,1/2-y,1/2+z
loop_
_atom_site_type_symbol
_atom_site_label
_atom_site_fract_x
_atom_site_fract_y
_atom_site_fract_z
Si Si1 0.939780 0.603597 0.250000
Si Si2 0.258611 0.824292 0.625145
Si Si3 0.091231 0.014711 0.924841
Si Si4 0.790736 0.049295 0.958943
Si Si5 0.152680 0.730713 0.750000
Si Si6 0.591116 0.407311 0.970457
Si Si7 0.898136 0.664421 0.383432
O O1 0.903913 0.430712 0.250000
O O2 0.894664 0.678174 0.310702
O O3 0.060104 0.649591 0.250000
O O4 0.221147 0.702413 0.575595
O O5 0.225757 0.755756 0.690631
O O6 0.371140 0.873526 0.600490
O O7 0.186078 0.962376 0.616061
O O8 0.084063 0.186876 0.919094
O O9 0.115780 0.961291 0.993694
O O10 0.993515 0.939943 0.896347
O O11 0.802935 0.921942 0.909894
O O12 0.692229 0.025122 0.999855
O O13 0.575828 0.250000 0.000000
O O14 0.500000 0.500000 0.000000
#
# Coordination Sequence:
#
# PCOD9438680 Si02
#       7
#     4   8   8   8   4   8   8
#     4  12  24  36  56  77 119 168 212 245 285 359
#     4  10  21  38  59  84 115 158 199 247 303 369
#     4  11  22  34  52  77 116 155 198 249 293 356
#     4  10  21  38  55  84 112 151 197 244 310 363
#     4  12  22  40  58  79 123 168 214 241 289 363
#     4   9  20  38  64  88 114 144 189 250 317 374
#     4  12  22  35  51  79 115 161 198 248 297 352
#
# _framework density 18.237534
#
# number of rings (size 3 to 8) (size 9 to 14) (size 15 to 20)
#    0.000    1.333    3.333    4.500    0.000    4.000 
#    0.000    0.000    0.000    5.000    0.000    0.000 
#    0.000    0.000    0.000    0.000    0.000    0.000 
#
# Total GULP energy -267258.757037 kJ/mol
# GULP energy per Si atom -5567.890772 kJ/mol
# Density = 1.819602 g / cm^3
# Si number density = 18.237534 Si / 1000 Ang^3
#
#
#
# Elastic Constant Matrix: (Units=GPa)
#
#
# Indices 1 2 3 4 5 6 
#
# 1 61.4309 29.6540 24.2006 0.0000 0.0000 0.0000
# 2 29.6540 80.6095 10.1262 0.0000 0.0000 0.0000
# 3 24.2006 10.1262 117.4362 0.0000 0.0000 0.0000
# 4 0.0000 0.0000 0.0000 25.1155 0.0000 0.0000
# 5 0.0000 0.0000 0.0000 0.0000 24.1253 0.0000
# 6 0.0000 0.0000 0.0000 0.0000 0.0000 19.6832
#
#
#
# Elastic Compliance Matrix: (Units=1/GPa)
#
#
# Indices 1 2 3 4 5 6 
#
# 1 0.021316 -0.007370 -0.003757 0.000000 0.000000 0.000000
# 2 -0.007370 0.015089 0.000218 0.000000 0.000000 0.000000
# 3 -0.003757 0.000218 0.009271 0.000000 0.000000 0.000000
# 4 0.000000 0.000000 0.000000 0.039816 0.000000 0.000000
# 5 0.000000 0.000000 0.000000 0.000000 0.041450 0.000000
# 6 0.000000 0.000000 0.000000 0.000000 0.000000 0.050805
#
#
# Mechanical properties :
#
#
# Convention : Reuss Voigt Hill
#
# Bulk Modulus (GPa) = 41.91544 43.04868 42.48206
# Shear Modulus (GPa) = 24.09430 26.81787 25.45609
#
# Velocity S-wave (km/s) = 3.63869 3.83884 3.74010
# Velocity P-wave (km/s) = 6.37859 6.58062 6.48039
#
# Compressibility (1/GPa) = 0.02385756
#
# Stress axis : x y z
#
# Youngs Moduli (GPa) = 46.91295 66.27247 107.86589
#
# Poissons Ratio (x) = 0.48840 0.40528
# Poissons Ratio (y) = 0.34573 -0.02347
# Poissons Ratio (z) = 0.17626 -0.01442
#
# Static dielectric constant tensor:
#      x y z
#    x 1.676720 0.000000 0.000000 
#    y 0.000000 1.641880 0.000000 
#    z 0.000000 0.000000 1.681850 
# 
# From -- ./inp_files/25275.got.cif
#   From: 2010.05.17/outbox.cif.g08.bks.cpg/sg57_13_cif.got.tgz:25275.got - 2010.06.03 13:58:18.
