data_PCOD9438717
_publ_section_title
;
Structure prediction by ZEFSAII (Michael W. Deem and Ramdas Pophale) SiO2 
 PCOD9438717
Probable space group: P B C M
;
_chemical_formula_sum "Si O2"
_cell_formula_units_Z 28
_cell_length_a 17.250208
_cell_length_b 5.286902
_cell_length_c 14.053958
_cell_angle_alpha 90.000000
_cell_angle_beta 90.000000
_cell_angle_gamma 90.000000
_cell_volume 1281.723207
_symmetry_space_group_name_H-M "P B C M"
_symmetry_group_IT_number 57
_symmetry_cell_setting 'orthorhombic'
loop_
_space_group_symop_operation_xyz
x,y,z
-x,-y,1/2+z
x,1/2-y,-z
-x,1/2+y,1/2-z
-x,-y,-z
x,y,1/2-z
-x,1/2+y,z
x,1/2-y,1/2+z
loop_
_atom_site_type_symbol
_atom_site_label
_atom_site_fract_x
_atom_site_fract_y
_atom_site_fract_z
Si Si1 0.449398 0.012775 0.360476
Si Si2 0.333959 0.750000 0.000000
Si Si3 0.812275 0.491240 0.558567
Si Si4 0.966654 0.615877 0.859190
O O1 0.422605 0.994019 0.250000
O O2 0.514023 0.790831 0.373064
O O3 0.384765 0.940234 0.437329
O O4 0.276226 0.899245 0.927530
O O5 0.843921 0.250000 0.500000
O O6 0.876385 0.543939 0.637296
O O7 0.807690 0.750000 0.500000
O O8 0.992446 0.646066 0.750000
O O9 0.983145 0.889405 0.902592
#
# Coordination Sequence:
#
# PCOD9438717 Si02
#       4
#     8   4   8   8
#     4  10  22  39  62  88 113 151 195 234 280 337
#     4  10  24  38  60  86 122 152 186 234 292 340
#     4  10  23  37  54  86 112 149 189 226 292 339
#     4  10  21  38  59  81 110 150 194 241 284 330
#
# _framework density 21.845589
#
# number of rings (size 3 to 8) (size 9 to 14) (size 15 to 20)
#    0.857    1.143    0.000    2.571    4.000    4.571 
#    0.000    1.429    0.000    0.000    0.000    0.000 
#    0.000    0.000    0.000    0.000    0.000    0.000 
#
# Total GULP energy -156040.866100 kJ/mol
# GULP energy per Si atom -5572.888075 kJ/mol
# Density = 2.179587 g / cm^3
# Si number density = 21.845589 Si / 1000 Ang^3
#
#
#
# Elastic Constant Matrix: (Units=GPa)
#
#
# Indices 1 2 3 4 5 6 
#
# 1 83.6694 3.8389 16.3420 0.0000 0.0000 0.0000
# 2 3.8389 126.9618 8.9706 0.0000 0.0000 0.0000
# 3 16.3420 8.9706 41.1977 0.0000 0.0000 0.0000
# 4 0.0000 0.0000 0.0000 21.0774 0.0000 0.0000
# 5 0.0000 0.0000 0.0000 0.0000 0.5061 0.0000
# 6 0.0000 0.0000 0.0000 0.0000 0.0000 1.4014
#
#
#
# Elastic Compliance Matrix: (Units=1/GPa)
#
#
# Indices 1 2 3 4 5 6 
#
# 1 0.012956 -0.000029 -0.005133 0.000000 0.000000 0.000000
# 2 -0.000029 0.008000 -0.001730 0.000000 0.000000 0.000000
# 3 -0.005133 -0.001730 0.026686 0.000000 0.000000 0.000000
# 4 0.000000 0.000000 0.000000 0.047444 0.000000 0.000000
# 5 0.000000 0.000000 0.000000 0.000000 1.975807 0.000000
# 6 0.000000 0.000000 0.000000 0.000000 0.000000 0.713591
#
#
# Mechanical properties :
#
#
# Convention : Reuss Voigt Hill
#
# Bulk Modulus (GPa) = 29.53618 34.45909 31.99764
# Shear Modulus (GPa) = 1.77964 19.44213 10.61089
#
# Velocity S-wave (km/s) = 0.90356 2.98649 2.20630
# Velocity P-wave (km/s) = 3.82601 5.26311 4.60101
#
# Compressibility (1/GPa) = 0.03385678
#
# Stress axis : x y z
#
# Youngs Moduli (GPa) = 77.18631 125.00745 37.47277
#
# Poissons Ratio (x) = 0.00363 0.19234
# Poissons Ratio (y) = 0.00224 0.06484
# Poissons Ratio (z) = 0.39618 0.21630
#
# Static dielectric constant tensor:
#      x y z
#    x 1.815760 0.000000 0.000000 
#    y 0.000000 1.790960 0.000000 
#    z 0.000000 0.000000 1.808790 
# 
# From -- ./inp_files/18719.got.cif
#   From: 2010.05.17/outbox.cif.g08.bks.cpg/sg57_10_cif.got.tgz:18719.got - 2010.06.03 13:58:18.
