data_PCOD9438706
_publ_section_title
;
Structure prediction by ZEFSAII (Michael W. Deem and Ramdas Pophale) SiO2 
 PCOD9438706
Probable space group: P B C M
;
_chemical_formula_sum "Si O2"
_cell_formula_units_Z 48
_cell_length_a 8.242757
_cell_length_b 19.721101
_cell_length_c 14.970850
_cell_angle_alpha 90.000000
_cell_angle_beta 90.000000
_cell_angle_gamma 90.000000
_cell_volume 2433.605135
_symmetry_space_group_name_H-M "P B C M"
_symmetry_group_IT_number 57
_symmetry_cell_setting 'orthorhombic'
loop_
_space_group_symop_operation_xyz
x,y,z
-x,-y,1/2+z
x,1/2-y,-z
-x,1/2+y,1/2-z
-x,-y,-z
x,y,1/2-z
-x,1/2+y,z
x,1/2-y,1/2+z
loop_
_atom_site_type_symbol
_atom_site_label
_atom_site_fract_x
_atom_site_fract_y
_atom_site_fract_z
Si Si1 0.389288 0.683831 0.857012
Si Si2 0.985406 0.314360 0.357948
Si Si3 0.049294 0.921995 0.508456
Si Si4 0.789736 0.913815 0.855404
Si Si5 0.307579 0.229212 0.358406
Si Si6 0.371445 0.957302 0.054632
O O1 0.395189 0.685516 0.750000
O O2 0.202818 0.705843 0.879009
O O3 0.536123 0.730001 0.891703
O O4 0.424746 0.606612 0.887005
O O5 0.993574 0.327437 0.250000
O O6 0.006113 0.380457 0.420829
O O7 0.133397 0.263575 0.381549
O O8 0.241952 0.923096 0.512089
O O9 0.959315 0.898102 0.596416
O O10 0.000000 0.000000 0.500000
O O11 0.807778 0.913585 0.750000
O O12 0.681887 0.849555 0.884656
O O13 0.719712 0.986051 0.885644
O O14 0.311012 0.230866 0.250000
O O15 0.500000 0.000000 0.000000
#
# Coordination Sequence:
#
# PCOD9438706 Si02
#       6
#     8   8   8   8   8   8
#     4   9  18  35  59  84 115 155 200 246 301 363
#     4   9  18  35  58  84 116 153 193 248 300 356
#     4   9  20  35  56  84 112 150 197 242 294 362
#     4  10  21  40  60  84 123 163 199 253 313 357
#     4   9  19  35  60  88 115 157 207 247 301 367
#     4  10  21  38  58  84 122 154 201 254 302 362
#
# _framework density 19.723825000000001
#
# number of rings (size 3 to 8) (size 9 to 14) (size 15 to 20)
#    0.000    2.667    0.000    0.500    4.667    4.667 
#    3.000    1.667    0.000    0.000    0.000    0.000 
#    0.000    0.000    0.000    0.000    0.000    0.000 
#
# Total GULP energy -267289.465557 kJ/mol
# GULP energy per Si atom -5568.530532 kJ/mol
# Density = 1.967893 g / cm^3
# Si number density = 19.723825 Si / 1000 Ang^3
#
#
#
# Elastic Constant Matrix: (Units=GPa)
#
#
# Indices 1 2 3 4 5 6 
#
# 1 82.6651 40.7709 36.5262 0.0000 0.0000 0.0000
# 2 40.7709 94.9984 17.5135 0.0000 0.0000 0.0000
# 3 36.5262 17.5135 60.0476 0.0000 0.0000 0.0000
# 4 0.0000 0.0000 0.0000 17.8461 0.0000 0.0000
# 5 0.0000 0.0000 0.0000 0.0000 19.0444 0.0000
# 6 0.0000 0.0000 0.0000 0.0000 0.0000 27.9043
#
#
#
# Elastic Compliance Matrix: (Units=1/GPa)
#
#
# Indices 1 2 3 4 5 6 
#
# 1 0.019859 -0.006654 -0.010139 0.000000 0.000000 0.000000
# 2 -0.006654 0.013354 0.000153 0.000000 0.000000 0.000000
# 3 -0.010139 0.000153 0.022777 0.000000 0.000000 0.000000
# 4 0.000000 0.000000 0.000000 0.056035 0.000000 0.000000
# 5 0.000000 0.000000 0.000000 0.000000 0.052509 0.000000
# 6 0.000000 0.000000 0.000000 0.000000 0.000000 0.035837
#
#
# Mechanical properties :
#
#
# Convention : Reuss Voigt Hill
#
# Bulk Modulus (GPa) = 44.03636 47.48138 45.75887
# Shear Modulus (GPa) = 20.72802 22.48568 21.60685
#
# Velocity S-wave (km/s) = 3.24530 3.38009 3.31338
# Velocity P-wave (km/s) = 6.03469 6.27365 6.15533
#
# Compressibility (1/GPa) = 0.02270851
#
# Stress axis : x y z
#
# Youngs Moduli (GPa) = 50.35578 74.88425 43.90488
#
# Poissons Ratio (x) = 0.49825 0.44516
# Poissons Ratio (y) = 0.33505 -0.00670
# Poissons Ratio (z) = 0.51057 -0.01142
#
# Static dielectric constant tensor:
#      x y z
#    x 1.779510 0.000000 0.000000 
#    y 0.000000 1.697130 0.000000 
#    z 0.000000 0.000000 1.703740 
# 
# From -- ./inp_files/16369.got.cif
#   From: 2010.05.17/outbox.cif.g08.bks.cpg/sg57_9_cif.got.tgz:16369.got - 2010.06.03 13:58:18.
