data_PCOD9438154
_publ_section_title
;
Structure prediction by ZEFSAII (Michael W. Deem and Ramdas Pophale) SiO2 
 PCOD9438154
Probable space group: P B C M
;
_chemical_formula_sum "Si O2"
_cell_formula_units_Z 48
_cell_length_a 15.561526
_cell_length_b 19.524155
_cell_length_c 8.507747
_cell_angle_alpha 90.000000
_cell_angle_beta 90.000000
_cell_angle_gamma 90.000000
_cell_volume 2584.871725
_symmetry_space_group_name_H-M "P B C M"
_symmetry_group_IT_number 57
_symmetry_cell_setting 'orthorhombic'
loop_
_space_group_symop_operation_xyz
x,y,z
-x,-y,1/2+z
x,1/2-y,-z
-x,1/2+y,1/2-z
-x,-y,-z
x,y,1/2-z
-x,1/2+y,z
x,1/2-y,1/2+z
loop_
_atom_site_type_symbol
_atom_site_label
_atom_site_fract_x
_atom_site_fract_y
_atom_site_fract_z
Si Si1 0.025596 0.424852 0.939001
Si Si2 0.876357 0.327142 0.438624
Si Si3 0.470914 0.925781 0.561659
Si Si4 0.624810 0.672992 0.440011
Si Si5 0.280482 0.576581 0.939998
Si Si6 0.221166 0.075526 0.058629
O O1 0.023346 0.425515 0.750000
O O2 0.123576 0.410284 0.990537
O O3 0.000000 0.500000 0.000000
O O4 0.958294 0.369559 0.001380
O O5 0.876594 0.250000 0.500000
O O6 0.877855 0.326934 0.250000
O O7 0.790651 0.368189 0.489747
O O8 0.471777 0.927895 0.750000
O O9 0.540696 0.869558 0.509410
O O10 0.375364 0.909866 0.503233
O O11 0.500000 0.000000 0.500000
O O12 0.624211 0.750000 0.500000
O O13 0.625584 0.673712 0.250000
O O14 0.709064 0.631051 0.493699
O O15 0.283787 0.576369 0.750000
O O16 0.249982 0.500671 0.990679
O O17 0.221969 0.075310 0.250000
#
# Coordination Sequence:
#
# PCOD9438154 Si02
#       6
#     8   8   8   8   8   8
#     4  11  21  37  63  92 122 159 203 250 302 363
#     4  11  24  42  62  88 124 163 201 252 313 365
#     4  11  22  37  61  90 119 155 200 246 295 355
#     4  10  22  40  59  83 119 154 190 238 295 351
#     4  10  20  39  63  86 118 157 198 246 300 354
#     4   9  18  37  61  85 117 155 193 241 296 348
#
# _framework density 18.569589000000001
#
# number of rings (size 3 to 8) (size 9 to 14) (size 15 to 20)
#    0.000    1.667    3.333    1.500    0.000    4.000 
#    0.000    6.667    0.000    0.000    0.000    0.000 
#    0.000    0.000    0.000    0.000    0.000    0.000 
#
# Total GULP energy -268165.428506 kJ/mol
# GULP energy per Si atom -5586.779761 kJ/mol
# Density = 1.852732 g / cm^3
# Si number density = 18.569589 Si / 1000 Ang^3
#
#
#
# Elastic Constant Matrix: (Units=GPa)
#
#
# Indices 1 2 3 4 5 6 
#
# 1 232.2119 127.2085 39.4843 0.0000 0.0000 0.0000
# 2 127.2085 198.6588 34.2839 0.0000 0.0000 0.0000
# 3 39.4843 34.2839 29.5950 0.0000 0.0000 0.0000
# 4 0.0000 0.0000 0.0000 32.9866 0.0000 0.0000
# 5 0.0000 0.0000 0.0000 0.0000 29.2082 0.0000
# 6 0.0000 0.0000 0.0000 0.0000 0.0000 35.1049
#
#
#
# Elastic Compliance Matrix: (Units=1/GPa)
#
#
# Indices 1 2 3 4 5 6 
#
# 1 0.007258 -0.003720 -0.005374 0.000000 0.000000 0.000000
# 2 -0.003720 0.008198 -0.004534 0.000000 0.000000 0.000000
# 3 -0.005374 -0.004534 0.046211 0.000000 0.000000 0.000000
# 4 0.000000 0.000000 0.000000 0.030315 0.000000 0.000000
# 5 0.000000 0.000000 0.000000 0.000000 0.034237 0.000000
# 6 0.000000 0.000000 0.000000 0.000000 0.000000 0.028486
#
#
# Mechanical properties :
#
#
# Convention : Reuss Voigt Hill
#
# Bulk Modulus (GPa) = 29.05979 95.82432 62.44205
# Shear Modulus (GPa) = 25.84876 36.75921 31.30399
#
# Velocity S-wave (km/s) = 3.73499 4.45403 4.11026
# Velocity P-wave (km/s) = 5.85520 8.84115 7.49831
#
# Compressibility (1/GPa) = 0.03441182
#
# Stress axis : x y z
#
# Youngs Moduli (GPa) = 137.77591 121.97451 21.63974
#
# Poissons Ratio (x) = 0.45378 0.11629
# Poissons Ratio (y) = 0.51256 0.09811
# Poissons Ratio (z) = 0.74038 0.55302
#
# Static dielectric constant tensor:
#      x y z
#    x 1.634000 0.000000 0.000000 
#    y 0.000000 1.599720 0.000000 
#    z 0.000000 0.000000 1.642450 
# 
# From -- ./inp_files/4610.got.cif
#   From: 2010.05.17/outbox.cif.g08.bks.cpg/sg57_3_cif.got.tgz:4610.got - 2010.06.03 13:58:18.
