data_PCOD9438251
_publ_section_title
;
Structure prediction by ZEFSAII (Michael W. Deem and Ramdas Pophale) SiO2 
 PCOD9438251
Probable space group: P B C M
;
_chemical_formula_sum "Si O2"
_cell_formula_units_Z 60
_cell_length_a 19.702927
_cell_length_b 9.020570
_cell_length_c 17.138247
_cell_angle_alpha 90.000000
_cell_angle_beta 90.000000
_cell_angle_gamma 90.000000
_cell_volume 3046.008613
_symmetry_space_group_name_H-M "P B C M"
_symmetry_group_IT_number 57
_symmetry_cell_setting 'orthorhombic'
loop_
_space_group_symop_operation_xyz
x,y,z
-x,-y,1/2+z
x,1/2-y,-z
-x,1/2+y,1/2-z
-x,-y,-z
x,y,1/2-z
-x,1/2+y,z
x,1/2-y,1/2+z
loop_
_atom_site_type_symbol
_atom_site_label
_atom_site_fract_x
_atom_site_fract_y
_atom_site_fract_z
Si Si1 0.691221 0.817861 0.841611
Si Si2 0.593661 0.491891 0.447786
Si Si3 0.793243 0.261779 0.843144
Si Si4 0.947015 0.255834 0.159653
Si Si5 0.046786 0.054140 0.429536
Si Si6 0.200888 0.454577 0.937374
Si Si7 0.493208 0.750000 0.000000
Si Si8 0.299694 0.009275 0.580344
O O1 0.685143 0.829394 0.750000
O O2 0.644738 0.942551 0.883500
O O3 0.767192 0.849401 0.871774
O O4 0.676137 0.651826 0.870980
O O5 0.552222 0.340284 0.437319
O O6 0.540778 0.625126 0.462223
O O7 0.637121 0.462128 0.526468
O O8 0.786395 0.226339 0.750000
O O9 0.871893 0.313178 0.854808
O O10 0.737380 0.382200 0.869256
O O11 0.789027 0.119194 0.900106
O O12 0.962324 0.237360 0.250000
O O13 0.944249 0.427004 0.135754
O O14 0.006037 0.187175 0.108356
O O15 0.123432 0.081763 0.455167
O O16 0.000000 0.000000 0.500000
O O17 0.244329 0.441496 0.015784
#
# Coordination Sequence:
#
# PCOD9438251 Si02
#       8
#     8   8   8   8   8   8   4   8
#     4  11  23  40  59  88 128 161 198 254 301 347
#     4  10  21  39  65  94 120 161 201 241 282 354
#     4  10  21  37  57  85 116 151 198 257 312 365
#     4  10  22  38  55  78 114 153 195 246 313 380
#     4  11  22  37  57  82 111 150 199 258 306 359
#     4  10  22  38  57  82 116 156 202 251 309 368
#     4  10  20  40  68  92 124 156 202 234 290 348
#     4  11  21  37  61  91 116 158 204 250 291 361
#
# _framework density 19.697908000000002
#
# number of rings (size 3 to 8) (size 9 to 14) (size 15 to 20)
#    0.000    1.600    1.333    4.000    3.733    6.933 
#    0.000    0.667    0.000    0.000    0.000    0.000 
#    0.000    0.000    0.000    0.000    0.000    0.000 
#
# Total GULP energy -334854.258516 kJ/mol
# GULP energy per Si atom -5580.904309 kJ/mol
# Density = 1.965308 g / cm^3
# Si number density = 19.697908 Si / 1000 Ang^3
#
#
#
# Elastic Constant Matrix: (Units=GPa)
#
#
# Indices 1 2 3 4 5 6 
#
# 1 93.7637 23.9290 24.8755 0.0000 0.0000 0.0000
# 2 23.9290 55.6547 13.7483 0.0000 0.0000 0.0000
# 3 24.8755 13.7483 88.4568 0.0000 0.0000 0.0000
# 4 0.0000 0.0000 0.0000 22.8880 0.0000 0.0000
# 5 0.0000 0.0000 0.0000 0.0000 14.8673 0.0000
# 6 0.0000 0.0000 0.0000 0.0000 0.0000 38.5485
#
#
#
# Elastic Compliance Matrix: (Units=1/GPa)
#
#
# Indices 1 2 3 4 5 6 
#
# 1 0.012619 -0.004731 -0.002813 0.000000 0.000000 0.000000
# 2 -0.004731 0.020459 -0.001849 0.000000 0.000000 0.000000
# 3 -0.002813 -0.001849 0.012384 0.000000 0.000000 0.000000
# 4 0.000000 0.000000 0.000000 0.043691 0.000000 0.000000
# 5 0.000000 0.000000 0.000000 0.000000 0.067262 0.000000
# 6 0.000000 0.000000 0.000000 0.000000 0.000000 0.025941
#
#
# Mechanical properties :
#
#
# Convention : Reuss Voigt Hill
#
# Bulk Modulus (GPa) = 37.48923 40.33120 38.91021
# Shear Modulus (GPa) = 23.80574 26.94890 25.37732
#
# Velocity S-wave (km/s) = 3.48018 3.70281 3.59322
# Velocity P-wave (km/s) = 5.93484 6.22900 6.08369
#
# Compressibility (1/GPa) = 0.02667433
#
# Stress axis : x y z
#
# Youngs Moduli (GPa) = 79.24716 48.87888 80.75222
#
# Poissons Ratio (x) = 0.23122 0.22718
# Poissons Ratio (y) = 0.37488 0.14935
# Poissons Ratio (z) = 0.22295 0.09040
#
# Static dielectric constant tensor:
#      x y z
#    x 1.734430 0.000000 0.000000 
#    y 0.000000 1.719080 0.000000 
#    z 0.000000 0.000000 1.667070 
# 
# From -- ./inp_files/22893.got.cif
#   From: 2010.05.17/outbox.cif.g08.bks.cpg/sg57_12_cif.got.tgz:22893.got - 2010.06.03 13:58:18.
