data_PCOD9438128
_publ_section_title
;
Structure prediction by ZEFSAII (Michael W. Deem and Ramdas Pophale) SiO2 
 PCOD9438128
Probable space group: P B C M
;
_chemical_formula_sum "Si O2"
_cell_formula_units_Z 24
_cell_length_a 5.165158
_cell_length_b 8.488838
_cell_length_c 20.027673
_cell_angle_alpha 90.000000
_cell_angle_beta 90.000000
_cell_angle_gamma 90.000000
_cell_volume 878.137146
_symmetry_space_group_name_H-M "P B C M"
_symmetry_group_IT_number 57
_symmetry_cell_setting 'orthorhombic'
loop_
_space_group_symop_operation_xyz
x,y,z
-x,-y,1/2+z
x,1/2-y,-z
-x,1/2+y,1/2-z
-x,-y,-z
x,y,1/2-z
-x,1/2+y,z
x,1/2-y,1/2+z
loop_
_atom_site_type_symbol
_atom_site_label
_atom_site_fract_x
_atom_site_fract_y
_atom_site_fract_z
Si Si1 0.334801 0.118809 0.045584
Si Si2 0.004698 0.177852 0.250000
Si Si3 0.369365 0.408766 0.250000
Si Si4 0.288489 0.654064 0.631007
O O1 0.172349 0.992483 0.088869
O O2 0.190929 0.250000 0.000000
O O3 0.538797 0.275215 0.912186
O O4 0.500000 0.000000 0.000000
O O5 0.895720 0.004092 0.250000
O O6 0.898634 0.252253 0.180740
O O7 0.303758 0.222129 0.250000
O O8 0.519149 0.433567 0.182250
#
# Coordination Sequence:
#
# PCOD9438128 Si02
#       4
#     8   4   4   8
#     4   9  18  34  62  86 106 154 195 231 283 338
#     4  11  24  36  59  89 117 151 189 237 290 342
#     4  11  24  36  59  89 117 153 187 237 294 336
#     4  10  20  39  60  85 118 147 192 236 287 342
#
# _framework density 27.330582
#
# number of rings (size 3 to 8) (size 9 to 14) (size 15 to 20)
#    0.000    2.000    3.333    0.000    4.667    0.000 
#    0.000    0.000    0.000   40.000    0.000    0.000 
#    0.000    0.000    0.000    0.000    0.000    0.000 
#
# Total GULP energy -134257.081560 kJ/mol
# GULP energy per Si atom -5594.045065 kJ/mol
# Density = 2.726838 g / cm^3
# Si number density = 27.330582 Si / 1000 Ang^3
#
#
#
# Elastic Constant Matrix: (Units=GPa)
#
#
# Indices 1 2 3 4 5 6 
#
# 1 12.1998 11.3521 5.8487 0.0000 0.0000 0.0000
# 2 11.3521 184.2478 87.1476 0.0000 0.0000 0.0000
# 3 5.8487 87.1476 122.9873 0.0000 0.0000 0.0000
# 4 0.0000 0.0000 0.0000 84.0073 0.0000 0.0000
# 5 0.0000 0.0000 0.0000 0.0000 10.5407 0.0000
# 6 0.0000 0.0000 0.0000 0.0000 0.0000 40.1081
#
#
#
# Elastic Compliance Matrix: (Units=1/GPa)
#
#
# Indices 1 2 3 4 5 6 
#
# 1 0.086975 -0.005118 -0.000510 0.000000 0.000000 0.000000
# 2 -0.005118 0.008465 -0.005755 0.000000 0.000000 0.000000
# 3 -0.000510 -0.005755 0.012233 0.000000 0.000000 0.000000
# 4 0.000000 0.000000 0.000000 0.011904 0.000000 0.000000
# 5 0.000000 0.000000 0.000000 0.000000 0.094870 0.000000
# 6 0.000000 0.000000 0.000000 0.000000 0.000000 0.024933
#
#
# Mechanical properties :
#
#
# Convention : Reuss Voigt Hill
#
# Bulk Modulus (GPa) = 11.77736 58.68130 35.22933
# Shear Modulus (GPa) = 17.21489 41.27032 29.24260
#
# Velocity S-wave (km/s) = 2.51246 3.89014 3.27457
# Velocity P-wave (km/s) = 3.56864 6.45718 5.21681
#
# Compressibility (1/GPa) = 0.08490864
#
# Stress axis : x y z
#
# Youngs Moduli (GPa) = 11.49751 118.13798 81.74732
#
# Poissons Ratio (x) = 0.60460 0.04167
# Poissons Ratio (y) = 0.05884 0.47042
# Poissons Ratio (z) = 0.00586 0.67984
#
# Static dielectric constant tensor:
#      x y z
#    x 2.068830 0.000000 0.000000 
#    y 0.000000 2.107950 0.000000 
#    z 0.000000 0.000000 2.166960 
# 
# From -- ./inp_files/11148.got.cif
#   From: 2010.05.17/outbox.cif.g08.bks.cpg/sg57_6_cif.got.tgz:11148.got - 2010.06.03 13:58:18.
