data_PCOD9438486
_publ_section_title
;
Structure prediction by ZEFSAII (Michael W. Deem and Ramdas Pophale) SiO2 
 PCOD9438486
Probable space group: P B C M
;
_chemical_formula_sum "Si O2"
_cell_formula_units_Z 64
_cell_length_a 21.214815
_cell_length_b 7.620523
_cell_length_c 17.657937
_cell_angle_alpha 90.000000
_cell_angle_beta 90.000000
_cell_angle_gamma 90.000000
_cell_volume 2854.723105
_symmetry_space_group_name_H-M "P B C M"
_symmetry_group_IT_number 57
_symmetry_cell_setting 'orthorhombic'
loop_
_space_group_symop_operation_xyz
x,y,z
-x,-y,1/2+z
x,1/2-y,-z
-x,1/2+y,1/2-z
-x,-y,-z
x,y,1/2-z
-x,1/2+y,z
x,1/2-y,1/2+z
loop_
_atom_site_type_symbol
_atom_site_label
_atom_site_fract_x
_atom_site_fract_y
_atom_site_fract_z
Si Si1 0.459787 0.992666 0.661829
Si Si2 0.844769 0.188033 0.084826
Si Si3 0.289420 0.776486 0.090373
Si Si4 0.408507 0.593551 0.662274
Si Si5 0.212524 0.289223 0.084390
Si Si6 0.330695 0.404724 0.159974
Si Si7 0.963774 0.050735 0.161909
Si Si8 0.079393 0.199250 0.411308
O O1 0.469548 0.045271 0.750000
O O2 0.529934 0.997555 0.628889
O O3 0.402813 0.114163 0.631335
O O4 0.432833 0.795920 0.661533
O O5 0.784092 0.301093 0.110619
O O6 0.907745 0.180404 0.134612
O O7 0.817665 0.986765 0.083237
O O8 0.861431 0.250000 0.000000
O O9 0.343118 0.911114 0.116958
O O10 0.308545 0.593892 0.129631
O O11 0.291602 0.750000 0.000000
O O12 0.396256 0.541107 0.750000
O O13 0.273448 0.280613 0.136484
O O14 0.153142 0.164255 0.101286
O O15 0.234936 0.250000 0.000000
O O16 0.334720 0.410292 0.250000
O O17 0.977501 0.075883 0.250000
O O18 0.026013 0.063047 0.110598
O O19 0.937116 0.858967 0.144470
O O20 0.073648 0.250000 0.500000
#
# Coordination Sequence:
#
# PCOD9438486 Si02
#       8
#     8   8   8   8   8   8   8   8
#     4   8  15  28  47  70  94 127 168 206 248 299
#     4   9  19  35  54  72 101 140 171 203 252 315
#     4   9  17  30  48  73 100 128 164 210 253 295
#     4   9  16  29  48  67  93 129 168 207 247 298
#     4   9  19  34  54  79 102 130 173 217 253 297
#     4   9  17  32  54  75  99 135 175 210 251 308
#     4  11  22  35  55  82 107 131 171 220 255 291
#     4  10  21  37  55  76 105 142 172 203 254 315
#
# _framework density 22.418984999999999
#
# number of rings (size 3 to 8) (size 9 to 14) (size 15 to 20)
#    0.000    2.750    0.000    2.250    0.000    7.500 
#    0.000    6.875    0.000    0.750    0.000    2.625 
#    0.000    0.000    0.000    0.000    0.000    0.000 
#
# Total GULP energy -356911.943422 kJ/mol
# GULP energy per Si atom -5576.749116 kJ/mol
# Density = 2.236796 g / cm^3
# Si number density = 22.418985 Si / 1000 Ang^3
#
#
#
# Elastic Constant Matrix: (Units=GPa)
#
#
# Indices 1 2 3 4 5 6 
#
# 1 57.3323 73.2412 18.2178 0.0000 0.0000 0.0000
# 2 73.2412 4.9371 28.6654 0.0000 0.0000 0.0000
# 3 18.2178 28.6654 43.9634 0.0000 0.0000 0.0000
# 4 0.0000 0.0000 0.0000 19.8726 0.0000 0.0000
# 5 0.0000 0.0000 0.0000 0.0000 -12.0172 0.0000
# 6 0.0000 0.0000 0.0000 0.0000 0.0000 1.5445
#
#
#
# Elastic Compliance Matrix: (Units=1/GPa)
#
#
# Indices 1 2 3 4 5 6 
#
# 1 0.003091 0.013789 -0.010272 0.000000 0.000000 0.000000
# 2 0.013789 -0.011187 0.001580 0.000000 0.000000 0.000000
# 3 -0.010272 0.001580 0.025972 0.000000 0.000000 0.000000
# 4 0.000000 0.000000 0.000000 0.050321 0.000000 0.000000
# 5 0.000000 0.000000 0.000000 0.000000 -0.083214 0.000000
# 6 0.000000 0.000000 0.000000 0.000000 0.000000 0.647458
#
#
# Mechanical properties :
#
#
# Convention : Reuss Voigt Hill
#
# Bulk Modulus (GPa) = 35.62349 38.49794 37.06072
# Shear Modulus (GPa) = 7.91638 0.95388 4.43513
#
# Velocity S-wave (km/s) = 1.88116 0.65299 1.40804
# Velocity P-wave (km/s) = 4.54343 4.21638 4.38295
#
# Compressibility (1/GPa) = 0.02807136
#
# Stress axis : x y z
#
# Youngs Moduli (GPa) = 323.55842 -89.38913 38.50264
#
# Poissons Ratio (x) = 1.23260 0.39548
# Poissons Ratio (y) = -4.46159 -0.06084
# Poissons Ratio (z) = 3.32347 0.14126
#
# Static dielectric constant tensor:
#      x y z
#    x 1.907480 0.000000 0.000000 
#    y 0.000000 1.912160 0.000000 
#    z 0.000000 0.000000 1.758970 
# 
# From -- ./inp_files/23084.got.cif
#   From: 2010.05.17/outbox.cif.g08.bks.cpg/sg57_12_cif.got.tgz:23084.got - 2010.06.03 13:58:18.
