data_PCOD9438972
_publ_section_title
;
Structure prediction by ZEFSAII (Michael W. Deem and Ramdas Pophale) SiO2 
 PCOD9438972
Probable space group: P B C M
;
_chemical_formula_sum "Si O2"
_cell_formula_units_Z 56
_cell_length_a 13.787730
_cell_length_b 21.656940
_cell_length_c 7.737039
_cell_angle_alpha 90.000000
_cell_angle_beta 90.000000
_cell_angle_gamma 90.000000
_cell_volume 2310.280165
_symmetry_space_group_name_H-M "P B C M"
_symmetry_group_IT_number 57
_symmetry_cell_setting 'orthorhombic'
loop_
_space_group_symop_operation_xyz
x,y,z
-x,-y,1/2+z
x,1/2-y,-z
-x,1/2+y,1/2-z
-x,-y,-z
x,y,1/2-z
-x,1/2+y,z
x,1/2-y,1/2+z
loop_
_atom_site_type_symbol
_atom_site_label
_atom_site_fract_x
_atom_site_fract_y
_atom_site_fract_z
Si Si1 0.708739 0.317209 0.542249
Si Si2 0.576851 0.552492 0.442424
Si Si3 0.665207 0.680473 0.458671
Si Si4 0.703033 0.051622 0.051481
Si Si5 0.070736 0.818290 0.543159
Si Si6 0.111989 0.503721 0.954213
Si Si7 0.130504 0.132508 0.039126
O O1 0.666034 0.250000 0.500000
O O2 0.711559 0.321010 0.750000
O O3 0.662695 0.382468 0.486336
O O4 0.819488 0.318598 0.471599
O O5 0.500000 0.500000 0.500000
O O6 0.546585 0.569019 0.250000
O O7 0.605266 0.619412 0.523358
O O8 0.669988 0.507463 0.445214
O O9 0.630006 0.750000 0.500000
O O10 0.667094 0.675262 0.250000
O O11 0.777882 0.673129 0.519064
O O12 0.675039 0.041545 0.250000
O O13 0.820303 0.054012 0.044027
O O14 0.034633 0.750000 0.500000
O O15 0.078016 0.826812 0.750000
O O16 0.979768 0.857303 0.476249
O O17 0.120624 0.512501 0.750000
O O18 0.152800 0.437403 0.008447
O O19 0.000000 0.500000 0.000000
O O20 0.126116 0.136919 0.250000
#
# Coordination Sequence:
#
# PCOD9438972 Si02
#       7
#     8   8   8   8   8   8   8
#     4   9  19  34  53  80 115 157 206 257 306 360
#     4  11  24  45  70  97 127 163 206 257 317 381
#     4  10  21  39  63  93 127 161 200 253 316 379
#     4  11  22  39  62  90 122 160 207 258 313 375
#     4   9  16  28  46  69 105 152 197 241 292 347
#     4  11  21  35  54  82 123 169 217 264 311 366
#     4   9  17  32  51  75 115 160 200 252 310 361
#
# _framework density 24.239484999999998
#
# number of rings (size 3 to 8) (size 9 to 14) (size 15 to 20)
#    0.000    2.000    1.429    2.571    0.000    4.571 
#    0.000    5.000    0.000    0.000    0.000    0.000 
#    0.000    0.000    0.000    0.000    0.000    0.000 
#
# Total GULP energy -312097.724975 kJ/mol
# GULP energy per Si atom -5573.173660 kJ/mol
# Density = 2.418431 g / cm^3
# Si number density = 24.239485 Si / 1000 Ang^3
#
#
#
# Elastic Constant Matrix: (Units=GPa)
#
#
# Indices 1 2 3 4 5 6 
#
# 1 56.2529 10.1029 -0.7292 0.0000 0.0000 0.0000
# 2 10.1029 168.6373 2.6918 0.0000 0.0000 0.0000
# 3 -0.7292 2.6918 47.0939 0.0000 0.0000 0.0000
# 4 0.0000 0.0000 0.0000 24.7550 0.0000 0.0000
# 5 0.0000 0.0000 0.0000 0.0000 13.7713 0.0000
# 6 0.0000 0.0000 0.0000 0.0000 0.0000 24.6236
#
#
#
# Elastic Compliance Matrix: (Units=1/GPa)
#
#
# Indices 1 2 3 4 5 6 
#
# 1 0.017976 -0.001082 0.000340 0.000000 0.000000 0.000000
# 2 -0.001082 0.006000 -0.000360 0.000000 0.000000 0.000000
# 3 0.000340 -0.000360 0.021260 0.000000 0.000000 0.000000
# 4 0.000000 0.000000 0.000000 0.040396 0.000000 0.000000
# 5 0.000000 0.000000 0.000000 0.000000 0.072615 0.000000
# 6 0.000000 0.000000 0.000000 0.000000 0.000000 0.040611
#
#
# Mechanical properties :
#
#
# Convention : Reuss Voigt Hill
#
# Bulk Modulus (GPa) = 23.23833 32.90171 28.07002
# Shear Modulus (GPa) = 23.21198 29.95789 26.58494
#
# Velocity S-wave (km/s) = 3.09789 3.51937 3.31533
# Velocity P-wave (km/s) = 4.73325 5.48796 5.12452
#
# Compressibility (1/GPa) = 0.04303235
#
# Stress axis : x y z
#
# Youngs Moduli (GPa) = 55.63082 166.65363 47.03665
#
# Poissons Ratio (x) = 0.18038 -0.01600
# Poissons Ratio (y) = 0.06021 0.01692
# Poissons Ratio (z) = -0.01892 0.05995
#
# Static dielectric constant tensor:
#      x y z
#    x 2.035370 0.000000 0.000000 
#    y 0.000000 1.934680 0.000000 
#    z 0.000000 0.000000 1.896740 
# 
# From -- ./inp_files/5222.got.cif
#   From: 2010.05.17/outbox.cif.g08.bks.cpg/sg57_3_cif.got.tgz:5222.got - 2010.06.03 13:58:18.
