data_PCOD9438027
_publ_section_title
;
Structure prediction by ZEFSAII (Michael W. Deem and Ramdas Pophale) SiO2 
 PCOD9438027
Probable space group: P B C M
;
_chemical_formula_sum "Si O2"
_cell_formula_units_Z 48
_cell_length_a 9.696805
_cell_length_b 30.657452
_cell_length_c 8.756881
_cell_angle_alpha 90.000000
_cell_angle_beta 90.000000
_cell_angle_gamma 90.000000
_cell_volume 2603.239750
_symmetry_space_group_name_H-M "P B C M"
_symmetry_group_IT_number 57
_symmetry_cell_setting 'orthorhombic'
loop_
_space_group_symop_operation_xyz
x,y,z
-x,-y,1/2+z
x,1/2-y,-z
-x,1/2+y,1/2-z
-x,-y,-z
x,y,1/2-z
-x,1/2+y,z
x,1/2-y,1/2+z
loop_
_atom_site_type_symbol
_atom_site_label
_atom_site_fract_x
_atom_site_fract_y
_atom_site_fract_z
Si Si1 0.156399 0.375198 0.432136
Si Si2 0.660328 0.797758 0.933701
Si Si3 0.850348 0.122048 0.433814
Si Si4 0.650697 0.050770 0.568022
Si Si5 0.341308 0.702737 0.066614
Si Si6 0.649051 0.947789 0.931701
O O1 0.152080 0.373383 0.250000
O O2 0.240236 0.333983 0.497405
O O3 0.238882 0.417934 0.486928
O O4 0.003006 0.375717 0.499394
O O5 0.670925 0.797465 0.750000
O O6 0.500307 0.807361 0.975759
O O7 0.692648 0.750000 0.000000
O O8 0.855599 0.120897 0.250000
O O9 0.769255 0.080000 0.495148
O O10 0.761382 0.164485 0.481678
O O11 0.644779 0.057441 0.750000
O O12 0.503400 0.062747 0.494385
O O13 0.673187 0.999209 0.539955
O O14 0.336801 0.705522 0.250000
O O15 0.305269 0.750000 0.000000
O O16 0.652590 0.939989 0.750000
#
# Coordination Sequence:
#
# PCOD9438027 Si02
#       6
#     8   8   8   8   8   8
#     4  12  25  39  57  84 117 155 197 241 291 345
#     4  10  20  38  62  88 116 148 190 238 290 347
#     4  11  23  39  58  83 118 157 193 235 291 349
#     4  10  21  38  62  90 116 147 191 239 287 344
#     4   9  20  37  60  86 111 144 186 232 281 336
#     4  10  21  39  62  87 116 151 191 237 289 345
#
# _framework density 18.438562000000001
#
# number of rings (size 3 to 8) (size 9 to 14) (size 15 to 20)
#    0.000    1.667    0.000    4.500    0.000    6.667 
#    0.000    1.667    0.000    0.000    0.000    0.000 
#    0.000    0.000    0.000    0.000    0.000    0.000 
#
# Total GULP energy -268346.726261 kJ/mol
# GULP energy per Si atom -5590.556797 kJ/mol
# Density = 1.839660 g / cm^3
# Si number density = 18.438562 Si / 1000 Ang^3
#
#
#
# Elastic Constant Matrix: (Units=GPa)
#
#
# Indices 1 2 3 4 5 6 
#
# 1 151.8469 98.4943 66.6003 0.0000 0.0000 0.0000
# 2 98.4943 101.6813 63.8379 0.0000 0.0000 0.0000
# 3 66.6003 63.8379 90.1660 0.0000 0.0000 0.0000
# 4 0.0000 0.0000 0.0000 35.6513 0.0000 0.0000
# 5 0.0000 0.0000 0.0000 0.0000 34.1571 0.0000
# 6 0.0000 0.0000 0.0000 0.0000 0.0000 -26.1690
#
#
#
# Elastic Compliance Matrix: (Units=1/GPa)
#
#
# Indices 1 2 3 4 5 6 
#
# 1 0.017861 -0.016235 -0.001699 0.000000 0.000000 0.000000
# 2 -0.016235 0.032461 -0.010991 0.000000 0.000000 0.000000
# 3 -0.001699 -0.010991 0.020127 0.000000 0.000000 0.000000
# 4 0.000000 0.000000 0.000000 0.028049 0.000000 0.000000
# 5 0.000000 0.000000 0.000000 0.000000 0.029276 0.000000
# 6 0.000000 0.000000 0.000000 0.000000 0.000000 -0.038213
#
#
# Mechanical properties :
#
#
# Convention : Reuss Voigt Hill
#
# Bulk Modulus (GPa) = 79.36234 89.06214 84.21224
# Shear Modulus (GPa) = 32.97907 16.37864 24.67886
#
# Velocity S-wave (km/s) = 4.23376 2.98364 3.66243
# Velocity P-wave (km/s) = 8.18747 7.76379 7.97844
#
# Compressibility (1/GPa) = 0.01260043
#
# Stress axis : x y z
#
# Youngs Moduli (GPa) = 55.98664 30.80602 49.68506
#
# Poissons Ratio (x) = 0.50014 0.08440
# Poissons Ratio (y) = 0.90895 0.54607
# Poissons Ratio (z) = 0.09510 0.33858
#
# Static dielectric constant tensor:
#      x y z
#    x 1.601250 0.000000 0.000000 
#    y 0.000000 1.620270 0.000000 
#    z 0.000000 0.000000 1.614220 
# 
# From -- ./inp_files/2016.got.cif
#   From: 2010.05.17/outbox.cif.g08.bks.cpg/sg57_2_cif.got.tgz:2016.got - 2010.06.03 13:58:18.
