data_PCOD9438324
_publ_section_title
;
Structure prediction by ZEFSAII (Michael W. Deem and Ramdas Pophale) SiO2 
 PCOD9438324
Probable space group: P B C M
;
_chemical_formula_sum "Si O2"
_cell_formula_units_Z 40
_cell_length_a 7.336002
_cell_length_b 6.803178
_cell_length_c 28.273597
_cell_angle_alpha 90.000000
_cell_angle_beta 90.000000
_cell_angle_gamma 90.000000
_cell_volume 1411.082282
_symmetry_space_group_name_H-M "P B C M"
_symmetry_group_IT_number 57
_symmetry_cell_setting 'orthorhombic'
loop_
_space_group_symop_operation_xyz
x,y,z
-x,-y,1/2+z
x,1/2-y,-z
-x,1/2+y,1/2-z
-x,-y,-z
x,y,1/2-z
-x,1/2+y,z
x,1/2-y,1/2+z
loop_
_atom_site_type_symbol
_atom_site_label
_atom_site_fract_x
_atom_site_fract_y
_atom_site_fract_z
Si Si1 0.143493 0.098242 0.750000
Si Si2 0.765741 0.623935 0.856595
Si Si3 0.352145 0.822304 0.150098
Si Si4 0.300544 0.584107 0.946018
Si Si5 0.741652 0.545857 0.541949
Si Si6 0.732519 0.153157 0.750000
O O1 0.169110 0.187868 0.696314
O O2 0.250312 0.890559 0.750000
O O3 0.930046 0.060596 0.750000
O O4 0.561850 0.706273 0.861666
O O5 0.748558 0.386186 0.850163
O O6 0.838794 0.635167 0.911284
O O7 0.263071 0.952854 0.109211
O O8 0.359778 0.909190 0.202078
O O9 0.242405 0.809097 0.952714
O O10 0.521663 0.582710 0.953382
O O11 0.218044 0.438904 0.985337
#
# Coordination Sequence:
#
# PCOD9438324 Si02
#       6
#     4   8   8   8   8   4
#     4  10  21  34  46  62  86 116 149 182 216 256
#     4   9  17  29  46  68  90 112 142 178 214 255
#     4   9  17  29  46  68  90 112 142 178 214 255
#     4   8  13  22  38  61  87 111 134 165 207 251
#     4   8  13  22  38  61  87 111 134 165 207 251
#     4  10  21  34  46  62  86 116 149 182 216 256
#
# _framework density 28.347037
#
# number of rings (size 3 to 8) (size 9 to 14) (size 15 to 20)
#    0.000    3.200    0.000    0.600    0.000    1.600 
#    0.000    0.000    0.000    1.200    0.000    0.000 
#    0.000    0.000    0.000    0.000    0.000    0.000 
#
# Total GULP energy -223155.943883 kJ/mol
# GULP energy per Si atom -5578.898597 kJ/mol
# Density = 2.828252 g / cm^3
# Si number density = 28.347037 Si / 1000 Ang^3
#
#
#
# Elastic Constant Matrix: (Units=GPa)
#
#
# Indices 1 2 3 4 5 6 
#
# 1 52.2879 -5.6233 14.2990 0.0000 0.0000 0.0000
# 2 -5.6233 68.4701 18.1445 0.0000 0.0000 0.0000
# 3 14.2990 18.1445 341.6986 0.0000 0.0000 0.0000
# 4 0.0000 0.0000 0.0000 28.0400 0.0000 0.0000
# 5 0.0000 0.0000 0.0000 0.0000 -16.9850 0.0000
# 6 0.0000 0.0000 0.0000 0.0000 0.0000 5.4917
#
#
#
# Elastic Compliance Matrix: (Units=1/GPa)
#
#
# Indices 1 2 3 4 5 6 
#
# 1 0.019575 0.001851 -0.000917 0.000000 0.000000 0.000000
# 2 0.001851 0.014988 -0.000873 0.000000 0.000000 0.000000
# 3 -0.000917 -0.000873 0.003011 0.000000 0.000000 0.000000
# 4 0.000000 0.000000 0.000000 0.035663 0.000000 0.000000
# 5 0.000000 0.000000 0.000000 0.000000 -0.058875 0.000000
# 6 0.000000 0.000000 0.000000 0.000000 0.000000 0.182094
#
#
# Mechanical properties :
#
#
# Convention : Reuss Voigt Hill
#
# Bulk Modulus (GPa) = 26.52912 57.34411 41.93661
# Shear Modulus (GPa) = 23.93474 32.35176 28.14325
#
# Velocity S-wave (km/s) = 2.90892 3.38194 3.15431
# Velocity P-wave (km/s) = 4.54548 5.96014 5.30022
#
# Compressibility (1/GPa) = 0.03769443
#
# Stress axis : x y z
#
# Youngs Moduli (GPa) = 51.08607 66.71848 332.08002
#
# Poissons Ratio (x) = -0.12348 0.30466
# Poissons Ratio (y) = -0.09455 0.29002
# Poissons Ratio (z) = 0.04687 0.05827
#
# Static dielectric constant tensor:
#      x y z
#    x 2.142680 0.000000 0.000000 
#    y 0.000000 2.251190 0.000000 
#    z 0.000000 0.000000 2.416350 
# 
# From -- ./inp_files/4254.got.cif
#   From: 2010.05.17/outbox.cif.g08.bks.cpg/sg57_3_cif.got.tgz:4254.got - 2010.06.03 13:58:18.
