data_PCOD9438721
_publ_section_title
;
Structure prediction by ZEFSAII (Michael W. Deem and Ramdas Pophale) SiO2 
 PCOD9438721
Probable space group: P B C M
;
_chemical_formula_sum "Si O2"
_cell_formula_units_Z 48
_cell_length_a 31.701346
_cell_length_b 9.212388
_cell_length_c 8.667035
_cell_angle_alpha 90.000000
_cell_angle_beta 90.000000
_cell_angle_gamma 90.000000
_cell_volume 2531.165099
_symmetry_space_group_name_H-M "P B C M"
_symmetry_group_IT_number 57
_symmetry_cell_setting 'orthorhombic'
loop_
_space_group_symop_operation_xyz
x,y,z
-x,-y,1/2+z
x,1/2-y,-z
-x,1/2+y,1/2-z
-x,-y,-z
x,y,1/2-z
-x,1/2+y,z
x,1/2-y,1/2+z
loop_
_atom_site_type_symbol
_atom_site_label
_atom_site_fract_x
_atom_site_fract_y
_atom_site_fract_z
Si Si1 0.460500 0.412850 0.934482
Si Si2 0.287199 0.912181 0.565030
Si Si3 0.875917 0.087598 0.564090
Si Si4 0.207770 0.087509 0.435504
Si Si5 0.628344 0.587321 0.935125
Si Si6 0.040009 0.412929 0.564253
O O1 0.461152 0.411374 0.750000
O O2 0.463110 0.250000 0.000000
O O3 0.500000 0.500000 0.000000
O O4 0.415339 0.470709 0.993806
O O5 0.285482 0.750000 0.500000
O O6 0.283429 0.908759 0.750000
O O7 0.249140 0.006407 0.496650
O O8 0.331632 0.988485 0.525748
O O9 0.876854 0.250000 0.500000
O O10 0.875759 0.095297 0.750000
O O11 0.833682 0.002781 0.515703
O O12 0.917345 0.997381 0.517470
O O13 0.205859 0.250000 0.500000
O O14 0.208848 0.092524 0.250000
O O15 0.624166 0.595649 0.750000
O O16 0.634938 0.750000 0.000000
O O17 0.040284 0.250000 0.500000
O O18 0.038079 0.408713 0.750000
O O19 0.000000 0.500000 0.500000
#
# Coordination Sequence:
#
# PCOD9438721 Si02
#       6
#     8   8   8   8   8   8
#     4  11  22  38  60  86 117 153 194 239 289 344
#     4  11  24  40  60  87 119 154 193 240 291 344
#     4  10  23  40  60  87 119 155 195 242 293 347
#     4  11  23  40  62  88 118 154 196 240 289 346
#     4  10  21  38  59  84 114 150 193 238 288 344
#     4  11  23  40  61  88 120 156 199 245 296 351
#
# _framework density 18.963601000000001
#
# number of rings (size 3 to 8) (size 9 to 14) (size 15 to 20)
#    0.000    1.333    0.000    6.500    0.000   10.000 
#    0.000    1.667    0.000    0.000    0.000    0.000 
#    0.000    0.000    0.000    0.000    0.000    0.000 
#
# Total GULP energy -268472.584178 kJ/mol
# GULP energy per Si atom -5593.178837 kJ/mol
# Density = 1.892044 g / cm^3
# Si number density = 18.963601 Si / 1000 Ang^3
#
#
#
# Elastic Constant Matrix: (Units=GPa)
#
#
# Indices 1 2 3 4 5 6 
#
# 1 221.8147 122.4132 78.6360 0.0000 0.0000 0.0000
# 2 122.4132 173.1034 56.7229 0.0000 0.0000 0.0000
# 3 78.6360 56.7229 85.6333 0.0000 0.0000 0.0000
# 4 0.0000 0.0000 0.0000 40.4260 0.0000 0.0000
# 5 0.0000 0.0000 0.0000 0.0000 33.2891 0.0000
# 6 0.0000 0.0000 0.0000 0.0000 0.0000 41.7791
#
#
#
# Elastic Compliance Matrix: (Units=1/GPa)
#
#
# Indices 1 2 3 4 5 6 
#
# 1 0.008841 -0.004587 -0.005080 0.000000 0.000000 0.000000
# 2 -0.004587 0.009759 -0.002252 0.000000 0.000000 0.000000
# 3 -0.005080 -0.002252 0.017834 0.000000 0.000000 0.000000
# 4 0.000000 0.000000 0.000000 0.024737 0.000000 0.000000
# 5 0.000000 0.000000 0.000000 0.000000 0.030040 0.000000
# 6 0.000000 0.000000 0.000000 0.000000 0.000000 0.023935
#
#
# Mechanical properties :
#
#
# Convention : Reuss Voigt Hill
#
# Bulk Modulus (GPa) = 79.39084 110.67729 95.03407
# Shear Modulus (GPa) = 34.92086 37.95080 36.43583
#
# Velocity S-wave (km/s) = 4.29589 4.47838 4.38808
# Velocity P-wave (km/s) = 8.15855 9.23206 8.71186
#
# Compressibility (1/GPa) = 0.01259591
#
# Stress axis : x y z
#
# Youngs Moduli (GPa) = 113.11327 102.47238 56.07346
#
# Poissons Ratio (x) = 0.47008 0.28483
# Poissons Ratio (y) = 0.51889 0.12626
# Poissons Ratio (z) = 0.57458 0.23073
#
# Static dielectric constant tensor:
#      x y z
#    x 1.650550 0.000000 0.000000 
#    y 0.000000 1.608410 0.000000 
#    z 0.000000 0.000000 1.639160 
# 
# From -- ./inp_files/9945.got.cif
#   From: 2010.05.17/outbox.cif.g08.bks.cpg/sg57_5_cif.got.tgz:9945.got - 2010.06.03 13:58:18.
