data_PCOD9438612
_publ_section_title
;
Structure prediction by ZEFSAII (Michael W. Deem and Ramdas Pophale) SiO2 
 PCOD9438612
Probable space group: P B C M
;
_chemical_formula_sum "Si O2"
_cell_formula_units_Z 44
_cell_length_a 26.397802
_cell_length_b 9.066198
_cell_length_c 9.374169
_cell_angle_alpha 90.000000
_cell_angle_beta 90.000000
_cell_angle_gamma 90.000000
_cell_volume 2243.498303
_symmetry_space_group_name_H-M "P B C M"
_symmetry_group_IT_number 57
_symmetry_cell_setting 'orthorhombic'
loop_
_space_group_symop_operation_xyz
x,y,z
-x,-y,1/2+z
x,1/2-y,-z
-x,1/2+y,1/2-z
-x,-y,-z
x,y,1/2-z
-x,1/2+y,z
x,1/2-y,1/2+z
loop_
_atom_site_type_symbol
_atom_site_label
_atom_site_fract_x
_atom_site_fract_y
_atom_site_fract_z
Si Si1 0.458149 0.904138 0.582358
Si Si2 0.004193 0.750000 0.000000
Si Si3 0.157414 0.596441 0.584165
Si Si4 0.072984 0.012248 0.598035
Si Si5 0.725568 0.092690 0.920106
Si Si6 0.356829 0.099213 0.917530
O O1 0.453303 0.750000 0.500000
O O2 0.471442 0.882539 0.750000
O O3 0.500000 0.000000 0.500000
O O4 0.405267 0.991840 0.576795
O O5 0.040278 0.637423 0.083569
O O6 0.966934 0.855708 0.087550
O O7 0.151948 0.750000 0.500000
O O8 0.148605 0.623801 0.750000
O O9 0.114894 0.487470 0.524386
O O10 0.215471 0.546856 0.565576
O O11 0.099656 0.014639 0.750000
O O12 0.714487 0.106311 0.750000
O O13 0.719957 0.250000 0.000000
O O14 0.688973 0.979110 0.999032
O O15 0.344928 0.125382 0.750000
O O16 0.368951 0.250000 0.000000
#
# Coordination Sequence:
#
# PCOD9438612 Si02
#       6
#     8   4   8   8   8   8
#     4  11  24  41  64  95 131 171 215 261 312 365
#     4  10  24  38  58  88 118 150 196 240 294 356
#     4  10  21  37  60  88 118 152 196 245 297 359
#     4  11  22  39  61  86 116 154 194 242 295 355
#     4  10  21  39  63  90 119 156 202 255 307 366
#     4  11  24  41  63  92 126 166 209 258 310 367
#
# _framework density 19.612228999999999
#
# number of rings (size 3 to 8) (size 9 to 14) (size 15 to 20)
#    0.000    1.455    0.909    3.818    0.000   11.636 
#    1.636    0.000    0.000    0.000    0.000    0.000 
#    0.000    0.000    0.000    0.000    0.000    0.000 
#
# Total GULP energy -245823.114071 kJ/mol
# GULP energy per Si atom -5586.888956 kJ/mol
# Density = 1.956759 g / cm^3
# Si number density = 19.612229 Si / 1000 Ang^3
#
#
#
# Elastic Constant Matrix: (Units=GPa)
#
#
# Indices 1 2 3 4 5 6 
#
# 1 88.3692 35.2161 74.7651 0.0000 0.0000 0.0000
# 2 35.2161 106.5148 59.4372 0.0000 0.0000 0.0000
# 3 74.7651 59.4372 183.3416 0.0000 0.0000 0.0000
# 4 0.0000 0.0000 0.0000 17.6537 0.0000 0.0000
# 5 0.0000 0.0000 0.0000 0.0000 26.0600 0.0000
# 6 0.0000 0.0000 0.0000 0.0000 0.0000 28.6288
#
#
#
# Elastic Compliance Matrix: (Units=1/GPa)
#
#
# Indices 1 2 3 4 5 6 
#
# 1 0.017699 -0.002227 -0.006496 0.000000 0.000000 0.000000
# 2 -0.002227 0.011742 -0.002898 0.000000 0.000000 0.000000
# 3 -0.006496 -0.002898 0.009043 0.000000 0.000000 0.000000
# 4 0.000000 0.000000 0.000000 0.056645 0.000000 0.000000
# 5 0.000000 0.000000 0.000000 0.000000 0.038373 0.000000
# 6 0.000000 0.000000 0.000000 0.000000 0.000000 0.034930
#
#
# Mechanical properties :
#
#
# Convention : Reuss Voigt Hill
#
# Bulk Modulus (GPa) = 65.60884 79.67362 72.64123
# Shear Modulus (GPa) = 25.41225 28.38897 26.90061
#
# Velocity S-wave (km/s) = 3.60354 3.80875 3.70756
# Velocity P-wave (km/s) = 7.13019 7.74950 7.44629
#
# Compressibility (1/GPa) = 0.01524185
#
# Stress axis : x y z
#
# Youngs Moduli (GPa) = 56.49927 85.16376 110.58503
#
# Poissons Ratio (x) = 0.18967 0.71832
# Poissons Ratio (y) = 0.12583 0.32053
# Poissons Ratio (z) = 0.36700 0.24684
#
# Static dielectric constant tensor:
#      x y z
#    x 1.669460 0.000000 0.000000 
#    y 0.000000 1.673670 0.000000 
#    z 0.000000 0.000000 1.723200 
# 
# From -- ./inp_files/9862.got.cif
#   From: 2010.05.17/outbox.cif.g08.bks.cpg/sg57_5_cif.got.tgz:9862.got - 2010.06.03 13:58:18.
