data_PCOD9438825
_publ_section_title
;
Structure prediction by ZEFSAII (Michael W. Deem and Ramdas Pophale) SiO2 
 PCOD9438825
Probable space group: P B C M
;
_chemical_formula_sum "Si O2"
_cell_formula_units_Z 48
_cell_length_a 9.409789
_cell_length_b 12.569614
_cell_length_c 19.282487
_cell_angle_alpha 90.000000
_cell_angle_beta 90.000000
_cell_angle_gamma 90.000000
_cell_volume 2280.682728
_symmetry_space_group_name_H-M "P B C M"
_symmetry_group_IT_number 57
_symmetry_cell_setting 'orthorhombic'
loop_
_space_group_symop_operation_xyz
x,y,z
-x,-y,1/2+z
x,1/2-y,-z
-x,1/2+y,1/2-z
-x,-y,-z
x,y,1/2-z
-x,1/2+y,z
x,1/2-y,1/2+z
loop_
_atom_site_type_symbol
_atom_site_label
_atom_site_fract_x
_atom_site_fract_y
_atom_site_fract_z
Si Si1 0.270710 0.652626 0.332728
Si Si2 0.461387 0.207358 0.672170
Si Si3 0.405553 0.374621 0.507846
Si Si4 0.211824 0.082209 0.609157
Si Si5 0.904314 0.141216 0.665739
Si Si6 0.373317 0.959467 0.394596
O O1 0.281585 0.640342 0.250000
O O2 0.411197 0.718248 0.356452
O O3 0.249520 0.536357 0.364109
O O4 0.141671 0.735562 0.345632
O O5 0.435707 0.242531 0.750000
O O6 0.312032 0.177054 0.638713
O O7 0.535979 0.090183 0.667696
O O8 0.404951 0.250000 0.500000
O O9 0.263076 0.418487 0.470354
O O10 0.392870 0.418450 0.585599
O O11 0.545536 0.410319 0.463178
O O12 0.054431 0.110789 0.632764
O O13 0.901863 0.122755 0.750000
O O14 0.784745 0.073214 0.625133
#
# Coordination Sequence:
#
# PCOD9438825 Si02
#       6
#     8   8   8   8   8   8
#     4   9  19  37  58  85 124 162 197 245 305 365
#     4   9  18  34  59  88 116 153 204 257 311 369
#     4  10  23  41  59  85 119 159 213 260 299 356
#     4  11  22  37  61  90 126 161 201 255 309 368
#     4  10  21  38  62  93 125 159 201 248 309 378
#     4   9  20  37  59  82 116 160 202 251 303 357
#
# _framework density 21.046329
#
# number of rings (size 3 to 8) (size 9 to 14) (size 15 to 20)
#    0.000    2.333    0.000    3.000    0.000   14.000 
#    0.000    2.500    0.000   18.000    0.000    0.000 
#    0.000    0.000    0.000    0.000    0.000    0.000 
#
# Total GULP energy -267218.711628 kJ/mol
# GULP energy per Si atom -5567.056492 kJ/mol
# Density = 2.099843 g / cm^3
# Si number density = 21.046329 Si / 1000 Ang^3
#
#
#
# Elastic Constant Matrix: (Units=GPa)
#
#
# Indices 1 2 3 4 5 6 
#
# 1 166.3875 45.2112 41.1664 0.0000 0.0000 0.0000
# 2 45.2112 115.4278 19.4145 0.0000 0.0000 0.0000
# 3 41.1664 19.4145 35.4087 0.0000 0.0000 0.0000
# 4 0.0000 0.0000 0.0000 22.9538 0.0000 0.0000
# 5 0.0000 0.0000 0.0000 0.0000 25.2728 0.0000
# 6 0.0000 0.0000 0.0000 0.0000 0.0000 29.6397
#
#
#
# Elastic Compliance Matrix: (Units=1/GPa)
#
#
# Indices 1 2 3 4 5 6 
#
# 1 0.008800 -0.001901 -0.009188 0.000000 0.000000 0.000000
# 2 -0.001901 0.009954 -0.003247 0.000000 0.000000 0.000000
# 3 -0.009188 -0.003247 0.040705 0.000000 0.000000 0.000000
# 4 0.000000 0.000000 0.000000 0.043566 0.000000 0.000000
# 5 0.000000 0.000000 0.000000 0.000000 0.039568 0.000000
# 6 0.000000 0.000000 0.000000 0.000000 0.000000 0.033739
#
#
# Mechanical properties :
#
#
# Convention : Reuss Voigt Hill
#
# Bulk Modulus (GPa) = 32.48366 58.75645 45.62006
# Shear Modulus (GPa) = 23.22687 29.66873 26.44780
#
# Velocity S-wave (km/s) = 3.32566 3.75865 3.54877
# Velocity P-wave (km/s) = 5.49678 6.84214 6.20602
#
# Compressibility (1/GPa) = 0.03078471
#
# Stress axis : x y z
#
# Youngs Moduli (GPa) = 113.63560 100.45852 24.56711
#
# Poissons Ratio (x) = 0.19101 0.22573
# Poissons Ratio (y) = 0.21606 0.07978
# Poissons Ratio (z) = 1.04414 0.32623
#
# Static dielectric constant tensor:
#      x y z
#    x 1.763770 0.000000 0.000000 
#    y 0.000000 1.852400 0.000000 
#    z 0.000000 0.000000 1.829190 
# 
# From -- ./inp_files/26715.got.cif
#   From: 2010.05.17/outbox.cif.g08.bks.cpg/sg57_14_cif.got.tgz:26715.got - 2010.06.03 13:58:18.
