data_PCOD9438116
_publ_section_title
;
Structure prediction by ZEFSAII (Michael W. Deem and Ramdas Pophale) SiO2 
 PCOD9438116
Probable space group: P B C M
;
_chemical_formula_sum "Si O2"
_cell_formula_units_Z 20
_cell_length_a 8.192793
_cell_length_b 10.160732
_cell_length_c 9.948830
_cell_angle_alpha 90.000000
_cell_angle_beta 90.000000
_cell_angle_gamma 90.000000
_cell_volume 828.188105
_symmetry_space_group_name_H-M "P B C M"
_symmetry_group_IT_number 57
_symmetry_cell_setting 'orthorhombic'
loop_
_space_group_symop_operation_xyz
x,y,z
-x,-y,1/2+z
x,1/2-y,-z
-x,1/2+y,1/2-z
-x,-y,-z
x,y,1/2-z
-x,1/2+y,z
x,1/2-y,1/2+z
loop_
_atom_site_type_symbol
_atom_site_label
_atom_site_fract_x
_atom_site_fract_y
_atom_site_fract_z
Si Si1 0.324719 0.171643 0.750000
Si Si2 0.811755 0.474598 0.969392
Si Si3 0.656682 0.183398 0.250000
Si Si4 0.333721 0.470015 0.750000
O O1 0.257797 0.097420 0.618070
O O2 0.521901 0.200654 0.750000
O O3 0.475051 0.936759 0.750000
O O4 0.768560 0.347309 0.878437
O O5 0.723977 0.467184 0.111947
O O6 0.000000 0.500000 0.000000
O O7 0.256899 0.178759 0.250000
#
# Coordination Sequence:
#
# PCOD9438116 Si02
#       4
#     4   8   4   4
#     4   9  22  39  69  97 141 177 230 284 352 428
#     4  11  21  41  71 101 137 181 235 297 350 408
#     4   9  22  39  69  97 136 185 225 285 360 423
#     4  10  20  38  70  92 137 182 231 281 352 429
#
# _framework density 24.149104000000001
#
# number of rings (size 3 to 8) (size 9 to 14) (size 15 to 20)
#    1.200    0.800    0.000    4.800    0.000    0.000 
#    0.000    0.000   88.000    0.000    0.000    0.000 
#    0.000    0.000    0.000    0.000    0.000    0.000 
#
# Total GULP energy -111738.257117 kJ/mol
# GULP energy per Si atom -5586.912856 kJ/mol
# Density = 2.409414 g / cm^3
# Si number density = 24.149104 Si / 1000 Ang^3
#
#
#
# Elastic Constant Matrix: (Units=GPa)
#
#
# Indices 1 2 3 4 5 6 
#
# 1 204.0641 40.6919 85.8798 0.0000 0.0000 0.0000
# 2 40.6919 104.1960 50.2648 0.0000 0.0000 0.0000
# 3 85.8798 50.2648 228.5030 0.0000 0.0000 0.0000
# 4 0.0000 0.0000 0.0000 12.1610 0.0000 0.0000
# 5 0.0000 0.0000 0.0000 0.0000 63.4649 0.0000
# 6 0.0000 0.0000 0.0000 0.0000 0.0000 38.3908
#
#
#
# Elastic Compliance Matrix: (Units=1/GPa)
#
#
# Indices 1 2 3 4 5 6 
#
# 1 0.005999 -0.001404 -0.001946 0.000000 0.000000 0.000000
# 2 -0.001404 0.011065 -0.001906 0.000000 0.000000 0.000000
# 3 -0.001946 -0.001906 0.005527 0.000000 0.000000 0.000000
# 4 0.000000 0.000000 0.000000 0.082230 0.000000 0.000000
# 5 0.000000 0.000000 0.000000 0.000000 0.015757 0.000000
# 6 0.000000 0.000000 0.000000 0.000000 0.000000 0.026048
#
#
# Mechanical properties :
#
#
# Convention : Reuss Voigt Hill
#
# Bulk Modulus (GPa) = 82.78985 98.93737 90.86361
# Shear Modulus (GPa) = 31.02398 46.79844 38.91121
#
# Velocity S-wave (km/s) = 3.58814 4.40693 4.01844
# Velocity P-wave (km/s) = 7.17799 8.18248 7.69664
#
# Compressibility (1/GPa) = 0.01207878
#
# Stress axis : x y z
#
# Youngs Moduli (GPa) = 166.68453 90.37241 180.93043
#
# Poissons Ratio (x) = 0.12690 0.35207
# Poissons Ratio (y) = 0.23406 0.34491
# Poissons Ratio (z) = 0.32435 0.17228
#
# Static dielectric constant tensor:
#      x y z
#    x 1.883030 0.000000 0.000000 
#    y 0.000000 2.227790 0.000000 
#    z 0.000000 0.000000 1.846740 
# 
# From -- ./inp_files/970.got.cif
#   From: 2010.05.17/outbox.cif.g08.bks.cpg/sg57_1_cif.got.tgz:970.got - 2010.06.03 13:58:18.
