data_PCOD9438196
_publ_section_title
;
Structure prediction by ZEFSAII (Michael W. Deem and Ramdas Pophale) SiO2 
 PCOD9438196
Probable space group: P B C M
;
_chemical_formula_sum "Si O2"
_cell_formula_units_Z 32
_cell_length_a 18.800563
_cell_length_b 9.459750
_cell_length_c 9.240375
_cell_angle_alpha 90.000000
_cell_angle_beta 90.000000
_cell_angle_gamma 90.000000
_cell_volume 1643.387996
_symmetry_space_group_name_H-M "P B C M"
_symmetry_group_IT_number 57
_symmetry_cell_setting 'orthorhombic'
loop_
_space_group_symop_operation_xyz
x,y,z
-x,-y,1/2+z
x,1/2-y,-z
-x,1/2+y,1/2-z
-x,-y,-z
x,y,1/2-z
-x,1/2+y,z
x,1/2-y,1/2+z
loop_
_atom_site_type_symbol
_atom_site_label
_atom_site_fract_x
_atom_site_fract_y
_atom_site_fract_z
Si Si1 0.439353 0.094722 0.426659
Si Si2 0.909559 0.491880 0.250000
Si Si3 0.298023 0.393945 0.416144
Si Si4 0.048767 0.831927 0.750000
Si Si5 0.168035 0.589064 0.027012
O O1 0.446212 0.250000 0.500000
O O2 0.442780 0.096520 0.250000
O O3 0.362572 0.044112 0.487541
O O4 0.500000 0.000000 0.500000
O O5 0.947862 0.337702 0.250000
O O6 0.858087 0.491644 0.385887
O O7 0.969653 0.609855 0.250000
O O8 0.277623 0.250000 0.500000
O O9 0.321307 0.363550 0.250000
O O10 0.231749 0.499211 0.408947
O O11 0.095808 0.889550 0.882223
O O12 0.193107 0.750000 0.000000
#
# Coordination Sequence:
#
# PCOD9438196 Si02
#       5
#     8   4   8   4   8
#     4  11  23  42  66  95 130 165 208 253 306 364
#     4  10  22  34  62  80 121 148 203 244 311 364
#     4  11  23  40  62  90 124 159 205 253 304 362
#     4  10  20  40  54  88 111 158 193 256 301 368
#     4  10  22  39  59  85 120 158 201 251 305 363
#
# _framework density 19.471968
#
# number of rings (size 3 to 8) (size 9 to 14) (size 15 to 20)
#    0.000    1.500    1.250    5.250    3.500    3.000 
#    0.000    2.500    0.000    0.000    0.000    0.000 
#    0.000    0.000    0.000    0.000    0.000    0.000 
#
# Total GULP energy -178499.407388 kJ/mol
# GULP energy per Si atom -5578.106481 kJ/mol
# Density = 1.942765 g / cm^3
# Si number density = 19.471968 Si / 1000 Ang^3
#
#
#
# Elastic Constant Matrix: (Units=GPa)
#
#
# Indices 1 2 3 4 5 6 
#
# 1 93.4492 48.2734 35.9380 0.0000 0.0000 0.0000
# 2 48.2734 35.3872 22.2393 0.0000 0.0000 0.0000
# 3 35.9380 22.2393 168.5264 0.0000 0.0000 0.0000
# 4 0.0000 0.0000 0.0000 27.4501 0.0000 0.0000
# 5 0.0000 0.0000 0.0000 0.0000 54.6683 0.0000
# 6 0.0000 0.0000 0.0000 0.0000 0.0000 30.7969
#
#
#
# Elastic Compliance Matrix: (Units=1/GPa)
#
#
# Indices 1 2 3 4 5 6 
#
# 1 0.036504 -0.048966 -0.001323 0.000000 0.000000 0.000000
# 2 -0.048966 0.096496 -0.002292 0.000000 0.000000 0.000000
# 3 -0.001323 -0.002292 0.006518 0.000000 0.000000 0.000000
# 4 0.000000 0.000000 0.000000 0.036430 0.000000 0.000000
# 5 0.000000 0.000000 0.000000 0.000000 0.018292 0.000000
# 6 0.000000 0.000000 0.000000 0.000000 0.000000 0.032471
#
#
# Mechanical properties :
#
#
# Convention : Reuss Voigt Hill
#
# Bulk Modulus (GPa) = 29.10601 56.69602 42.90101
# Shear Modulus (GPa) = 14.56348 35.31053 24.93701
#
# Velocity S-wave (km/s) = 2.73778 4.26303 3.58252
# Velocity P-wave (km/s) = 4.99740 7.30829 6.26040
#
# Compressibility (1/GPa) = 0.03435717
#
# Stress axis : x y z
#
# Youngs Moduli (GPa) = 27.39416 10.36314 153.41347
#
# Poissons Ratio (x) = 0.50744 0.20293
# Poissons Ratio (y) = 1.34138 0.35163
# Poissons Ratio (z) = 0.03624 0.02375
#
# Static dielectric constant tensor:
#      x y z
#    x 1.653150 0.000000 0.000000 
#    y 0.000000 1.704410 0.000000 
#    z 0.000000 0.000000 1.777020 
# 
# From -- ./inp_files/4054.got.cif
#   From: 2010.05.17/outbox.cif.g08.bks.cpg/sg57_3_cif.got.tgz:4054.got - 2010.06.03 13:58:18.
