data_PCOD9438793
_publ_section_title
;
Structure prediction by ZEFSAII (Michael W. Deem and Ramdas Pophale) SiO2 
 PCOD9438793
Probable space group: P B C M
;
_chemical_formula_sum "Si O2"
_cell_formula_units_Z 64
_cell_length_a 12.318101
_cell_length_b 31.992876
_cell_length_c 8.730758
_cell_angle_alpha 90.000000
_cell_angle_beta 90.000000
_cell_angle_gamma 90.000000
_cell_volume 3440.717323
_symmetry_space_group_name_H-M "P B C M"
_symmetry_group_IT_number 57
_symmetry_cell_setting 'orthorhombic'
loop_
_space_group_symop_operation_xyz
x,y,z
-x,-y,1/2+z
x,1/2-y,-z
-x,1/2+y,1/2-z
-x,-y,-z
x,y,1/2-z
-x,1/2+y,z
x,1/2-y,1/2+z
loop_
_atom_site_type_symbol
_atom_site_label
_atom_site_fract_x
_atom_site_fract_y
_atom_site_fract_z
Si Si1 0.986615 0.546793 0.433467
Si Si2 0.633716 0.104903 0.067407
Si Si3 0.754466 0.556470 0.567939
Si Si4 0.994340 0.704545 0.932863
Si Si5 0.874184 0.126783 0.433691
Si Si6 0.258948 0.295167 0.066427
Si Si7 0.384877 0.514417 0.931255
Si Si8 0.392740 0.371036 0.932050
O O1 0.989787 0.543477 0.250000
O O2 0.869968 0.563758 0.488593
O O3 0.000000 0.500000 0.500000
O O4 0.075364 0.581706 0.481518
O O5 0.635419 0.094390 0.250000
O O6 0.746066 0.127904 0.032125
O O7 0.521521 0.128910 0.037746
O O8 0.629595 0.062617 0.971020
O O9 0.766837 0.557762 0.750000
O O10 0.708949 0.511953 0.513281
O O11 0.665623 0.590034 0.513890
O O12 0.001970 0.706703 0.750000
O O13 0.867622 0.697027 0.973755
O O14 0.025414 0.750000 0.000000
O O15 0.063927 0.665809 0.993306
O O16 0.887914 0.129239 0.250000
O O17 0.268317 0.295678 0.250000
O O18 0.287506 0.250000 0.000000
O O19 0.334255 0.330028 0.993021
O O20 0.383028 0.506552 0.750000
O O21 0.500000 0.500000 0.000000
O O22 0.377117 0.375574 0.750000
#
# Coordination Sequence:
#
# PCOD9438793 Si02
#       8
#     8   8   8   8   8   8   8   8
#     4  11  23  39  60  87 121 160 202 250 306 364
#     4  10  22  40  60  84 118 158 200 246 295 351
#     4  12  24  38  58  84 117 154 198 247 295 348
#     4  10  21  38  63  92 119 151 191 243 299 360
#     4  10  22  40  61  86 119 159 200 248 303 359
#     4  10  21  38  61  89 120 150 187 235 294 356
#     4  12  23  37  58  84 115 154 200 248 298 352
#     4  11  22  37  59  86 117 151 192 239 292 350
#
# _framework density 18.600774000000001
#
# number of rings (size 3 to 8) (size 9 to 14) (size 15 to 20)
#    0.000    1.250    1.250    5.250    0.000    6.500 
#    0.000    0.625    0.000    0.000    0.000    0.000 
#    0.000    0.000    0.000    0.000    0.000    0.000 
#
# Total GULP energy -357793.829783 kJ/mol
# GULP energy per Si atom -5590.528590 kJ/mol
# Density = 1.855844 g / cm^3
# Si number density = 18.600774 Si / 1000 Ang^3
#
#
#
# Elastic Constant Matrix: (Units=GPa)
#
#
# Indices 1 2 3 4 5 6 
#
# 1 104.6266 57.1124 38.6959 0.0000 0.0000 0.0000
# 2 57.1124 123.1289 45.4929 0.0000 0.0000 0.0000
# 3 38.6959 45.4929 61.8335 0.0000 0.0000 0.0000
# 4 0.0000 0.0000 0.0000 36.9349 0.0000 0.0000
# 5 0.0000 0.0000 0.0000 0.0000 25.5866 0.0000
# 6 0.0000 0.0000 0.0000 0.0000 0.0000 36.2088
#
#
#
# Elastic Compliance Matrix: (Units=1/GPa)
#
#
# Indices 1 2 3 4 5 6 
#
# 1 0.014033 -0.004483 -0.005484 0.000000 0.000000 0.000000
# 2 -0.004483 0.012586 -0.006454 0.000000 0.000000 0.000000
# 3 -0.005484 -0.006454 0.024353 0.000000 0.000000 0.000000
# 4 0.000000 0.000000 0.000000 0.027075 0.000000 0.000000
# 5 0.000000 0.000000 0.000000 0.000000 0.039083 0.000000
# 6 0.000000 0.000000 0.000000 0.000000 0.000000 0.027618
#
#
# Mechanical properties :
#
#
# Convention : Reuss Voigt Hill
#
# Bulk Modulus (GPa) = 55.15814 63.57682 59.36748
# Shear Modulus (GPa) = 27.22844 29.63193 28.43018
#
# Velocity S-wave (km/s) = 3.83016 3.99563 3.91377
# Velocity P-wave (km/s) = 7.01984 7.45256 7.23943
#
# Compressibility (1/GPa) = 0.01812969
#
# Stress axis : x y z
#
# Youngs Moduli (GPa) = 71.26018 79.45568 41.06325
#
# Poissons Ratio (x) = 0.35621 0.22518
# Poissons Ratio (y) = 0.31946 0.26503
# Poissons Ratio (z) = 0.39077 0.51282
#
# Static dielectric constant tensor:
#      x y z
#    x 1.648490 0.000000 0.000000 
#    y 0.000000 1.653600 0.000000 
#    z 0.000000 0.000000 1.626450 
# 
# From -- ./inp_files/3786.got.cif
#   From: 2010.05.17/outbox.cif.g08.bks.cpg/sg57_2_cif.got.tgz:3786.got - 2010.06.03 13:58:18.
