data_PCOD9438435
_publ_section_title
;
Structure prediction by ZEFSAII (Michael W. Deem and Ramdas Pophale) SiO2 
 PCOD9438435
Probable space group: P B C M
;
_chemical_formula_sum "Si O2"
_cell_formula_units_Z 40
_cell_length_a 15.404998
_cell_length_b 7.206747
_cell_length_c 15.187424
_cell_angle_alpha 90.000000
_cell_angle_beta 90.000000
_cell_angle_gamma 90.000000
_cell_volume 1686.106645
_symmetry_space_group_name_H-M "P B C M"
_symmetry_group_IT_number 57
_symmetry_cell_setting 'orthorhombic'
loop_
_space_group_symop_operation_xyz
x,y,z
-x,-y,1/2+z
x,1/2-y,-z
-x,1/2+y,1/2-z
-x,-y,-z
x,y,1/2-z
-x,1/2+y,z
x,1/2-y,1/2+z
loop_
_atom_site_type_symbol
_atom_site_label
_atom_site_fract_x
_atom_site_fract_y
_atom_site_fract_z
Si Si1 0.123434 0.280393 0.750000
Si Si2 0.200251 0.778832 0.899705
Si Si3 0.434668 0.356951 0.091749
Si Si4 0.923527 0.346327 0.750000
Si Si5 0.615466 0.246354 0.352119
Si Si6 0.749647 0.788049 0.395698
O O1 0.181301 0.319587 0.836192
O O2 0.026780 0.356803 0.750000
O O3 0.106721 0.059054 0.750000
O O4 0.120862 0.747888 0.833830
O O5 0.291323 0.673444 0.880150
O O6 0.227403 0.994030 0.886195
O O7 0.174794 0.750000 0.000000
O O8 0.404887 0.570160 0.085224
O O9 0.527224 0.362681 0.139409
O O10 0.350001 0.263157 0.135932
O O11 0.443584 0.250000 0.000000
O O12 0.623929 0.186538 0.250000
O O13 0.754411 0.750000 0.500000
#
# Coordination Sequence:
#
# PCOD9438435 Si02
#       6
#     4   8   8   4   8   8
#     4  10  22  40  65  80 120 146 187 240 291 342
#     4  10  21  39  62  82 118 153 190 235 285 341
#     4  10  21  36  56  82 117 155 193 232 280 334
#     4  10  22  42  59  90 108 154 187 236 293 346
#     4  11  21  35  57  85 117 155 195 232 281 334
#     4   9  21  39  60  85 114 154 191 231 287 340
#
# _framework density 23.723292000000001
#
# number of rings (size 3 to 8) (size 9 to 14) (size 15 to 20)
#    0.000    2.000    1.000    1.800    5.600    5.600 
#    0.000    4.000    0.000    0.000    0.000    0.000 
#    0.000    0.000    0.000    0.000    0.000    0.000 
#
# Total GULP energy -223539.371453 kJ/mol
# GULP energy per Si atom -5588.484286 kJ/mol
# Density = 2.366930 g / cm^3
# Si number density = 23.723292 Si / 1000 Ang^3
#
#
#
# Elastic Constant Matrix: (Units=GPa)
#
#
# Indices 1 2 3 4 5 6 
#
# 1 221.9792 19.0707 90.0788 0.0000 0.0000 0.0000
# 2 19.0707 43.8508 -3.0399 0.0000 0.0000 0.0000
# 3 90.0788 -3.0399 144.4982 0.0000 0.0000 0.0000
# 4 0.0000 0.0000 0.0000 19.7102 0.0000 0.0000
# 5 0.0000 0.0000 0.0000 0.0000 30.4251 0.0000
# 6 0.0000 0.0000 0.0000 0.0000 0.0000 34.7166
#
#
#
# Elastic Compliance Matrix: (Units=1/GPa)
#
#
# Indices 1 2 3 4 5 6 
#
# 1 0.006419 -0.003074 -0.004066 0.000000 0.000000 0.000000
# 2 -0.003074 0.024310 0.002427 0.000000 0.000000 0.000000
# 3 -0.004066 0.002427 0.009506 0.000000 0.000000 0.000000
# 4 0.000000 0.000000 0.000000 0.050735 0.000000 0.000000
# 5 0.000000 0.000000 0.000000 0.000000 0.032868 0.000000
# 6 0.000000 0.000000 0.000000 0.000000 0.000000 0.028805
#
#
# Mechanical properties :
#
#
# Convention : Reuss Voigt Hill
#
# Bulk Modulus (GPa) = 32.45664 69.17196 50.81430
# Shear Modulus (GPa) = 29.01289 37.25163 33.13226
#
# Velocity S-wave (km/s) = 3.50089 3.96694 3.74118
# Velocity P-wave (km/s) = 5.48204 7.08543 6.33467
#
# Compressibility (1/GPa) = 0.03081034
#
# Stress axis : x y z
#
# Youngs Moduli (GPa) = 155.78622 41.13610 105.19206
#
# Poissons Ratio (x) = 0.12643 0.42774
# Poissons Ratio (y) = 0.47881 -0.25535
# Poissons Ratio (z) = 0.63346 -0.09985
#
# Static dielectric constant tensor:
#      x y z
#    x 1.917820 0.000000 0.000000 
#    y 0.000000 2.005860 0.000000 
#    z 0.000000 0.000000 1.881580 
# 
# From -- ./inp_files/18248.got.cif
#   From: 2010.05.17/outbox.cif.g08.bks.cpg/sg57_10_cif.got.tgz:18248.got - 2010.06.03 13:58:18.
