data_PCOD9438614
_publ_section_title
;
Structure prediction by ZEFSAII (Michael W. Deem and Ramdas Pophale) SiO2 
 PCOD9438614
Probable space group: P B C M
;
_chemical_formula_sum "Si O2"
_cell_formula_units_Z 64
_cell_length_a 12.598772
_cell_length_b 29.027590
_cell_length_c 8.706416
_cell_angle_alpha 90.000000
_cell_angle_beta 90.000000
_cell_angle_gamma 90.000000
_cell_volume 3184.040705
_symmetry_space_group_name_H-M "P B C M"
_symmetry_group_IT_number 57
_symmetry_cell_setting 'orthorhombic'
loop_
_space_group_symop_operation_xyz
x,y,z
-x,-y,1/2+z
x,1/2-y,-z
-x,1/2+y,1/2-z
-x,-y,-z
x,y,1/2-z
-x,1/2+y,z
x,1/2-y,1/2+z
loop_
_atom_site_type_symbol
_atom_site_label
_atom_site_fract_x
_atom_site_fract_y
_atom_site_fract_z
Si Si1 0.716241 0.297939 0.569900
Si Si2 0.055159 0.301140 0.064482
Si Si3 0.327408 0.484264 0.070962
Si Si4 0.485491 0.928930 0.925808
Si Si5 0.127950 0.628584 0.935100
Si Si6 0.109453 0.978897 0.435579
Si Si7 0.292887 0.300618 0.065369
Si Si8 0.515864 0.335788 0.429511
O O1 0.757440 0.250000 0.500000
O O2 0.731596 0.296870 0.750000
O O3 0.774197 0.342448 0.500591
O O4 0.593221 0.303620 0.525970
O O5 0.051655 0.298018 0.250000
O O6 0.973431 0.340627 0.016954
O O7 0.174807 0.314532 0.015577
O O8 0.032143 0.250000 0.000000
O O9 0.318741 0.470086 0.250000
O O10 0.398056 0.530854 0.065728
O O11 0.400402 0.448722 0.977084
O O12 0.212119 0.494360 0.001277
O O13 0.488934 0.912253 0.750000
O O14 0.453676 0.888249 0.038777
O O15 0.134189 0.629184 0.750000
O O16 0.120169 0.575205 0.981795
O O17 0.109084 0.981214 0.250000
O O18 0.000000 0.000000 0.500000
O O19 0.290972 0.298770 0.250000
O O20 0.393431 0.330979 0.021448
O O21 0.312036 0.250000 0.000000
O O22 0.526673 0.324250 0.250000
#
# Coordination Sequence:
#
# PCOD9438614 Si02
#       8
#     8   8   8   8   8   8   8   8
#     4  12  25  40  60  87 122 161 202 249 299 356
#     4   9  18  35  57  82 111 144 186 234 286 344
#     4  10  21  39  61  84 114 151 192 239 293 352
#     4  10  21  37  60  89 117 149 190 239 293 349
#     4  10  22  40  62  87 117 154 196 244 298 360
#     4  11  24  41  62  88 120 158 201 251 308 370
#     4   9  19  34  53  77 107 145 184 225 274 328
#     4  11  22  36  56  84 118 154 193 236 286 346
#
# _framework density 20.100245999999999
#
# number of rings (size 3 to 8) (size 9 to 14) (size 15 to 20)
#    0.000    1.750    0.000    4.125    0.000    9.000 
#    0.000    2.500    0.000    0.000    0.000    0.000 
#    0.000    0.000    0.000    0.000    0.000    0.000 
#
# Total GULP energy -357505.038703 kJ/mol
# GULP energy per Si atom -5586.016230 kJ/mol
# Density = 2.005450 g / cm^3
# Si number density = 20.100246 Si / 1000 Ang^3
#
#
#
# Elastic Constant Matrix: (Units=GPa)
#
#
# Indices 1 2 3 4 5 6 
#
# 1 111.9703 29.5791 29.7557 0.0000 0.0000 0.0000
# 2 29.5791 59.6639 9.4146 0.0000 0.0000 0.0000
# 3 29.7557 9.4146 30.1753 0.0000 0.0000 0.0000
# 4 0.0000 0.0000 0.0000 24.2922 0.0000 0.0000
# 5 0.0000 0.0000 0.0000 0.0000 24.9446 0.0000
# 6 0.0000 0.0000 0.0000 0.0000 0.0000 3.0929
#
#
#
# Elastic Compliance Matrix: (Units=1/GPa)
#
#
# Indices 1 2 3 4 5 6 
#
# 1 0.013268 -0.004747 -0.011603 0.000000 0.000000 0.000000
# 2 -0.004747 0.019327 -0.001349 0.000000 0.000000 0.000000
# 3 -0.011603 -0.001349 0.045002 0.000000 0.000000 0.000000
# 4 0.000000 0.000000 0.000000 0.041165 0.000000 0.000000
# 5 0.000000 0.000000 0.000000 0.000000 0.040089 0.000000
# 6 0.000000 0.000000 0.000000 0.000000 0.000000 0.323323
#
#
# Mechanical properties :
#
#
# Convention : Reuss Voigt Hill
#
# Bulk Modulus (GPa) = 23.69681 37.70092 30.69887
# Shear Modulus (GPa) = 9.40489 19.33661 14.37075
#
# Velocity S-wave (km/s) = 2.16544 3.10499 2.67676
# Velocity P-wave (km/s) = 4.25054 5.62599 4.98593
#
# Compressibility (1/GPa) = 0.04219977
#
# Stress axis : x y z
#
# Youngs Moduli (GPa) = 75.36710 51.74156 22.22124
#
# Poissons Ratio (x) = 0.24562 0.25783
# Poissons Ratio (y) = 0.35778 0.02997
# Poissons Ratio (z) = 0.87447 0.06979
#
# Static dielectric constant tensor:
#      x y z
#    x 1.733750 0.000000 0.000000 
#    y 0.000000 1.704580 0.000000 
#    z 0.000000 0.000000 1.677720 
# 
# From -- ./inp_files/3773.got.cif
#   From: 2010.05.17/outbox.cif.g08.bks.cpg/sg57_2_cif.got.tgz:3773.got - 2010.06.03 13:58:18.
