data_PCOD9438876
_publ_section_title
;
Structure prediction by ZEFSAII (Michael W. Deem and Ramdas Pophale) SiO2 
 PCOD9438876
Probable space group: P B C M
;
_chemical_formula_sum "Si O2"
_cell_formula_units_Z 64
_cell_length_a 23.009986
_cell_length_b 8.091868
_cell_length_c 15.657218
_cell_angle_alpha 90.000000
_cell_angle_beta 90.000000
_cell_angle_gamma 90.000000
_cell_volume 2915.276438
_symmetry_space_group_name_H-M "P B C M"
_symmetry_group_IT_number 57
_symmetry_cell_setting 'orthorhombic'
loop_
_space_group_symop_operation_xyz
x,y,z
-x,-y,1/2+z
x,1/2-y,-z
-x,1/2+y,1/2-z
-x,-y,-z
x,y,1/2-z
-x,1/2+y,z
x,1/2-y,1/2+z
loop_
_atom_site_type_symbol
_atom_site_label
_atom_site_fract_x
_atom_site_fract_y
_atom_site_fract_z
Si Si1 0.982482 0.025008 0.652607
Si Si2 0.638401 0.448281 0.482453
Si Si3 0.810681 0.528971 0.842991
Si Si4 0.131849 0.158138 0.090486
Si Si5 0.765557 0.445489 0.482607
Si Si6 0.581612 0.510749 0.847002
Si Si7 0.919936 0.337706 0.590848
Si Si8 0.547374 0.122325 0.846398
O O1 0.001219 0.998794 0.750000
O O2 0.927687 0.913192 0.626268
O O3 0.036660 0.993914 0.589873
O O4 0.956930 0.207561 0.644351
O O5 0.640257 0.250000 0.500000
O O6 0.702216 0.487998 0.446267
O O7 0.624174 0.534295 0.572821
O O8 0.586641 0.472027 0.415206
O O9 0.785734 0.495104 0.750000
O O10 0.841598 0.706239 0.846818
O O11 0.768010 0.524713 0.922951
O O12 0.860718 0.395647 0.866147
O O13 0.122997 0.250000 0.000000
O O14 0.180341 0.017665 0.070531
O O15 0.770565 0.250000 0.500000
O O16 0.602067 0.549269 0.750000
O O17 0.565100 0.315153 0.848033
O O18 0.520990 0.604444 0.863330
O O19 0.910837 0.250000 0.500000
O O20 0.557410 0.059029 0.750000
#
# Coordination Sequence:
#
# PCOD9438876 Si02
#       8
#     8   8   8   8   8   8   8   8
#     4  12  23  37  58  87 115 143 183 233 282 338
#     4   9  18  33  54  78 106 143 185 229 278 334
#     4  11  22  39  60  84 114 150 190 239 289 340
#     4  10  21  39  59  80 111 150 185 225 282 342
#     4  10  21  39  60  82 110 147 195 240 284 340
#     4   9  17  30  51  78 110 142 178 221 272 330
#     4  12  24  40  61  86 117 152 188 229 286 350
#     4   9  17  31  50  77 109 143 180 224 274 330
#
# _framework density 21.953320999999999
#
# number of rings (size 3 to 8) (size 9 to 14) (size 15 to 20)
#    0.000    1.750    0.000    6.000    0.000    0.500 
#    0.000    7.500    0.000    1.500    0.000    0.000 
#    0.000    0.000    0.000    0.000    0.000    0.000 
#
# Total GULP energy -357692.640064 kJ/mol
# GULP energy per Si atom -5588.947501 kJ/mol
# Density = 2.190335 g / cm^3
# Si number density = 21.953321 Si / 1000 Ang^3
#
#
#
# Elastic Constant Matrix: (Units=GPa)
#
#
# Indices 1 2 3 4 5 6 
#
# 1 66.4329 2.7456 8.3392 0.0000 0.0000 0.0000
# 2 2.7456 43.4953 3.5791 0.0000 0.0000 0.0000
# 3 8.3392 3.5791 66.9043 0.0000 0.0000 0.0000
# 4 0.0000 0.0000 0.0000 18.5012 0.0000 0.0000
# 5 0.0000 0.0000 0.0000 0.0000 -41.8916 0.0000
# 6 0.0000 0.0000 0.0000 0.0000 0.0000 14.2252
#
#
#
# Elastic Compliance Matrix: (Units=1/GPa)
#
#
# Indices 1 2 3 4 5 6 
#
# 1 0.015321 -0.000814 -0.001866 0.000000 0.000000 0.000000
# 2 -0.000814 0.023136 -0.001136 0.000000 0.000000 0.000000
# 3 -0.001866 -0.001136 0.015240 0.000000 0.000000 0.000000
# 4 0.000000 0.000000 0.000000 0.054050 0.000000 0.000000
# 5 0.000000 0.000000 0.000000 0.000000 -0.023871 0.000000
# 6 0.000000 0.000000 0.000000 0.000000 0.000000 0.070298
#
#
# Mechanical properties :
#
#
# Convention : Reuss Voigt Hill
#
# Bulk Modulus (GPa) = 21.70857 22.90671 22.30764
# Shear Modulus (GPa) = 28.22304 8.97822 18.60063
#
# Velocity S-wave (km/s) = 3.58941 2.02449 2.91397
# Velocity P-wave (km/s) = 5.20465 3.99020 4.63735
#
# Compressibility (1/GPa) = 0.04606476
#
# Stress axis : x y z
#
# Youngs Moduli (GPa) = 65.27140 43.22299 65.61638
#
# Poissons Ratio (x) = 0.03516 0.12245
# Poissons Ratio (y) = 0.05310 0.07456
# Poissons Ratio (z) = 0.12180 0.04911
#
# Static dielectric constant tensor:
#      x y z
#    x 1.780690 0.000000 0.000000 
#    y 0.000000 1.913690 0.000000 
#    z 0.000000 0.000000 1.806920 
# 
# From -- ./inp_files/19473.got.cif
#   From: 2010.05.17/outbox.cif.g08.bks.cpg/sg57_10_cif.got.tgz:19473.got - 2010.06.03 13:58:18.
