data_PCOD9438719
_publ_section_title
;
Structure prediction by ZEFSAII (Michael W. Deem and Ramdas Pophale) SiO2 
 PCOD9438719
Probable space group: P B C M
;
_chemical_formula_sum "Si O2"
_cell_formula_units_Z 32
_cell_length_a 9.632395
_cell_length_b 8.173063
_cell_length_c 20.721271
_cell_angle_alpha 90.000000
_cell_angle_beta 90.000000
_cell_angle_gamma 90.000000
_cell_volume 1631.306328
_symmetry_space_group_name_H-M "P B C M"
_symmetry_group_IT_number 57
_symmetry_cell_setting 'orthorhombic'
loop_
_space_group_symop_operation_xyz
x,y,z
-x,-y,1/2+z
x,1/2-y,-z
-x,1/2+y,1/2-z
-x,-y,-z
x,y,1/2-z
-x,1/2+y,z
x,1/2-y,1/2+z
loop_
_atom_site_type_symbol
_atom_site_label
_atom_site_fract_x
_atom_site_fract_y
_atom_site_fract_z
Si Si1 0.595644 0.165864 0.324326
Si Si2 0.795110 0.203347 0.929837
Si Si3 0.297342 0.294248 0.324281
Si Si4 0.093503 0.165436 0.069203
O O1 0.615881 0.220735 0.250000
O O2 0.683983 0.272012 0.374039
O O3 0.432075 0.182054 0.337595
O O4 0.648022 0.979982 0.329783
O O5 0.928894 0.319648 0.918846
O O6 0.855653 0.020751 0.932309
O O7 0.735557 0.250000 0.000000
O O8 0.252775 0.267515 0.250000
O O9 0.177420 0.256265 0.374667
O O10 0.119745 0.250000 0.000000
#
# Coordination Sequence:
#
# PCOD9438719 Si02
#       4
#     8   8   8   8
#     4  10  21  38  59  84 114 147 185 229 277 329
#     4  11  22  38  59  83 113 147 186 230 278 330
#     4  10  21  38  59  84 114 147 185 229 277 329
#     4  11  22  38  59  83 113 147 186 230 278 330
#
# _framework density 19.616181000000001
#
# number of rings (size 3 to 8) (size 9 to 14) (size 15 to 20)
#    0.000    1.500    0.000    7.500    0.000    5.000 
#    0.000    5.000    0.000    0.000    0.000    0.000 
#    0.000    0.000    0.000    0.000    0.000    0.000 
#
# Total GULP energy -178949.812719 kJ/mol
# GULP energy per Si atom -5592.181647 kJ/mol
# Density = 1.957153 g / cm^3
# Si number density = 19.616181 Si / 1000 Ang^3
#
#
#
# Elastic Constant Matrix: (Units=GPa)
#
#
# Indices 1 2 3 4 5 6 
#
# 1 51.1313 -9.7121 64.3254 0.0000 0.0000 0.0000
# 2 -9.7121 46.2511 4.0972 0.0000 0.0000 0.0000
# 3 64.3254 4.0972 104.5624 0.0000 0.0000 0.0000
# 4 0.0000 0.0000 0.0000 28.4566 0.0000 0.0000
# 5 0.0000 0.0000 0.0000 0.0000 36.7643 0.0000
# 6 0.0000 0.0000 0.0000 0.0000 0.0000 35.2837
#
#
#
# Elastic Compliance Matrix: (Units=1/GPa)
#
#
# Indices 1 2 3 4 5 6 
#
# 1 0.120299 0.031928 -0.075257 0.000000 0.000000 0.000000
# 2 0.031928 0.030170 -0.020824 0.000000 0.000000 0.000000
# 3 -0.075257 -0.020824 0.056677 0.000000 0.000000 0.000000
# 4 0.000000 0.000000 0.000000 0.035141 0.000000 0.000000
# 5 0.000000 0.000000 0.000000 0.000000 0.027200 0.000000
# 6 0.000000 0.000000 0.000000 0.000000 0.000000 0.028342
#
#
# Mechanical properties :
#
#
# Convention : Reuss Voigt Hill
#
# Bulk Modulus (GPa) = 12.68401 35.48508 24.08455
# Shear Modulus (GPa) = 11.05180 29.64989 20.35085
#
# Velocity S-wave (km/s) = 2.37619 3.89202 3.22444
# Velocity P-wave (km/s) = 3.74279 6.19081 5.11540
#
# Compressibility (1/GPa) = 0.07883939
#
# Stress axis : x y z
#
# Youngs Moduli (GPa) = 8.31264 33.14537 17.64391
#
# Poissons Ratio (x) = -1.05826 1.32783
# Poissons Ratio (y) = -0.26540 0.36741
# Poissons Ratio (z) = 0.62559 0.69021
#
# Static dielectric constant tensor:
#      x y z
#    x 1.645450 0.000000 0.000000 
#    y 0.000000 1.712980 0.000000 
#    z 0.000000 0.000000 1.663740 
# 
# From -- ./inp_files/1237.got.cif
#   From: 2010.05.17/outbox.cif.g08.bks.cpg/sg57_1_cif.got.tgz:1237.got - 2010.06.03 13:58:18.
