data_PCOD9438373
_publ_section_title
;
Structure prediction by ZEFSAII (Michael W. Deem and Ramdas Pophale) SiO2 
 PCOD9438373
Probable space group: P B C M
;
_chemical_formula_sum "Si O2"
_cell_formula_units_Z 48
_cell_length_a 11.427938
_cell_length_b 8.987645
_cell_length_c 18.931173
_cell_angle_alpha 90.000000
_cell_angle_beta 90.000000
_cell_angle_gamma 90.000000
_cell_volume 1944.425508
_symmetry_space_group_name_H-M "P B C M"
_symmetry_group_IT_number 57
_symmetry_cell_setting 'orthorhombic'
loop_
_space_group_symop_operation_xyz
x,y,z
-x,-y,1/2+z
x,1/2-y,-z
-x,1/2+y,1/2-z
-x,-y,-z
x,y,1/2-z
-x,1/2+y,z
x,1/2-y,1/2+z
loop_
_atom_site_type_symbol
_atom_site_label
_atom_site_fract_x
_atom_site_fract_y
_atom_site_fract_z
Si Si1 0.961557 0.266387 0.750000
Si Si2 0.656366 0.008472 0.862567
Si Si3 0.145838 0.036916 0.750000
Si Si4 0.867247 0.615810 0.906168
Si Si5 0.495418 0.250994 0.615226
Si Si6 0.354117 0.503519 0.032758
Si Si7 0.090084 0.430181 0.878233
O O1 0.008208 0.098996 0.750000
O O2 0.019806 0.335880 0.819776
O O3 0.841013 0.357940 0.750000
O O4 0.592255 0.856606 0.841868
O O5 0.793921 0.008679 0.848333
O O6 0.579786 0.147186 0.838732
O O7 0.641054 0.011040 0.948415
O O8 0.184559 0.099039 0.674656
O O9 0.781785 0.510411 0.949437
O O10 0.866056 0.790339 0.925128
O O11 0.997498 0.546302 0.909276
O O12 0.581450 0.357659 0.569510
O O13 0.415429 0.143197 0.566203
#
# Coordination Sequence:
#
# PCOD9438373 Si02
#       7
#     4   8   4   8   8   8   8
#     4   8  16  34  54  73  99 136 176 209 248 308
#     4  11  20  35  56  79 106 137 176 217 257 305
#     4   8  16  34  54  73  99 136 176 209 248 308
#     4  10  21  35  55  80 107 137 171 214 264 312
#     4  10  21  36  56  77 102 143 184 212 247 306
#     4  11  20  35  56  79 106 137 176 217 257 305
#     4  10  21  35  55  80 107 137 171 214 264 312
#
# _framework density 24.685956000000001
#
# number of rings (size 3 to 8) (size 9 to 14) (size 15 to 20)
#    0.000    2.000    1.667    4.000    2.333    0.667 
#    0.000    0.000    0.000    6.000    0.000    0.000 
#    0.000    0.000    0.000    0.000    0.000    0.000 
#
# Total GULP energy -267922.694175 kJ/mol
# GULP energy per Si atom -5581.722795 kJ/mol
# Density = 2.462977 g / cm^3
# Si number density = 24.685956 Si / 1000 Ang^3
#
#
#
# Elastic Constant Matrix: (Units=GPa)
#
#
# Indices 1 2 3 4 5 6 
#
# 1 147.2899 26.1929 -9.6024 0.0000 0.0000 0.0000
# 2 26.1929 111.5146 2.4895 0.0000 0.0000 0.0000
# 3 -9.6024 2.4895 49.9805 0.0000 0.0000 0.0000
# 4 0.0000 0.0000 0.0000 7.8259 0.0000 0.0000
# 5 0.0000 0.0000 0.0000 0.0000 -8.3203 0.0000
# 6 0.0000 0.0000 0.0000 0.0000 0.0000 40.1313
#
#
#
# Elastic Compliance Matrix: (Units=1/GPa)
#
#
# Indices 1 2 3 4 5 6 
#
# 1 0.007191 -0.001722 0.001467 0.000000 0.000000 0.000000
# 2 -0.001722 0.009390 -0.000798 0.000000 0.000000 0.000000
# 3 0.001467 -0.000798 0.020329 0.000000 0.000000 0.000000
# 4 0.000000 0.000000 0.000000 0.127780 0.000000 0.000000
# 5 0.000000 0.000000 0.000000 0.000000 -0.120188 0.000000
# 6 0.000000 0.000000 0.000000 0.000000 0.000000 0.024918
#
#
# Mechanical properties :
#
#
# Convention : Reuss Voigt Hill
#
# Bulk Modulus (GPa) = 28.73201 38.54944 33.64073
# Shear Modulus (GPa) = 60.14756 27.24105 43.69430
#
# Velocity S-wave (km/s) = 4.94146 3.32551 4.21171
# Velocity P-wave (km/s) = 6.64993 5.51318 6.10806
#
# Compressibility (1/GPa) = 0.03480439
#
# Stress axis : x y z
#
# Youngs Moduli (GPa) = 139.05900 106.49973 49.18966
#
# Poissons Ratio (x) = 0.18338 -0.07218
# Poissons Ratio (y) = 0.23944 0.03928
# Poissons Ratio (z) = -0.20405 0.08504
#
# Static dielectric constant tensor:
#      x y z
#    x 2.005140 0.000000 0.000000 
#    y 0.000000 2.061780 0.000000 
#    z 0.000000 0.000000 2.077160 
# 
# From -- ./inp_files/3204.got.cif
#   From: 2010.05.17/outbox.cif.g08.bks.cpg/sg57_2_cif.got.tgz:3204.got - 2010.06.03 13:58:18.
