data_PCOD9438772
_publ_section_title
;
Structure prediction by ZEFSAII (Michael W. Deem and Ramdas Pophale) SiO2 
 PCOD9438772
Probable space group: P B C M
;
_chemical_formula_sum "Si O2"
_cell_formula_units_Z 64
_cell_length_a 9.245720
_cell_length_b 18.987337
_cell_length_c 19.749184
_cell_angle_alpha 90.000000
_cell_angle_beta 90.000000
_cell_angle_gamma 90.000000
_cell_volume 3467.000878
_symmetry_space_group_name_H-M "P B C M"
_symmetry_group_IT_number 57
_symmetry_cell_setting 'orthorhombic'
loop_
_space_group_symop_operation_xyz
x,y,z
-x,-y,1/2+z
x,1/2-y,-z
-x,1/2+y,1/2-z
-x,-y,-z
x,y,1/2-z
-x,1/2+y,z
x,1/2-y,1/2+z
loop_
_atom_site_type_symbol
_atom_site_label
_atom_site_fract_x
_atom_site_fract_y
_atom_site_fract_z
Si Si1 0.368037 0.057662 0.827016
Si Si2 0.411543 0.201930 0.905827
Si Si3 0.282151 0.339305 0.945974
Si Si4 0.048561 0.629795 0.076690
Si Si5 0.418840 0.491190 0.928787
Si Si6 0.148641 0.591825 0.570519
Si Si7 0.041656 0.001205 0.671880
Si Si8 0.258146 0.742104 0.919649
O O1 0.418896 0.060824 0.750000
O O2 0.375267 0.135655 0.859055
O O3 0.466538 0.005296 0.870355
O O4 0.206368 0.027700 0.828756
O O5 0.326212 0.275063 0.897311
O O6 0.579302 0.224449 0.896151
O O7 0.361753 0.176432 0.981719
O O8 0.340866 0.415771 0.924606
O O9 0.107905 0.340543 0.946764
O O10 0.029833 0.575323 0.137702
O O11 0.165702 0.688820 0.098709
O O12 0.104353 0.590672 0.008580
O O13 0.301389 0.552876 0.924504
O O14 0.500000 0.500000 0.000000
O O15 0.163320 0.672764 0.592049
O O16 0.043572 0.552140 0.621229
O O17 0.990382 0.002218 0.750000
O O18 0.276751 0.750000 0.000000
#
# Coordination Sequence:
#
# PCOD9438772 Si02
#       8
#     8   8   8   8   8   8   8   8
#     4  11  25  43  64  90 127 169 213 261 317 383
#     4  11  22  40  60  92 130 161 205 256 315 377
#     4  11  23  37  64  96 126 159 206 266 308 369
#     4  11  24  39  63  98 123 163 209 258 318 374
#     4  12  22  39  66  97 123 164 208 266 322 370
#     4  11  22  39  66  92 125 162 206 263 316 377
#     4  11  25  44  63  89 128 168 214 265 311 371
#     4  10  21  38  60  94 126 157 203 259 317 374
#
# _framework density 18.459758999999998
#
# number of rings (size 3 to 8) (size 9 to 14) (size 15 to 20)
#    0.000    1.000    5.000    1.875   10.500    0.500 
#    0.000    2.500    0.000    0.000    0.000    0.000 
#    0.000    0.000    0.000    0.000    0.000    0.000 
#
# Total GULP energy -357134.873145 kJ/mol
# GULP energy per Si atom -5580.232393 kJ/mol
# Density = 1.841774 g / cm^3
# Si number density = 18.459759 Si / 1000 Ang^3
#
#
#
# Elastic Constant Matrix: (Units=GPa)
#
#
# Indices 1 2 3 4 5 6 
#
# 1 69.8195 7.2739 26.5505 0.0000 0.0000 0.0000
# 2 7.2739 74.7737 35.9179 0.0000 0.0000 0.0000
# 3 26.5505 35.9179 78.4224 0.0000 0.0000 0.0000
# 4 0.0000 0.0000 0.0000 9.3112 0.0000 0.0000
# 5 0.0000 0.0000 0.0000 0.0000 17.9887 0.0000
# 6 0.0000 0.0000 0.0000 0.0000 0.0000 26.5245
#
#
#
# Elastic Compliance Matrix: (Units=1/GPa)
#
#
# Indices 1 2 3 4 5 6 
#
# 1 0.016550 0.001387 -0.006238 0.000000 0.000000 0.000000
# 2 0.001387 0.017262 -0.008376 0.000000 0.000000 0.000000
# 3 -0.006238 -0.008376 0.018700 0.000000 0.000000 0.000000
# 4 0.000000 0.000000 0.000000 0.107398 0.000000 0.000000
# 5 0.000000 0.000000 0.000000 0.000000 0.055591 0.000000
# 6 0.000000 0.000000 0.000000 0.000000 0.000000 0.037701
#
#
# Mechanical properties :
#
#
# Convention : Reuss Voigt Hill
#
# Bulk Modulus (GPa) = 38.37676 40.27781 39.32729
# Shear Modulus (GPa) = 17.34054 20.98309 19.16181
#
# Velocity S-wave (km/s) = 3.06824 3.37515 3.22534
# Velocity P-wave (km/s) = 5.77812 6.08732 5.93473
#
# Compressibility (1/GPa) = 0.02605744
#
# Stress axis : x y z
#
# Youngs Moduli (GPa) = 60.42131 57.93055 53.47722
#
# Poissons Ratio (x) = -0.08033 0.33361
# Poissons Ratio (y) = -0.08378 0.44790
# Poissons Ratio (z) = 0.37693 0.48520
#
# Static dielectric constant tensor:
#      x y z
#    x 1.692500 0.000000 0.000000 
#    y 0.000000 1.671880 0.000000 
#    z 0.000000 0.000000 1.627890 
# 
# From -- ./inp_files/24584.got.cif
#   From: 2010.05.17/outbox.cif.g08.bks.cpg/sg57_13_cif.got.tgz:24584.got - 2010.06.03 13:58:18.
