data_PCOD9438028
_publ_section_title
;
Structure prediction by ZEFSAII (Michael W. Deem and Ramdas Pophale) SiO2 
 PCOD9438028
Probable space group: P B C M
;
_chemical_formula_sum "Si O2"
_cell_formula_units_Z 48
_cell_length_a 9.283792
_cell_length_b 31.639961
_cell_length_c 8.643256
_cell_angle_alpha 90.000000
_cell_angle_beta 90.000000
_cell_angle_gamma 90.000000
_cell_volume 2538.859791
_symmetry_space_group_name_H-M "P B C M"
_symmetry_group_IT_number 57
_symmetry_cell_setting 'orthorhombic'
loop_
_space_group_symop_operation_xyz
x,y,z
-x,-y,1/2+z
x,1/2-y,-z
-x,1/2+y,1/2-z
-x,-y,-z
x,y,1/2-z
-x,1/2+y,z
x,1/2-y,1/2+z
loop_
_atom_site_type_symbol
_atom_site_label
_atom_site_fract_x
_atom_site_fract_y
_atom_site_fract_z
Si Si1 0.914304 0.295440 0.936014
Si Si2 0.915088 0.040161 0.436462
Si Si3 0.094492 0.123007 0.062349
Si Si4 0.421203 0.703988 0.063973
Si Si5 0.583717 0.877279 0.065455
Si Si6 0.418841 0.541127 0.436346
O O1 0.917880 0.293899 0.750000
O O2 0.747077 0.302617 0.980618
O O3 0.014797 0.333918 0.986553
O O4 0.959954 0.250000 0.000000
O O5 0.916540 0.038413 0.250000
O O6 0.748488 0.040226 0.485586
O O7 0.996566 0.083046 0.482677
O O8 0.000000 0.000000 0.500000
O O9 0.106163 0.123255 0.250000
O O10 0.252122 0.119534 0.991329
O O11 0.430901 0.703827 0.250000
O O12 0.464188 0.750000 0.000000
O O13 0.515276 0.666242 0.996128
O O14 0.577706 0.878424 0.250000
O O15 0.494896 0.916671 0.997412
O O16 0.500000 0.500000 0.500000
O O17 0.424414 0.540988 0.250000
#
# Coordination Sequence:
#
# PCOD9438028 Si02
#       6
#     8   8   8   8   8   8
#     4   9  19  36  60  86 113 147 190 236 289 345
#     4  10  22  39  61  86 114 148 189 234 286 342
#     4  10  21  39  59  81 113 154 192 235 289 343
#     4  10  20  38  62  88 117 152 193 241 292 347
#     4  12  25  39  57  86 119 156 198 240 287 343
#     4  11  23  41  63  89 119 153 192 238 288 344
#
# _framework density 18.906123999999998
#
# number of rings (size 3 to 8) (size 9 to 14) (size 15 to 20)
#    0.000    1.667    0.000    4.500    0.000    9.333 
#    0.000    3.333    0.000    0.000    0.000    0.000 
#    0.000    0.000    0.000    0.000    0.000    0.000 
#
# Total GULP energy -268347.353434 kJ/mol
# GULP energy per Si atom -5590.569863 kJ/mol
# Density = 1.886309 g / cm^3
# Si number density = 18.906124 Si / 1000 Ang^3
#
#
#
# Elastic Constant Matrix: (Units=GPa)
#
#
# Indices 1 2 3 4 5 6 
#
# 1 182.8220 135.1341 53.3195 0.0000 0.0000 0.0000
# 2 135.1341 203.2104 54.9040 0.0000 0.0000 0.0000
# 3 53.3195 54.9040 57.7008 0.0000 0.0000 0.0000
# 4 0.0000 0.0000 0.0000 38.2989 0.0000 0.0000
# 5 0.0000 0.0000 0.0000 0.0000 25.7193 0.0000
# 6 0.0000 0.0000 0.0000 0.0000 0.0000 43.2047
#
#
#
# Elastic Compliance Matrix: (Units=1/GPa)
#
#
# Indices 1 2 3 4 5 6 
#
# 1 0.011578 -0.006473 -0.004540 0.000000 0.000000 0.000000
# 2 -0.006473 0.010243 -0.003765 0.000000 0.000000 0.000000
# 3 -0.004540 -0.003765 0.025108 0.000000 0.000000 0.000000
# 4 0.000000 0.000000 0.000000 0.026110 0.000000 0.000000
# 5 0.000000 0.000000 0.000000 0.000000 0.038881 0.000000
# 6 0.000000 0.000000 0.000000 0.000000 0.000000 0.023146
#
#
# Mechanical properties :
#
#
# Convention : Reuss Voigt Hill
#
# Bulk Modulus (GPa) = 57.55742 103.38315 80.47028
# Shear Modulus (GPa) = 29.34038 34.80296 32.07167
#
# Velocity S-wave (km/s) = 3.94369 4.29514 4.12316
# Velocity P-wave (km/s) = 7.15869 8.91060 8.08225
#
# Compressibility (1/GPa) = 0.01737395
#
# Stress axis : x y z
#
# Youngs Moduli (GPa) = 86.36752 97.63074 39.82741
#
# Poissons Ratio (x) = 0.63196 0.18082
# Poissons Ratio (y) = 0.55905 0.14994
# Poissons Ratio (z) = 0.39211 0.36755
#
# Static dielectric constant tensor:
#      x y z
#    x 1.633760 0.000000 0.000000 
#    y 0.000000 1.619280 0.000000 
#    z 0.000000 0.000000 1.641570 
# 
# From -- ./inp_files/2046.got.cif
#   From: 2010.05.17/outbox.cif.g08.bks.cpg/sg57_2_cif.got.tgz:2046.got - 2010.06.03 13:58:18.
