data_PCOD9438550
_publ_section_title
;
Structure prediction by ZEFSAII (Michael W. Deem and Ramdas Pophale) SiO2 
 PCOD9438550
Probable space group: P B C M
;
_chemical_formula_sum "Si O2"
_cell_formula_units_Z 64
_cell_length_a 26.897427
_cell_length_b 15.039150
_cell_length_c 8.661730
_cell_angle_alpha 90.000000
_cell_angle_beta 90.000000
_cell_angle_gamma 90.000000
_cell_volume 3503.794854
_symmetry_space_group_name_H-M "P B C M"
_symmetry_group_IT_number 57
_symmetry_cell_setting 'orthorhombic'
loop_
_space_group_symop_operation_xyz
x,y,z
-x,-y,1/2+z
x,1/2-y,-z
-x,1/2+y,1/2-z
-x,-y,-z
x,y,1/2-z
-x,1/2+y,z
x,1/2-y,1/2+z
loop_
_atom_site_type_symbol
_atom_site_label
_atom_site_fract_x
_atom_site_fract_y
_atom_site_fract_z
Si Si1 0.055381 0.503060 0.435208
Si Si2 0.870995 0.652121 0.563810
Si Si3 0.758317 0.652214 0.936038
Si Si4 0.686335 0.005655 0.435425
Si Si5 0.872863 0.349208 0.065125
Si Si6 0.503172 0.850652 0.435325
Si Si7 0.575710 0.998172 0.935043
Si Si8 0.760420 0.150598 0.564825
O O1 0.053622 0.503216 0.250000
O O2 0.088031 0.418310 0.487550
O O3 0.085640 0.588226 0.493294
O O4 0.000000 0.500000 0.500000
O O5 0.881093 0.750000 0.500000
O O6 0.871591 0.654962 0.750000
O O7 0.814647 0.626884 0.515547
O O8 0.757873 0.655287 0.750000
O O9 0.717545 0.581149 0.986057
O O10 0.748080 0.750000 0.000000
O O11 0.682840 0.005723 0.250000
O O12 0.718990 0.088614 0.490884
O O13 0.631670 0.005983 0.506216
O O14 0.877109 0.347952 0.250000
O O15 0.816666 0.380589 0.025178
O O16 0.877804 0.250000 0.000000
O O17 0.501638 0.750000 0.500000
O O18 0.505252 0.845416 0.250000
O O19 0.549202 0.910481 0.495479
O O20 0.455876 0.913217 0.479131
O O21 0.574262 0.991495 0.750000
O O22 0.755642 0.250000 0.500000
O O23 0.755821 0.151237 0.750000
#
# Coordination Sequence:
#
# PCOD9438550 Si02
#       8
#     8   8   8   8   8   8   8   8
#     4  11  23  38  56  80 111 144 182 230 282 338
#     4   9  19  36  57  79 105 139 179 223 271 323
#     4   9  19  35  55  80 108 142 182 222 268 323
#     4  11  22  36  56  83 119 155 187 229 279 331
#     4  10  21  38  60  84 110 144 186 231 281 338
#     4  10  21  39  63  86 110 146 190 236 286 337
#     4  10  22  39  58  84 117 150 190 236 281 333
#     4  10  21  37  58  84 113 147 188 231 279 337
#
# _framework density 18.265908
#
# number of rings (size 3 to 8) (size 9 to 14) (size 15 to 20)
#    0.000    2.000    0.000    3.000    0.000    7.500 
#    0.000    6.250    0.000    0.000    0.000    0.000 
#    0.000    0.000    0.000    0.000    0.000    0.000 
#
# Total GULP energy -357401.459760 kJ/mol
# GULP energy per Si atom -5584.397809 kJ/mol
# Density = 1.822433 g / cm^3
# Si number density = 18.265908 Si / 1000 Ang^3
#
#
#
# Elastic Constant Matrix: (Units=GPa)
#
#
# Indices 1 2 3 4 5 6 
#
# 1 180.2152 103.9213 48.4411 0.0000 0.0000 0.0000
# 2 103.9213 134.7573 38.0188 0.0000 0.0000 0.0000
# 3 48.4411 38.0188 45.0232 0.0000 0.0000 0.0000
# 4 0.0000 0.0000 0.0000 34.0667 0.0000 0.0000
# 5 0.0000 0.0000 0.0000 0.0000 41.6089 0.0000
# 6 0.0000 0.0000 0.0000 0.0000 0.0000 99.7742
#
#
#
# Elastic Compliance Matrix: (Units=1/GPa)
#
#
# Indices 1 2 3 4 5 6 
#
# 1 0.011184 -0.006866 -0.006236 0.000000 0.000000 0.000000
# 2 -0.006866 0.013956 -0.004398 0.000000 0.000000 0.000000
# 3 -0.006236 -0.004398 0.032634 0.000000 0.000000 0.000000
# 4 0.000000 0.000000 0.000000 0.029354 0.000000 0.000000
# 5 0.000000 0.000000 0.000000 0.000000 0.024033 0.000000
# 6 0.000000 0.000000 0.000000 0.000000 0.000000 0.010023
#
#
# Mechanical properties :
#
#
# Convention : Reuss Voigt Hill
#
# Bulk Modulus (GPa) = 43.90747 82.30645 63.10696
# Shear Modulus (GPa) = 30.52977 46.39760 38.46368
#
# Velocity S-wave (km/s) = 4.09272 5.04543 4.59384
# Velocity P-wave (km/s) = 6.81351 8.89380 7.92224
#
# Compressibility (1/GPa) = 0.02277517
#
# Stress axis : x y z
#
# Youngs Moduli (GPa) = 89.41253 71.65271 30.64322
#
# Poissons Ratio (x) = 0.49194 0.19108
# Poissons Ratio (y) = 0.61388 0.13477
# Poissons Ratio (z) = 0.55754 0.31514
#
# Static dielectric constant tensor:
#      x y z
#    x 1.611540 0.000000 0.000000 
#    y 0.000000 1.604860 0.000000 
#    z 0.000000 0.000000 1.615580 
# 
# From -- ./inp_files/9454.got.cif
#   From: 2010.05.17/outbox.cif.g08.bks.cpg/sg57_5_cif.got.tgz:9454.got - 2010.06.03 13:58:18.
