data_PCOD9438671
_publ_section_title
;
Structure prediction by ZEFSAII (Michael W. Deem and Ramdas Pophale) SiO2 
 PCOD9438671
Probable space group: P B C M
;
_chemical_formula_sum "Si O2"
_cell_formula_units_Z 36
_cell_length_a 11.384608
_cell_length_b 11.529910
_cell_length_c 15.006847
_cell_angle_alpha 90.000000
_cell_angle_beta 90.000000
_cell_angle_gamma 90.000000
_cell_volume 1969.851346
_symmetry_space_group_name_H-M "P B C M"
_symmetry_group_IT_number 57
_symmetry_cell_setting 'orthorhombic'
loop_
_space_group_symop_operation_xyz
x,y,z
-x,-y,1/2+z
x,1/2-y,-z
-x,1/2+y,1/2-z
-x,-y,-z
x,y,1/2-z
-x,1/2+y,z
x,1/2-y,1/2+z
loop_
_atom_site_type_symbol
_atom_site_label
_atom_site_fract_x
_atom_site_fract_y
_atom_site_fract_z
Si Si1 0.301188 0.364746 0.750000
Si Si2 0.266840 0.754974 0.895000
Si Si3 0.267406 0.096627 0.750000
Si Si4 0.574706 0.129976 0.250000
Si Si5 0.155076 0.995784 0.392426
Si Si6 0.119903 0.515298 0.397817
O O1 0.307857 0.226789 0.750000
O O2 0.437687 0.397601 0.750000
O O3 0.230903 0.413820 0.664409
O O4 0.375651 0.796779 0.834516
O O5 0.210868 0.630549 0.871774
O O6 0.168087 0.854548 0.881706
O O7 0.297706 0.750000 0.000000
O O8 0.363661 0.995466 0.750000
O O9 0.189525 0.072311 0.663732
O O10 0.151628 0.011386 0.499497
O O11 0.016504 0.004997 0.372648
#
# Coordination Sequence:
#
# PCOD9438671 Si02
#       6
#     4   8   4   4   8   8
#     4  12  26  37  59  92 116 161 202 237 293 351
#     4   9  19  39  64  86 115 160 199 240 303 351
#     4  10  23  40  57  85 124 154 198 244 301 341
#     4  10  23  43  58  81 122 163 202 251 284 346
#     4  10  21  37  64  91 119 151 201 241 302 363
#     4   9  20  40  62  91 121 152 187 253 304 357
#
# _framework density 18.275490000000001
#
# number of rings (size 3 to 8) (size 9 to 14) (size 15 to 20)
#    0.000    2.222    0.000    1.333    6.222    0.889 
#    4.000    3.333    0.000    0.000    0.000    0.000 
#    0.000    0.000    0.000    0.000    0.000    0.000 
#
# Total GULP energy -200767.362570 kJ/mol
# GULP energy per Si atom -5576.871183 kJ/mol
# Density = 1.823389 g / cm^3
# Si number density = 18.275490 Si / 1000 Ang^3
#
#
#
# Elastic Constant Matrix: (Units=GPa)
#
#
# Indices 1 2 3 4 5 6 
#
# 1 137.0677 21.0827 52.6118 0.0000 0.0000 0.0000
# 2 21.0827 57.4910 25.2402 0.0000 0.0000 0.0000
# 3 52.6118 25.2402 58.9984 0.0000 0.0000 0.0000
# 4 0.0000 0.0000 0.0000 33.5013 0.0000 0.0000
# 5 0.0000 0.0000 0.0000 0.0000 -10.6865 0.0000
# 6 0.0000 0.0000 0.0000 0.0000 0.0000 13.1528
#
#
#
# Elastic Compliance Matrix: (Units=1/GPa)
#
#
# Indices 1 2 3 4 5 6 
#
# 1 0.011098 0.000339 -0.010041 0.000000 0.000000 0.000000
# 2 0.000339 0.021427 -0.009469 0.000000 0.000000 0.000000
# 3 -0.010041 -0.009469 0.029955 0.000000 0.000000 0.000000
# 4 0.000000 0.000000 0.000000 0.029850 0.000000 0.000000
# 5 0.000000 0.000000 0.000000 0.000000 -0.093576 0.000000
# 6 0.000000 0.000000 0.000000 0.000000 0.000000 0.076030
#
#
# Mechanical properties :
#
#
# Convention : Reuss Voigt Hill
#
# Bulk Modulus (GPa) = 41.43057 50.15850 45.79453
# Shear Modulus (GPa) = 41.26414 17.50169 29.38292
#
# Velocity S-wave (km/s) = 4.75689 3.09796 4.01406
# Velocity P-wave (km/s) = 7.27254 6.34838 6.82612
#
# Compressibility (1/GPa) = 0.02413677
#
# Stress axis : x y z
#
# Youngs Moduli (GPa) = 90.10777 46.67048 33.38362
#
# Poissons Ratio (x) = -0.01581 0.33522
# Poissons Ratio (y) = -0.03052 0.31610
# Poissons Ratio (z) = 0.90481 0.44191
#
# Static dielectric constant tensor:
#      x y z
#    x 1.595230 0.000000 0.000000 
#    y 0.000000 1.610120 0.000000 
#    z 0.000000 0.000000 1.648570 
# 
# From -- ./inp_files/17358.got.cif
#   From: 2010.05.17/outbox.cif.g08.bks.cpg/sg57_9_cif.got.tgz:17358.got - 2010.06.03 13:58:18.
