data_PCOD9438554
_publ_section_title
;
Structure prediction by ZEFSAII (Michael W. Deem and Ramdas Pophale) SiO2 
 PCOD9438554
Probable space group: P B C M
;
_chemical_formula_sum "Si O2"
_cell_formula_units_Z 48
_cell_length_a 31.475043
_cell_length_b 9.480717
_cell_length_c 8.658613
_cell_angle_alpha 90.000000
_cell_angle_beta 90.000000
_cell_angle_gamma 90.000000
_cell_volume 2583.781857
_symmetry_space_group_name_H-M "P B C M"
_symmetry_group_IT_number 57
_symmetry_cell_setting 'orthorhombic'
loop_
_space_group_symop_operation_xyz
x,y,z
-x,-y,1/2+z
x,1/2-y,-z
-x,1/2+y,1/2-z
-x,-y,-z
x,y,1/2-z
-x,1/2+y,z
x,1/2-y,1/2+z
loop_
_atom_site_type_symbol
_atom_site_label
_atom_site_fract_x
_atom_site_fract_y
_atom_site_fract_z
Si Si1 0.710125 0.092542 0.065153
Si Si2 0.038399 0.907841 0.564616
Si Si3 0.870183 0.091569 0.564747
Si Si4 0.537725 0.906563 0.934599
Si Si5 0.366144 0.091770 0.435274
Si Si6 0.793057 0.908170 0.435823
O O1 0.707728 0.099383 0.250000
O O2 0.751107 0.998178 0.023377
O O3 0.714089 0.250000 0.000000
O O4 0.668586 0.014297 0.001053
O O5 0.033135 0.750000 0.500000
O O6 0.038741 0.907326 0.750000
O O7 0.084210 0.956776 0.501233
O O8 0.000000 0.000000 0.500000
O O9 0.862634 0.250000 0.500000
O O10 0.871654 0.097289 0.750000
O O11 0.833365 0.988567 0.507051
O O12 0.535344 0.904078 0.750000
O O13 0.585675 0.953403 0.977515
O O14 0.532915 0.750000 0.000000
O O15 0.500000 0.000000 0.000000
O O16 0.359368 0.250000 0.500000
O O17 0.363030 0.097096 0.250000
O O18 0.789794 0.750000 0.500000
O O19 0.796796 0.904451 0.250000
#
# Coordination Sequence:
#
# PCOD9438554 Si02
#       6
#     8   8   8   8   8   8
#     4  11  24  40  61  87 117 152 192 236 286 341
#     4  11  22  39  61  88 120 156 197 242 291 345
#     4  11  22  39  62  88 118 155 195 239 290 344
#     4  10  21  37  58  84 114 151 191 236 286 341
#     4  10  21  38  60  85 115 150 191 236 287 341
#     4  11  24  41  61  88 118 152 192 237 287 342
#
# _framework density 18.57742
#
# number of rings (size 3 to 8) (size 9 to 14) (size 15 to 20)
#    0.000    1.333    0.000    7.000    0.000    8.667 
#    0.000    3.333    0.000    0.000    0.000    0.000 
#    0.000    0.000    0.000    0.000    0.000    0.000 
#
# Total GULP energy -268395.828892 kJ/mol
# GULP energy per Si atom -5591.579769 kJ/mol
# Density = 1.853514 g / cm^3
# Si number density = 18.577420 Si / 1000 Ang^3
#
#
#
# Elastic Constant Matrix: (Units=GPa)
#
#
# Indices 1 2 3 4 5 6 
#
# 1 210.6594 128.8955 93.1931 0.0000 0.0000 0.0000
# 2 128.8955 131.7749 67.8395 0.0000 0.0000 0.0000
# 3 93.1931 67.8395 127.7696 0.0000 0.0000 0.0000
# 4 0.0000 0.0000 0.0000 38.6066 0.0000 0.0000
# 5 0.0000 0.0000 0.0000 0.0000 28.5685 0.0000
# 6 0.0000 0.0000 0.0000 0.0000 0.0000 44.1645
#
#
#
# Elastic Compliance Matrix: (Units=1/GPa)
#
#
# Indices 1 2 3 4 5 6 
#
# 1 0.013017 -0.010795 -0.003762 0.000000 0.000000 0.000000
# 2 -0.010795 0.019396 -0.002425 0.000000 0.000000 0.000000
# 3 -0.003762 -0.002425 0.011858 0.000000 0.000000 0.000000
# 4 0.000000 0.000000 0.000000 0.025902 0.000000 0.000000
# 5 0.000000 0.000000 0.000000 0.000000 0.035004 0.000000
# 6 0.000000 0.000000 0.000000 0.000000 0.000000 0.022643
#
#
# Mechanical properties :
#
#
# Convention : Reuss Voigt Hill
#
# Bulk Modulus (GPa) = 97.02508 116.67336 106.84922
# Shear Modulus (GPa) = 30.26261 34.28630 32.27446
#
# Velocity S-wave (km/s) = 4.04047 4.30069 4.17261
# Velocity P-wave (km/s) = 8.60860 9.35957 8.99193
#
# Compressibility (1/GPa) = 0.01030661
#
# Stress axis : x y z
#
# Youngs Moduli (GPa) = 76.82360 51.55575 84.33027
#
# Poissons Ratio (x) = 0.55657 0.31728
# Poissons Ratio (y) = 0.82935 0.20446
# Poissons Ratio (z) = 0.28904 0.12500
#
# Static dielectric constant tensor:
#      x y z
#    x 1.638430 0.000000 0.000000 
#    y 0.000000 1.627740 0.000000 
#    z 0.000000 0.000000 1.620140 
# 
# From -- ./inp_files/9900.got.cif
#   From: 2010.05.17/outbox.cif.g08.bks.cpg/sg57_5_cif.got.tgz:9900.got - 2010.06.03 13:58:18.
