data_PCOD9438283
_publ_section_title
;
Structure prediction by ZEFSAII (Michael W. Deem and Ramdas Pophale) SiO2 
 PCOD9438283
Probable space group: P B C M
;
_chemical_formula_sum "Si O2"
_cell_formula_units_Z 36
_cell_length_a 19.551308
_cell_length_b 8.842458
_cell_length_c 9.907901
_cell_angle_alpha 90.000000
_cell_angle_beta 90.000000
_cell_angle_gamma 90.000000
_cell_volume 1712.893974
_symmetry_space_group_name_H-M "P B C M"
_symmetry_group_IT_number 57
_symmetry_cell_setting 'orthorhombic'
loop_
_space_group_symop_operation_xyz
x,y,z
-x,-y,1/2+z
x,1/2-y,-z
-x,1/2+y,1/2-z
-x,-y,-z
x,y,1/2-z
-x,1/2+y,z
x,1/2-y,1/2+z
loop_
_atom_site_type_symbol
_atom_site_label
_atom_site_fract_x
_atom_site_fract_y
_atom_site_fract_z
Si Si1 0.098390 0.007117 0.397007
Si Si2 0.550919 0.642358 0.750000
Si Si3 0.657243 0.573130 0.975300
Si Si4 0.004201 0.750000 0.000000
Si Si5 0.407257 0.006851 0.250000
Si Si6 0.792006 0.398690 0.594226
O O1 0.132252 0.014070 0.250000
O O2 0.151542 0.002477 0.519994
O O3 0.053241 0.855684 0.411648
O O4 0.045002 0.142611 0.414227
O O5 0.590649 0.576488 0.879651
O O6 0.562828 0.822131 0.750000
O O7 0.471610 0.603447 0.750000
O O8 0.720122 0.485771 0.910289
O O9 0.675177 0.750000 0.000000
O O10 0.637879 0.495530 0.116260
O O11 0.788160 0.250000 0.500000
O O12 0.809780 0.364794 0.750000
#
# Coordination Sequence:
#
# PCOD9438283 Si02
#       6
#     8   4   8   4   4   8
#     4  11  24  44  71 101 135 176 225 274 334 396
#     4  10  20  42  62 100 130 173 214 273 323 395
#     4  10  23  43  65  94 135 176 220 273 325 392
#     4  10  24  44  70 102 138 172 218 278 334 394
#     4  10  22  36  70  96 132 167 220 265 333 387
#     4  12  27  45  66  97 135 177 225 278 335 398
#
# _framework density 21.017061999999999
#
# number of rings (size 3 to 8) (size 9 to 14) (size 15 to 20)
#    0.000    1.333    2.222    2.000    4.667    6.222 
#    0.000    0.000    0.000    0.000    0.000    0.000 
#    0.000    0.000    0.000    0.000    0.000    0.000 
#
# Total GULP energy -201314.770308 kJ/mol
# GULP energy per Si atom -5592.076953 kJ/mol
# Density = 2.096923 g / cm^3
# Si number density = 21.017062 Si / 1000 Ang^3
#
#
#
# Elastic Constant Matrix: (Units=GPa)
#
#
# Indices 1 2 3 4 5 6 
#
# 1 72.5312 14.6630 25.4254 0.0000 0.0000 0.0000
# 2 14.6630 33.3641 13.7038 0.0000 0.0000 0.0000
# 3 25.4254 13.7038 162.9442 0.0000 0.0000 0.0000
# 4 0.0000 0.0000 0.0000 -39.7964 0.0000 0.0000
# 5 0.0000 0.0000 0.0000 0.0000 5.8089 0.0000
# 6 0.0000 0.0000 0.0000 0.0000 0.0000 29.3172
#
#
#
# Elastic Compliance Matrix: (Units=1/GPa)
#
#
# Indices 1 2 3 4 5 6 
#
# 1 0.015700 -0.006105 -0.001936 0.000000 0.000000 0.000000
# 2 -0.006105 0.033418 -0.001858 0.000000 0.000000 0.000000
# 3 -0.001936 -0.001858 0.006595 0.000000 0.000000 0.000000
# 4 0.000000 0.000000 0.000000 -0.025128 0.000000 0.000000
# 5 0.000000 0.000000 0.000000 0.000000 0.172149 0.000000
# 6 0.000000 0.000000 0.000000 0.000000 0.000000 0.034110
#
#
# Mechanical properties :
#
#
# Convention : Reuss Voigt Hill
#
# Bulk Modulus (GPa) = 27.84277 41.82489 34.83383
# Shear Modulus (GPa) = 18.61406 13.40243 16.00824
#
# Velocity S-wave (km/s) = 2.97924 2.52800 2.76285
# Velocity P-wave (km/s) = 5.01108 5.33523 5.17569
#
# Compressibility (1/GPa) = 0.03591596
#
# Stress axis : x y z
#
# Youngs Moduli (GPa) = 63.69392 29.92366 151.61897
#
# Poissons Ratio (x) = 0.18267 0.29359
# Poissons Ratio (y) = 0.38883 0.28171
# Poissons Ratio (z) = 0.12334 0.05560
#
# Static dielectric constant tensor:
#      x y z
#    x 1.707350 0.000000 0.000000 
#    y 0.000000 1.749620 0.000000 
#    z 0.000000 0.000000 1.766790 
# 
# From -- ./inp_files/7662.got.cif
#   From: 2010.05.17/outbox.cif.g08.bks.cpg/sg57_4_cif.got.tgz:7662.got - 2010.06.03 13:58:18.
