data_PCOD9438994
_publ_section_title
;
Structure prediction by ZEFSAII (Michael W. Deem and Ramdas Pophale) SiO2 
 PCOD9438994
Probable space group: P B C M
;
_chemical_formula_sum "Si O2"
_cell_formula_units_Z 32
_cell_length_a 16.993218
_cell_length_b 4.856669
_cell_length_c 16.253406
_cell_angle_alpha 90.000000
_cell_angle_beta 90.000000
_cell_angle_gamma 90.000000
_cell_volume 1341.400669
_symmetry_space_group_name_H-M "P B C M"
_symmetry_group_IT_number 57
_symmetry_cell_setting 'orthorhombic'
loop_
_space_group_symop_operation_xyz
x,y,z
-x,-y,1/2+z
x,1/2-y,-z
-x,1/2+y,1/2-z
-x,-y,-z
x,y,1/2-z
-x,1/2+y,z
x,1/2-y,1/2+z
loop_
_atom_site_type_symbol
_atom_site_label
_atom_site_fract_x
_atom_site_fract_y
_atom_site_fract_z
Si Si1 0.445982 0.535619 0.846767
Si Si2 0.717865 0.096270 0.585929
Si Si3 0.952360 0.238150 0.400776
Si Si4 0.797942 0.919651 0.157186
O O1 0.424632 0.502546 0.750000
O O2 0.519289 0.336082 0.862169
O O3 0.369761 0.483492 0.901492
O O4 0.730493 0.250000 0.500000
O O5 0.731142 0.344905 0.650205
O O6 0.776685 0.841977 0.600967
O O7 0.946966 0.250000 0.500000
O O8 0.973970 0.545646 0.374991
O O9 0.875135 0.090977 0.367964
O O10 0.804074 0.816959 0.250000
#
# Coordination Sequence:
#
# PCOD9438994 Si02
#       4
#     8   8   8   8
#     4  10  21  39  64  93 128 169 214 269 334 401
#     4  12  26  43  66  97 134 175 222 277 335 398
#     4  10  22  41  66  97 133 171 213 267 329 390
#     4  12  25  43  68  97 133 176 225 277 331 398
#
# _framework density 23.855664000000001
#
# number of rings (size 3 to 8) (size 9 to 14) (size 15 to 20)
#    0.000    1.000    0.000    6.750    0.000    8.000 
#    0.000    0.000    0.000    0.000    0.000    0.000 
#    0.000    0.000    0.000    0.000    0.000    0.000 
#
# Total GULP energy -179156.127487 kJ/mol
# GULP energy per Si atom -5598.628984 kJ/mol
# Density = 2.380137 g / cm^3
# Si number density = 23.855664 Si / 1000 Ang^3
#
#
#
# Elastic Constant Matrix: (Units=GPa)
#
#
# Indices 1 2 3 4 5 6 
#
# 1 94.0506 7.9362 32.0594 0.0000 0.0000 0.0000
# 2 7.9362 81.6281 22.6371 0.0000 0.0000 0.0000
# 3 32.0594 22.6371 84.9359 0.0000 0.0000 0.0000
# 4 0.0000 0.0000 0.0000 -509.5730 0.0000 0.0000
# 5 0.0000 0.0000 0.0000 0.0000 -161.2419 0.0000
# 6 0.0000 0.0000 0.0000 0.0000 0.0000 28.9770
#
#
#
# Elastic Compliance Matrix: (Units=1/GPa)
#
#
# Indices 1 2 3 4 5 6 
#
# 1 0.012203 0.000098 -0.004632 0.000000 0.000000 0.000000
# 2 0.000098 0.013229 -0.003563 0.000000 0.000000 0.000000
# 3 -0.004632 -0.003563 0.014472 0.000000 0.000000 0.000000
# 4 0.000000 0.000000 0.000000 -0.001962 0.000000 0.000000
# 5 0.000000 0.000000 0.000000 0.000000 -0.006202 0.000000
# 6 0.000000 0.000000 0.000000 0.000000 0.000000 0.034510
#
#
# Mechanical properties :
#
#
# Convention : Reuss Voigt Hill
#
# Bulk Modulus (GPa) = 42.17622 42.87557 42.52589
# Shear Modulus (GPa) = 55.34187 -115.16878 -29.91346
#
# Velocity S-wave (km/s) = 4.82172 -6.95573 -3.54494
# Velocity P-wave (km/s) = 6.97974 6.81891 1.05337
#
# Compressibility (1/GPa) = 0.02371004
#
# Stress axis : x y z
#
# Youngs Moduli (GPa) = 81.94475 75.59040 69.10055
#
# Poissons Ratio (x) = -0.00742 0.32010
# Poissons Ratio (y) = -0.00805 0.24620
# Poissons Ratio (z) = 0.37960 0.26932
#
# Static dielectric constant tensor:
#      x y z
#    x 1.928750 0.000000 0.000000 
#    y 0.000000 1.868420 0.000000 
#    z 0.000000 0.000000 1.906290 
# 
# From -- ./inp_files/18763.got.cif
#   From: 2010.05.17/outbox.cif.g08.bks.cpg/sg57_10_cif.got.tgz:18763.got - 2010.06.03 13:58:18.
