data_PCOD9438971
_publ_section_title
;
Structure prediction by ZEFSAII (Michael W. Deem and Ramdas Pophale) SiO2 
 PCOD9438971
Probable space group: P B C M
;
_chemical_formula_sum "Si O2"
_cell_formula_units_Z 64
_cell_length_a 9.489383
_cell_length_b 13.511214
_cell_length_c 25.775395
_cell_angle_alpha 90.000000
_cell_angle_beta 90.000000
_cell_angle_gamma 90.000000
_cell_volume 3304.742896
_symmetry_space_group_name_H-M "P B C M"
_symmetry_group_IT_number 57
_symmetry_cell_setting 'orthorhombic'
loop_
_space_group_symop_operation_xyz
x,y,z
-x,-y,1/2+z
x,1/2-y,-z
-x,1/2+y,1/2-z
-x,-y,-z
x,y,1/2-z
-x,1/2+y,z
x,1/2-y,1/2+z
loop_
_atom_site_type_symbol
_atom_site_label
_atom_site_fract_x
_atom_site_fract_y
_atom_site_fract_z
Si Si1 0.961092 0.890159 0.902514
Si Si2 0.879045 0.807118 0.355970
Si Si3 0.776911 0.513480 0.928043
Si Si4 0.692463 0.639310 0.023750
Si Si5 0.920375 0.458136 0.192489
Si Si6 0.577944 0.738378 0.689837
Si Si7 0.396868 0.545285 0.692032
Si Si8 0.517920 0.104433 0.113758
O O1 0.975065 0.778603 0.880858
O O2 0.824752 0.881879 0.938850
O O3 0.090039 0.939798 0.933930
O O4 0.939441 0.961355 0.852753
O O5 0.829079 0.887859 0.398329
O O6 0.737628 0.760040 0.331562
O O7 0.967366 0.871329 0.315380
O O8 0.663767 0.451479 0.895179
O O9 0.702681 0.556190 0.979318
O O10 0.553940 0.631518 0.059301
O O11 0.702099 0.750000 0.000000
O O12 0.936161 0.502668 0.250000
O O13 0.762228 0.415391 0.188716
O O14 0.573477 0.769431 0.750000
O O15 0.515787 0.628134 0.687668
O O16 0.480012 0.801632 0.651542
O O17 0.410639 0.500665 0.750000
O O18 0.417677 0.468892 0.646054
#
# Coordination Sequence:
#
# PCOD9438971 Si02
#       8
#     8   8   8   8   8   8   8   8
#     4  11  23  42  67  91 127 170 209 262 319 381
#     4  11  21  42  65  95 130 169 209 266 314 381
#     4  11  25  42  65  97 129 162 219 267 320 373
#     4  12  23  45  69  93 123 170 214 266 325 381
#     4  10  22  39  63  96 129 166 213 256 312 381
#     4  11  22  38  64  94 128 171 209 254 320 386
#     4  10  21  39  63  92 128 168 205 258 319 379
#     4  12  23  42  66  94 129 165 213 269 317 383
#
# _framework density 19.366105000000001
#
# number of rings (size 3 to 8) (size 9 to 14) (size 15 to 20)
#    0.000    1.000    5.000    1.500    1.750    2.000 
#    0.000    1.250    0.000    0.000    0.000    0.000 
#    0.000    0.000    0.000    0.000    0.000    0.000 
#
# Total GULP energy -357190.608286 kJ/mol
# GULP energy per Si atom -5581.103254 kJ/mol
# Density = 1.932203 g / cm^3
# Si number density = 19.366105 Si / 1000 Ang^3
#
#
#
# Elastic Constant Matrix: (Units=GPa)
#
#
# Indices 1 2 3 4 5 6 
#
# 1 31.1913 22.1052 -6.0361 0.0000 0.0000 0.0000
# 2 22.1052 88.0627 30.7380 0.0000 0.0000 0.0000
# 3 -6.0361 30.7380 62.6089 0.0000 0.0000 0.0000
# 4 0.0000 0.0000 0.0000 38.1798 0.0000 0.0000
# 5 0.0000 0.0000 0.0000 0.0000 26.6954 0.0000
# 6 0.0000 0.0000 0.0000 0.0000 0.0000 26.0995
#
#
#
# Elastic Compliance Matrix: (Units=1/GPa)
#
#
# Indices 1 2 3 4 5 6 
#
# 1 0.045460 -0.015617 0.012050 0.000000 0.000000 0.000000
# 2 -0.015617 0.019069 -0.010868 0.000000 0.000000 0.000000
# 3 0.012050 -0.010868 0.022469 0.000000 0.000000 0.000000
# 4 0.000000 0.000000 0.000000 0.026192 0.000000 0.000000
# 5 0.000000 0.000000 0.000000 0.000000 0.037460 0.000000
# 6 0.000000 0.000000 0.000000 0.000000 0.000000 0.038315
#
#
# Mechanical properties :
#
#
# Convention : Reuss Voigt Hill
#
# Bulk Modulus (GPa) = 17.20311 30.60858 23.90584
# Shear Modulus (GPa) = 21.07826 27.19865 24.13845
#
# Velocity S-wave (km/s) = 3.30268 3.75166 3.53431
# Velocity P-wave (km/s) = 4.84211 5.88270 5.38759
#
# Compressibility (1/GPa) = 0.05812902
#
# Stress axis : x y z
#
# Youngs Moduli (GPa) = 21.99728 52.44087 44.50485
#
# Poissons Ratio (x) = 0.81899 -0.53629
# Poissons Ratio (y) = 0.34354 0.48367
# Poissons Ratio (z) = -0.26507 0.56991
#
# Static dielectric constant tensor:
#      x y z
#    x 1.665750 0.000000 0.000000 
#    y 0.000000 1.677390 0.000000 
#    z 0.000000 0.000000 1.680880 
# 
# From -- ./inp_files/26874.got.cif
#   From: 2010.05.17/outbox.cif.g08.bks.cpg/sg57_14_cif.got.tgz:26874.got - 2010.06.03 13:58:18.
