data_PCOD9438498
_publ_section_title
;
Structure prediction by ZEFSAII (Michael W. Deem and Ramdas Pophale) SiO2 
 PCOD9438498
Probable space group: P B C M
;
_chemical_formula_sum "Si O2"
_cell_formula_units_Z 56
_cell_length_a 19.860021
_cell_length_b 16.272268
_cell_length_c 8.680994
_cell_angle_alpha 90.000000
_cell_angle_beta 90.000000
_cell_angle_gamma 90.000000
_cell_volume 2805.415859
_symmetry_space_group_name_H-M "P B C M"
_symmetry_group_IT_number 57
_symmetry_cell_setting 'orthorhombic'
loop_
_space_group_symop_operation_xyz
x,y,z
-x,-y,1/2+z
x,1/2-y,-z
-x,1/2+y,1/2-z
-x,-y,-z
x,y,1/2-z
-x,1/2+y,z
x,1/2-y,1/2+z
loop_
_atom_site_type_symbol
_atom_site_label
_atom_site_fract_x
_atom_site_fract_y
_atom_site_fract_z
Si Si1 0.706248 0.091005 0.433417
Si Si2 0.154566 0.836411 0.935616
Si Si3 0.714226 0.585160 0.065510
Si Si4 0.430380 0.842264 0.432944
Si Si5 0.075105 0.499716 0.063955
Si Si6 0.157246 0.164129 0.935165
Si Si7 0.430826 0.157990 0.066083
O O1 0.697614 0.097293 0.250000
O O2 0.767340 0.150279 0.481672
O O3 0.636076 0.110576 0.514602
O O4 0.728655 0.999844 0.479585
O O5 0.152372 0.834277 0.750000
O O6 0.113652 0.917251 0.986724
O O7 0.129122 0.750000 0.000000
O O8 0.719856 0.576028 0.250000
O O9 0.637768 0.610969 0.028542
O O10 0.768572 0.650078 0.005540
O O11 0.425114 0.750000 0.500000
O O12 0.433782 0.838496 0.250000
O O13 0.500388 0.878371 0.497059
O O14 0.073785 0.500713 0.250000
O O15 0.113841 0.416035 0.018620
O O16 0.000000 0.500000 0.000000
O O17 0.160839 0.167233 0.750000
O O18 0.129611 0.250000 0.000000
O O19 0.437534 0.162045 0.250000
O O20 0.424813 0.250000 0.000000
#
# Coordination Sequence:
#
# PCOD9438498 Si02
#       7
#     8   8   8   8   8   8   8
#     4  11  22  39  61  85 121 162 203 260 317 369
#     4  10  22  41  64  93 126 164 208 253 307 369
#     4  11  23  38  60  90 121 158 209 260 314 376
#     4  11  22  37  57  83 115 155 205 257 311 376
#     4  10  23  44  66  94 131 167 206 253 309 369
#     4  11  23  42  66  94 130 169 212 260 312 374
#     4  10  21  37  56  81 114 154 201 255 312 373
#
# _framework density 19.961390000000002
#
# number of rings (size 3 to 8) (size 9 to 14) (size 15 to 20)
#    0.000    1.429    1.429    4.714    0.000    8.571 
#    0.000    2.857    0.000    0.000    0.000    0.000 
#    0.000    0.000    0.000    0.000    0.000    0.000 
#
# Total GULP energy -313028.715197 kJ/mol
# GULP energy per Si atom -5589.798486 kJ/mol
# Density = 1.991596 g / cm^3
# Si number density = 19.961390 Si / 1000 Ang^3
#
#
#
# Elastic Constant Matrix: (Units=GPa)
#
#
# Indices 1 2 3 4 5 6 
#
# 1 123.1202 51.3801 35.5443 0.0000 0.0000 0.0000
# 2 51.3801 120.5910 21.8756 0.0000 0.0000 0.0000
# 3 35.5443 21.8756 50.5133 0.0000 0.0000 0.0000
# 4 0.0000 0.0000 0.0000 33.7361 0.0000 0.0000
# 5 0.0000 0.0000 0.0000 0.0000 46.9166 0.0000
# 6 0.0000 0.0000 0.0000 0.0000 0.0000 20.1274
#
#
#
# Elastic Compliance Matrix: (Units=1/GPa)
#
#
# Indices 1 2 3 4 5 6 
#
# 1 0.011567 -0.003746 -0.006517 0.000000 0.000000 0.000000
# 2 -0.003746 0.010213 -0.001787 0.000000 0.000000 0.000000
# 3 -0.006517 -0.001787 0.025156 0.000000 0.000000 0.000000
# 4 0.000000 0.000000 0.000000 0.029642 0.000000 0.000000
# 5 0.000000 0.000000 0.000000 0.000000 0.021314 0.000000
# 6 0.000000 0.000000 0.000000 0.000000 0.000000 0.049683
#
#
# Mechanical properties :
#
#
# Convention : Reuss Voigt Hill
#
# Bulk Modulus (GPa) = 43.78987 56.86938 50.32963
# Shear Modulus (GPa) = 27.88823 32.51767 30.20295
#
# Velocity S-wave (km/s) = 3.74185 4.04050 3.89404
# Velocity P-wave (km/s) = 6.37601 7.09359 6.74435
#
# Compressibility (1/GPa) = 0.02283633
#
# Stress axis : x y z
#
# Youngs Moduli (GPa) = 86.45397 97.91709 39.75156
#
# Poissons Ratio (x) = 0.36681 0.25906
# Poissons Ratio (y) = 0.32387 0.07103
# Poissons Ratio (z) = 0.56341 0.17496
#
# Static dielectric constant tensor:
#      x y z
#    x 1.697400 0.000000 0.000000 
#    y 0.000000 1.723580 0.000000 
#    z 0.000000 0.000000 1.666410 
# 
# From -- ./inp_files/8042.got.cif
#   From: 2010.05.17/outbox.cif.g08.bks.cpg/sg57_5_cif.got.tgz:8042.got - 2010.06.03 13:58:18.
