data_PCOD9438862
_publ_section_title
;
Structure prediction by ZEFSAII (Michael W. Deem and Ramdas Pophale) SiO2 
 PCOD9438862
Probable space group: P B C M
;
_chemical_formula_sum "Si O2"
_cell_formula_units_Z 48
_cell_length_a 6.895411
_cell_length_b 14.510931
_cell_length_c 19.910410
_cell_angle_alpha 90.000000
_cell_angle_beta 90.000000
_cell_angle_gamma 90.000000
_cell_volume 1992.212394
_symmetry_space_group_name_H-M "P B C M"
_symmetry_group_IT_number 57
_symmetry_cell_setting 'orthorhombic'
loop_
_space_group_symop_operation_xyz
x,y,z
-x,-y,1/2+z
x,1/2-y,-z
-x,1/2+y,1/2-z
-x,-y,-z
x,y,1/2-z
-x,1/2+y,z
x,1/2-y,1/2+z
loop_
_atom_site_type_symbol
_atom_site_label
_atom_site_fract_x
_atom_site_fract_y
_atom_site_fract_z
Si Si1 0.932576 0.162904 0.250000
Si Si2 0.628639 0.696363 0.750000
Si Si3 0.489093 0.404131 0.750000
Si Si4 0.552402 0.998096 0.113841
Si Si5 0.279625 0.383614 0.957121
Si Si6 0.311249 0.320204 0.399908
Si Si7 0.011468 0.018420 0.141927
Si Si8 0.821977 0.125459 0.750000
O O1 0.712995 0.125076 0.250000
O O2 0.915865 0.272206 0.250000
O O3 0.022393 0.112151 0.186031
O O4 0.614974 0.806633 0.750000
O O5 0.730508 0.672315 0.820320
O O6 0.410811 0.650794 0.750000
O O7 0.460232 0.462477 0.817453
O O8 0.483132 0.064474 0.054970
O O9 0.784700 0.002693 0.125295
O O10 0.504862 0.890947 0.099509
O O11 0.315923 0.287286 0.917816
O O12 0.130511 0.454324 0.923573
O O13 0.211048 0.359103 0.032205
O O14 0.101305 0.935339 0.186420
#
# Coordination Sequence:
#
# PCOD9438862 Si02
#       8
#     4   4   4   8   8   8   8   4
#     4   8  19  36  62  98 140 171 225 281 321 405
#     4  11  20  41  71  98 128 187 216 286 346 391
#     4   9  18  37  63  98 130 164 236 266 318 401
#     4  11  22  43  67  97 136 182 226 274 340 409
#     4  11  25  46  63 102 142 173 227 285 341 418
#     4  11  25  42  70 100 134 178 232 279 342 421
#     4  10  23  41  66  99 139 185 220 295 339 396
#     4  10  21  38  66 106 140 176 243 273 339 407
#
# _framework density 24.093816
#
# number of rings (size 3 to 8) (size 9 to 14) (size 15 to 20)
#    0.000    1.667    1.667    2.500    2.333    3.333 
#    0.000    3.333    0.000    0.000    0.000    0.000 
#    0.000    0.000    0.000    0.000    0.000    0.000 
#
# Total GULP energy -267600.704491 kJ/mol
# GULP energy per Si atom -5575.014677 kJ/mol
# Density = 2.403898 g / cm^3
# Si number density = 24.093816 Si / 1000 Ang^3
#
#
#
# Elastic Constant Matrix: (Units=GPa)
#
#
# Indices 1 2 3 4 5 6 
#
# 1 116.5309 45.1903 34.4691 0.0000 0.0000 0.0000
# 2 45.1903 183.7907 57.7711 0.0000 0.0000 0.0000
# 3 34.4691 57.7711 174.2520 0.0000 0.0000 0.0000
# 4 0.0000 0.0000 0.0000 45.5181 0.0000 0.0000
# 5 0.0000 0.0000 0.0000 0.0000 8.2162 0.0000
# 6 0.0000 0.0000 0.0000 0.0000 0.0000 34.4222
#
#
#
# Elastic Compliance Matrix: (Units=1/GPa)
#
#
# Indices 1 2 3 4 5 6 
#
# 1 0.009729 -0.001995 -0.001263 0.000000 0.000000 0.000000
# 2 -0.001995 0.006483 -0.001755 0.000000 0.000000 0.000000
# 3 -0.001263 -0.001755 0.006570 0.000000 0.000000 0.000000
# 4 0.000000 0.000000 0.000000 0.021969 0.000000 0.000000
# 5 0.000000 0.000000 0.000000 0.000000 0.121711 0.000000
# 6 0.000000 0.000000 0.000000 0.000000 0.000000 0.029051
#
#
# Mechanical properties :
#
#
# Convention : Reuss Voigt Hill
#
# Bulk Modulus (GPa) = 78.39115 83.27054 80.83084
# Shear Modulus (GPa) = 23.83319 40.10750 31.97035
#
# Velocity S-wave (km/s) = 3.14854 4.08442 3.64663
# Velocity P-wave (km/s) = 6.76936 7.54184 7.16601
#
# Compressibility (1/GPa) = 0.01275654
#
# Stress axis : x y z
#
# Youngs Moduli (GPa) = 102.78877 154.24743 152.19736
#
# Poissons Ratio (x) = 0.30774 0.19223
# Poissons Ratio (y) = 0.20507 0.26707
# Poissons Ratio (z) = 0.12982 0.27066
#
# Static dielectric constant tensor:
#      x y z
#    x 1.970860 0.000000 0.000000 
#    y 0.000000 1.949900 0.000000 
#    z 0.000000 0.000000 1.996000 
# 
# From -- ./inp_files/21031.got.cif
#   From: 2010.05.17/outbox.cif.g08.bks.cpg/sg57_11_cif.got.tgz:21031.got - 2010.06.03 13:58:18.
