data_PCOD9438851
_publ_section_title
;
Structure prediction by ZEFSAII (Michael W. Deem and Ramdas Pophale) SiO2 
 PCOD9438851
Probable space group: P B C M
;
_chemical_formula_sum "Si O2"
_cell_formula_units_Z 56
_cell_length_a 14.977448
_cell_length_b 22.714524
_cell_length_c 8.717662
_cell_angle_alpha 90.000000
_cell_angle_beta 90.000000
_cell_angle_gamma 90.000000
_cell_volume 2965.797449
_symmetry_space_group_name_H-M "P B C M"
_symmetry_group_IT_number 57
_symmetry_cell_setting 'orthorhombic'
loop_
_space_group_symop_operation_xyz
x,y,z
-x,-y,1/2+z
x,1/2-y,-z
-x,1/2+y,1/2-z
-x,-y,-z
x,y,1/2-z
-x,1/2+y,z
x,1/2-y,1/2+z
loop_
_atom_site_type_symbol
_atom_site_label
_atom_site_fract_x
_atom_site_fract_y
_atom_site_fract_z
Si Si1 0.389026 0.555649 0.566231
Si Si2 0.693465 0.811711 0.067205
Si Si3 0.071236 0.687648 0.932813
Si Si4 0.417750 0.079530 0.433623
Si Si5 0.793862 0.407029 0.929660
Si Si6 0.907986 0.975738 0.070011
Si Si7 0.880424 0.650269 0.067539
O O1 0.395114 0.560000 0.750000
O O2 0.381257 0.485897 0.526543
O O3 0.480254 0.578880 0.491500
O O4 0.303327 0.589741 0.504081
O O5 0.692596 0.809797 0.250000
O O6 0.658323 0.750000 0.000000
O O7 0.637686 0.867891 0.008938
O O8 0.794545 0.819824 0.007492
O O9 0.065509 0.689588 0.750000
O O10 0.101661 0.750000 0.000000
O O11 0.139367 0.637340 0.986200
O O12 0.973457 0.674368 0.001708
O O13 0.414416 0.085654 0.250000
O O14 0.788867 0.391461 0.750000
O O15 0.836993 0.471918 0.940752
O O16 0.920492 0.960500 0.250000
O O17 0.878248 0.918521 0.977419
O O18 0.000000 0.000000 0.000000
O O19 0.878252 0.657851 0.250000
#
# Coordination Sequence:
#
# PCOD9438851 Si02
#       7
#     8   8   8   8   8   8   8
#     4  10  21  38  64  95 125 160 200 246 304 363
#     4  12  25  42  63  90 124 163 208 254 308 368
#     4  12  25  42  62  83 115 157 204 250 300 356
#     4  10  21  40  65  94 126 159 199 248 304 364
#     4  11  23  39  60  89 123 159 201 248 299 356
#     4  11  22  36  58  88 123 160 201 249 303 356
#     4  12  24  40  61  88 123 161 206 251 302 362
#
# _framework density 18.881936
#
# number of rings (size 3 to 8) (size 9 to 14) (size 15 to 20)
#    0.000    0.857    1.429    6.857    0.000    5.714 
#    0.000    0.714    0.000    0.000    0.000    0.000 
#    0.000    0.000    0.000    0.000    0.000    0.000 
#
# Total GULP energy -313382.487477 kJ/mol
# GULP energy per Si atom -5596.115848 kJ/mol
# Density = 1.883896 g / cm^3
# Si number density = 18.881936 Si / 1000 Ang^3
#
#
#
# Elastic Constant Matrix: (Units=GPa)
#
#
# Indices 1 2 3 4 5 6 
#
# 1 112.8967 43.0193 54.1363 0.0000 0.0000 0.0000
# 2 43.0193 91.0762 48.1725 0.0000 0.0000 0.0000
# 3 54.1363 48.1725 148.9619 0.0000 0.0000 0.0000
# 4 0.0000 0.0000 0.0000 34.1672 0.0000 0.0000
# 5 0.0000 0.0000 0.0000 0.0000 34.8812 0.0000
# 6 0.0000 0.0000 0.0000 0.0000 0.0000 13.0934
#
#
#
# Elastic Compliance Matrix: (Units=1/GPa)
#
#
# Indices 1 2 3 4 5 6 
#
# 1 0.011820 -0.003994 -0.003004 0.000000 0.000000 0.000000
# 2 -0.003994 0.014595 -0.003268 0.000000 0.000000 0.000000
# 3 -0.003004 -0.003268 0.008862 0.000000 0.000000 0.000000
# 4 0.000000 0.000000 0.000000 0.029268 0.000000 0.000000
# 5 0.000000 0.000000 0.000000 0.000000 0.028669 0.000000
# 6 0.000000 0.000000 0.000000 0.000000 0.000000 0.076374
#
#
# Mechanical properties :
#
#
# Convention : Reuss Voigt Hill
#
# Bulk Modulus (GPa) = 67.82446 71.51008 69.66727
# Shear Modulus (GPa) = 25.63634 30.26882 27.95258
#
# Velocity S-wave (km/s) = 3.68872 4.00816 3.85175
# Velocity P-wave (km/s) = 7.35802 7.70551 7.53377
#
# Compressibility (1/GPa) = 0.01474394
#
# Stress axis : x y z
#
# Youngs Moduli (GPa) = 84.60119 68.51582 112.84410
#
# Poissons Ratio (x) = 0.27367 0.33899
# Poissons Ratio (y) = 0.33792 0.36881
# Poissons Ratio (z) = 0.25414 0.22393
#
# Static dielectric constant tensor:
#      x y z
#    x 1.626510 0.000000 0.000000 
#    y 0.000000 1.655880 0.000000 
#    z 0.000000 0.000000 1.627260 
# 
# From -- ./inp_files/5126.got.cif
#   From: 2010.05.17/outbox.cif.g08.bks.cpg/sg57_3_cif.got.tgz:5126.got - 2010.06.03 13:58:18.
