data_PCOD9438410
_publ_section_title
;
Structure prediction by ZEFSAII (Michael W. Deem and Ramdas Pophale) SiO2 
 PCOD9438410
Probable space group: P B C M
;
_chemical_formula_sum "Si O2"
_cell_formula_units_Z 48
_cell_length_a 27.952880
_cell_length_b 5.099995
_cell_length_c 16.880842
_cell_angle_alpha 90.000000
_cell_angle_beta 90.000000
_cell_angle_gamma 90.000000
_cell_volume 2406.525209
_symmetry_space_group_name_H-M "P B C M"
_symmetry_group_IT_number 57
_symmetry_cell_setting 'orthorhombic'
loop_
_space_group_symop_operation_xyz
x,y,z
-x,-y,1/2+z
x,1/2-y,-z
-x,1/2+y,1/2-z
-x,-y,-z
x,y,1/2-z
-x,1/2+y,z
x,1/2-y,1/2+z
loop_
_atom_site_type_symbol
_atom_site_label
_atom_site_fract_x
_atom_site_fract_y
_atom_site_fract_z
Si Si1 0.369513 0.653610 0.589776
Si Si2 0.319782 0.145333 0.657391
Si Si3 0.970621 0.902787 0.154745
Si Si4 0.530664 0.970871 0.655712
Si Si5 0.877926 0.003505 0.444203
Si Si6 0.230280 0.996737 0.943763
O O1 0.363937 0.750000 0.500000
O O2 0.335696 0.407144 0.610909
O O3 0.422693 0.551511 0.607645
O O4 0.356859 0.907589 0.642541
O O5 0.317300 0.207040 0.750000
O O6 0.269753 0.039894 0.622969
O O7 0.968056 0.907028 0.250000
O O8 0.009028 0.121943 0.129331
O O9 0.919111 0.968065 0.119796
O O10 0.541781 0.987809 0.750000
O O11 0.488833 0.181061 0.639141
O O12 0.877979 0.750000 0.500000
O O13 0.823860 0.036874 0.411950
O O14 0.888337 0.250000 0.500000
O O15 0.230776 0.250000 0.000000
O O16 0.241437 0.750000 0.000000
#
# Coordination Sequence:
#
# PCOD9438410 Si02
#       6
#     8   8   8   8   8   8
#     4  12  25  41  63  91 123 158 197 244 296 349
#     4  12  24  40  63  90 119 155 200 244 292 353
#     4  10  21  36  54  79 113 151 190 236 287 338
#     4  10  21  38  60  86 119 156 193 239 292 344
#     4  10  21  36  57  84 112 148 190 236 287 343
#     4  10  21  39  60  84 117 151 189 238 295 350
#
# _framework density 19.945772999999999
#
# number of rings (size 3 to 8) (size 9 to 14) (size 15 to 20)
#    0.000    1.333    0.000    6.500    0.000    4.667 
#    0.000    0.000    0.000   10.000    0.000    0.000 
#    0.000    0.000    0.000    0.000    0.000    0.000 
#
# Total GULP energy -268479.737587 kJ/mol
# GULP energy per Si atom -5593.327866 kJ/mol
# Density = 1.990038 g / cm^3
# Si number density = 19.945773 Si / 1000 Ang^3
#
#
#
# Elastic Constant Matrix: (Units=GPa)
#
#
# Indices 1 2 3 4 5 6 
#
# 1 87.4642 -3.9604 40.4939 0.0000 0.0000 0.0000
# 2 -3.9604 100.1623 15.2423 0.0000 0.0000 0.0000
# 3 40.4939 15.2423 57.4486 0.0000 0.0000 0.0000
# 4 0.0000 0.0000 0.0000 -17.8937 0.0000 0.0000
# 5 0.0000 0.0000 0.0000 0.0000 -53.5324 0.0000
# 6 0.0000 0.0000 0.0000 0.0000 0.0000 31.4043
#
#
#
# Elastic Compliance Matrix: (Units=1/GPa)
#
#
# Indices 1 2 3 4 5 6 
#
# 1 0.017645 0.002699 -0.013154 0.000000 0.000000 0.000000
# 2 0.002699 0.010817 -0.004773 0.000000 0.000000 0.000000
# 3 -0.013154 -0.004773 0.027945 0.000000 0.000000 0.000000
# 4 0.000000 0.000000 0.000000 -0.055885 0.000000 0.000000
# 5 0.000000 0.000000 0.000000 0.000000 -0.018680 0.000000
# 6 0.000000 0.000000 0.000000 0.000000 0.000000 0.031843
#
#
# Mechanical properties :
#
#
# Convention : Reuss Voigt Hill
#
# Bulk Modulus (GPa) = 38.53147 38.73632 38.63389
# Shear Modulus (GPa) = 94.71531 4.88226 49.79878
#
# Velocity S-wave (km/s) = 6.89851 1.56623 5.00213
# Velocity P-wave (km/s) = 9.10015 4.76799 7.26452
#
# Compressibility (1/GPa) = 0.02595281
#
# Stress axis : x y z
#
# Youngs Moduli (GPa) = 56.67180 92.44870 35.78456
#
# Poissons Ratio (x) = -0.24956 0.47071
# Poissons Ratio (y) = -0.15298 0.17079
# Poissons Ratio (z) = 0.74546 0.44123
#
# Static dielectric constant tensor:
#      x y z
#    x 1.712250 0.000000 0.000000 
#    y 0.000000 1.671940 0.000000 
#    z 0.000000 0.000000 1.666050 
# 
# From -- ./inp_files/19562.got.cif
#   From: 2010.05.17/outbox.cif.g08.bks.cpg/sg57_10_cif.got.tgz:19562.got - 2010.06.03 13:58:18.
