data_PCOD9438437
_publ_section_title
;
Structure prediction by ZEFSAII (Michael W. Deem and Ramdas Pophale) SiO2 
 PCOD9438437
Probable space group: P B C M
;
_chemical_formula_sum "Si O2"
_cell_formula_units_Z 48
_cell_length_a 16.864658
_cell_length_b 18.235874
_cell_length_c 8.912601
_cell_angle_alpha 90.000000
_cell_angle_beta 90.000000
_cell_angle_gamma 90.000000
_cell_volume 2740.997161
_symmetry_space_group_name_H-M "P B C M"
_symmetry_group_IT_number 57
_symmetry_cell_setting 'orthorhombic'
loop_
_space_group_symop_operation_xyz
x,y,z
-x,-y,1/2+z
x,1/2-y,-z
-x,1/2+y,1/2-z
-x,-y,-z
x,y,1/2-z
-x,1/2+y,z
x,1/2-y,1/2+z
loop_
_atom_site_type_symbol
_atom_site_label
_atom_site_fract_x
_atom_site_fract_y
_atom_site_fract_z
Si Si1 0.083350 0.521596 0.429177
Si Si2 0.835750 0.173941 0.071260
Si Si3 0.233207 0.047231 0.427403
Si Si4 0.641257 0.669830 0.069286
Si Si5 0.683951 0.108317 0.572686
Si Si6 0.495006 0.581394 0.930994
O O1 0.077774 0.520578 0.250000
O O2 0.112342 0.603264 0.476126
O O3 0.153041 0.467333 0.482800
O O4 0.000000 0.500000 0.500000
O O5 0.837926 0.178929 0.250000
O O6 0.862989 0.250000 0.000000
O O7 0.746079 0.156989 0.017946
O O8 0.214782 0.049525 0.250000
O O9 0.282945 0.119001 0.467647
O O10 0.289535 0.976278 0.451505
O O11 0.634067 0.672681 0.250000
O O12 0.649301 0.750000 0.000000
O O13 0.564378 0.630269 0.000207
O O14 0.693344 0.123943 0.750000
O O15 0.591803 0.114362 0.532934
O O16 0.501596 0.577135 0.750000
O O17 0.500000 0.500000 0.000000
#
# Coordination Sequence:
#
# PCOD9438437 Si02
#       6
#     8   8   8   8   8   8
#     4  10  21  37  60  89 114 142 184 225 274 334
#     4  10  21  36  56  84 114 146 182 225 277 332
#     4   9  18  36  58  79 108 143 182 226 275 332
#     4  11  23  39  56  81 113 151 194 239 289 336
#     4   9  18  34  55  79 107 144 185 226 276 329
#     4  11  21  35  56  82 112 151 195 240 286 336
#
# _framework density 17.511875
#
# number of rings (size 3 to 8) (size 9 to 14) (size 15 to 20)
#    0.000    2.000    1.667    2.000    0.000    5.333 
#    0.000    0.833    0.000    0.000    0.000    0.000 
#    0.000    0.000    0.000    0.000    0.000    0.000 
#
# Total GULP energy -267996.222304 kJ/mol
# GULP energy per Si atom -5583.254631 kJ/mol
# Density = 1.747202 g / cm^3
# Si number density = 17.511875 Si / 1000 Ang^3
#
#
#
# Elastic Constant Matrix: (Units=GPa)
#
#
# Indices 1 2 3 4 5 6 
#
# 1 150.3591 70.0603 64.0541 0.0000 0.0000 0.0000
# 2 70.0603 122.6333 52.3879 0.0000 0.0000 0.0000
# 3 64.0541 52.3879 58.7530 0.0000 0.0000 0.0000
# 4 0.0000 0.0000 0.0000 32.4081 0.0000 0.0000
# 5 0.0000 0.0000 0.0000 0.0000 32.9942 0.0000
# 6 0.0000 0.0000 0.0000 0.0000 0.0000 16.2696
#
#
#
# Elastic Compliance Matrix: (Units=1/GPa)
#
#
# Indices 1 2 3 4 5 6 
#
# 1 0.012768 -0.002177 -0.011979 0.000000 0.000000 0.000000
# 2 -0.002177 0.013543 -0.009702 0.000000 0.000000 0.000000
# 3 -0.011979 -0.009702 0.038731 0.000000 0.000000 0.000000
# 4 0.000000 0.000000 0.000000 0.030856 0.000000 0.000000
# 5 0.000000 0.000000 0.000000 0.000000 0.030308 0.000000
# 6 0.000000 0.000000 0.000000 0.000000 0.000000 0.061464
#
#
# Mechanical properties :
#
#
# Convention : Reuss Voigt Hill
#
# Bulk Modulus (GPa) = 57.71716 78.30556 68.01136
# Shear Modulus (GPa) = 20.73279 26.01725 23.37502
#
# Velocity S-wave (km/s) = 3.44456 3.85865 3.65747
# Velocity P-wave (km/s) = 6.98930 8.04145 7.53377
#
# Compressibility (1/GPa) = 0.01732587
#
# Stress axis : x y z
#
# Youngs Moduli (GPa) = 78.31825 73.83973 25.81887
#
# Poissons Ratio (x) = 0.16076 0.30929
# Poissons Ratio (y) = 0.17051 0.25050
# Poissons Ratio (z) = 0.93819 0.71640
#
# Static dielectric constant tensor:
#      x y z
#    x 1.573330 0.000000 0.000000 
#    y 0.000000 1.590070 0.000000 
#    z 0.000000 0.000000 1.584840 
# 
# From -- ./inp_files/4590.got.cif
#   From: 2010.05.17/outbox.cif.g08.bks.cpg/sg57_3_cif.got.tgz:4590.got - 2010.06.03 13:58:18.
