data_PCOD9438318
_publ_section_title
;
Structure prediction by ZEFSAII (Michael W. Deem and Ramdas Pophale) SiO2 
 PCOD9438318
Probable space group: P B C M
;
_chemical_formula_sum "Si O2"
_cell_formula_units_Z 48
_cell_length_a 27.133336
_cell_length_b 5.092776
_cell_length_c 14.186817
_cell_angle_alpha 90.000000
_cell_angle_beta 90.000000
_cell_angle_gamma 90.000000
_cell_volume 1960.391154
_symmetry_space_group_name_H-M "P B C M"
_symmetry_group_IT_number 57
_symmetry_cell_setting 'orthorhombic'
loop_
_space_group_symop_operation_xyz
x,y,z
-x,-y,1/2+z
x,1/2-y,-z
-x,1/2+y,1/2-z
-x,-y,-z
x,y,1/2-z
-x,1/2+y,z
x,1/2-y,1/2+z
loop_
_atom_site_type_symbol
_atom_site_label
_atom_site_fract_x
_atom_site_fract_y
_atom_site_fract_z
Si Si1 0.692775 0.861647 0.635616
Si Si2 0.832336 0.046391 0.250000
Si Si3 0.528615 0.923539 0.134605
Si Si4 0.032780 0.486193 0.750000
Si Si5 0.365828 0.864873 0.635189
Si Si6 0.206725 0.635563 0.900318
Si Si7 0.886615 0.716015 0.388294
O O1 0.697181 0.865760 0.750000
O O2 0.650639 0.073338 0.609131
O O3 0.744206 0.966328 0.596898
O O4 0.675545 0.574625 0.605879
O O5 0.873453 0.980872 0.332770
O O6 0.791127 0.122224 0.330208
O O7 0.530042 0.920908 0.250000
O O8 0.513511 0.631226 0.106318
O O9 0.581167 0.033049 0.102635
O O10 0.066738 0.420521 0.840451
O O11 0.011722 0.777703 0.750000
O O12 0.367506 0.868996 0.750000
O O13 0.161975 0.456138 0.862415
O O14 0.193403 0.750000 0.000000
O O15 0.890496 0.750000 0.500000
#
# Coordination Sequence:
#
# PCOD9438318 Si02
#       7
#     8   4   8   4   8   8   8
#     4  10  21  33  54  80 125 170 211 270 337 415
#     4  11  23  44  68 100 146 182 232 294 350 407
#     4   9  15  24  42  66 102 149 207 272 331 397
#     4  11  29  50  78 112 152 194 242 300 366 419
#     4   9  18  31  46  75 114 165 213 265 345 410
#     4  12  25  41  70 104 139 184 242 287 350 426
#     4  11  26  45  77 106 144 192 244 299 353 420
#
# _framework density 24.484908999999998
#
# number of rings (size 3 to 8) (size 9 to 14) (size 15 to 20)
#    0.000    1.667    2.500    2.000    7.000    4.667 
#    0.000    0.000    0.000    0.000    0.000    0.000 
#    0.000   13.333    0.000    0.000    0.000    0.000 
#
# Total GULP energy -267930.860108 kJ/mol
# GULP energy per Si atom -5581.892919 kJ/mol
# Density = 2.442918 g / cm^3
# Si number density = 24.484909 Si / 1000 Ang^3
#
#
#
# Elastic Constant Matrix: (Units=GPa)
#
#
# Indices 1 2 3 4 5 6 
#
# 1 97.4869 -5.5978 15.9767 0.0000 0.0000 0.0000
# 2 -5.5978 59.3157 9.4328 0.0000 0.0000 0.0000
# 3 15.9767 9.4328 130.2699 0.0000 0.0000 0.0000
# 4 0.0000 0.0000 0.0000 3.6072 0.0000 0.0000
# 5 0.0000 0.0000 0.0000 0.0000 33.7288 0.0000
# 6 0.0000 0.0000 0.0000 0.0000 0.0000 45.9017
#
#
#
# Elastic Compliance Matrix: (Units=1/GPa)
#
#
# Indices 1 2 3 4 5 6 
#
# 1 0.010554 0.001216 -0.001382 0.000000 0.000000 0.000000
# 2 0.001216 0.017195 -0.001394 0.000000 0.000000 0.000000
# 3 -0.001382 -0.001394 0.007947 0.000000 0.000000 0.000000
# 4 0.000000 0.000000 0.000000 0.277225 0.000000 0.000000
# 5 0.000000 0.000000 0.000000 0.000000 0.029648 0.000000
# 6 0.000000 0.000000 0.000000 0.000000 0.000000 0.021786
#
#
# Mechanical properties :
#
#
# Convention : Reuss Voigt Hill
#
# Bulk Modulus (GPa) = 30.69852 36.29954 33.49903
# Shear Modulus (GPa) = 13.21580 34.46490 23.84035
#
# Velocity S-wave (km/s) = 2.32578 3.75587 3.12376
# Velocity P-wave (km/s) = 4.44717 5.80226 5.16931
#
# Compressibility (1/GPa) = 0.03257486
#
# Stress axis : x y z
#
# Youngs Moduli (GPa) = 94.74928 58.15507 125.83565
#
# Poissons Ratio (x) = -0.07071 0.17396
# Poissons Ratio (y) = -0.11520 0.17544
# Poissons Ratio (z) = 0.13098 0.08108
#
# Static dielectric constant tensor:
#      x y z
#    x 1.890790 0.000000 0.000000 
#    y 0.000000 2.070100 0.000000 
#    z 0.000000 0.000000 1.942260 
# 
# From -- ./inp_files/19582.got.cif
#   From: 2010.05.17/outbox.cif.g08.bks.cpg/sg57_10_cif.got.tgz:19582.got - 2010.06.03 13:58:18.
