data_PCOD9438334
_publ_section_title
;
Structure prediction by ZEFSAII (Michael W. Deem and Ramdas Pophale) SiO2 
 PCOD9438334
Probable space group: P B C M
;
_chemical_formula_sum "Si O2"
_cell_formula_units_Z 48
_cell_length_a 5.515328
_cell_length_b 22.907391
_cell_length_c 15.112956
_cell_angle_alpha 90.000000
_cell_angle_beta 90.000000
_cell_angle_gamma 90.000000
_cell_volume 1909.397686
_symmetry_space_group_name_H-M "P B C M"
_symmetry_group_IT_number 57
_symmetry_cell_setting 'orthorhombic'
loop_
_space_group_symop_operation_xyz
x,y,z
-x,-y,1/2+z
x,1/2-y,-z
-x,1/2+y,1/2-z
-x,-y,-z
x,y,1/2-z
-x,1/2+y,z
x,1/2-y,1/2+z
loop_
_atom_site_type_symbol
_atom_site_label
_atom_site_fract_x
_atom_site_fract_y
_atom_site_fract_z
Si Si1 0.114617 0.819309 0.356792
Si Si2 0.485921 0.995066 0.893936
Si Si3 0.987459 0.511073 0.152668
Si Si4 0.527424 0.360028 0.593740
Si Si5 0.026613 0.115984 0.014298
Si Si6 0.615780 0.736512 0.650076
O O1 0.119927 0.826057 0.250000
O O2 0.053454 0.876425 0.413673
O O3 0.374530 0.793937 0.388120
O O4 0.886696 0.777201 0.383171
O O5 0.238668 0.022402 0.859560
O O6 0.475158 0.926022 0.867629
O O7 0.728896 0.019382 0.852694
O O8 0.500000 0.000000 0.000000
O O9 0.997302 0.540297 0.250000
O O10 0.981845 0.554751 0.067674
O O11 0.804348 0.350499 0.563371
O O12 0.442718 0.305148 0.649966
O O13 0.304392 0.363864 0.523923
O O14 0.624175 0.714616 0.750000
#
# Coordination Sequence:
#
# PCOD9438334 Si02
#       6
#     8   8   8   8   8   8
#     4  10  21  37  55  78 115 162 206 242 277 328
#     4  10  21  39  63  87 118 154 190 236 297 366
#     4  10  21  38  63  95 127 155 190 245 307 357
#     4  10  21  34  55  81 111 148 184 234 296 344
#     4  10  21  35  56  85 117 156 196 240 286 342
#     4  10  21  35  53  82 116 151 196 244 286 335
#
# _framework density 25.138815999999998
#
# number of rings (size 3 to 8) (size 9 to 14) (size 15 to 20)
#    0.000    2.000    0.000    3.000    0.000    9.333 
#    0.000    1.667    0.000   24.000    0.000    0.000 
#    0.000    0.000    0.000    0.000    0.000    0.000 
#
# Total GULP energy -267633.351849 kJ/mol
# GULP energy per Si atom -5575.694830 kJ/mol
# Density = 2.508160 g / cm^3
# Si number density = 25.138816 Si / 1000 Ang^3
#
#
#
# Elastic Constant Matrix: (Units=GPa)
#
#
# Indices 1 2 3 4 5 6 
#
# 1 246.3115 42.3615 35.2446 0.0000 0.0000 0.0000
# 2 42.3615 64.2866 34.2655 0.0000 0.0000 0.0000
# 3 35.2446 34.2655 64.4899 0.0000 0.0000 0.0000
# 4 0.0000 0.0000 0.0000 17.8295 0.0000 0.0000
# 5 0.0000 0.0000 0.0000 0.0000 27.6447 0.0000
# 6 0.0000 0.0000 0.0000 0.0000 0.0000 37.5532
#
#
#
# Elastic Compliance Matrix: (Units=1/GPa)
#
#
# Indices 1 2 3 4 5 6 
#
# 1 0.004653 -0.002386 -0.001275 0.000000 0.000000 0.000000
# 2 -0.002386 0.022925 -0.010877 0.000000 0.000000 0.000000
# 3 -0.001275 -0.010877 0.021982 0.000000 0.000000 0.000000
# 4 0.000000 0.000000 0.000000 0.056087 0.000000 0.000000
# 5 0.000000 0.000000 0.000000 0.000000 0.036173 0.000000
# 6 0.000000 0.000000 0.000000 0.000000 0.000000 0.026629
#
#
# Mechanical properties :
#
#
# Convention : Reuss Voigt Hill
#
# Bulk Modulus (GPa) = 48.81792 66.53681 57.67736
# Shear Modulus (GPa) = 24.46746 34.15325 29.31035
#
# Velocity S-wave (km/s) = 3.12315 3.68990 3.41829
# Velocity P-wave (km/s) = 5.69798 6.68424 6.21071
#
# Compressibility (1/GPa) = 0.02048428
#
# Stress axis : x y z
#
# Youngs Moduli (GPa) = 214.92738 43.62002 45.49150
#
# Poissons Ratio (x) = 0.10410 0.05799
# Poissons Ratio (y) = 0.51291 0.49480
# Poissons Ratio (z) = 0.27399 0.47444
#
# Static dielectric constant tensor:
#      x y z
#    x 2.046910 0.000000 0.000000 
#    y 0.000000 1.997210 0.000000 
#    z 0.000000 0.000000 2.000040 
# 
# From -- ./inp_files/15209.got.cif
#   From: 2010.05.17/outbox.cif.g08.bks.cpg/sg57_8_cif.got.tgz:15209.got - 2010.06.03 13:58:18.
