data_PCOD9438065
_publ_section_title
;
Structure prediction by ZEFSAII (Michael W. Deem and Ramdas Pophale) SiO2 
 PCOD9438065
Probable space group: P B C M
;
_chemical_formula_sum "Si O2"
_cell_formula_units_Z 64
_cell_length_a 17.393915
_cell_length_b 9.901039
_cell_length_c 18.057093
_cell_angle_alpha 90.000000
_cell_angle_beta 90.000000
_cell_angle_gamma 90.000000
_cell_volume 3109.753387
_symmetry_space_group_name_H-M "P B C M"
_symmetry_group_IT_number 57
_symmetry_cell_setting 'orthorhombic'
loop_
_space_group_symop_operation_xyz
x,y,z
-x,-y,1/2+z
x,1/2-y,-z
-x,1/2+y,1/2-z
-x,-y,-z
x,y,1/2-z
-x,1/2+y,z
x,1/2-y,1/2+z
loop_
_atom_site_type_symbol
_atom_site_label
_atom_site_fract_x
_atom_site_fract_y
_atom_site_fract_z
Si Si1 0.034188 0.795900 0.160033
Si Si2 0.512241 0.270786 0.664434
Si Si3 0.546686 0.970817 0.424682
Si Si4 0.323250 0.874586 0.164155
Si Si5 0.910373 0.912665 0.839441
Si Si6 0.194554 0.659207 0.160721
Si Si7 0.276424 0.074290 0.925327
Si Si8 0.743045 0.620745 0.094543
O O1 0.031275 0.800539 0.250000
O O2 0.109054 0.706756 0.141042
O O3 0.958102 0.718111 0.134594
O O4 0.048284 0.949075 0.135045
O O5 0.486226 0.261323 0.750000
O O6 0.517018 0.423972 0.636984
O O7 0.465711 0.179409 0.606764
O O8 0.597931 0.207398 0.659654
O O9 0.638153 0.987400 0.432885
O O10 0.500000 0.000000 0.500000
O O11 0.309019 0.906802 0.250000
O O12 0.253981 0.777722 0.138700
O O13 0.320760 0.014277 0.120792
O O14 0.911461 0.913730 0.750000
O O15 0.822736 0.909595 0.864632
O O16 0.198962 0.644577 0.250000
O O17 0.222962 0.523388 0.122241
O O18 0.280360 0.224794 0.891837
O O19 0.245016 0.095059 0.007759
#
# Coordination Sequence:
#
# PCOD9438065 Si02
#       8
#     8   8   8   8   8   8   8   8
#     4   9  19  35  61  94 127 161 208 258 314 381
#     4  11  25  43  66  97 131 165 213 274 326 384
#     4  12  26  45  69  94 129 176 219 263 328 402
#     4  10  20  40  66  92 122 161 208 260 318 378
#     4  10  20  38  63  94 127 166 210 261 315 375
#     4  10  20  40  65  91 122 161 211 264 315 376
#     4  11  27  43  63  90 128 168 217 262 317 383
#     4  11  24  41  61  90 131 168 214 265 310 377
#
# _framework density 20.580411000000002
#
# number of rings (size 3 to 8) (size 9 to 14) (size 15 to 20)
#    0.000    1.500    2.500    1.875    7.000    2.000 
#    0.000    0.625    0.000    0.000    0.000    0.000 
#    0.000    0.000    0.000    0.000    0.000    0.000 
#
# Total GULP energy -357692.145292 kJ/mol
# GULP energy per Si atom -5588.939770 kJ/mol
# Density = 2.053357 g / cm^3
# Si number density = 20.580411 Si / 1000 Ang^3
#
#
#
# Elastic Constant Matrix: (Units=GPa)
#
#
# Indices 1 2 3 4 5 6 
#
# 1 49.7967 -5.2523 0.9608 0.0000 0.0000 0.0000
# 2 -5.2523 94.7622 17.4473 0.0000 0.0000 0.0000
# 3 0.9608 17.4473 30.5287 0.0000 0.0000 0.0000
# 4 0.0000 0.0000 0.0000 25.3343 0.0000 0.0000
# 5 0.0000 0.0000 0.0000 0.0000 21.9821 0.0000
# 6 0.0000 0.0000 0.0000 0.0000 0.0000 34.4663
#
#
#
# Elastic Compliance Matrix: (Units=1/GPa)
#
#
# Indices 1 2 3 4 5 6 
#
# 1 0.020255 0.001386 -0.001430 0.000000 0.000000 0.000000
# 2 0.001386 0.011889 -0.006838 0.000000 0.000000 0.000000
# 3 -0.001430 -0.006838 0.036709 0.000000 0.000000 0.000000
# 4 0.000000 0.000000 0.000000 0.039472 0.000000 0.000000
# 5 0.000000 0.000000 0.000000 0.000000 0.045492 0.000000
# 6 0.000000 0.000000 0.000000 0.000000 0.000000 0.029014
#
#
# Mechanical properties :
#
#
# Convention : Reuss Voigt Hill
#
# Bulk Modulus (GPa) = 18.15221 22.37770 20.26496
# Shear Modulus (GPa) = 23.26045 27.15197 25.20621
#
# Velocity S-wave (km/s) = 3.36553 3.63617 3.50346
# Velocity P-wave (km/s) = 4.89302 5.34097 5.12189
#
# Compressibility (1/GPa) = 0.05508971
#
# Stress axis : x y z
#
# Youngs Moduli (GPa) = 49.36951 84.11462 27.24125
#
# Poissons Ratio (x) = -0.11657 0.03894
# Poissons Ratio (y) = -0.06842 0.18628
# Poissons Ratio (z) = 0.07057 0.57518
#
# Static dielectric constant tensor:
#      x y z
#    x 1.724230 0.000000 0.000000 
#    y 0.000000 1.737560 0.000000 
#    z 0.000000 0.000000 1.712930 
# 
# From -- ./inp_files/25591.got.cif
#   From: 2010.05.17/outbox.cif.g08.bks.cpg/sg57_13_cif.got.tgz:25591.got - 2010.06.03 13:58:18.
