data_PCOD9438794
_publ_section_title
;
Structure prediction by ZEFSAII (Michael W. Deem and Ramdas Pophale) SiO2 
 PCOD9438794
Probable space group: P B C M
;
_chemical_formula_sum "Si O2"
_cell_formula_units_Z 48
_cell_length_a 12.006847
_cell_length_b 25.611869
_cell_length_c 8.730850
_cell_angle_alpha 90.000000
_cell_angle_beta 90.000000
_cell_angle_gamma 90.000000
_cell_volume 2684.891718
_symmetry_space_group_name_H-M "P B C M"
_symmetry_group_IT_number 57
_symmetry_cell_setting 'orthorhombic'
loop_
_space_group_symop_operation_xyz
x,y,z
-x,-y,1/2+z
x,1/2-y,-z
-x,1/2+y,1/2-z
-x,-y,-z
x,y,1/2-z
-x,1/2+y,z
x,1/2-y,1/2+z
loop_
_atom_site_type_symbol
_atom_site_label
_atom_site_fract_x
_atom_site_fract_y
_atom_site_fract_z
Si Si1 0.268011 0.101003 0.432473
Si Si2 0.120166 0.692970 0.433535
Si Si3 0.123408 0.503146 0.932498
Si Si4 0.496331 0.058651 0.567205
Si Si5 0.878865 0.807647 0.066938
Si Si6 0.273653 0.904573 0.566986
O O1 0.277593 0.108414 0.250000
O O2 0.188475 0.051003 0.459420
O O3 0.387606 0.087345 0.502542
O O4 0.210952 0.151081 0.508077
O O5 0.147037 0.750000 0.500000
O O6 0.107374 0.696338 0.250000
O O7 0.213394 0.650092 0.468831
O O8 0.001283 0.676755 0.504662
O O9 0.119047 0.512059 0.750000
O O10 0.192504 0.549306 0.011317
O O11 0.000000 0.500000 0.000000
O O12 0.491580 0.055552 0.750000
O O13 0.608362 0.087539 0.514122
O O14 0.500000 0.000000 0.500000
O O15 0.881146 0.805620 0.250000
O O16 0.856867 0.750000 0.000000
O O17 0.288352 0.908210 0.750000
#
# Coordination Sequence:
#
# PCOD9438794 Si02
#       6
#     8   8   8   8   8   8
#     4  11  23  40  60  86 119 156 200 246 295 353
#     4  10  21  38  61  89 120 158 198 244 297 352
#     4  11  23  36  56  85 119 155 192 241 299 356
#     4  12  24  40  62  87 117 158 202 244 298 356
#     4  11  22  38  62  90 121 159 199 245 299 355
#     4  11  23  39  60  86 119 155 199 247 296 355
#
# _framework density 17.877815999999999
#
# number of rings (size 3 to 8) (size 9 to 14) (size 15 to 20)
#    0.000    1.000    1.667    7.000    0.000    8.667 
#    0.000    0.833    0.000    2.000    0.000    0.000 
#    0.000    0.000    0.000    0.000    0.000    0.000 
#
# Total GULP energy -268510.099719 kJ/mol
# GULP energy per Si atom -5593.960411 kJ/mol
# Density = 1.783713 g / cm^3
# Si number density = 17.877816 Si / 1000 Ang^3
#
#
#
# Elastic Constant Matrix: (Units=GPa)
#
#
# Indices 1 2 3 4 5 6 
#
# 1 174.7965 90.3873 91.1636 0.0000 0.0000 0.0000
# 2 90.3873 105.9896 76.2926 0.0000 0.0000 0.0000
# 3 91.1636 76.2926 128.8385 0.0000 0.0000 0.0000
# 4 0.0000 0.0000 0.0000 32.1132 0.0000 0.0000
# 5 0.0000 0.0000 0.0000 0.0000 36.3045 0.0000
# 6 0.0000 0.0000 0.0000 0.0000 0.0000 12.1414
#
#
#
# Elastic Compliance Matrix: (Units=1/GPa)
#
#
# Indices 1 2 3 4 5 6 
#
# 1 0.011300 -0.006764 -0.003990 0.000000 0.000000 0.000000
# 2 -0.006764 0.020493 -0.007349 0.000000 0.000000 0.000000
# 3 -0.003990 -0.007349 0.014937 0.000000 0.000000 0.000000
# 4 0.000000 0.000000 0.000000 0.031140 0.000000 0.000000
# 5 0.000000 0.000000 0.000000 0.000000 0.027545 0.000000
# 6 0.000000 0.000000 0.000000 0.000000 0.000000 0.082363
#
#
# Mechanical properties :
#
#
# Convention : Reuss Voigt Hill
#
# Bulk Modulus (GPa) = 95.02797 102.81240 98.92018
# Shear Modulus (GPa) = 21.97885 26.23054 24.10469
#
# Velocity S-wave (km/s) = 3.51007 3.83458 3.67591
# Velocity P-wave (km/s) = 8.34847 8.78854 8.57133
#
# Compressibility (1/GPa) = 0.01052322
#
# Stress axis : x y z
#
# Youngs Moduli (GPa) = 88.49832 48.79629 66.94985
#
# Poissons Ratio (x) = 0.33007 0.26712
# Poissons Ratio (y) = 0.59863 0.49201
# Poissons Ratio (z) = 0.35310 0.35860
#
# Static dielectric constant tensor:
#      x y z
#    x 1.581340 0.000000 0.000000 
#    y 0.000000 1.588420 0.000000 
#    z 0.000000 0.000000 1.597250 
# 
# From -- ./inp_files/3158.got.cif
#   From: 2010.05.17/outbox.cif.g08.bks.cpg/sg57_2_cif.got.tgz:3158.got - 2010.06.03 13:58:18.
