data_PCOD9438092
_publ_section_title
;
Structure prediction by ZEFSAII (Michael W. Deem and Ramdas Pophale) SiO2 
 PCOD9438092
Probable space group: P B C M
;
_chemical_formula_sum "Si O2"
_cell_formula_units_Z 64
_cell_length_a 15.164600
_cell_length_b 11.952131
_cell_length_c 16.480162
_cell_angle_alpha 90.000000
_cell_angle_beta 90.000000
_cell_angle_gamma 90.000000
_cell_volume 2987.017592
_symmetry_space_group_name_H-M "P B C M"
_symmetry_group_IT_number 57
_symmetry_cell_setting 'orthorhombic'
loop_
_space_group_symop_operation_xyz
x,y,z
-x,-y,1/2+z
x,1/2-y,-z
-x,1/2+y,1/2-z
-x,-y,-z
x,y,1/2-z
-x,1/2+y,z
x,1/2-y,1/2+z
loop_
_atom_site_type_symbol
_atom_site_label
_atom_site_fract_x
_atom_site_fract_y
_atom_site_fract_z
Si Si1 0.648927 0.547906 0.345272
Si Si2 0.483874 0.236591 0.094653
Si Si3 0.334854 0.673487 0.341682
Si Si4 0.841550 0.857260 0.839709
Si Si5 0.160819 0.398645 0.161807
Si Si6 0.104956 0.503285 0.993035
Si Si7 0.741162 0.342137 0.436027
Si Si8 0.365758 0.434130 0.341742
O O1 0.631909 0.515655 0.250000
O O2 0.569585 0.623241 0.380924
O O3 0.735637 0.627109 0.342882
O O4 0.680278 0.444530 0.403165
O O5 0.573934 0.238502 0.145512
O O6 0.424824 0.343784 0.114816
O O7 0.502970 0.250000 0.000000
O O8 0.320741 0.638693 0.250000
O O9 0.254356 0.754804 0.362179
O O10 0.353459 0.554612 0.384979
O O11 0.868161 0.901849 0.750000
O O12 0.870576 0.728957 0.844399
O O13 0.875311 0.920465 0.918343
O O14 0.132496 0.445416 0.250000
O O15 0.136627 0.465395 0.081803
O O16 0.266357 0.391090 0.163317
O O17 0.166654 0.609596 0.968881
O O18 0.000000 0.500000 0.000000
O O19 0.703227 0.250000 0.500000
O O20 0.402605 0.443837 0.250000
#
# Coordination Sequence:
#
# PCOD9438092 Si02
#       8
#     8   8   8   8   8   8   8   8
#     4  10  21  40  65  95 132 179 232 286 351 419
#     4  12  26  37  65 102 139 180 236 305 356 411
#     4  11  25  44  64  91 136 192 237 286 350 420
#     4   9  19  37  65  97 130 167 219 283 347 421
#     4  10  20  38  65  95 129 169 216 278 352 423
#     4  11  25  42  68 100 135 178 228 292 358 431
#     4  11  25  43  67  94 138 180 231 285 349 428
#     4  10  22  41  65  92 130 179 235 289 349 421
#
# _framework density 21.426055999999999
#
# number of rings (size 3 to 8) (size 9 to 14) (size 15 to 20)
#    0.000    1.500    1.250    3.000    7.000    2.500 
#    0.000    0.625    0.000    3.000    0.000    0.000 
#    0.000    0.000    0.000    0.000    0.000    0.000 
#
# Total GULP energy -356700.359089 kJ/mol
# GULP energy per Si atom -5573.443111 kJ/mol
# Density = 2.137729 g / cm^3
# Si number density = 21.426056 Si / 1000 Ang^3
#
#
#
# Elastic Constant Matrix: (Units=GPa)
#
#
# Indices 1 2 3 4 5 6 
#
# 1 85.1317 42.2337 36.7978 0.0000 0.0000 0.0000
# 2 42.2337 118.3621 39.7698 0.0000 0.0000 0.0000
# 3 36.7978 39.7698 104.2390 0.0000 0.0000 0.0000
# 4 0.0000 0.0000 0.0000 -484.4372 0.0000 0.0000
# 5 0.0000 0.0000 0.0000 0.0000 10.1147 0.0000
# 6 0.0000 0.0000 0.0000 0.0000 0.0000 8.3896
#
#
#
# Elastic Compliance Matrix: (Units=1/GPa)
#
#
# Indices 1 2 3 4 5 6 
#
# 1 0.015519 -0.004240 -0.003861 0.000000 0.000000 0.000000
# 2 -0.004240 0.010850 -0.002643 0.000000 0.000000 0.000000
# 3 -0.003861 -0.002643 0.011964 0.000000 0.000000 0.000000
# 4 0.000000 0.000000 0.000000 -0.002064 0.000000 0.000000
# 5 0.000000 0.000000 0.000000 0.000000 0.098866 0.000000
# 6 0.000000 0.000000 0.000000 0.000000 0.000000 0.119195
#
#
# Mechanical properties :
#
#
# Convention : Reuss Voigt Hill
#
# Bulk Modulus (GPa) = 59.36116 60.59283 59.97700
# Shear Modulus (GPa) = 17.76633 -80.59114 -31.41240
#
# Velocity S-wave (km/s) = 2.88269 -6.13965 -3.83310
# Velocity P-wave (km/s) = 6.23259 4.68177 2.90914
#
# Compressibility (1/GPa) = 0.01684603
#
# Stress axis : x y z
#
# Youngs Moduli (GPa) = 64.43794 92.17001 83.58146
#
# Poissons Ratio (x) = 0.39082 0.32268
# Poissons Ratio (y) = 0.27323 0.22086
# Poissons Ratio (z) = 0.24877 0.24356
#
# Static dielectric constant tensor:
#      x y z
#    x 1.805300 0.000000 0.000000 
#    y 0.000000 1.830890 0.000000 
#    z 0.000000 0.000000 1.850880 
# 
# From -- ./inp_files/19157.got.cif
#   From: 2010.05.17/outbox.cif.g08.bks.cpg/sg57_10_cif.got.tgz:19157.got - 2010.06.03 13:58:18.
