data_PCOD9438300
_publ_section_title
;
Structure prediction by ZEFSAII (Michael W. Deem and Ramdas Pophale) SiO2 
 PCOD9438300
Probable space group: P B C M
;
_chemical_formula_sum "Si O2"
_cell_formula_units_Z 48
_cell_length_a 9.016132
_cell_length_b 12.267060
_cell_length_c 24.324671
_cell_angle_alpha 90.000000
_cell_angle_beta 90.000000
_cell_angle_gamma 90.000000
_cell_volume 2690.343451
_symmetry_space_group_name_H-M "P B C M"
_symmetry_group_IT_number 57
_symmetry_cell_setting 'orthorhombic'
loop_
_space_group_symop_operation_xyz
x,y,z
-x,-y,1/2+z
x,1/2-y,-z
-x,1/2+y,1/2-z
-x,-y,-z
x,y,1/2-z
-x,1/2+y,z
x,1/2-y,1/2+z
loop_
_atom_site_type_symbol
_atom_site_label
_atom_site_fract_x
_atom_site_fract_y
_atom_site_fract_z
Si Si1 0.451286 0.160395 0.750000
Si Si2 0.395444 0.085618 0.250000
Si Si3 0.436492 0.948416 0.055830
Si Si4 0.149142 0.632952 0.990370
Si Si5 0.697434 0.644358 0.631907
Si Si6 0.241590 0.108745 0.368003
Si Si7 0.947286 0.493754 0.908255
O O1 0.492278 0.295970 0.750000
O O2 0.361359 0.150024 0.806212
O O3 0.542451 0.041763 0.750000
O O4 0.300031 0.094032 0.305884
O O5 0.310926 0.862721 0.036848
O O6 0.566874 0.898186 0.092274
O O7 0.346309 0.036693 0.092165
O O8 0.500000 0.000000 0.000000
O O9 0.043918 0.568375 0.949147
O O10 0.082144 0.750000 0.000000
O O11 0.151960 0.576572 0.049805
O O12 0.742779 0.765878 0.615062
O O13 0.837723 0.565235 0.627770
O O14 0.070909 0.072868 0.375081
#
# Coordination Sequence:
#
# PCOD9438300 Si02
#       7
#     4   4   8   8   8   8   8
#     4  10  22  41  66  90 122 160 204 261 312 358
#     4  10  20  43  64  92 122 160 206 255 314 366
#     4  11  22  36  56  90 118 153 202 246 295 365
#     4  10  21  36  54  81 122 159 194 239 296 357
#     4  11  22  39  64  87 120 159 204 251 308 362
#     4  10  23  39  62  87 122 160 198 254 306 364
#     4  10  21  39  55  84 122 157 200 241 298 364
#
# _framework density 17.84159
#
# number of rings (size 3 to 8) (size 9 to 14) (size 15 to 20)
#    0.000    1.667    3.333    1.000    2.333    0.667 
#    0.000    1.667    0.000    0.000    0.000    0.000 
#    0.000    0.000    0.000    0.000    0.000    0.000 
#
# Total GULP energy -267254.107218 kJ/mol
# GULP energy per Si atom -5567.793900 kJ/mol
# Density = 1.780098 g / cm^3
# Si number density = 17.841590 Si / 1000 Ang^3
#
#
#
# Elastic Constant Matrix: (Units=GPa)
#
#
# Indices 1 2 3 4 5 6 
#
# 1 97.4592 49.4545 32.8673 0.0000 0.0000 0.0000
# 2 49.4545 104.1061 29.8993 0.0000 0.0000 0.0000
# 3 32.8673 29.8993 98.0849 0.0000 0.0000 0.0000
# 4 0.0000 0.0000 0.0000 15.9146 0.0000 0.0000
# 5 0.0000 0.0000 0.0000 0.0000 2.9186 0.0000
# 6 0.0000 0.0000 0.0000 0.0000 0.0000 14.1878
#
#
#
# Elastic Compliance Matrix: (Units=1/GPa)
#
#
# Indices 1 2 3 4 5 6 
#
# 1 0.014271 -0.005924 -0.002976 0.000000 0.000000 0.000000
# 2 -0.005924 0.012987 -0.001974 0.000000 0.000000 0.000000
# 3 -0.002976 -0.001974 0.011794 0.000000 0.000000 0.000000
# 4 0.000000 0.000000 0.000000 0.062835 0.000000 0.000000
# 5 0.000000 0.000000 0.000000 0.000000 0.342625 0.000000
# 6 0.000000 0.000000 0.000000 0.000000 0.000000 0.070483
#
#
# Mechanical properties :
#
#
# Convention : Reuss Voigt Hill
#
# Bulk Modulus (GPa) = 57.79173 58.23247 58.01210
# Shear Modulus (GPa) = 9.21640 19.09948 14.15794
#
# Velocity S-wave (km/s) = 2.27528 3.27540 2.82003
# Velocity P-wave (km/s) = 6.27411 6.85666 6.57184
#
# Compressibility (1/GPa) = 0.01730352
#
# Stress axis : x y z
#
# Youngs Moduli (GPa) = 70.07414 77.00185 84.78831
#
# Poissons Ratio (x) = 0.45619 0.25233
# Poissons Ratio (y) = 0.41515 0.16733
# Poissons Ratio (z) = 0.20854 0.15197
#
# Static dielectric constant tensor:
#      x y z
#    x 1.597520 0.000000 0.000000 
#    y 0.000000 1.673810 0.000000 
#    z 0.000000 0.000000 1.585250 
# 
# From -- ./inp_files/26727.got.cif
#   From: 2010.05.17/outbox.cif.g08.bks.cpg/sg57_14_cif.got.tgz:26727.got - 2010.06.03 13:58:18.
