data_PCOD9438476
_publ_section_title
;
Structure prediction by ZEFSAII (Michael W. Deem and Ramdas Pophale) SiO2 
 PCOD9438476
Probable space group: P B C M
;
_chemical_formula_sum "Si O2"
_cell_formula_units_Z 36
_cell_length_a 20.255302
_cell_length_b 7.879345
_cell_length_c 9.833939
_cell_angle_alpha 90.000000
_cell_angle_beta 90.000000
_cell_angle_gamma 90.000000
_cell_volume 1569.482037
_symmetry_space_group_name_H-M "P B C M"
_symmetry_group_IT_number 57
_symmetry_cell_setting 'orthorhombic'
loop_
_space_group_symop_operation_xyz
x,y,z
-x,-y,1/2+z
x,1/2-y,-z
-x,1/2+y,1/2-z
-x,-y,-z
x,y,1/2-z
-x,1/2+y,z
x,1/2-y,1/2+z
loop_
_atom_site_type_symbol
_atom_site_label
_atom_site_fract_x
_atom_site_fract_y
_atom_site_fract_z
Si Si1 0.965517 0.457389 0.750000
Si Si2 0.117486 0.556558 0.750000
Si Si3 0.912229 0.250000 0.000000
Si Si4 0.658087 0.047049 0.977050
Si Si5 0.749671 0.750000 0.500000
Si Si6 0.834079 0.820375 0.250000
Si Si7 0.408040 0.482381 0.250000
Si Si8 0.555992 0.375944 0.250000
O O1 0.956594 0.358734 0.894245
O O2 0.903180 0.581957 0.750000
O O3 0.037772 0.535140 0.750000
O O4 0.132294 0.650642 0.609169
O O5 0.148540 0.375830 0.750000
O O6 0.593804 0.049760 0.880438
O O7 0.676700 0.250000 0.000000
O O8 0.635720 0.961653 0.117833
O O9 0.710392 0.906447 0.927670
O O10 0.793007 0.847395 0.386664
O O11 0.477625 0.389272 0.250000
O O12 0.427859 0.678853 0.250000
#
# Coordination Sequence:
#
# PCOD9438476 Si02
#       8
#     4   4   4   8   4   4   4   4
#     4  11  23  43  69  98 138 173 214 287 341 405
#     4  11  23  43  69  98 138 173 214 287 341 405
#     4  10  22  39  62  98 128 173 210 246 356 398
#     4  10  23  43  62  91 135 177 224 278 344 403
#     4  12  26  45  70  96 136 189 226 286 342 410
#     4  12  26  46  68 104 130 170 242 274 338 436
#     4  10  21  36  63  97 129 170 223 282 341 407
#     4  10  21  36  63  97 129 170 223 282 341 407
#
# _framework density 22.937504000000001
#
# number of rings (size 3 to 8) (size 9 to 14) (size 15 to 20)
#    0.000    1.333    0.000    5.333    3.111    1.778 
#   12.000    0.000    0.000    0.000    0.000    0.000 
#    0.000    0.000    0.000    0.000    0.000    0.000 
#
# Total GULP energy -200996.488167 kJ/mol
# GULP energy per Si atom -5583.235782 kJ/mol
# Density = 2.288530 g / cm^3
# Si number density = 22.937504 Si / 1000 Ang^3
#
#
#
# Elastic Constant Matrix: (Units=GPa)
#
#
# Indices 1 2 3 4 5 6 
#
# 1 57.7224 17.8061 -1.7749 0.0000 0.0000 0.0000
# 2 17.8061 71.5308 20.0188 0.0000 0.0000 0.0000
# 3 -1.7749 20.0188 134.6599 0.0000 0.0000 0.0000
# 4 0.0000 0.0000 0.0000 26.2793 0.0000 0.0000
# 5 0.0000 0.0000 0.0000 0.0000 12.5381 0.0000
# 6 0.0000 0.0000 0.0000 0.0000 0.0000 37.2759
#
#
#
# Elastic Compliance Matrix: (Units=1/GPa)
#
#
# Indices 1 2 3 4 5 6 
#
# 1 0.018891 -0.004979 0.000989 0.000000 0.000000 0.000000
# 2 -0.004979 0.015899 -0.002429 0.000000 0.000000 0.000000
# 3 0.000989 -0.002429 0.007800 0.000000 0.000000 0.000000
# 4 0.000000 0.000000 0.000000 0.038053 0.000000 0.000000
# 5 0.000000 0.000000 0.000000 0.000000 0.079757 0.000000
# 6 0.000000 0.000000 0.000000 0.000000 0.000000 0.026827
#
#
# Mechanical properties :
#
#
# Convention : Reuss Voigt Hill
#
# Bulk Modulus (GPa) = 33.61151 37.33478 35.47315
# Shear Modulus (GPa) = 23.81145 30.40952 27.11048
#
# Velocity S-wave (km/s) = 3.22545 3.64504 3.44165
# Velocity P-wave (km/s) = 5.34385 5.83328 5.59392
#
# Compressibility (1/GPa) = 0.02975171
#
# Stress axis : x y z
#
# Youngs Moduli (GPa) = 52.93603 62.89574 128.20036
#
# Poissons Ratio (x) = 0.31318 -0.12682
# Poissons Ratio (y) = 0.26358 0.31143
# Poissons Ratio (z) = -0.05237 0.15279
#
# Static dielectric constant tensor:
#      x y z
#    x 1.996550 0.000000 0.000000 
#    y 0.000000 1.899630 0.000000 
#    z 0.000000 0.000000 1.693430 
# 
# From -- ./inp_files/7747.got.cif
#   From: 2010.05.17/outbox.cif.g08.bks.cpg/sg57_4_cif.got.tgz:7747.got - 2010.06.03 13:58:18.
