data_PCOD9438411
_publ_section_title
;
Structure prediction by ZEFSAII (Michael W. Deem and Ramdas Pophale) SiO2 
 PCOD9438411
Probable space group: P B C M
;
_chemical_formula_sum "Si O2"
_cell_formula_units_Z 64
_cell_length_a 19.626239
_cell_length_b 5.201844
_cell_length_c 28.923245
_cell_angle_alpha 90.000000
_cell_angle_beta 90.000000
_cell_angle_gamma 90.000000
_cell_volume 2952.850254
_symmetry_space_group_name_H-M "P B C M"
_symmetry_group_IT_number 57
_symmetry_cell_setting 'orthorhombic'
loop_
_space_group_symop_operation_xyz
x,y,z
-x,-y,1/2+z
x,1/2-y,-z
-x,1/2+y,1/2-z
-x,-y,-z
x,y,1/2-z
-x,1/2+y,z
x,1/2-y,1/2+z
loop_
_atom_site_type_symbol
_atom_site_label
_atom_site_fract_x
_atom_site_fract_y
_atom_site_fract_z
Si Si1 0.042946 0.487105 0.305094
Si Si2 0.675607 0.469462 0.076084
Si Si3 0.178590 0.864116 0.075074
Si Si4 0.824415 0.635430 0.863974
Si Si5 0.528360 0.189522 0.947928
Si Si6 0.458078 0.018782 0.694450
Si Si7 0.322722 0.468367 0.137412
Si Si8 0.970104 0.474251 0.051387
O O1 0.056030 0.473501 0.250000
O O2 0.111587 0.425334 0.332397
O O3 0.013205 0.768520 0.315552
O O4 0.748516 0.423340 0.051541
O O5 0.605900 0.404100 0.050057
O O6 0.672365 0.756854 0.096235
O O7 0.676934 0.256642 0.117014
O O8 0.175462 0.573491 0.094026
O O9 0.109537 0.921209 0.047933
O O10 0.175081 0.074397 0.116607
O O11 0.751121 0.586059 0.840476
O O12 0.516616 0.466467 0.924936
O O13 0.503398 0.250000 0.000000
O O14 0.450289 0.025896 0.750000
O O15 0.510937 0.242907 0.681602
O O16 0.385895 0.065678 0.670888
O O17 0.989940 0.740892 0.075014
O O18 0.000000 0.500000 0.000000
#
# Coordination Sequence:
#
# PCOD9438411 Si02
#       8
#     8   8   8   8   8   8   8   8
#     4  10  21  36  54  80 110 139 182 229 271 327
#     4  10  21  37  56  82 110 143 182 228 275 322
#     4  10  21  37  56  80 112 141 182 224 270 326
#     4  10  21  36  56  81 108 146 181 225 274 326
#     4  10  21  37  57  81 110 139 179 224 271 329
#     4  10  21  36  54  80 114 149 187 229 276 329
#     4  10  21  36  56  81 112 142 188 227 268 328
#     4  10  21  37  56  79 110 140 176 226 265 317
#
# _framework density 21.673976
#
# number of rings (size 3 to 8) (size 9 to 14) (size 15 to 20)
#    0.000    2.000    0.000    3.000    0.000    6.500 
#    2.250    0.000    5.500    9.000    0.000    0.000 
#    0.000    0.000    0.000    0.000    0.000    0.000 
#
# Total GULP energy -357585.872408 kJ/mol
# GULP energy per Si atom -5587.279256 kJ/mol
# Density = 2.162464 g / cm^3
# Si number density = 21.673976 Si / 1000 Ang^3
#
#
#
# Elastic Constant Matrix: (Units=GPa)
#
#
# Indices 1 2 3 4 5 6 
#
# 1 162.7687 7.3411 12.9884 0.0000 0.0000 0.0000
# 2 7.3411 119.1479 -7.8917 0.0000 0.0000 0.0000
# 3 12.9884 -7.8917 29.8397 0.0000 0.0000 0.0000
# 4 0.0000 0.0000 0.0000 13.2947 0.0000 0.0000
# 5 0.0000 0.0000 0.0000 0.0000 -15.5970 0.0000
# 6 0.0000 0.0000 0.0000 0.0000 0.0000 32.9570
#
#
#
# Elastic Compliance Matrix: (Units=1/GPa)
#
#
# Indices 1 2 3 4 5 6 
#
# 1 0.006405 -0.000590 -0.002944 0.000000 0.000000 0.000000
# 2 -0.000590 0.008597 0.002530 0.000000 0.000000 0.000000
# 3 -0.002944 0.002530 0.035463 0.000000 0.000000 0.000000
# 4 0.000000 0.000000 0.000000 0.075218 0.000000 0.000000
# 5 0.000000 0.000000 0.000000 0.000000 -0.064115 0.000000
# 6 0.000000 0.000000 0.000000 0.000000 0.000000 0.030343
#
#
# Mechanical properties :
#
#
# Convention : Reuss Voigt Hill
#
# Bulk Modulus (GPa) = 20.63625 37.40355 29.01990
# Shear Modulus (GPa) = 45.42550 26.08549 35.75550
#
# Velocity S-wave (km/s) = 4.58302 3.47297 4.06605
# Velocity P-wave (km/s) = 6.12758 5.77727 5.95500
#
# Compressibility (1/GPa) = 0.04845841
#
# Stress axis : x y z
#
# Youngs Moduli (GPa) = 156.12323 116.32163 28.19840
#
# Poissons Ratio (x) = 0.06859 0.08301
# Poissons Ratio (y) = 0.09206 -0.07135
# Poissons Ratio (z) = 0.45962 -0.29432
#
# Static dielectric constant tensor:
#      x y z
#    x 1.795200 0.000000 0.000000 
#    y 0.000000 1.899710 0.000000 
#    z 0.000000 0.000000 1.735410 
# 
# From -- ./inp_files/29960.got.cif
#   From: 2010.05.17/outbox.cif.g08.bks.cpg/sg57_15_cif.got.tgz:29960.got - 2010.06.03 13:58:18.
