data_PCOD9438845
_publ_section_title
;
Structure prediction by ZEFSAII (Michael W. Deem and Ramdas Pophale) SiO2 
 PCOD9438845
Probable space group: P B C M
;
_chemical_formula_sum "Si O2"
_cell_formula_units_Z 60
_cell_length_a 15.124091
_cell_length_b 11.596622
_cell_length_c 17.150460
_cell_angle_alpha 90.000000
_cell_angle_beta 90.000000
_cell_angle_gamma 90.000000
_cell_volume 3007.991163
_symmetry_space_group_name_H-M "P B C M"
_symmetry_group_IT_number 57
_symmetry_cell_setting 'orthorhombic'
loop_
_space_group_symop_operation_xyz
x,y,z
-x,-y,1/2+z
x,1/2-y,-z
-x,1/2+y,1/2-z
-x,-y,-z
x,y,1/2-z
-x,1/2+y,z
x,1/2-y,1/2+z
loop_
_atom_site_type_symbol
_atom_site_label
_atom_site_fract_x
_atom_site_fract_y
_atom_site_fract_z
Si Si1 0.672971 0.738051 0.591974
Si Si2 0.139233 0.355212 0.114871
Si Si3 0.314347 0.878191 0.024632
Si Si4 0.119830 0.958847 0.480415
Si Si5 0.075222 0.532179 0.250000
Si Si6 0.397524 0.477069 0.659829
Si Si7 0.014143 0.133194 0.397310
Si Si8 0.562834 0.981117 0.075857
O O1 0.692447 0.750000 0.500000
O O2 0.761695 0.689822 0.630597
O O3 0.646046 0.859921 0.627944
O O4 0.591575 0.648472 0.595301
O O5 0.140883 0.432281 0.036529
O O6 0.106187 0.439562 0.182084
O O7 0.074437 0.246404 0.103864
O O8 0.361239 0.921924 0.103504
O O9 0.338732 0.750000 0.000000
O O10 0.210041 0.893108 0.035557
O O11 0.348122 0.956534 0.952405
O O12 0.076045 0.018437 0.405292
O O13 0.050479 0.881072 0.528145
O O14 0.041595 0.621411 0.180975
O O15 0.377696 0.495249 0.750000
O O16 0.503068 0.469775 0.644869
O O17 0.500000 0.000000 0.000000
#
# Coordination Sequence:
#
# PCOD9438845 Si02
#       8
#     8   8   8   8   4   8   8   8
#     4  12  21  41  75 103 133 180 237 288 338 408
#     4  11  21  39  66  95 128 171 225 284 329 400
#     4  11  23  42  69  95 135 184 222 277 345 427
#     4  10  21  40  64  96 121 165 233 276 322 400
#     4  10  24  38  54  92 134 170 206 262 356 398
#     4  11  26  43  66 105 138 176 231 289 357 414
#     4  10  21  38  64  89 126 168 215 280 325 386
#     4  10  22  40  67  98 134 177 222 276 343 419
#
# _framework density 19.946867999999998
#
# number of rings (size 3 to 8) (size 9 to 14) (size 15 to 20)
#    0.000    1.333    4.000    2.400    4.667    3.733 
#    3.600    0.000    5.867    0.000    0.000    0.000 
#    0.000    0.000    0.000    0.000    0.000    0.000 
#
# Total GULP energy -334041.576096 kJ/mol
# GULP energy per Si atom -5567.359602 kJ/mol
# Density = 1.990147 g / cm^3
# Si number density = 19.946868 Si / 1000 Ang^3
#
#
#
# Elastic Constant Matrix: (Units=GPa)
#
#
# Indices 1 2 3 4 5 6 
#
# 1 81.9119 25.0662 8.0118 0.0000 0.0000 0.0000
# 2 25.0662 96.3612 36.4344 0.0000 0.0000 0.0000
# 3 8.0118 36.4344 86.8703 0.0000 0.0000 0.0000
# 4 0.0000 0.0000 0.0000 22.8426 0.0000 0.0000
# 5 0.0000 0.0000 0.0000 0.0000 5.0448 0.0000
# 6 0.0000 0.0000 0.0000 0.0000 0.0000 38.6951
#
#
#
# Elastic Compliance Matrix: (Units=1/GPa)
#
#
# Indices 1 2 3 4 5 6 
#
# 1 0.013269 -0.003552 0.000266 0.000000 0.000000 0.000000
# 2 -0.003552 0.013284 -0.005244 0.000000 0.000000 0.000000
# 3 0.000266 -0.005244 0.013686 0.000000 0.000000 0.000000
# 4 0.000000 0.000000 0.000000 0.043778 0.000000 0.000000
# 5 0.000000 0.000000 0.000000 0.000000 0.198225 0.000000
# 6 0.000000 0.000000 0.000000 0.000000 0.000000 0.025843
#
#
# Mechanical properties :
#
#
# Convention : Reuss Voigt Hill
#
# Bulk Modulus (GPa) = 43.14156 44.90758 44.02457
# Shear Modulus (GPa) = 15.02074 26.35855 20.68965
#
# Velocity S-wave (km/s) = 2.74713 3.63910 3.22411
# Velocity P-wave (km/s) = 5.63360 6.34192 5.99822
#
# Compressibility (1/GPa) = 0.02317950
#
# Stress axis : x y z
#
# Youngs Moduli (GPa) = 75.36211 75.27595 73.06588
#
# Poissons Ratio (x) = 0.26740 -0.01944
# Poissons Ratio (y) = 0.26771 0.38316
# Poissons Ratio (z) = -0.02005 0.39475
#
# Static dielectric constant tensor:
#      x y z
#    x 1.772540 0.000000 0.000000 
#    y 0.000000 1.733380 0.000000 
#    z 0.000000 0.000000 1.697270 
# 
# From -- ./inp_files/22609.got.cif
#   From: 2010.05.17/outbox.cif.g08.bks.cpg/sg57_12_cif.got.tgz:22609.got - 2010.06.03 13:58:18.
