data_PCOD9438420
_publ_section_title
;
Structure prediction by ZEFSAII (Michael W. Deem and Ramdas Pophale) SiO2 
 PCOD9438420
Probable space group: P B C M
;
_chemical_formula_sum "Si O2"
_cell_formula_units_Z 56
_cell_length_a 32.633561
_cell_length_b 5.320608
_cell_length_c 14.296893
_cell_angle_alpha 90.000000
_cell_angle_beta 90.000000
_cell_angle_gamma 90.000000
_cell_volume 2482.375046
_symmetry_space_group_name_H-M "P B C M"
_symmetry_group_IT_number 57
_symmetry_cell_setting 'orthorhombic'
loop_
_space_group_symop_operation_xyz
x,y,z
-x,-y,1/2+z
x,1/2-y,-z
-x,1/2+y,1/2-z
-x,-y,-z
x,y,1/2-z
-x,1/2+y,z
x,1/2-y,1/2+z
loop_
_atom_site_type_symbol
_atom_site_label
_atom_site_fract_x
_atom_site_fract_y
_atom_site_fract_z
Si Si1 0.718235 0.573750 0.647363
Si Si2 0.526823 0.476451 0.644434
Si Si3 0.644006 0.958275 0.853507
Si Si4 0.681147 0.250000 0.500000
Si Si5 0.197295 0.496788 0.064907
Si Si6 0.893948 0.499313 0.937027
Si Si7 0.980686 0.408116 0.860204
Si Si8 0.580380 0.750000 0.000000
O O1 0.708223 0.450843 0.750000
O O2 0.688073 0.815626 0.648450
O O3 0.708707 0.462689 0.544412
O O4 0.767235 0.560901 0.640143
O O5 0.546173 0.500450 0.750000
O O6 0.507144 0.199828 0.641125
O O7 0.553560 0.538816 0.552727
O O8 0.629032 0.995449 0.750000
O O9 0.610378 0.827886 0.916518
O O10 0.652966 0.207241 0.910694
O O11 0.151503 0.509994 0.107204
O O12 0.197939 0.250000 0.000000
O O13 0.203298 0.750000 0.000000
O O14 0.933653 0.486006 0.872546
O O15 0.896456 0.750000 0.000000
O O16 0.896069 0.250000 0.000000
O O17 0.989703 0.385971 0.750000
O O18 0.008688 0.633127 0.899805
#
# Coordination Sequence:
#
# PCOD9438420 Si02
#       8
#     8   8   8   4   8   8   8   4
#     4  11  23  40  63  92 127 174 222 266 331 399
#     4  10  23  44  69  98 133 176 227 275 330 403
#     4  11  25  42  63  97 134 174 225 270 334 409
#     4  12  20  42  65  90 126 178 212 283 328 382
#     4  10  21  39  62  85 122 163 207 261 324 378
#     4  10  21  36  57  87 114 151 200 254 305 368
#     4  10  21  36  55  79 114 155 191 242 311 376
#     4  12  22  42  65  96 134 174 214 281 338 384
#
# _framework density 22.559041000000001
#
# number of rings (size 3 to 8) (size 9 to 14) (size 15 to 20)
#    0.000    1.429    2.143    3.000    0.000    3.429 
#    0.000    1.429    0.000    5.143    0.000    0.000 
#    0.000    0.000    0.000    0.000    0.000    0.000 
#
# Total GULP energy -312041.476412 kJ/mol
# GULP energy per Si atom -5572.169222 kJ/mol
# Density = 2.250770 g / cm^3
# Si number density = 22.559041 Si / 1000 Ang^3
#
#
#
# Elastic Constant Matrix: (Units=GPa)
#
#
# Indices 1 2 3 4 5 6 
#
# 1 80.1110 14.5179 30.4774 0.0000 0.0000 0.0000
# 2 14.5179 84.6640 13.5777 0.0000 0.0000 0.0000
# 3 30.4774 13.5777 136.5374 0.0000 0.0000 0.0000
# 4 0.0000 0.0000 0.0000 21.8981 0.0000 0.0000
# 5 0.0000 0.0000 0.0000 0.0000 186.3449 0.0000
# 6 0.0000 0.0000 0.0000 0.0000 0.0000 45.9280
#
#
#
# Elastic Compliance Matrix: (Units=1/GPa)
#
#
# Indices 1 2 3 4 5 6 
#
# 1 0.013942 -0.001922 -0.002921 0.000000 0.000000 0.000000
# 2 -0.001922 0.012268 -0.000791 0.000000 0.000000 0.000000
# 3 -0.002921 -0.000791 0.008055 0.000000 0.000000 0.000000
# 4 0.000000 0.000000 0.000000 0.045666 0.000000 0.000000
# 5 0.000000 0.000000 0.000000 0.000000 0.005366 0.000000
# 6 0.000000 0.000000 0.000000 0.000000 0.000000 0.021773
#
#
# Mechanical properties :
#
#
# Convention : Reuss Voigt Hill
#
# Bulk Modulus (GPa) = 43.48496 46.49539 44.99018
# Shear Modulus (GPa) = 39.68115 67.01681 53.34898
#
# Velocity S-wave (km/s) = 4.19858 5.45635 4.86826
# Velocity P-wave (km/s) = 6.54386 7.76859 7.18238
#
# Compressibility (1/GPa) = 0.02299646
#
# Stress axis : x y z
#
# Youngs Moduli (GPa) = 71.72416 81.51373 124.15176
#
# Poissons Ratio (x) = 0.15670 0.36265
# Poissons Ratio (y) = 0.13788 0.09819
# Poissons Ratio (z) = 0.20951 0.06447
#
# Static dielectric constant tensor:
#      x y z
#    x 1.994130 0.000000 0.000000 
#    y 0.000000 1.857420 0.000000 
#    z 0.000000 0.000000 1.724620 
# 
# From -- ./inp_files/19670.got.cif
#   From: 2010.05.17/outbox.cif.g08.bks.cpg/sg57_10_cif.got.tgz:19670.got - 2010.06.03 13:58:18.
