data_PCOD9438600
_publ_section_title
;
Structure prediction by ZEFSAII (Michael W. Deem and Ramdas Pophale) SiO2 
 PCOD9438600
Probable space group: P B C M
;
_chemical_formula_sum "Si O2"
_cell_formula_units_Z 64
_cell_length_a 11.093804
_cell_length_b 14.782715
_cell_length_c 16.372618
_cell_angle_alpha 90.000000
_cell_angle_beta 90.000000
_cell_angle_gamma 90.000000
_cell_volume 2685.052749
_symmetry_space_group_name_H-M "P B C M"
_symmetry_group_IT_number 57
_symmetry_cell_setting 'orthorhombic'
loop_
_space_group_symop_operation_xyz
x,y,z
-x,-y,1/2+z
x,1/2-y,-z
-x,1/2+y,1/2-z
-x,-y,-z
x,y,1/2-z
-x,1/2+y,z
x,1/2-y,1/2+z
loop_
_atom_site_type_symbol
_atom_site_label
_atom_site_fract_x
_atom_site_fract_y
_atom_site_fract_z
Si Si1 0.341409 0.393774 0.347170
Si Si2 0.319138 0.770413 0.905576
Si Si3 0.073823 0.677326 0.847016
Si Si4 0.576403 0.505080 0.150033
Si Si5 0.938253 0.653719 0.156215
Si Si6 0.573466 0.711867 0.154978
Si Si7 0.822890 0.448586 0.608847
Si Si8 0.167782 0.988642 0.079183
O O1 0.357050 0.384696 0.250000
O O2 0.458227 0.450129 0.377051
O O3 0.343252 0.291516 0.380824
O O4 0.225557 0.456191 0.359463
O O5 0.198058 0.716537 0.883405
O O6 0.437482 0.749951 0.853609
O O7 0.284291 0.874682 0.888707
O O8 0.346170 0.750000 0.000000
O O9 0.079323 0.684834 0.750000
O O10 0.967873 0.745143 0.873300
O O11 0.072376 0.573556 0.872430
O O12 0.583174 0.501559 0.250000
O O13 0.571722 0.610061 0.121740
O O14 0.698496 0.466292 0.111300
O O15 0.894517 0.654995 0.250000
O O16 0.066264 0.600405 0.153020
O O17 0.853657 0.593089 0.100420
O O18 0.603995 0.700354 0.250000
O O19 0.851300 0.463892 0.514081
#
# Coordination Sequence:
#
# PCOD9438600 Si02
#       8
#     8   8   8   8   8   8   8   8
#     4  10  21  39  63  93 128 169 214 256 306 375
#     4  11  20  35  57  91 125 161 204 259 308 362
#     4  10  21  38  64  91 117 159 211 256 304 368
#     4  10  21  37  61  90 124 165 207 257 306 362
#     4  10  23  42  65  90 118 161 210 260 311 374
#     4  10  21  37  59  88 125 169 213 254 302 367
#     4  11  23  39  63  90 127 162 203 260 320 378
#     4  12  23  41  64  94 127 160 206 260 322 378
#
# _framework density 23.835659
#
# number of rings (size 3 to 8) (size 9 to 14) (size 15 to 20)
#    0.000    1.500    2.500    3.000    0.000    3.500 
#    2.250    0.000    0.000    0.000    0.000    0.000 
#    0.000    0.000    0.000    0.000    0.000    0.000 
#
# Total GULP energy -357944.385903 kJ/mol
# GULP energy per Si atom -5592.881030 kJ/mol
# Density = 2.378141 g / cm^3
# Si number density = 23.835659 Si / 1000 Ang^3
#
#
#
# Elastic Constant Matrix: (Units=GPa)
#
#
# Indices 1 2 3 4 5 6 
#
# 1 64.9528 -5.0738 -1.5362 0.0000 0.0000 0.0000
# 2 -5.0738 95.3831 -0.2424 0.0000 0.0000 0.0000
# 3 -1.5362 -0.2424 20.4421 0.0000 0.0000 0.0000
# 4 0.0000 0.0000 0.0000 -46.5418 0.0000 0.0000
# 5 0.0000 0.0000 0.0000 0.0000 -4.7176 0.0000
# 6 0.0000 0.0000 0.0000 0.0000 0.0000 -0.8983
#
#
#
# Elastic Compliance Matrix: (Units=1/GPa)
#
#
# Indices 1 2 3 4 5 6 
#
# 1 0.015488 0.000827 0.001174 0.000000 0.000000 0.000000
# 2 0.000827 0.010529 0.000187 0.000000 0.000000 0.000000
# 3 0.001174 0.000187 0.049009 0.000000 0.000000 0.000000
# 4 0.000000 0.000000 0.000000 -0.021486 0.000000 0.000000
# 5 0.000000 0.000000 0.000000 0.000000 -0.211972 0.000000
# 6 0.000000 0.000000 0.000000 0.000000 0.000000 -1.113152
#
#
# Mechanical properties :
#
#
# Convention : Reuss Voigt Hill
#
# Bulk Modulus (GPa) = 12.59433 18.56367 15.57900
# Shear Modulus (GPa) = -4.00162 2.07715 -0.96224
#
# Velocity S-wave (km/s) = -1.29711 0.93452 -0.63606
# Velocity P-wave (km/s) = 1.74699 2.99492 2.45169
#
# Compressibility (1/GPa) = 0.07940084
#
# Stress axis : x y z
#
# Youngs Moduli (GPa) = 64.56554 94.98029 20.40443
#
# Poissons Ratio (x) = -0.07854 -0.02395
# Poissons Ratio (y) = -0.05339 -0.00382
# Poissons Ratio (z) = -0.07578 -0.01776
#
# Static dielectric constant tensor:
#      x y z
#    x 1.919710 0.000000 0.000000 
#    y 0.000000 1.963090 0.000000 
#    z 0.000000 0.000000 1.860900 
# 
# From -- ./inp_files/22027.got.cif
#   From: 2010.05.17/outbox.cif.g08.bks.cpg/sg57_12_cif.got.tgz:22027.got - 2010.06.03 13:58:18.
