data_PCOD9438055
_publ_section_title
;
Structure prediction by ZEFSAII (Michael W. Deem and Ramdas Pophale) SiO2 
 PCOD9438055
Probable space group: P B C M
;
_chemical_formula_sum "Si O2"
_cell_formula_units_Z 64
_cell_length_a 15.077016
_cell_length_b 9.572561
_cell_length_c 23.386520
_cell_angle_alpha 90.000000
_cell_angle_beta 90.000000
_cell_angle_gamma 90.000000
_cell_volume 3375.274826
_symmetry_space_group_name_H-M "P B C M"
_symmetry_group_IT_number 57
_symmetry_cell_setting 'orthorhombic'
loop_
_space_group_symop_operation_xyz
x,y,z
-x,-y,1/2+z
x,1/2-y,-z
-x,1/2+y,1/2-z
-x,-y,-z
x,y,1/2-z
-x,1/2+y,z
x,1/2-y,1/2+z
loop_
_atom_site_type_symbol
_atom_site_label
_atom_site_fract_x
_atom_site_fract_y
_atom_site_fract_z
Si Si1 0.348886 0.638661 0.586581
Si Si2 0.864965 0.655632 0.133120
Si Si3 0.210617 0.617990 0.684142
Si Si4 0.536938 0.882041 0.458483
Si Si5 0.054582 0.828254 0.683312
Si Si6 0.706969 0.450582 0.918920
Si Si7 0.194759 0.058352 0.683557
Si Si8 0.235270 0.092344 0.020269
O O1 0.299328 0.625157 0.646953
O O2 0.455234 0.642895 0.584939
O O3 0.318534 0.792411 0.565429
O O4 0.310844 0.506341 0.550103
O O5 0.831054 0.534027 0.174870
O O6 0.813721 0.794995 0.151602
O O7 0.839102 0.610258 0.068896
O O8 0.968404 0.678308 0.144564
O O9 0.228108 0.649502 0.750000
O O10 0.132521 0.722967 0.664691
O O11 0.550848 0.750000 0.500000
O O12 0.500000 0.000000 0.500000
O O13 0.624315 0.944642 0.429198
O O14 0.031366 0.796310 0.750000
O O15 0.099929 0.980267 0.682154
O O16 0.738392 0.465613 0.853949
O O17 0.782910 0.506458 0.962188
O O18 0.220016 0.072090 0.750000
O O19 0.257393 0.250000 0.000000
#
# Coordination Sequence:
#
# PCOD9438055 Si02
#       8
#     8   8   8   8   8   8   8   8
#     4  11  23  40  65  92 123 160 205 254 310 364
#     4  11  22  36  61  92 126 157 210 260 302 351
#     4  10  21  38  64  91 122 166 208 252 309 368
#     4  12  23  37  63  93 118 152 207 254 300 368
#     4  10  20  38  63  89 120 163 212 256 297 357
#     4  12  23  41  63  90 126 157 205 250 307 374
#     4  11  23  39  64  91 122 163 203 251 309 362
#     4  11  22  38  61  89 125 165 199 251 308 359
#
# _framework density 18.961418999999999
#
# number of rings (size 3 to 8) (size 9 to 14) (size 15 to 20)
#    0.000    1.000    5.000    2.625    0.000    2.000 
#    0.000    1.250    2.750    0.000    0.000    0.000 
#    0.000    0.000    0.000    0.000    0.000    0.000 
#
# Total GULP energy -357033.427097 kJ/mol
# GULP energy per Si atom -5578.647298 kJ/mol
# Density = 1.891826 g / cm^3
# Si number density = 18.961419 Si / 1000 Ang^3
#
#
#
# Elastic Constant Matrix: (Units=GPa)
#
#
# Indices 1 2 3 4 5 6 
#
# 1 99.8997 17.0991 53.3852 0.0000 0.0000 0.0000
# 2 17.0991 102.9999 7.9250 0.0000 0.0000 0.0000
# 3 53.3852 7.9250 92.9548 0.0000 0.0000 0.0000
# 4 0.0000 0.0000 0.0000 25.8784 0.0000 0.0000
# 5 0.0000 0.0000 0.0000 0.0000 24.7012 0.0000
# 6 0.0000 0.0000 0.0000 0.0000 0.0000 24.2019
#
#
#
# Elastic Compliance Matrix: (Units=1/GPa)
#
#
# Indices 1 2 3 4 5 6 
#
# 1 0.014771 -0.001811 -0.008329 0.000000 0.000000 0.000000
# 2 -0.001811 0.009995 0.000188 0.000000 0.000000 0.000000
# 3 -0.008329 0.000188 0.015525 0.000000 0.000000 0.000000
# 4 0.000000 0.000000 0.000000 0.038642 0.000000 0.000000
# 5 0.000000 0.000000 0.000000 0.000000 0.040484 0.000000
# 6 0.000000 0.000000 0.000000 0.000000 0.000000 0.041319
#
#
# Mechanical properties :
#
#
# Convention : Reuss Voigt Hill
#
# Bulk Modulus (GPa) = 49.05028 50.29702 49.67365
# Shear Modulus (GPa) = 26.67584 29.45264 28.06424
#
# Velocity S-wave (km/s) = 3.75487 3.94546 3.85134
# Velocity P-wave (km/s) = 6.68755 6.88034 6.78463
#
# Compressibility (1/GPa) = 0.02038724
#
# Stress axis : x y z
#
# Youngs Moduli (GPa) = 67.70118 100.05039 64.41170
#
# Poissons Ratio (x) = 0.18122 0.53646
# Poissons Ratio (y) = 0.12263 -0.01212
# Poissons Ratio (z) = 0.56386 -0.01882
#
# Static dielectric constant tensor:
#      x y z
#    x 1.659870 0.000000 0.000000 
#    y 0.000000 1.698650 0.000000 
#    z 0.000000 0.000000 1.661110 
# 
# From -- ./inp_files/27481.got.cif
#   From: 2010.05.17/outbox.cif.g08.bks.cpg/sg57_14_cif.got.tgz:27481.got - 2010.06.03 13:58:18.
