data_PCOD9438782
_publ_section_title
;
Structure prediction by ZEFSAII (Michael W. Deem and Ramdas Pophale) SiO2 
 PCOD9438782
Probable space group: P B C M
;
_chemical_formula_sum "Si O2"
_cell_formula_units_Z 48
_cell_length_a 19.193820
_cell_length_b 15.541653
_cell_length_c 8.679292
_cell_angle_alpha 90.000000
_cell_angle_beta 90.000000
_cell_angle_gamma 90.000000
_cell_volume 2589.064832
_symmetry_space_group_name_H-M "P B C M"
_symmetry_group_IT_number 57
_symmetry_cell_setting 'orthorhombic'
loop_
_space_group_symop_operation_xyz
x,y,z
-x,-y,1/2+z
x,1/2-y,-z
-x,1/2+y,1/2-z
-x,-y,-z
x,y,1/2-z
-x,1/2+y,z
x,1/2-y,1/2+z
loop_
_atom_site_type_symbol
_atom_site_label
_atom_site_fract_x
_atom_site_fract_y
_atom_site_fract_z
Si Si1 0.332731 0.844792 0.935046
Si Si2 0.577871 0.998461 0.565601
Si Si3 0.670538 0.844710 0.065296
Si Si4 0.824122 0.656569 0.435232
Si Si5 0.829824 0.344242 0.565903
Si Si6 0.077519 0.502542 0.565720
O O1 0.340154 0.845455 0.750000
O O2 0.251342 0.862846 0.972619
O O3 0.348963 0.750000 0.000000
O O4 0.380993 0.917010 0.009240
O O5 0.576827 0.995178 0.750000
O O6 0.618519 0.915962 0.499400
O O7 0.500000 0.000000 0.500000
O O8 0.669307 0.843517 0.250000
O O9 0.653479 0.750000 0.000000
O O10 0.748799 0.864875 0.007134
O O11 0.844409 0.750000 0.500000
O O12 0.817119 0.661118 0.250000
O O13 0.879754 0.583668 0.475859
O O14 0.846334 0.250000 0.500000
O O15 0.836001 0.342738 0.750000
O O16 0.879761 0.416352 0.497598
O O17 0.074702 0.507442 0.750000
O O18 0.000000 0.500000 0.500000
#
# Coordination Sequence:
#
# PCOD9438782 Si02
#       6
#     8   8   8   8   8   8
#     4  10  21  39  63  91 119 153 195 240 289 343
#     4  12  25  41  60  86 120 157 196 240 290 347
#     4  11  22  39  63  90 118 152 193 240 290 344
#     4  10  21  38  61  88 115 150 193 240 289 342
#     4  10  21  38  62  88 116 150 192 239 288 342
#     4  11  24  39  57  83 118 156 196 239 290 346
#
# _framework density 18.539514
#
# number of rings (size 3 to 8) (size 9 to 14) (size 15 to 20)
#    0.000    1.333    0.000    7.000    0.000    8.667 
#    0.000    5.000    0.000    0.000    0.000    0.000 
#    0.000    0.000    0.000    0.000    0.000    0.000 
#
# Total GULP energy -268483.425543 kJ/mol
# GULP energy per Si atom -5593.404699 kJ/mol
# Density = 1.849732 g / cm^3
# Si number density = 18.539514 Si / 1000 Ang^3
#
#
#
# Elastic Constant Matrix: (Units=GPa)
#
#
# Indices 1 2 3 4 5 6 
#
# 1 164.0659 152.8140 87.6695 0.0000 0.0000 0.0000
# 2 152.8140 176.4054 89.2568 0.0000 0.0000 0.0000
# 3 87.6695 89.2568 129.4288 0.0000 0.0000 0.0000
# 4 0.0000 0.0000 0.0000 40.4552 0.0000 0.0000
# 5 0.0000 0.0000 0.0000 0.0000 33.0190 0.0000
# 6 0.0000 0.0000 0.0000 0.0000 0.0000 -27.9622
#
#
#
# Elastic Compliance Matrix: (Units=1/GPa)
#
#
# Indices 1 2 3 4 5 6 
#
# 1 0.032876 -0.026437 -0.004038 0.000000 0.000000 0.000000
# 2 -0.026437 0.029965 -0.002758 0.000000 0.000000 0.000000
# 3 -0.004038 -0.002758 0.012363 0.000000 0.000000 0.000000
# 4 0.000000 0.000000 0.000000 0.024719 0.000000 0.000000
# 5 0.000000 0.000000 0.000000 0.000000 0.030286 0.000000
# 6 0.000000 0.000000 0.000000 0.000000 0.000000 -0.035763
#
#
# Mechanical properties :
#
#
# Convention : Reuss Voigt Hill
#
# Bulk Modulus (GPa) = 114.40974 125.48676 119.94825
# Shear Modulus (GPa) = 30.52073 18.44639 24.48356
#
# Velocity S-wave (km/s) = 4.06181 3.15775 3.63797
# Velocity P-wave (km/s) = 9.15658 9.00712 9.08216
#
# Compressibility (1/GPa) = 0.00874051
#
# Stress axis : x y z
#
# Youngs Moduli (GPa) = 30.41717 33.37214 80.88696
#
# Poissons Ratio (x) = 0.88224 0.32660
# Poissons Ratio (y) = 0.80412 0.22305
# Poissons Ratio (z) = 0.12282 0.09203
#
# Static dielectric constant tensor:
#      x y z
#    x 1.609540 0.000000 0.000000 
#    y 0.000000 1.612840 0.000000 
#    z 0.000000 0.000000 1.618440 
# 
# From -- ./inp_files/6475.got.cif
#   From: 2010.05.17/outbox.cif.g08.bks.cpg/sg57_4_cif.got.tgz:6475.got - 2010.06.03 13:58:18.
