data_PCOD9438204
_publ_section_title
;
Structure prediction by ZEFSAII (Michael W. Deem and Ramdas Pophale) SiO2 
 PCOD9438204
Probable space group: P B C M
;
_chemical_formula_sum "Si O2"
_cell_formula_units_Z 40
_cell_length_a 22.129086
_cell_length_b 8.571579
_cell_length_c 9.951077
_cell_angle_alpha 90.000000
_cell_angle_beta 90.000000
_cell_angle_gamma 90.000000
_cell_volume 1887.532315
_symmetry_space_group_name_H-M "P B C M"
_symmetry_group_IT_number 57
_symmetry_cell_setting 'orthorhombic'
loop_
_space_group_symop_operation_xyz
x,y,z
-x,-y,1/2+z
x,1/2-y,-z
-x,1/2+y,1/2-z
-x,-y,-z
x,y,1/2-z
-x,1/2+y,z
x,1/2-y,1/2+z
loop_
_atom_site_type_symbol
_atom_site_label
_atom_site_fract_x
_atom_site_fract_y
_atom_site_fract_z
Si Si1 0.141581 0.063837 0.480041
Si Si2 0.639191 0.250000 0.000000
Si Si3 0.564911 0.114140 0.750000
Si Si4 0.649735 0.750000 0.500000
Si Si5 0.081319 0.008067 0.750000
Si Si6 0.726040 0.477696 0.098652
Si Si7 0.571852 0.767562 0.250000
Si Si8 0.050410 0.124255 0.250000
O O1 0.152873 0.250000 0.500000
O O2 0.121272 0.986406 0.618289
O O3 0.203108 0.990035 0.426506
O O4 0.085501 0.054983 0.378007
O O5 0.597336 0.310129 0.120303
O O6 0.688291 0.387871 0.984418
O O7 0.495281 0.164156 0.750000
O O8 0.570567 0.924398 0.750000
O O9 0.694540 0.644685 0.412281
O O10 0.605669 0.821211 0.386120
O O11 0.061400 0.190261 0.750000
O O12 0.020096 0.910548 0.750000
O O13 0.715887 0.414583 0.250000
#
# Coordination Sequence:
#
# PCOD9438204 Si02
#       8
#     8   4   4   4   4   8   4   4
#     4  10  21  38  67  92 127 170 217 271 324 388
#     4  12  25  48  68  94 139 174 210 278 336 386
#     4  12  28  48  68  98 137 174 222 270 323 391
#     4  12  23  44  74  96 131 172 220 268 326 402
#     4  10  22  38  60  96 121 174 224 256 327 383
#     4  12  24  46  68 100 134 170 221 277 337 394
#     4  12  28  46  67 106 133 172 223 268 323 391
#     4  10  20  40  61  84 135 172 209 274 317 379
#
# _framework density 21.191690999999999
#
# number of rings (size 3 to 8) (size 9 to 14) (size 15 to 20)
#    0.000    0.800    6.000    1.200    2.800    3.200 
#    3.600    0.000    0.000    0.000    0.000    0.000 
#    0.000    0.000    0.000    0.000    0.000    0.000 
#
# Total GULP energy -223300.584603 kJ/mol
# GULP energy per Si atom -5582.514615 kJ/mol
# Density = 2.114346 g / cm^3
# Si number density = 21.191691 Si / 1000 Ang^3
#
#
#
# Elastic Constant Matrix: (Units=GPa)
#
#
# Indices 1 2 3 4 5 6 
#
# 1 133.3619 13.1645 29.1114 0.0000 0.0000 0.0000
# 2 13.1645 25.3427 8.5242 0.0000 0.0000 0.0000
# 3 29.1114 8.5242 98.2611 0.0000 0.0000 0.0000
# 4 0.0000 0.0000 0.0000 -1.5394 0.0000 0.0000
# 5 0.0000 0.0000 0.0000 0.0000 25.0327 0.0000
# 6 0.0000 0.0000 0.0000 0.0000 0.0000 14.2801
#
#
#
# Elastic Compliance Matrix: (Units=1/GPa)
#
#
# Indices 1 2 3 4 5 6 
#
# 1 0.008324 -0.003599 -0.002154 0.000000 0.000000 0.000000
# 2 -0.003599 0.042202 -0.002595 0.000000 0.000000 0.000000
# 3 -0.002154 -0.002595 0.011040 0.000000 0.000000 0.000000
# 4 0.000000 0.000000 0.000000 -0.649600 0.000000 0.000000
# 5 0.000000 0.000000 0.000000 0.000000 0.039948 0.000000
# 6 0.000000 0.000000 0.000000 0.000000 0.000000 0.070027
#
#
# Mechanical properties :
#
#
# Convention : Reuss Voigt Hill
#
# Bulk Modulus (GPa) = 22.28668 39.84066 31.06367
# Shear Modulus (GPa) = -11.20054 21.29905 5.04926
#
# Velocity S-wave (km/s) = -2.30148 3.17372 1.54526
# Velocity P-wave (km/s) = 1.86470 5.68075 4.22777
#
# Compressibility (1/GPa) = 0.04486985
#
# Stress axis : x y z
#
# Youngs Moduli (GPa) = 120.13653 23.69577 90.57846
#
# Poissons Ratio (x) = 0.08529 0.19509
# Poissons Ratio (y) = 0.43243 0.23502
# Poissons Ratio (z) = 0.25875 0.06148
#
# Static dielectric constant tensor:
#      x y z
#    x 1.712890 0.000000 0.000000 
#    y 0.000000 1.924990 0.000000 
#    z 0.000000 0.000000 1.780540 
# 
# From -- ./inp_files/9057.got.cif
#   From: 2010.05.17/outbox.cif.g08.bks.cpg/sg57_5_cif.got.tgz:9057.got - 2010.06.03 13:58:18.
