data_PCOD9438645
_publ_section_title
;
Structure prediction by ZEFSAII (Michael W. Deem and Ramdas Pophale) SiO2 
 PCOD9438645
Probable space group: P B C M
;
_chemical_formula_sum "Si O2"
_cell_formula_units_Z 48
_cell_length_a 15.443873
_cell_length_b 19.424291
_cell_length_c 8.721985
_cell_angle_alpha 90.000000
_cell_angle_beta 90.000000
_cell_angle_gamma 90.000000
_cell_volume 2616.475863
_symmetry_space_group_name_H-M "P B C M"
_symmetry_group_IT_number 57
_symmetry_cell_setting 'orthorhombic'
loop_
_space_group_symop_operation_xyz
x,y,z
-x,-y,1/2+z
x,1/2-y,-z
-x,1/2+y,1/2-z
-x,-y,-z
x,y,1/2-z
-x,1/2+y,z
x,1/2-y,1/2+z
loop_
_atom_site_type_symbol
_atom_site_label
_atom_site_fract_x
_atom_site_fract_y
_atom_site_fract_z
Si Si1 0.227412 0.578853 0.933614
Si Si2 0.477234 0.424986 0.433484
Si Si3 0.623232 0.173536 0.432822
Si Si4 0.722732 0.569456 0.565794
Si Si5 0.125606 0.173653 0.934796
Si Si6 0.971584 0.426280 0.434945
O O1 0.234730 0.584785 0.750000
O O2 0.127250 0.589411 0.978932
O O3 0.291826 0.632687 0.011258
O O4 0.254639 0.502228 0.984693
O O5 0.500000 0.500000 0.500000
O O6 0.489012 0.425987 0.250000
O O7 0.541138 0.369412 0.505987
O O8 0.376357 0.410779 0.466892
O O9 0.622568 0.250000 0.500000
O O10 0.621323 0.175661 0.250000
O O11 0.730347 0.558898 0.750000
O O12 0.791160 0.627924 0.520184
O O13 0.124847 0.177447 0.750000
O O14 0.040005 0.131701 0.984338
O O15 0.128402 0.250000 0.000000
O O16 0.974796 0.430442 0.250000
O O17 0.000000 0.500000 0.500000
#
# Coordination Sequence:
#
# PCOD9438645 Si02
#       6
#     8   8   8   8   8   8
#     4  11  22  37  62  94 123 157 207 256 304 369
#     4  11  22  38  63  95 125 160 206 253 305 367
#     4  12  26  44  64  89 125 166 205 259 318 367
#     4  10  21  38  62  89 122 161 201 248 304 364
#     4  10  22  40  59  86 124 160 199 247 302 361
#     4  10  21  37  61  91 122 158 204 252 301 364
#
# _framework density 18.345286999999999
#
# number of rings (size 3 to 8) (size 9 to 14) (size 15 to 20)
#    0.000    1.333    3.333    2.500    0.000    4.000 
#    0.000    3.333    0.000    0.000    0.000    0.000 
#    0.000    0.000    0.000    0.000    0.000    0.000 
#
# Total GULP energy -268320.818571 kJ/mol
# GULP energy per Si atom -5590.017054 kJ/mol
# Density = 1.830353 g / cm^3
# Si number density = 18.345287 Si / 1000 Ang^3
#
#
#
# Elastic Constant Matrix: (Units=GPa)
#
#
# Indices 1 2 3 4 5 6 
#
# 1 205.7653 116.1561 79.1641 0.0000 0.0000 0.0000
# 2 116.1561 194.7677 64.0526 0.0000 0.0000 0.0000
# 3 79.1641 64.0526 69.3725 0.0000 0.0000 0.0000
# 4 0.0000 0.0000 0.0000 39.0684 0.0000 0.0000
# 5 0.0000 0.0000 0.0000 0.0000 25.8811 0.0000
# 6 0.0000 0.0000 0.0000 0.0000 0.0000 32.5189
#
#
#
# Elastic Compliance Matrix: (Units=1/GPa)
#
#
# Indices 1 2 3 4 5 6 
#
# 1 0.009828 -0.003120 -0.008334 0.000000 0.000000 0.000000
# 2 -0.003120 0.008364 -0.004162 0.000000 0.000000 0.000000
# 3 -0.008334 -0.004162 0.027767 0.000000 0.000000 0.000000
# 4 0.000000 0.000000 0.000000 0.025596 0.000000 0.000000
# 5 0.000000 0.000000 0.000000 0.000000 0.038638 0.000000
# 6 0.000000 0.000000 0.000000 0.000000 0.000000 0.030751
#
#
# Mechanical properties :
#
#
# Convention : Reuss Voigt Hill
#
# Bulk Modulus (GPa) = 67.90039 109.85012 88.87526
# Shear Modulus (GPa) = 28.23502 33.52920 30.88211
#
# Velocity S-wave (km/s) = 3.92738 4.27977 4.10735
# Velocity P-wave (km/s) = 7.59332 9.18864 8.42881
#
# Compressibility (1/GPa) = 0.01472746
#
# Stress axis : x y z
#
# Youngs Moduli (GPa) = 101.75477 119.56154 36.01343
#
# Poissons Ratio (x) = 0.37307 0.30012
# Poissons Ratio (y) = 0.31751 0.14988
# Poissons Ratio (z) = 0.84799 0.49759
#
# Static dielectric constant tensor:
#      x y z
#    x 1.637310 0.000000 0.000000 
#    y 0.000000 1.576310 0.000000 
#    z 0.000000 0.000000 1.620350 
# 
# From -- ./inp_files/4651.got.cif
#   From: 2010.05.17/outbox.cif.g08.bks.cpg/sg57_3_cif.got.tgz:4651.got - 2010.06.03 13:58:18.
