data_PCOD9438893
_publ_section_title
;
Structure prediction by ZEFSAII (Michael W. Deem and Ramdas Pophale) SiO2 
 PCOD9438893
Probable space group: P B C M
;
_chemical_formula_sum "Si O2"
_cell_formula_units_Z 56
_cell_length_a 14.825413
_cell_length_b 10.095642
_cell_length_c 15.730240
_cell_angle_alpha 90.000000
_cell_angle_beta 90.000000
_cell_angle_gamma 90.000000
_cell_volume 2354.377459
_symmetry_space_group_name_H-M "P B C M"
_symmetry_group_IT_number 57
_symmetry_cell_setting 'orthorhombic'
loop_
_space_group_symop_operation_xyz
x,y,z
-x,-y,1/2+z
x,1/2-y,-z
-x,1/2+y,1/2-z
-x,-y,-z
x,y,1/2-z
-x,1/2+y,z
x,1/2-y,1/2+z
loop_
_atom_site_type_symbol
_atom_site_label
_atom_site_fract_x
_atom_site_fract_y
_atom_site_fract_z
Si Si1 0.033628 0.207003 0.844749
Si Si2 0.331239 0.228409 0.848357
Si Si3 0.496651 0.131693 0.058018
Si Si4 0.896288 0.523550 0.521850
Si Si5 0.329343 0.926357 0.849007
Si Si6 0.835775 0.572649 0.157184
Si Si7 0.156384 0.704309 0.350153
O O1 0.051024 0.149670 0.750000
O O2 0.094994 0.154274 0.920703
O O3 0.065581 0.359226 0.838620
O O4 0.927144 0.194386 0.864733
O O5 0.365016 0.217792 0.750000
O O6 0.402737 0.312836 0.903831
O O7 0.239711 0.312596 0.843028
O O8 0.314750 0.078152 0.883668
O O9 0.568225 0.107705 0.131897
O O10 0.532713 0.250000 0.000000
O O11 0.500000 0.000000 0.000000
O O12 0.833784 0.517352 0.438646
O O13 0.869402 0.414188 0.588858
O O14 0.000000 0.500000 0.500000
O O15 0.313698 0.944974 0.750000
O O16 0.263730 0.800278 0.870055
O O17 0.822026 0.500459 0.250000
O O18 0.146121 0.677779 0.250000
#
# Coordination Sequence:
#
# PCOD9438893 Si02
#       7
#     8   8   8   8   8   8   8
#     4  10  21  39  60  88 126 164 214 272 329 392
#     4  10  22  43  71  98 130 177 229 281 344 412
#     4  12  25  44  68 105 141 172 220 285 351 413
#     4  12  23  35  61  89 128 174 221 272 335 396
#     4  10  22  44  71  98 131 178 226 277 344 419
#     4  10  22  39  61  93 130 169 222 282 329 395
#     4  10  22  41  64  93 129 174 226 275 332 405
#
# _framework density 23.78548
#
# number of rings (size 3 to 8) (size 9 to 14) (size 15 to 20)
#    0.000    1.429    2.857    2.143    2.000    4.000 
#    2.571    0.000    0.000    3.429    0.000    0.000 
#    0.000    0.000    0.000    0.000    0.000    0.000 
#
# Total GULP energy -311917.436331 kJ/mol
# GULP energy per Si atom -5569.954220 kJ/mol
# Density = 2.373134 g / cm^3
# Si number density = 23.785480 Si / 1000 Ang^3
#
#
#
# Elastic Constant Matrix: (Units=GPa)
#
#
# Indices 1 2 3 4 5 6 
#
# 1 93.5973 0.8415 16.6362 0.0000 0.0000 0.0000
# 2 0.8415 52.7938 47.2324 0.0000 0.0000 0.0000
# 3 16.6362 47.2324 91.2963 0.0000 0.0000 0.0000
# 4 0.0000 0.0000 0.0000 29.9355 0.0000 0.0000
# 5 0.0000 0.0000 0.0000 0.0000 35.4734 0.0000
# 6 0.0000 0.0000 0.0000 0.0000 0.0000 32.5857
#
#
#
# Elastic Compliance Matrix: (Units=1/GPa)
#
#
# Indices 1 2 3 4 5 6 
#
# 1 0.011307 0.003096 -0.003662 0.000000 0.000000 0.000000
# 2 0.003096 0.036111 -0.019247 0.000000 0.000000 0.000000
# 3 -0.003662 -0.019247 0.021578 0.000000 0.000000 0.000000
# 4 0.000000 0.000000 0.000000 0.033405 0.000000 0.000000
# 5 0.000000 0.000000 0.000000 0.000000 0.028190 0.000000
# 6 0.000000 0.000000 0.000000 0.000000 0.000000 0.030688
#
#
# Mechanical properties :
#
#
# Convention : Reuss Voigt Hill
#
# Bulk Modulus (GPa) = 34.04673 40.78972 37.41823
# Shear Modulus (GPa) = 23.73089 31.13073 27.43081
#
# Velocity S-wave (km/s) = 3.16207 3.62168 3.39965
# Velocity P-wave (km/s) = 5.26087 5.88854 5.58353
#
# Compressibility (1/GPa) = 0.02937140
#
# Stress axis : x y z
#
# Youngs Moduli (GPa) = 88.43948 27.69207 46.34353
#
# Poissons Ratio (x) = -0.08574 0.16972
# Poissons Ratio (y) = -0.27383 0.89195
# Poissons Ratio (z) = 0.32389 0.53298
#
# Static dielectric constant tensor:
#      x y z
#    x 1.923340 0.000000 0.000000 
#    y 0.000000 1.975780 0.000000 
#    z 0.000000 0.000000 1.949030 
# 
# From -- ./inp_files/18526.got.cif
#   From: 2010.05.17/outbox.cif.g08.bks.cpg/sg57_10_cif.got.tgz:18526.got - 2010.06.03 13:58:18.
