data_PCOD9438585
_publ_section_title
;
Structure prediction by ZEFSAII (Michael W. Deem and Ramdas Pophale) SiO2 
 PCOD9438585
Probable space group: P B C M
;
_chemical_formula_sum "Si O2"
_cell_formula_units_Z 40
_cell_length_a 26.225354
_cell_length_b 9.243200
_cell_length_c 8.751157
_cell_angle_alpha 90.000000
_cell_angle_beta 90.000000
_cell_angle_gamma 90.000000
_cell_volume 2121.334645
_symmetry_space_group_name_H-M "P B C M"
_symmetry_group_IT_number 57
_symmetry_cell_setting 'orthorhombic'
loop_
_space_group_symop_operation_xyz
x,y,z
-x,-y,1/2+z
x,1/2-y,-z
-x,1/2+y,1/2-z
-x,-y,-z
x,y,1/2-z
-x,1/2+y,z
x,1/2-y,1/2+z
loop_
_atom_site_type_symbol
_atom_site_label
_atom_site_fract_x
_atom_site_fract_y
_atom_site_fract_z
Si Si1 0.650191 0.089034 0.933343
Si Si2 0.744882 0.910925 0.432956
Si Si3 0.838611 0.087519 0.566332
Si Si4 0.046222 0.590121 0.567800
Si Si5 0.547318 0.911107 0.567328
O O1 0.656298 0.095987 0.750000
O O2 0.599353 0.997181 0.967932
O O3 0.645697 0.250000 0.000000
O O4 0.698359 0.008250 0.006271
O O5 0.740014 0.750000 0.500000
O O6 0.744324 0.906095 0.250000
O O7 0.796749 0.984383 0.492555
O O8 0.832854 0.250000 0.500000
O O9 0.832407 0.092352 0.750000
O O10 0.896429 0.036334 0.531432
O O11 0.043117 0.750000 0.500000
O O12 0.041770 0.595173 0.750000
O O13 0.000000 0.500000 0.500000
O O14 0.548854 0.750000 0.500000
O O15 0.542202 0.902412 0.750000
O O16 0.500000 0.000000 0.500000
#
# Coordination Sequence:
#
# PCOD9438585 Si02
#       5
#     8   8   8   8   8
#     4  11  24  42  64  91 122 159 200 244 294 351
#     4  12  25  41  62  88 119 155 195 244 296 350
#     4  10  21  39  61  86 116 153 195 240 291 349
#     4  10  21  37  59  85 116 153 194 240 291 347
#     4  11  24  41  64  92 125 162 202 248 298 351
#
# _framework density 18.856052999999999
#
# number of rings (size 3 to 8) (size 9 to 14) (size 15 to 20)
#    0.000    1.200    0.000    6.000    0.000    9.600 
#    0.000    0.000    0.000    0.000    0.000    0.000 
#    0.000    0.000    0.000    0.000    0.000    0.000 
#
# Total GULP energy -223752.178795 kJ/mol
# GULP energy per Si atom -5593.804470 kJ/mol
# Density = 1.881314 g / cm^3
# Si number density = 18.856053 Si / 1000 Ang^3
#
#
#
# Elastic Constant Matrix: (Units=GPa)
#
#
# Indices 1 2 3 4 5 6 
#
# 1 198.0500 117.2289 106.2996 0.0000 0.0000 0.0000
# 2 117.2289 168.5812 80.0963 0.0000 0.0000 0.0000
# 3 106.2996 80.0963 119.7739 0.0000 0.0000 0.0000
# 4 0.0000 0.0000 0.0000 41.4275 0.0000 0.0000
# 5 0.0000 0.0000 0.0000 0.0000 32.7114 0.0000
# 6 0.0000 0.0000 0.0000 0.0000 0.0000 38.8605
#
#
#
# Elastic Compliance Matrix: (Units=1/GPa)
#
#
# Indices 1 2 3 4 5 6 
#
# 1 0.011737 -0.004709 -0.007268 0.000000 0.000000 0.000000
# 2 -0.004709 0.010583 -0.002898 0.000000 0.000000 0.000000
# 3 -0.007268 -0.002898 0.016738 0.000000 0.000000 0.000000
# 4 0.000000 0.000000 0.000000 0.024139 0.000000 0.000000
# 5 0.000000 0.000000 0.000000 0.000000 0.030570 0.000000
# 6 0.000000 0.000000 0.000000 0.000000 0.000000 0.025733
#
#
# Mechanical properties :
#
#
# Convention : Reuss Voigt Hill
#
# Bulk Modulus (GPa) = 107.43375 121.51718 114.47546
# Shear Modulus (GPa) = 32.81836 34.78522 33.80179
#
# Velocity S-wave (km/s) = 4.17642 4.29975 4.23853
# Velocity P-wave (km/s) = 8.96415 9.44643 9.20845
#
# Compressibility (1/GPa) = 0.00930806
#
# Stress axis : x y z
#
# Youngs Moduli (GPa) = 85.19703 94.48789 59.74536
#
# Poissons Ratio (x) = 0.44493 0.43424
# Poissons Ratio (y) = 0.40118 0.17316
# Poissons Ratio (z) = 0.61922 0.27385
#
# Static dielectric constant tensor:
#      x y z
#    x 1.645450 0.000000 0.000000 
#    y 0.000000 1.606520 0.000000 
#    z 0.000000 0.000000 1.628290 
# 
# From -- ./inp_files/8878.got.cif
#   From: 2010.05.17/outbox.cif.g08.bks.cpg/sg57_5_cif.got.tgz:8878.got - 2010.06.03 13:58:18.
