data_PCOD9438391
_publ_section_title
;
Structure prediction by ZEFSAII (Michael W. Deem and Ramdas Pophale) SiO2 
 PCOD9438391
Probable space group: P B C M
;
_chemical_formula_sum "Si O2"
_cell_formula_units_Z 56
_cell_length_a 6.670967
_cell_length_b 15.340447
_cell_length_c 26.614929
_cell_angle_alpha 90.000000
_cell_angle_beta 90.000000
_cell_angle_gamma 90.000000
_cell_volume 2723.655146
_symmetry_space_group_name_H-M "P B C M"
_symmetry_group_IT_number 57
_symmetry_cell_setting 'orthorhombic'
loop_
_space_group_symop_operation_xyz
x,y,z
-x,-y,1/2+z
x,1/2-y,-z
-x,1/2+y,1/2-z
-x,-y,-z
x,y,1/2-z
-x,1/2+y,z
x,1/2-y,1/2+z
loop_
_atom_site_type_symbol
_atom_site_label
_atom_site_fract_x
_atom_site_fract_y
_atom_site_fract_z
Si Si1 0.184137 0.614311 0.559160
Si Si2 0.051200 0.110684 0.370168
Si Si3 0.509447 0.759453 0.947239
Si Si4 0.565730 0.501544 0.123373
Si Si5 0.734386 0.436373 0.548017
Si Si6 0.853840 0.694211 0.879867
Si Si7 0.203967 0.470579 0.190642
O O1 0.318962 0.697164 0.547689
O O2 0.275966 0.572500 0.609244
O O3 0.213466 0.553076 0.510417
O O4 0.965976 0.647170 0.573544
O O5 0.035674 0.215279 0.364302
O O6 0.937112 0.084081 0.421696
O O7 0.284146 0.083473 0.372801
O O8 0.937748 0.049178 0.329855
O O9 0.415168 0.854665 0.944287
O O10 0.641415 0.726532 0.901229
O O11 0.627389 0.750000 0.000000
O O12 0.399649 0.494039 0.078195
O O13 0.429790 0.493225 0.172329
O O14 0.843122 0.621572 0.836642
O O15 0.187500 0.463348 0.250000
#
# Coordination Sequence:
#
# PCOD9438391 Si02
#       7
#     8   8   8   8   8   8   8
#     4  11  22  37  61  97 138 179 216 259 315 395
#     4  11  24  41  69  99 134 169 221 273 328 398
#     4  10  21  35  59  94 137 176 213 255 309 389
#     4  11  22  43  63  93 130 178 220 280 322 387
#     4  10  22  37  61  97 140 181 219 254 319 396
#     4  12  23  41  70  98 134 175 220 266 335 399
#     4  11  27  49  68  92 125 167 227 292 344 390
#
# _framework density 20.560604999999999
#
# number of rings (size 3 to 8) (size 9 to 14) (size 15 to 20)
#    0.000    1.143    5.714    0.429    2.000    1.714 
#    0.000    0.000    0.000    0.000    0.000    0.000 
#    0.000    0.000    0.000    0.000    0.000    0.000 
#
# Total GULP energy -312358.834493 kJ/mol
# GULP energy per Si atom -5577.836330 kJ/mol
# Density = 2.051381 g / cm^3
# Si number density = 20.560605 Si / 1000 Ang^3
#
#
#
# Elastic Constant Matrix: (Units=GPa)
#
#
# Indices 1 2 3 4 5 6 
#
# 1 86.7939 22.5583 45.5780 0.0000 0.0000 0.0000
# 2 22.5583 59.8227 21.9640 0.0000 0.0000 0.0000
# 3 45.5780 21.9640 126.4277 0.0000 0.0000 0.0000
# 4 0.0000 0.0000 0.0000 22.0622 0.0000 0.0000
# 5 0.0000 0.0000 0.0000 0.0000 15.6336 0.0000
# 6 0.0000 0.0000 0.0000 0.0000 0.0000 36.3639
#
#
#
# Elastic Compliance Matrix: (Units=1/GPa)
#
#
# Indices 1 2 3 4 5 6 
#
# 1 0.015029 -0.003929 -0.004736 0.000000 0.000000 0.000000
# 2 -0.003929 0.018882 -0.001864 0.000000 0.000000 0.000000
# 3 -0.004736 -0.001864 0.009941 0.000000 0.000000 0.000000
# 4 0.000000 0.000000 0.000000 0.045326 0.000000 0.000000
# 5 0.000000 0.000000 0.000000 0.000000 0.063965 0.000000
# 6 0.000000 0.000000 0.000000 0.000000 0.000000 0.027500
#
#
# Mechanical properties :
#
#
# Convention : Reuss Voigt Hill
#
# Bulk Modulus (GPa) = 43.86861 50.36054 47.11457
# Shear Modulus (GPa) = 23.88936 27.00821 25.44879
#
# Velocity S-wave (km/s) = 3.41236 3.62828 3.52198
# Velocity P-wave (km/s) = 6.07521 6.48841 6.28521
#
# Compressibility (1/GPa) = 0.02279535
#
# Stress axis : x y z
#
# Youngs Moduli (GPa) = 66.53585 52.96085 100.59611
#
# Poissons Ratio (x) = 0.20807 0.47639
# Poissons Ratio (y) = 0.26140 0.18751
# Poissons Ratio (z) = 0.31509 0.09872
#
# Static dielectric constant tensor:
#      x y z
#    x 1.752150 0.000000 0.000000 
#    y 0.000000 1.792580 0.000000 
#    z 0.000000 0.000000 1.740300 
# 
# From -- ./inp_files/29148.got.cif
#   From: 2010.05.17/outbox.cif.g08.bks.cpg/sg57_15_cif.got.tgz:29148.got - 2010.06.03 13:58:18.
