data_PCOD9438785
_publ_section_title
;
Structure prediction by ZEFSAII (Michael W. Deem and Ramdas Pophale) SiO2 
 PCOD9438785
Probable space group: P B C M
;
_chemical_formula_sum "Si O2"
_cell_formula_units_Z 40
_cell_length_a 25.036478
_cell_length_b 8.928255
_cell_length_c 8.591666
_cell_angle_alpha 90.000000
_cell_angle_beta 90.000000
_cell_angle_gamma 90.000000
_cell_volume 1920.512799
_symmetry_space_group_name_H-M "P B C M"
_symmetry_group_IT_number 57
_symmetry_cell_setting 'orthorhombic'
loop_
_space_group_symop_operation_xyz
x,y,z
-x,-y,1/2+z
x,1/2-y,-z
-x,1/2+y,1/2-z
-x,-y,-z
x,y,1/2-z
-x,1/2+y,z
x,1/2-y,1/2+z
loop_
_atom_site_type_symbol
_atom_site_label
_atom_site_fract_x
_atom_site_fract_y
_atom_site_fract_z
Si Si1 0.051733 0.082173 0.436223
Si Si2 0.385707 0.041409 0.925848
Si Si3 0.560959 0.566225 0.250000
Si Si4 0.830645 0.918786 0.936013
Si Si5 0.728573 0.086075 0.433554
Si Si6 0.443053 0.795621 0.750000
O O1 0.050335 0.250000 0.500000
O O2 0.049388 0.082552 0.250000
O O3 0.110451 0.021176 0.483299
O O4 0.000000 0.000000 0.500000
O O5 0.392384 0.111230 0.750000
O O6 0.323087 0.018388 0.957876
O O7 0.412620 0.878774 0.892232
O O8 0.411429 0.103004 0.083806
O O9 0.557355 0.383180 0.250000
O O10 0.503186 0.642657 0.250000
O O11 0.829351 0.911720 0.750000
O O12 0.825249 0.750000 0.000000
O O13 0.781798 0.017635 0.993865
O O14 0.717309 0.250000 0.500000
O O15 0.736148 0.099551 0.250000
#
# Coordination Sequence:
#
# PCOD9438785 Si02
#       6
#     8   8   4   8   8   4
#     4  10  21  38  61  88 120 159 201 244 294 351
#     4   9  23  37  60  87 113 151 196 237 296 356
#     4  12  20  40  60  82 116 154 183 244 293 346
#     4  10  22  40  61  87 121 160 197 241 300 356
#     4  11  22  38  61  89 117 151 201 251 293 352
#     4  10  22  38  58  84 116 146 193 234 291 354
#
# _framework density 20.827770000000001
#
# number of rings (size 3 to 8) (size 9 to 14) (size 15 to 20)
#    0.600    1.200    0.000    4.200    2.800    3.200 
#    0.000    2.000    0.000    0.000    0.000    0.000 
#    0.000    0.000    0.000    0.000    0.000    0.000 
#
# Total GULP energy -223311.502361 kJ/mol
# GULP energy per Si atom -5582.787559 kJ/mol
# Density = 2.078036 g / cm^3
# Si number density = 20.827770 Si / 1000 Ang^3
#
#
#
# Elastic Constant Matrix: (Units=GPa)
#
#
# Indices 1 2 3 4 5 6 
#
# 1 168.3569 29.5584 77.3839 0.0000 0.0000 0.0000
# 2 29.5584 48.4942 34.9617 0.0000 0.0000 0.0000
# 3 77.3839 34.9617 105.2173 0.0000 0.0000 0.0000
# 4 0.0000 0.0000 0.0000 40.5172 0.0000 0.0000
# 5 0.0000 0.0000 0.0000 0.0000 -0.5241 0.0000
# 6 0.0000 0.0000 0.0000 0.0000 0.0000 202.6832
#
#
#
# Elastic Compliance Matrix: (Units=1/GPa)
#
#
# Indices 1 2 3 4 5 6 
#
# 1 0.009006 -0.000939 -0.006311 0.000000 0.000000 0.000000
# 2 -0.000939 0.027215 -0.008352 0.000000 0.000000 0.000000
# 3 -0.006311 -0.008352 0.016921 0.000000 0.000000 0.000000
# 4 0.000000 0.000000 0.000000 0.024681 0.000000 0.000000
# 5 0.000000 0.000000 0.000000 0.000000 -1.908119 0.000000
# 6 0.000000 0.000000 0.000000 0.000000 0.000000 0.004934
#
#
# Mechanical properties :
#
#
# Convention : Reuss Voigt Hill
#
# Bulk Modulus (GPa) = 45.58633 67.31959 56.45296
# Shear Modulus (GPa) = -2.79823 60.54622 28.87400
#
# Velocity S-wave (km/s) = -1.16036 5.39750 3.72737
# Velocity P-wave (km/s) = 4.48771 8.44016 6.75928
#
# Compressibility (1/GPa) = 0.02193640
#
# Stress axis : x y z
#
# Youngs Moduli (GPa) = 111.04257 36.74441 59.09739
#
# Poissons Ratio (x) = 0.03450 0.37298
# Poissons Ratio (y) = 0.10427 0.49361
# Poissons Ratio (z) = 0.70082 0.30690
#
# Static dielectric constant tensor:
#      x y z
#    x 1.741570 0.000000 0.000000 
#    y 0.000000 1.737840 0.000000 
#    z 0.000000 0.000000 1.734570 
# 
# From -- ./inp_files/9009.got.cif
#   From: 2010.05.17/outbox.cif.g08.bks.cpg/sg57_5_cif.got.tgz:9009.got - 2010.06.03 13:58:18.
