data_PCOD9438347
_publ_section_title
;
Structure prediction by ZEFSAII (Michael W. Deem and Ramdas Pophale) SiO2 
 PCOD9438347
Probable space group: P B C M
;
_chemical_formula_sum "Si O2"
_cell_formula_units_Z 64
_cell_length_a 21.369984
_cell_length_b 17.979385
_cell_length_c 8.232965
_cell_angle_alpha 90.000000
_cell_angle_beta 90.000000
_cell_angle_gamma 90.000000
_cell_volume 3163.262977
_symmetry_space_group_name_H-M "P B C M"
_symmetry_group_IT_number 57
_symmetry_cell_setting 'orthorhombic'
loop_
_space_group_symop_operation_xyz
x,y,z
-x,-y,1/2+z
x,1/2-y,-z
-x,1/2+y,1/2-z
-x,-y,-z
x,y,1/2-z
-x,1/2+y,z
x,1/2-y,1/2+z
loop_
_atom_site_type_symbol
_atom_site_label
_atom_site_fract_x
_atom_site_fract_y
_atom_site_fract_z
Si Si1 0.019239 0.670783 0.053737
Si Si2 0.385328 0.123839 0.945079
Si Si3 0.518250 0.327946 0.442202
Si Si4 0.749684 0.465577 0.554770
Si Si5 0.748962 0.865603 0.560878
Si Si6 0.115665 0.373107 0.554880
Si Si7 0.613775 0.450870 0.944773
Si Si8 0.112961 0.543531 0.445351
O O1 0.018215 0.667920 0.250000
O O2 0.060897 0.601281 0.996468
O O3 0.947817 0.663859 0.992351
O O4 0.045481 0.750000 0.000000
O O5 0.387133 0.123159 0.750000
O O6 0.447688 0.162887 0.010390
O O7 0.390161 0.037099 0.998101
O O8 0.318005 0.157512 0.990464
O O9 0.545918 0.250000 0.500000
O O10 0.513252 0.325201 0.250000
O O11 0.560901 0.397871 0.486583
O O12 0.747578 0.481231 0.750000
O O13 0.749655 0.544952 0.465337
O O14 0.684718 0.425712 0.513464
O O15 0.816269 0.428490 0.520056
O O16 0.748180 0.846957 0.750000
O O17 0.817188 0.843872 0.489761
O O18 0.117851 0.364713 0.750000
O O19 0.108442 0.460966 0.517493
O O20 0.607527 0.449966 0.750000
O O21 0.107069 0.536452 0.250000
#
# Coordination Sequence:
#
# PCOD9438347 Si02
#       8
#     8   8   8   8   8   8   8   8
#     4  10  21  35  49  69 100 135 170 207 246 290
#     4   9  19  35  54  76 101 129 162 201 245 294
#     4  11  23  37  52  72 100 133 168 204 243 290
#     4   8  15  29  49  74 103 129 157 198 246 293
#     4   9  16  27  48  76 102 126 157 202 248 289
#     4   9  18  32  50  75 103 128 161 205 248 292
#     4   9  17  32  54  77 101 128 159 200 246 291
#     4   9  17  31  53  77  99 128 165 203 245 293
#
# _framework density 20.232275000000001
#
# number of rings (size 3 to 8) (size 9 to 14) (size 15 to 20)
#    0.000    2.750    0.000    2.250    0.000    4.500 
#    0.000    1.250    0.000    4.500    0.000    0.000 
#    0.000    0.000    0.000    0.000    0.000    0.000 
#
# Total GULP energy -356730.781989 kJ/mol
# GULP energy per Si atom -5573.918469 kJ/mol
# Density = 2.018623 g / cm^3
# Si number density = 20.232275 Si / 1000 Ang^3
#
#
#
# Elastic Constant Matrix: (Units=GPa)
#
#
# Indices 1 2 3 4 5 6 
#
# 1 102.4058 29.9757 10.8057 0.0000 0.0000 0.0000
# 2 29.9757 62.7525 -0.1897 0.0000 0.0000 0.0000
# 3 10.8057 -0.1897 7.2416 0.0000 0.0000 0.0000
# 4 0.0000 0.0000 0.0000 9.7042 0.0000 0.0000
# 5 0.0000 0.0000 0.0000 0.0000 16.8479 0.0000
# 6 0.0000 0.0000 0.0000 0.0000 0.0000 -20.9588
#
#
#
# Elastic Compliance Matrix: (Units=1/GPa)
#
#
# Indices 1 2 3 4 5 6 
#
# 1 0.013949 -0.006727 -0.020990 0.000000 0.000000 0.000000
# 2 -0.006727 0.019181 0.010540 0.000000 0.000000 0.000000
# 3 -0.020990 0.010540 0.169688 0.000000 0.000000 0.000000
# 4 0.000000 0.000000 0.000000 0.103048 0.000000 0.000000
# 5 0.000000 0.000000 0.000000 0.000000 0.059354 0.000000
# 6 0.000000 0.000000 0.000000 0.000000 0.000000 -0.047713
#
#
# Mechanical properties :
#
#
# Convention : Reuss Voigt Hill
#
# Bulk Modulus (GPa) = 5.93603 28.17592 17.05598
# Shear Modulus (GPa) = 12.25443 9.90590 11.08017
#
# Velocity S-wave (km/s) = 2.46374 2.21511 2.34273
# Velocity P-wave (km/s) = 3.32170 4.52755 3.97067
#
# Compressibility (1/GPa) = 0.16846278
#
# Stress axis : x y z
#
# Youngs Moduli (GPa) = 71.69020 52.13591 5.89318
#
# Poissons Ratio (x) = 0.35070 0.12370
# Poissons Ratio (y) = 0.48223 -0.06211
# Poissons Ratio (z) = 1.50480 -0.54949
#
# Static dielectric constant tensor:
#      x y z
#    x 1.783870 0.000000 0.000000 
#    y 0.000000 1.671080 0.000000 
#    z 0.000000 0.000000 1.700770 
# 
# From -- ./inp_files/8520.got.cif
#   From: 2010.05.17/outbox.cif.g08.bks.cpg/sg57_5_cif.got.tgz:8520.got - 2010.06.03 13:58:18.
