data_PCOD9438206
_publ_section_title
;
Structure prediction by ZEFSAII (Michael W. Deem and Ramdas Pophale) SiO2 
 PCOD9438206
Probable space group: P B C M
;
_chemical_formula_sum "Si O2"
_cell_formula_units_Z 40
_cell_length_a 8.840215
_cell_length_b 9.959205
_cell_length_c 24.315862
_cell_angle_alpha 90.000000
_cell_angle_beta 90.000000
_cell_angle_gamma 90.000000
_cell_volume 2140.805291
_symmetry_space_group_name_H-M "P B C M"
_symmetry_group_IT_number 57
_symmetry_cell_setting 'orthorhombic'
loop_
_space_group_symop_operation_xyz
x,y,z
-x,-y,1/2+z
x,1/2-y,-z
-x,1/2+y,1/2-z
-x,-y,-z
x,y,1/2-z
-x,1/2+y,z
x,1/2-y,1/2+z
loop_
_atom_site_type_symbol
_atom_site_label
_atom_site_fract_x
_atom_site_fract_y
_atom_site_fract_z
Si Si1 0.379632 0.958756 0.143945
Si Si2 0.144288 0.129807 0.543065
Si Si3 0.668140 0.726411 0.852568
Si Si4 0.887498 0.764654 0.750000
Si Si5 0.205110 0.611359 0.533229
Si Si6 0.166601 0.930659 0.250000
O O1 0.533839 0.879449 0.155339
O O2 0.312397 0.908244 0.085613
O O3 0.393620 0.120933 0.141046
O O4 0.268242 0.926876 0.194973
O O5 0.138956 0.250000 0.500000
O O6 0.237450 0.179724 0.594704
O O7 0.968258 0.097989 0.555272
O O8 0.220566 0.004955 0.512224
O O9 0.784882 0.729407 0.802335
O O10 0.913903 0.924173 0.750000
O O11 0.042786 0.684798 0.750000
O O12 0.224785 0.750000 0.500000
#
# Coordination Sequence:
#
# PCOD9438206 Si02
#       6
#     8   8   8   4   8   4
#     4  11  24  41  60  91 124 160 199 247 299 362
#     4  10  20  40  61  86 122 159 200 254 293 350
#     4  11  24  40  62  88 126 159 199 247 303 356
#     4  10  23  44  66  92 118 156 199 252 298 358
#     4  10  22  38  63  89 120 160 208 248 301 352
#     4  10  23  44  68  90 120 152 203 250 298 358
#
# _framework density 18.684557999999999
#
# number of rings (size 3 to 8) (size 9 to 14) (size 15 to 20)
#    0.000    1.600    2.000    1.800    2.800    3.200 
#    0.000    0.000    0.000    0.000    0.000    0.000 
#    0.000    0.000    0.000    0.000    0.000    0.000 
#
# Total GULP energy -223448.714927 kJ/mol
# GULP energy per Si atom -5586.217873 kJ/mol
# Density = 1.864203 g / cm^3
# Si number density = 18.684558 Si / 1000 Ang^3
#
#
#
# Elastic Constant Matrix: (Units=GPa)
#
#
# Indices 1 2 3 4 5 6 
#
# 1 41.7536 17.6589 15.2128 0.0000 0.0000 0.0000
# 2 17.6589 65.7040 25.7212 0.0000 0.0000 0.0000
# 3 15.2128 25.7212 66.6658 0.0000 0.0000 0.0000
# 4 0.0000 0.0000 0.0000 28.3985 0.0000 0.0000
# 5 0.0000 0.0000 0.0000 0.0000 58.1503 0.0000
# 6 0.0000 0.0000 0.0000 0.0000 0.0000 49.3959
#
#
#
# Elastic Compliance Matrix: (Units=1/GPa)
#
#
# Indices 1 2 3 4 5 6 
#
# 1 0.027940 -0.005905 -0.004097 0.000000 0.000000 0.000000
# 2 -0.005905 0.019176 -0.006051 0.000000 0.000000 0.000000
# 3 -0.004097 -0.006051 0.018270 0.000000 0.000000 0.000000
# 4 0.000000 0.000000 0.000000 0.035213 0.000000 0.000000
# 5 0.000000 0.000000 0.000000 0.000000 0.017197 0.000000
# 6 0.000000 0.000000 0.000000 0.000000 0.000000 0.020245
#
#
# Mechanical properties :
#
#
# Convention : Reuss Voigt Hill
#
# Bulk Modulus (GPa) = 30.04935 32.36768 31.20852
# Shear Modulus (GPa) = 27.58764 34.89098 31.23931
#
# Velocity S-wave (km/s) = 3.84669 4.32600 4.09336
# Velocity P-wave (km/s) = 5.98721 6.50486 6.25139
#
# Compressibility (1/GPa) = 0.03327859
#
# Stress axis : x y z
#
# Youngs Moduli (GPa) = 35.79035 52.14948 54.73525
#
# Poissons Ratio (x) = 0.30796 0.22428
# Poissons Ratio (y) = 0.21135 0.33119
# Poissons Ratio (z) = 0.14665 0.31555
#
# Static dielectric constant tensor:
#      x y z
#    x 1.639180 0.000000 0.000000 
#    y 0.000000 1.566140 0.000000 
#    z 0.000000 0.000000 1.610130 
# 
# From -- ./inp_files/26527.got.cif
#   From: 2010.05.17/outbox.cif.g08.bks.cpg/sg57_14_cif.got.tgz:26527.got - 2010.06.03 13:58:18.
