data_PCOD9438688
_publ_section_title
;
Structure prediction by ZEFSAII (Michael W. Deem and Ramdas Pophale) SiO2 
 PCOD9438688
Probable space group: P B C M
;
_chemical_formula_sum "Si O2"
_cell_formula_units_Z 56
_cell_length_a 7.042738
_cell_length_b 19.982287
_cell_length_c 14.550556
_cell_angle_alpha 90.000000
_cell_angle_beta 90.000000
_cell_angle_gamma 90.000000
_cell_volume 2047.699920
_symmetry_space_group_name_H-M "P B C M"
_symmetry_group_IT_number 57
_symmetry_cell_setting 'orthorhombic'
loop_
_space_group_symop_operation_xyz
x,y,z
-x,-y,1/2+z
x,1/2-y,-z
-x,1/2+y,1/2-z
-x,-y,-z
x,y,1/2-z
-x,1/2+y,z
x,1/2-y,1/2+z
loop_
_atom_site_type_symbol
_atom_site_label
_atom_site_fract_x
_atom_site_fract_y
_atom_site_fract_z
Si Si1 0.227572 0.044853 0.608259
Si Si2 0.086692 0.642153 0.890755
Si Si3 0.772428 0.544853 0.108259
Si Si4 0.500000 0.500000 0.250000
Si Si5 0.522322 0.674809 0.889574
Si Si6 0.477678 0.174809 0.389574
Si Si7 0.086692 0.642153 0.390755
Si Si8 0.944022 0.750000 0.750000
O O1 0.011777 0.069831 0.621575
O O2 0.254469 0.031102 0.500000
O O3 0.349140 0.112132 0.636989
O O4 0.334867 0.992570 0.670412
O O5 0.968492 0.692674 0.829805
O O6 0.304959 0.657105 0.866326
O O7 0.067357 0.656204 0.000000
O O8 0.665133 0.492570 0.170412
O O9 0.650860 0.612132 0.136989
O O10 0.988223 0.569831 0.121575
O O11 0.566655 0.750000 0.853155
O O12 0.536645 0.678393 0.000000
O O13 0.695041 0.157105 0.366326
O O14 0.968492 0.692674 0.329805
#
# Coordination Sequence:
#
# PCOD9438688 Si02
#       8
#     8   8   8   4   8   8   8   4
#     4  10  23  42  65  87 119 164 203 252 307 351
#     4  10  21  38  57  87 125 160 195 236 294 363
#     4  10  23  42  65  87 119 164 203 252 307 351
#     4  12  24  46  64  88 118 152 220 270 294 350
#     4   9  18  36  62  92 124 159 196 236 297 374
#     4   9  18  36  62  92 124 159 196 236 297 374
#     4  10  21  38  57  87 125 160 195 236 294 363
#     4  12  20  30  54  86 124 162 186 224 282 348
#
# _framework density 27.347757999999999
#
# number of rings (size 3 to 8) (size 9 to 14) (size 15 to 20)
#    0.000    2.000    1.429    1.714    2.000    1.143 
#    0.000    2.857    0.000    6.857    0.000    0.000 
#    0.000    0.000    0.000    0.000    0.000    0.000 
#
# Total GULP energy -311740.065336 kJ/mol
# GULP energy per Si atom -5566.786881 kJ/mol
# Density = 2.728551 g / cm^3
# Si number density = 27.347758 Si / 1000 Ang^3
#
#
#
# Elastic Constant Matrix: (Units=GPa)
#
#
# Indices 1 2 3 4 5 6 
#
# 1 138.6130 -4.5584 45.7248 0.0000 0.0000 0.0000
# 2 -4.5584 100.4435 15.6779 0.0000 0.0000 0.0000
# 3 45.7248 15.6779 113.5432 0.0000 0.0000 0.0000
# 4 0.0000 0.0000 0.0000 0.2493 0.0000 0.0000
# 5 0.0000 0.0000 0.0000 0.0000 -615.1946 0.0000
# 6 0.0000 0.0000 0.0000 0.0000 0.0000 34.8466
#
#
#
# Elastic Compliance Matrix: (Units=1/GPa)
#
#
# Indices 1 2 3 4 5 6 
#
# 1 0.008404 0.000930 -0.003513 0.000000 0.000000 0.000000
# 2 0.000930 0.010278 -0.001794 0.000000 0.000000 0.000000
# 3 -0.003513 -0.001794 0.010469 0.000000 0.000000 0.000000
# 4 0.000000 0.000000 0.000000 4.011883 0.000000 0.000000
# 5 0.000000 0.000000 0.000000 0.000000 -0.001626 0.000000
# 6 0.000000 0.000000 0.000000 0.000000 0.000000 0.028697
#
#
# Mechanical properties :
#
#
# Convention : Reuss Voigt Hill
#
# Bulk Modulus (GPa) = 49.02427 51.80981 50.41704
# Shear Modulus (GPa) = 1.22439 -96.30272 -47.53916
#
# Velocity S-wave (km/s) = 0.66984 -5.94059 -4.17384
# Velocity P-wave (km/s) = 4.30853 5.29794 2.17999
#
# Compressibility (1/GPa) = 0.02039806
#
# Stress axis : x y z
#
# Youngs Moduli (GPa) = 118.99652 97.29535 95.51640
#
# Poissons Ratio (x) = -0.09045 0.33551
# Poissons Ratio (y) = -0.11062 0.17131
# Poissons Ratio (z) = 0.41798 0.17450
#
# Static dielectric constant tensor:
#      x y z
#    x 2.219220 0.000000 0.000000 
#    y 0.000000 2.296380 0.000000 
#    z 0.000000 0.000000 1.951840 
# 
# From -- ./inp_files/16779.got.cif
#   From: 2010.05.17/outbox.cif.g08.bks.cpg/sg57_9_cif.got.tgz:16779.got - 2010.06.03 13:58:18.
