data_PCOD9438459
_publ_section_title
;
Structure prediction by ZEFSAII (Michael W. Deem and Ramdas Pophale) SiO2 
 PCOD9438459
Probable space group: P B C M
;
_chemical_formula_sum "Si O2"
_cell_formula_units_Z 40
_cell_length_a 11.685484
_cell_length_b 9.207352
_cell_length_c 17.091817
_cell_angle_alpha 90.000000
_cell_angle_beta 90.000000
_cell_angle_gamma 90.000000
_cell_volume 1838.949004
_symmetry_space_group_name_H-M "P B C M"
_symmetry_group_IT_number 57
_symmetry_cell_setting 'orthorhombic'
loop_
_space_group_symop_operation_xyz
x,y,z
-x,-y,1/2+z
x,1/2-y,-z
-x,1/2+y,1/2-z
-x,-y,-z
x,y,1/2-z
-x,1/2+y,z
x,1/2-y,1/2+z
loop_
_atom_site_type_symbol
_atom_site_label
_atom_site_fract_x
_atom_site_fract_y
_atom_site_fract_z
Si Si1 0.162711 0.499165 0.137834
Si Si2 0.999814 0.250502 0.380423
Si Si3 0.632200 0.429504 0.153914
Si Si4 0.153444 0.498495 0.549238
Si Si5 0.590847 0.103435 0.161531
O O1 0.089675 0.641978 0.161368
O O2 0.292974 0.510990 0.164205
O O3 0.089053 0.358712 0.161741
O O4 0.173308 0.498661 0.043115
O O5 0.920766 0.360769 0.428549
O O6 0.078753 0.140920 0.428743
O O7 0.649903 0.435622 0.250000
O O8 0.736497 0.496798 0.105267
O O9 0.619903 0.261289 0.127480
O O10 0.516074 0.513133 0.130478
O O11 0.555164 0.138665 0.250000
#
# Coordination Sequence:
#
# PCOD9438459 Si02
#       5
#     8   8   8   8   8
#     4  11  20  37  61  87 116 150 189 230 279 338
#     4  10  21  36  59  88 121 152 181 228 289 338
#     4  10  23  42  60  81 113 151 190 236 287 334
#     4  11  20  37  61  87 116 150 189 230 279 338
#     4  10  23  42  60  81 113 151 190 236 287 334
#
# _framework density 21.751556000000001
#
# number of rings (size 3 to 8) (size 9 to 14) (size 15 to 20)
#    0.000    1.600    2.000    4.800    2.800    0.800 
#    0.000    6.000    0.000    0.000    0.000    0.000 
#    0.000    0.000    0.000    0.000    0.000    0.000 
#
# Total GULP energy -223315.261984 kJ/mol
# GULP energy per Si atom -5582.881550 kJ/mol
# Density = 2.170205 g / cm^3
# Si number density = 21.751556 Si / 1000 Ang^3
#
#
#
# Elastic Constant Matrix: (Units=GPa)
#
#
# Indices 1 2 3 4 5 6 
#
# 1 186.0590 52.9282 40.6306 0.0000 0.0000 0.0000
# 2 52.9282 106.0530 25.1000 0.0000 0.0000 0.0000
# 3 40.6306 25.1000 94.5889 0.0000 0.0000 0.0000
# 4 0.0000 0.0000 0.0000 -10.2822 0.0000 0.0000
# 5 0.0000 0.0000 0.0000 0.0000 29.4250 0.0000
# 6 0.0000 0.0000 0.0000 0.0000 0.0000 27.2544
#
#
#
# Elastic Compliance Matrix: (Units=1/GPa)
#
#
# Indices 1 2 3 4 5 6 
#
# 1 0.006634 -0.002813 -0.002103 0.000000 0.000000 0.000000
# 2 -0.002813 0.011254 -0.001778 0.000000 0.000000 0.000000
# 3 -0.002103 -0.001778 0.011947 0.000000 0.000000 0.000000
# 4 0.000000 0.000000 0.000000 -0.097255 0.000000 0.000000
# 5 0.000000 0.000000 0.000000 0.000000 0.033985 0.000000
# 6 0.000000 0.000000 0.000000 0.000000 0.000000 0.036691
#
#
# Mechanical properties :
#
#
# Convention : Reuss Voigt Hill
#
# Bulk Modulus (GPa) = 60.80202 69.33538 65.06870
# Shear Modulus (GPa) = 225.96450 27.14892 126.55671
#
# Velocity S-wave (km/s) = 10.20342 3.53673 7.63604
# Velocity P-wave (km/s) = 12.91614 6.97303 10.37906
#
# Compressibility (1/GPa) = 0.01644682
#
# Stress axis : x y z
#
# Youngs Moduli (GPa) = 150.73434 88.85709 83.70095
#
# Poissons Ratio (x) = 0.24997 0.17604
# Poissons Ratio (y) = 0.42404 0.14882
# Poissons Ratio (z) = 0.31703 0.15799
#
# Static dielectric constant tensor:
#      x y z
#    x 1.777880 0.000000 0.000000 
#    y 0.000000 1.815150 0.000000 
#    z 0.000000 0.000000 1.590680 
# 
# From -- ./inp_files/21598.got.cif
#   From: 2010.05.17/outbox.cif.g08.bks.cpg/sg57_11_cif.got.tgz:21598.got - 2010.06.03 13:58:18.
