data_PCOD9438294
_publ_section_title
;
Structure prediction by ZEFSAII (Michael W. Deem and Ramdas Pophale) SiO2 
 PCOD9438294
Probable space group: P B C M
;
_chemical_formula_sum "Si O2"
_cell_formula_units_Z 48
_cell_length_a 32.920438
_cell_length_b 7.334889
_cell_length_c 9.342437
_cell_angle_alpha 90.000000
_cell_angle_beta 90.000000
_cell_angle_gamma 90.000000
_cell_volume 2255.897322
_symmetry_space_group_name_H-M "P B C M"
_symmetry_group_IT_number 57
_symmetry_cell_setting 'orthorhombic'
loop_
_space_group_symop_operation_xyz
x,y,z
-x,-y,1/2+z
x,1/2-y,-z
-x,1/2+y,1/2-z
-x,-y,-z
x,y,1/2-z
-x,1/2+y,z
x,1/2-y,1/2+z
loop_
_atom_site_type_symbol
_atom_site_label
_atom_site_fract_x
_atom_site_fract_y
_atom_site_fract_z
Si Si1 0.753533 0.843876 0.750000
Si Si2 0.629005 0.029047 0.982566
Si Si3 0.878669 0.445675 0.577958
Si Si4 0.323062 0.063738 0.750000
Si Si5 0.813818 0.750000 0.000000
Si Si6 0.308233 0.627870 0.750000
Si Si7 0.540412 0.437327 0.418764
Si Si8 0.042247 0.944781 0.425433
O O1 0.715807 0.697289 0.750000
O O2 0.783096 0.819480 0.618458
O O3 0.736020 0.047218 0.750000
O O4 0.646261 0.921706 0.117093
O O5 0.624819 0.250000 0.000000
O O6 0.667034 0.035233 0.877879
O O7 0.584228 0.963655 0.935241
O O8 0.869454 0.250000 0.500000
O O9 0.887201 0.420376 0.750000
O O10 0.841943 0.586418 0.558065
O O11 0.917112 0.534100 0.491020
O O12 0.309935 0.847402 0.750000
O O13 0.547105 0.250000 0.500000
O O14 0.500000 0.500000 0.500000
O O15 0.532320 0.418632 0.250000
O O16 0.047888 0.750000 0.500000
O O17 0.040481 0.948520 0.250000
O O18 0.000000 0.000000 0.500000
#
# Coordination Sequence:
#
# PCOD9438294 Si02
#       8
#     4   8   8   4   4   4   8   8
#     4  12  26  44  68 104 134 176 236 290 354 424
#     4   9  19  37  64  89 121 169 216 268 345 404
#     4  11  25  46  73 102 141 192 246 290 354 428
#     4  10  22  40  65  97 128 172 221 284 349 414
#     4  12  28  46  70 102 146 188 232 296 362 422
#     4  10  20  42  67  91 130 168 219 286 349 414
#     4  11  23  40  62  91 131 173 223 270 326 404
#     4  11  23  41  68 104 143 184 235 292 350 416
#
# _framework density 21.277563000000001
#
# number of rings (size 3 to 8) (size 9 to 14) (size 15 to 20)
#    0.000    1.333    1.667    4.500    8.167    1.333 
#    3.000    0.000    0.000    0.000    0.000    0.000 
#    0.000    0.000    0.000    0.000    0.000    0.000 
#
# Total GULP energy -267248.007195 kJ/mol
# GULP energy per Si atom -5567.666817 kJ/mol
# Density = 2.122913 g / cm^3
# Si number density = 21.277563 Si / 1000 Ang^3
#
#
#
# Elastic Constant Matrix: (Units=GPa)
#
#
# Indices 1 2 3 4 5 6 
#
# 1 151.1077 36.3691 56.9940 0.0000 0.0000 0.0000
# 2 36.3691 70.6578 18.1614 0.0000 0.0000 0.0000
# 3 56.9940 18.1614 187.3861 0.0000 0.0000 0.0000
# 4 0.0000 0.0000 0.0000 24.7742 0.0000 0.0000
# 5 0.0000 0.0000 0.0000 0.0000 62.5872 0.0000
# 6 0.0000 0.0000 0.0000 0.0000 0.0000 39.4458
#
#
#
# Elastic Compliance Matrix: (Units=1/GPa)
#
#
# Indices 1 2 3 4 5 6 
#
# 1 0.008336 -0.003732 -0.002174 0.000000 0.000000 0.000000
# 2 -0.003732 0.016185 -0.000434 0.000000 0.000000 0.000000
# 3 -0.002174 -0.000434 0.006040 0.000000 0.000000 0.000000
# 4 0.000000 0.000000 0.000000 0.040365 0.000000 0.000000
# 5 0.000000 0.000000 0.000000 0.000000 0.015978 0.000000
# 6 0.000000 0.000000 0.000000 0.000000 0.000000 0.025351
#
#
# Mechanical properties :
#
#
# Convention : Reuss Voigt Hill
#
# Bulk Modulus (GPa) = 55.92128 70.24452 63.08290
# Shear Modulus (GPa) = 38.19903 45.20323 41.70113
#
# Velocity S-wave (km/s) = 4.24166 4.61418 4.43184
# Velocity P-wave (km/s) = 7.09421 7.84045 7.47665
#
# Compressibility (1/GPa) = 0.01788228
#
# Stress axis : x y z
#
# Youngs Moduli (GPa) = 119.96344 61.78533 165.57034
#
# Poissons Ratio (x) = 0.23058 0.35990
# Poissons Ratio (y) = 0.44770 0.07179
# Poissons Ratio (z) = 0.26076 0.02679
#
# Static dielectric constant tensor:
#      x y z
#    x 1.898540 0.000000 0.000000 
#    y 0.000000 1.462060 0.000000 
#    z 0.000000 0.000000 1.919130 
# 
# From -- ./inp_files/10207.got.cif
#   From: 2010.05.17/outbox.cif.g08.bks.cpg/sg57_6_cif.got.tgz:10207.got - 2010.06.03 13:58:18.
