data_PCOD9438999
_publ_section_title
;
Structure prediction by ZEFSAII (Michael W. Deem and Ramdas Pophale) SiO2 
 PCOD9438999
Probable space group: P B C M
;
_chemical_formula_sum "Si O2"
_cell_formula_units_Z 28
_cell_length_a 10.294096
_cell_length_b 8.245059
_cell_length_c 14.500333
_cell_angle_alpha 90.000000
_cell_angle_beta 90.000000
_cell_angle_gamma 90.000000
_cell_volume 1230.721982
_symmetry_space_group_name_H-M "P B C M"
_symmetry_group_IT_number 57
_symmetry_cell_setting 'orthorhombic'
loop_
_space_group_symop_operation_xyz
x,y,z
-x,-y,1/2+z
x,1/2-y,-z
-x,1/2+y,1/2-z
-x,-y,-z
x,y,1/2-z
-x,1/2+y,z
x,1/2-y,1/2+z
loop_
_atom_site_type_symbol
_atom_site_label
_atom_site_fract_x
_atom_site_fract_y
_atom_site_fract_z
Si Si1 0.756490 0.089038 0.750000
Si Si2 0.614220 0.910374 0.054928
Si Si3 0.058730 0.013823 0.750000
Si Si4 0.178157 0.681269 0.406920
Si Si5 0.671241 0.718027 0.750000
O O1 0.737765 0.194421 0.843312
O O2 0.912885 0.071868 0.750000
O O3 0.689456 0.913001 0.750000
O O4 0.596688 0.848748 0.160071
O O5 0.726701 0.041456 0.059617
O O6 0.652693 0.750000 0.000000
O O7 0.500000 0.000000 0.000000
O O8 0.181765 0.138713 0.750000
O O9 0.076637 0.902331 0.660506
O O10 0.117444 0.750000 0.500000
#
# Coordination Sequence:
#
# PCOD9438999 Si02
#       5
#     4   8   4   8   4
#     4  11  21  41  68  94 132 172 213 262 321 389
#     4  11  24  43  66  93 126 168 222 272 326 390
#     4   9  21  39  63  97 131 168 214 260 319 389
#     4  10  21  39  64  95 130 166 211 267 320 382
#     4  10  22  40  63  95 133 172 213 272 326 378
#
# _framework density 22.750872999999999
#
# number of rings (size 3 to 8) (size 9 to 14) (size 15 to 20)
#    0.000    1.714    0.000    5.143    0.000    2.286 
#    0.000   15.714    0.000    0.000    0.000    0.000 
#    0.000    0.000    0.000    0.000    0.000    0.000 
#
# Total GULP energy -156536.572109 kJ/mol
# GULP energy per Si atom -5590.591861 kJ/mol
# Density = 2.269909 g / cm^3
# Si number density = 22.750873 Si / 1000 Ang^3
#
#
#
# Elastic Constant Matrix: (Units=GPa)
#
#
# Indices 1 2 3 4 5 6 
#
# 1 74.0933 39.5777 32.8759 0.0000 0.0000 0.0000
# 2 39.5777 150.7626 64.1111 0.0000 0.0000 0.0000
# 3 32.8759 64.1111 180.9928 0.0000 0.0000 0.0000
# 4 0.0000 0.0000 0.0000 51.7442 0.0000 0.0000
# 5 0.0000 0.0000 0.0000 0.0000 7.0636 0.0000
# 6 0.0000 0.0000 0.0000 0.0000 0.0000 28.5435
#
#
#
# Elastic Compliance Matrix: (Units=1/GPa)
#
#
# Indices 1 2 3 4 5 6 
#
# 1 0.016122 -0.003517 -0.001683 0.000000 0.000000 0.000000
# 2 -0.003517 0.008576 -0.002399 0.000000 0.000000 0.000000
# 3 -0.001683 -0.002399 0.006681 0.000000 0.000000 0.000000
# 4 0.000000 0.000000 0.000000 0.019326 0.000000 0.000000
# 5 0.000000 0.000000 0.000000 0.000000 0.141571 0.000000
# 6 0.000000 0.000000 0.000000 0.000000 0.000000 0.035034
#
#
# Mechanical properties :
#
#
# Convention : Reuss Voigt Hill
#
# Bulk Modulus (GPa) = 61.79882 75.44201 68.62041
# Shear Modulus (GPa) = 20.16942 35.42253 27.79597
#
# Velocity S-wave (km/s) = 2.98070 3.95013 3.49915
# Velocity P-wave (km/s) = 6.25047 7.35097 6.82294
#
# Compressibility (1/GPa) = 0.01618154
#
# Stress axis : x y z
#
# Youngs Moduli (GPa) = 62.02878 116.59988 149.68832
#
# Poissons Ratio (x) = 0.41004 0.25188
# Poissons Ratio (y) = 0.21813 0.35912
# Poissons Ratio (z) = 0.10438 0.27974
#
# Static dielectric constant tensor:
#      x y z
#    x 2.050220 0.000000 0.000000 
#    y 0.000000 1.874050 0.000000 
#    z 0.000000 0.000000 1.962880 
# 
# From -- ./inp_files/17159.got.cif
#   From: 2010.05.17/outbox.cif.g08.bks.cpg/sg57_9_cif.got.tgz:17159.got - 2010.06.03 13:58:18.
