data_PCOD9438509
_publ_section_title
;
Structure prediction by ZEFSAII (Michael W. Deem and Ramdas Pophale) SiO2 
 PCOD9438509
Probable space group: P B C M
;
_chemical_formula_sum "Si O2"
_cell_formula_units_Z 48
_cell_length_a 27.176019
_cell_length_b 9.902326
_cell_length_c 9.253957
_cell_angle_alpha 90.000000
_cell_angle_beta 90.000000
_cell_angle_gamma 90.000000
_cell_volume 2490.293497
_symmetry_space_group_name_H-M "P B C M"
_symmetry_group_IT_number 57
_symmetry_cell_setting 'orthorhombic'
loop_
_space_group_symop_operation_xyz
x,y,z
-x,-y,1/2+z
x,1/2-y,-z
-x,1/2+y,1/2-z
-x,-y,-z
x,y,1/2-z
-x,1/2+y,z
x,1/2-y,1/2+z
loop_
_atom_site_type_symbol
_atom_site_label
_atom_site_fract_x
_atom_site_fract_y
_atom_site_fract_z
Si Si1 0.679579 0.886872 0.082918
Si Si2 0.039716 0.099410 0.423305
Si Si3 0.866598 0.102780 0.577430
Si Si4 0.513935 0.127232 0.910251
Si Si5 0.367897 0.876537 0.412297
Si Si6 0.796909 0.894027 0.420513
O O1 0.666659 0.876932 0.250000
O O2 0.738078 0.914797 0.072269
O O3 0.670680 0.750000 0.000000
O O4 0.647337 0.996593 0.003891
O O5 0.042271 0.250000 0.500000
O O6 0.029706 0.118404 0.250000
O O7 0.088828 0.006675 0.435475
O O8 0.000000 0.000000 0.500000
O O9 0.875061 0.250000 0.500000
O O10 0.858364 0.124633 0.750000
O O11 0.822792 0.019966 0.499476
O O12 0.493907 0.122967 0.750000
O O13 0.573101 0.136337 0.903382
O O14 0.493406 0.250000 0.000000
O O15 0.500000 0.000000 0.000000
O O16 0.347981 0.750000 0.500000
O O17 0.348365 0.882892 0.250000
O O18 0.808163 0.750000 0.500000
O O19 0.810993 0.885676 0.250000
#
# Coordination Sequence:
#
# PCOD9438509 Si02
#       6
#     8   8   8   8   8   8
#     4  10  21  37  58  84 113 147 187 231 279 332
#     4  11  24  41  63  90 120 155 194 237 286 339
#     4  11  24  40  60  87 118 153 193 237 284 336
#     4  10  21  37  57  81 109 143 183 227 276 330
#     4  10  21  37  57  81 110 145 184 227 277 332
#     4  10  21  38  60  85 114 149 189 233 282 335
#
# _framework density 19.274836000000001
#
# number of rings (size 3 to 8) (size 9 to 14) (size 15 to 20)
#    0.000    1.667    0.000    4.000    0.000   10.667 
#    0.000    0.000    0.000    0.000    0.000    0.000 
#    0.000    0.000    0.000    0.000    0.000    0.000 
#
# Total GULP energy -267734.318082 kJ/mol
# GULP energy per Si atom -5577.798293 kJ/mol
# Density = 1.923097 g / cm^3
# Si number density = 19.274836 Si / 1000 Ang^3
#
#
#
# Elastic Constant Matrix: (Units=GPa)
#
#
# Indices 1 2 3 4 5 6 
#
# 1 -138.9858 -139.6131 -82.1299 0.0000 0.0000 0.0000
# 2 -139.6131 -46.8300 -41.6807 0.0000 0.0000 0.0000
# 3 -82.1299 -41.6807 118.1555 0.0000 0.0000 0.0000
# 4 0.0000 0.0000 0.0000 41.4599 0.0000 0.0000
# 5 0.0000 0.0000 0.0000 0.0000 27.4462 0.0000
# 6 0.0000 0.0000 0.0000 0.0000 0.0000 30.1864
#
#
#
# Elastic Compliance Matrix: (Units=1/GPa)
#
#
# Indices 1 2 3 4 5 6 
#
# 1 0.003762 -0.010307 -0.001021 0.000000 0.000000 0.000000
# 2 -0.010307 0.011988 -0.002936 0.000000 0.000000 0.000000
# 3 -0.001021 -0.002936 0.006718 0.000000 0.000000 0.000000
# 4 0.000000 0.000000 0.000000 0.024120 0.000000 0.000000
# 5 0.000000 0.000000 0.000000 0.000000 0.036435 0.000000
# 6 0.000000 0.000000 0.000000 0.000000 0.000000 0.033128
#
#
# Mechanical properties :
#
#
# Convention : Reuss Voigt Hill
#
# Bulk Modulus (GPa) = -165.02590 -66.05640 -115.54115
# Shear Modulus (GPa) = 35.04875 32.86939 33.95907
#
# Velocity S-wave (km/s) = 4.26886 4.13401 4.20197
# Velocity P-wave (km/s) = 7.84255 3.39978 6.04417
#
# Compressibility (1/GPa) = -0.00605965
#
# Stress axis : x y z
#
# Youngs Moduli (GPa) = 265.80564 83.41689 148.85037
#
# Poissons Ratio (x) = 0.85980 0.15197
# Poissons Ratio (y) = 2.73974 0.43698
# Poissons Ratio (z) = 0.27137 0.24489
#
# Static dielectric constant tensor:
#      x y z
#    x 1.708700 0.000000 0.000000 
#    y 0.000000 1.622450 0.000000 
#    z 0.000000 0.000000 1.659990 
# 
# From -- ./inp_files/9884.got.cif
#   From: 2010.05.17/outbox.cif.g08.bks.cpg/sg57_5_cif.got.tgz:9884.got - 2010.06.03 13:58:18.
