data_PCOD9438344
_publ_section_title
;
Structure prediction by ZEFSAII (Michael W. Deem and Ramdas Pophale) SiO2 
 PCOD9438344
Probable space group: P B C M
;
_chemical_formula_sum "Si O2"
_cell_formula_units_Z 64
_cell_length_a 8.383874
_cell_length_b 23.425476
_cell_length_c 17.069576
_cell_angle_alpha 90.000000
_cell_angle_beta 90.000000
_cell_angle_gamma 90.000000
_cell_volume 3352.400531
_symmetry_space_group_name_H-M "P B C M"
_symmetry_group_IT_number 57
_symmetry_cell_setting 'orthorhombic'
loop_
_space_group_symop_operation_xyz
x,y,z
-x,-y,1/2+z
x,1/2-y,-z
-x,1/2+y,1/2-z
-x,-y,-z
x,y,1/2-z
-x,1/2+y,z
x,1/2-y,1/2+z
loop_
_atom_site_type_symbol
_atom_site_label
_atom_site_fract_x
_atom_site_fract_y
_atom_site_fract_z
Si Si1 0.374919 0.580260 0.055995
Si Si2 0.538620 0.012338 0.839160
Si Si3 0.915997 0.906170 0.993410
Si Si4 0.841145 0.474539 0.070394
Si Si5 0.311895 0.687970 0.156777
Si Si6 0.591133 0.879398 0.419900
Si Si7 0.013690 0.286103 0.579781
Si Si8 0.369831 0.251372 0.404800
O O1 0.496155 0.538761 0.101299
O O2 0.307699 0.625231 0.117494
O O3 0.254466 0.538558 0.010598
O O4 0.450853 0.616072 0.984456
O O5 0.514787 0.995170 0.750000
O O6 0.720282 0.029135 0.858284
O O7 0.435860 0.067975 0.861530
O O8 0.977711 0.851820 0.947142
O O9 0.905085 0.961537 0.938075
O O10 0.747036 0.889678 0.028496
O O11 0.024458 0.926591 0.066090
O O12 0.313562 0.684482 0.250000
O O13 0.149485 0.720203 0.129185
O O14 0.479823 0.715951 0.128174
O O15 0.604489 0.817439 0.381848
O O16 0.998056 0.250000 0.500000
O O17 0.189017 0.269817 0.615452
O O18 0.376962 0.250000 0.500000
#
# Coordination Sequence:
#
# PCOD9438344 Si02
#       8
#     8   8   8   8   8   8   8   8
#     4  11  19  39  62  89 118 160 208 251 300 368
#     4  11  23  38  57  90 127 161 198 248 313 376
#     4  11  18  37  62  90 115 150 207 259 299 348
#     4  10  21  34  64  88 118 156 204 254 300 368
#     4  12  26  41  61  95 133 161 198 261 327 374
#     4  11  20  39  67  89 113 159 215 255 295 365
#     4  11  23  39  67  95 118 161 215 260 302 370
#     4  11  22  41  68  92 118 165 217 259 304 364
#
# _framework density 19.090797999999999
#
# number of rings (size 3 to 8) (size 9 to 14) (size 15 to 20)
#    0.000    1.000    7.500    1.500    0.000    1.000 
#    0.000    1.250    0.000    0.000    0.000    0.000 
#    0.000    0.000    0.000    0.000    0.000    0.000 
#
# Total GULP energy -356954.501555 kJ/mol
# GULP energy per Si atom -5577.414087 kJ/mol
# Density = 1.904735 g / cm^3
# Si number density = 19.090798 Si / 1000 Ang^3
#
#
#
# Elastic Constant Matrix: (Units=GPa)
#
#
# Indices 1 2 3 4 5 6 
#
# 1 94.1428 24.3190 21.8850 0.0000 0.0000 0.0000
# 2 24.3190 102.3684 10.9788 0.0000 0.0000 0.0000
# 3 21.8850 10.9788 62.1835 0.0000 0.0000 0.0000
# 4 0.0000 0.0000 0.0000 12.2049 0.0000 0.0000
# 5 0.0000 0.0000 0.0000 0.0000 14.4677 0.0000
# 6 0.0000 0.0000 0.0000 0.0000 0.0000 4.1267
#
#
#
# Elastic Compliance Matrix: (Units=1/GPa)
#
#
# Indices 1 2 3 4 5 6 
#
# 1 0.012154 -0.002476 -0.003841 0.000000 0.000000 0.000000
# 2 -0.002476 0.010461 -0.000976 0.000000 0.000000 0.000000
# 3 -0.003841 -0.000976 0.017605 0.000000 0.000000 0.000000
# 4 0.000000 0.000000 0.000000 0.081934 0.000000 0.000000
# 5 0.000000 0.000000 0.000000 0.000000 0.069120 0.000000
# 6 0.000000 0.000000 0.000000 0.000000 0.000000 0.242324
#
#
# Mechanical properties :
#
#
# Convention : Reuss Voigt Hill
#
# Bulk Modulus (GPa) = 39.00552 41.45116 40.22834
# Shear Modulus (GPa) = 10.94740 19.59398 15.27069
#
# Velocity S-wave (km/s) = 2.39726 3.20716 2.83132
# Velocity P-wave (km/s) = 5.30456 5.95603 5.63971
#
# Compressibility (1/GPa) = 0.02563740
#
# Stress axis : x y z
#
# Youngs Moduli (GPa) = 82.27438 95.58963 56.80085
#
# Poissons Ratio (x) = 0.23664 0.21815
# Poissons Ratio (y) = 0.20367 0.05542
# Poissons Ratio (z) = 0.31598 0.09327
#
# Static dielectric constant tensor:
#      x y z
#    x 1.746680 0.000000 0.000000 
#    y 0.000000 1.709250 0.000000 
#    z 0.000000 0.000000 1.630730 
# 
# From -- ./inp_files/21496.got.cif
#   From: 2010.05.17/outbox.cif.g08.bks.cpg/sg57_11_cif.got.tgz:21496.got - 2010.06.03 13:58:18.
