data_PCOD9438902
_publ_section_title
;
Structure prediction by ZEFSAII (Michael W. Deem and Ramdas Pophale) SiO2 
 PCOD9438902
Probable space group: P B C M
;
_chemical_formula_sum "Si O2"
_cell_formula_units_Z 40
_cell_length_a 13.911143
_cell_length_b 18.569195
_cell_length_c 8.830187
_cell_angle_alpha 90.000000
_cell_angle_beta 90.000000
_cell_angle_gamma 90.000000
_cell_volume 2281.002665
_symmetry_space_group_name_H-M "P B C M"
_symmetry_group_IT_number 57
_symmetry_cell_setting 'orthorhombic'
loop_
_space_group_symop_operation_xyz
x,y,z
-x,-y,1/2+z
x,1/2-y,-z
-x,1/2+y,1/2-z
-x,-y,-z
x,y,1/2-z
-x,1/2+y,z
x,1/2-y,1/2+z
loop_
_atom_site_type_symbol
_atom_site_label
_atom_site_fract_x
_atom_site_fract_y
_atom_site_fract_z
Si Si1 0.200843 0.040928 0.569295
Si Si2 0.403021 0.531695 0.068296
Si Si3 0.684742 0.326212 0.069291
Si Si4 0.910668 0.671642 0.069237
Si Si5 0.121532 0.613891 0.067488
O O1 0.193618 0.051490 0.750000
O O2 0.163699 0.111587 0.487010
O O3 0.310326 0.018404 0.533470
O O4 0.136635 0.970506 0.529959
O O5 0.408992 0.537865 0.250000
O O6 0.500000 0.500000 0.000000
O O7 0.378933 0.609063 0.996884
O O8 0.680666 0.324897 0.250000
O O9 0.655206 0.250000 0.000000
O O10 0.793340 0.343285 0.014218
O O11 0.907877 0.676392 0.250000
O O12 0.017445 0.643781 0.025283
O O13 0.893095 0.750000 0.000000
O O14 0.134432 0.620719 0.250000
#
# Coordination Sequence:
#
# PCOD9438902 Si02
#       5
#     8   8   8   8   8
#     4   9  19  36  56  78 107 138 174 220 266 316
#     4  10  21  39  61  84 109 139 177 222 272 328
#     4  11  21  34  55  83 113 144 178 222 272 320
#     4  11  22  34  51  76 109 147 185 221 262 312
#     4   9  19  35  54  79 109 142 179 221 267 318
#
# _framework density 17.536147
#
# number of rings (size 3 to 8) (size 9 to 14) (size 15 to 20)
#    0.000    2.000    0.000    5.400    0.000    7.200 
#    0.000    1.000    0.000    4.800    0.000    0.000 
#    0.000    0.000    0.000    0.000    0.000    0.000 
#
# Total GULP energy -223432.754379 kJ/mol
# GULP energy per Si atom -5585.818859 kJ/mol
# Density = 1.749623 g / cm^3
# Si number density = 17.536147 Si / 1000 Ang^3
#
#
#
# Elastic Constant Matrix: (Units=GPa)
#
#
# Indices 1 2 3 4 5 6 
#
# 1 98.2087 93.7152 58.3287 0.0000 0.0000 0.0000
# 2 93.7152 171.5010 75.5234 0.0000 0.0000 0.0000
# 3 58.3287 75.5234 75.7711 0.0000 0.0000 0.0000
# 4 0.0000 0.0000 0.0000 31.4419 0.0000 0.0000
# 5 0.0000 0.0000 0.0000 0.0000 30.0908 0.0000
# 6 0.0000 0.0000 0.0000 0.0000 0.0000 16.3283
#
#
#
# Elastic Compliance Matrix: (Units=1/GPa)
#
#
# Indices 1 2 3 4 5 6 
#
# 1 0.024905 -0.009208 -0.009994 0.000000 0.000000 0.000000
# 2 -0.009208 0.013797 -0.006663 0.000000 0.000000 0.000000
# 3 -0.009994 -0.006663 0.027532 0.000000 0.000000 0.000000
# 4 0.000000 0.000000 0.000000 0.031805 0.000000 0.000000
# 5 0.000000 0.000000 0.000000 0.000000 0.033233 0.000000
# 6 0.000000 0.000000 0.000000 0.000000 0.000000 0.061243
#
#
# Mechanical properties :
#
#
# Convention : Reuss Voigt Hill
#
# Bulk Modulus (GPa) = 68.94805 88.95727 78.95266
# Shear Modulus (GPa) = 20.07392 23.43311 21.75352
#
# Velocity S-wave (km/s) = 3.38704 3.65947 3.52589
# Velocity P-wave (km/s) = 7.39588 8.28817 7.85471
#
# Compressibility (1/GPa) = 0.01450367
#
# Stress axis : x y z
#
# Youngs Moduli (GPa) = 40.15318 72.48020 36.32079
#
# Poissons Ratio (x) = 0.66740 0.36298
# Poissons Ratio (y) = 0.36973 0.24202
# Poissons Ratio (z) = 0.40128 0.48297
#
# Static dielectric constant tensor:
#      x y z
#    x 1.577840 0.000000 0.000000 
#    y 0.000000 1.585970 0.000000 
#    z 0.000000 0.000000 1.582340 
# 
# From -- ./inp_files/2636.got.cif
#   From: 2010.05.17/outbox.cif.g08.bks.cpg/sg57_2_cif.got.tgz:2636.got - 2010.06.03 13:58:18.
