data_PCOD9438507
_publ_section_title
;
Structure prediction by ZEFSAII (Michael W. Deem and Ramdas Pophale) SiO2 
 PCOD9438507
Probable space group: P B C M
;
_chemical_formula_sum "Si O2"
_cell_formula_units_Z 32
_cell_length_a 7.110248
_cell_length_b 28.366462
_cell_length_c 9.011079
_cell_angle_alpha 90.000000
_cell_angle_beta 90.000000
_cell_angle_gamma 90.000000
_cell_volume 1817.467769
_symmetry_space_group_name_H-M "P B C M"
_symmetry_group_IT_number 57
_symmetry_cell_setting 'orthorhombic'
loop_
_space_group_symop_operation_xyz
x,y,z
-x,-y,1/2+z
x,1/2-y,-z
-x,1/2+y,1/2-z
-x,-y,-z
x,y,1/2-z
-x,1/2+y,z
x,1/2-y,1/2+z
loop_
_atom_site_type_symbol
_atom_site_label
_atom_site_fract_x
_atom_site_fract_y
_atom_site_fract_z
Si Si1 0.960393 0.800407 0.573508
Si Si2 0.951127 0.950526 0.074356
Si Si3 0.744858 0.367998 0.074330
Si Si4 0.658231 0.882457 0.926617
O O1 0.926861 0.750000 0.500000
O O2 0.985545 0.795720 0.750000
O O3 0.786791 0.836126 0.547009
O O4 0.142228 0.825292 0.501671
O O5 0.919010 0.956127 0.250000
O O6 0.124198 0.914132 0.053906
O O7 0.771735 0.925806 0.998673
O O8 0.000000 0.000000 0.000000
O O9 0.725441 0.359507 0.250000
O O10 0.543910 0.375869 0.000049
O O11 0.641555 0.889204 0.750000
#
# Coordination Sequence:
#
# PCOD9438507 Si02
#       4
#     8   8   8   8
#     4  10  21  37  57  81 109 142 180 222 268 318
#     4  10  21  37  57  81 109 143 182 225 273 323
#     4  10  21  37  57  81 110 143 180 223 270 321
#     4  10  21  37  57  81 110 144 182 224 270 322
#
# _framework density 17.606916999999999
#
# number of rings (size 3 to 8) (size 9 to 14) (size 15 to 20)
#    0.000    2.000    0.000    3.000    0.000    8.000 
#    0.000    2.500    0.000    0.000    0.000    0.000 
#    0.000    0.000    0.000    0.000    0.000    0.000 
#
# Total GULP energy -178761.840417 kJ/mol
# GULP energy per Si atom -5586.307513 kJ/mol
# Density = 1.756684 g / cm^3
# Si number density = 17.606917 Si / 1000 Ang^3
#
#
#
# Elastic Constant Matrix: (Units=GPa)
#
#
# Indices 1 2 3 4 5 6 
#
# 1 97.5971 -4.3735 60.2245 0.0000 0.0000 0.0000
# 2 -4.3735 71.6555 52.7097 0.0000 0.0000 0.0000
# 3 60.2245 52.7097 109.3984 0.0000 0.0000 0.0000
# 4 0.0000 0.0000 0.0000 37.7527 0.0000 0.0000
# 5 0.0000 0.0000 0.0000 0.0000 37.0458 0.0000
# 6 0.0000 0.0000 0.0000 0.0000 0.0000 7.3483
#
#
#
# Elastic Compliance Matrix: (Units=1/GPa)
#
#
# Indices 1 2 3 4 5 6 
#
# 1 0.024788 0.017893 -0.022267 0.000000 0.000000 0.000000
# 2 0.017893 0.034532 -0.026488 0.000000 0.000000 0.000000
# 3 -0.022267 -0.026488 0.034161 0.000000 0.000000 0.000000
# 4 0.000000 0.000000 0.000000 0.026488 0.000000 0.000000
# 5 0.000000 0.000000 0.000000 0.000000 0.026994 0.000000
# 6 0.000000 0.000000 0.000000 0.000000 0.000000 0.136085
#
#
# Mechanical properties :
#
#
# Convention : Reuss Voigt Hill
#
# Bulk Modulus (GPa) = 31.48920 55.08582 43.28751
# Shear Modulus (GPa) = 14.07023 27.76872 20.91948
#
# Velocity S-wave (km/s) = 2.82996 3.97564 3.45068
# Velocity P-wave (km/s) = 5.34805 7.24077 6.36515
#
# Compressibility (1/GPa) = 0.03175692
#
# Stress axis : x y z
#
# Youngs Moduli (GPa) = 40.34146 28.95830 29.27277
#
# Poissons Ratio (x) = -0.51814 0.65182
# Poissons Ratio (y) = -0.72181 0.77538
# Poissons Ratio (z) = 0.89829 0.76705
#
# Static dielectric constant tensor:
#      x y z
#    x 1.566870 0.000000 0.000000 
#    y 0.000000 1.572910 0.000000 
#    z 0.000000 0.000000 1.584240 
# 
# From -- ./inp_files/769.got.cif
#   From: 2010.05.17/outbox.cif.g08.bks.cpg/sg57_1_cif.got.tgz:769.got - 2010.06.03 13:58:18.
