data_PCOD9438191
_publ_section_title
;
Structure prediction by ZEFSAII (Michael W. Deem and Ramdas Pophale) SiO2 
 PCOD9438191
Probable space group: P B C M
;
_chemical_formula_sum "Si O2"
_cell_formula_units_Z 64
_cell_length_a 22.133918
_cell_length_b 8.117121
_cell_length_c 14.754751
_cell_angle_alpha 90.000000
_cell_angle_beta 90.000000
_cell_angle_gamma 90.000000
_cell_volume 2650.893019
_symmetry_space_group_name_H-M "P B C M"
_symmetry_group_IT_number 57
_symmetry_cell_setting 'orthorhombic'
loop_
_space_group_symop_operation_xyz
x,y,z
-x,-y,1/2+z
x,1/2-y,-z
-x,1/2+y,1/2-z
-x,-y,-z
x,y,1/2-z
-x,1/2+y,z
x,1/2-y,1/2+z
loop_
_atom_site_type_symbol
_atom_site_label
_atom_site_fract_x
_atom_site_fract_y
_atom_site_fract_z
Si Si1 0.406374 0.109738 0.640486
Si Si2 0.073009 0.347828 0.860908
Si Si3 0.056702 0.976795 0.854379
Si Si4 0.478520 0.442038 0.641471
Si Si5 0.857254 0.178141 0.899629
Si Si6 0.710422 0.579062 0.983580
Si Si7 0.743007 0.163607 0.347902
Si Si8 0.358298 0.908548 0.146276
O O1 0.397311 0.100422 0.750000
O O2 0.442492 0.277914 0.618863
O O3 0.344280 0.109914 0.587188
O O4 0.454851 0.975207 0.605515
O O5 0.076926 0.351848 0.750000
O O6 0.079926 0.155057 0.890380
O O7 0.117349 0.493839 0.893273
O O8 0.006594 0.409582 0.892867
O O9 0.042264 0.015581 0.750000
O O10 0.101635 0.820880 0.853855
O O11 0.487577 0.438272 0.750000
O O12 0.429115 0.585278 0.624127
O O13 0.790842 0.189978 0.855984
O O14 0.856028 0.250000 0.000000
O O15 0.752659 0.451291 0.933226
O O16 0.742657 0.750000 0.000000
O O17 0.679102 0.511239 0.073450
O O18 0.750770 0.081874 0.250000
O O19 0.674968 0.233473 0.354027
O O20 0.352614 0.972622 0.250000
#
# Coordination Sequence:
#
# PCOD9438191 Si02
#       8
#     8   8   8   8   8   8   8   8
#     4  10  21  38  61  95 134 173 220 275 337 407
#     4  10  20  39  68  98 137 188 235 284 341 407
#     4  10  20  39  67  99 136 183 237 282 333 406
#     4   9  19  36  59  91 131 172 216 267 329 400
#     4  12  25  43  67 100 144 179 227 292 349 421
#     4  12  24  42  66  98 131 168 217 279 340 405
#     4  11  26  49  74  94 125 177 230 281 339 407
#     4  10  22  43  66  90 127 174 220 269 330 399
#
# _framework density 24.142806
#
# number of rings (size 3 to 8) (size 9 to 14) (size 15 to 20)
#    0.000    1.500    2.500    2.625    1.750    2.000 
#    4.500    0.000    0.000    0.000    0.000    0.000 
#    0.000    0.000    0.000    0.000    0.000    0.000 
#
# Total GULP energy -357650.968505 kJ/mol
# GULP energy per Si atom -5588.296383 kJ/mol
# Density = 2.408786 g / cm^3
# Si number density = 24.142806 Si / 1000 Ang^3
#
#
#
# Elastic Constant Matrix: (Units=GPa)
#
#
# Indices 1 2 3 4 5 6 
#
# 1 66.2008 19.6131 -7.3049 0.0000 0.0000 0.0000
# 2 19.6131 113.5053 13.1661 0.0000 0.0000 0.0000
# 3 -7.3049 13.1661 84.5429 0.0000 0.0000 0.0000
# 4 0.0000 0.0000 0.0000 23.2387 0.0000 0.0000
# 5 0.0000 0.0000 0.0000 0.0000 30.3512 0.0000
# 6 0.0000 0.0000 0.0000 0.0000 0.0000 31.1275
#
#
#
# Elastic Compliance Matrix: (Units=1/GPa)
#
#
# Indices 1 2 3 4 5 6 
#
# 1 0.016206 -0.003017 0.001870 0.000000 0.000000 0.000000
# 2 -0.003017 0.009534 -0.001745 0.000000 0.000000 0.000000
# 3 0.001870 -0.001745 0.012262 0.000000 0.000000 0.000000
# 4 0.000000 0.000000 0.000000 0.043032 0.000000 0.000000
# 5 0.000000 0.000000 0.000000 0.000000 0.032948 0.000000
# 6 0.000000 0.000000 0.000000 0.000000 0.000000 0.032126
#
#
# Mechanical properties :
#
#
# Convention : Reuss Voigt Hill
#
# Bulk Modulus (GPa) = 31.04001 35.02196 33.03099
# Shear Modulus (GPa) = 30.74452 32.86180 31.80316
#
# Velocity S-wave (km/s) = 3.57241 3.69337 3.63339
# Velocity P-wave (km/s) = 5.46817 5.72063 5.59582
#
# Compressibility (1/GPa) = 0.03221648
#
# Stress axis : x y z
#
# Youngs Moduli (GPa) = 61.70621 104.88796 81.55461
#
# Poissons Ratio (x) = 0.31647 -0.15252
# Poissons Ratio (y) = 0.18618 0.14235
# Poissons Ratio (z) = -0.11540 0.18308
#
# Static dielectric constant tensor:
#      x y z
#    x 1.898610 0.000000 0.000000 
#    y 0.000000 2.020650 0.000000 
#    z 0.000000 0.000000 1.960940 
# 
# From -- ./inp_files/19537.got.cif
#   From: 2010.05.17/outbox.cif.g08.bks.cpg/sg57_10_cif.got.tgz:19537.got - 2010.06.03 13:58:18.
