data_PCOD9438284
_publ_section_title
;
Structure prediction by ZEFSAII (Michael W. Deem and Ramdas Pophale) SiO2 
 PCOD9438284
Probable space group: P B C M
;
_chemical_formula_sum "Si O2"
_cell_formula_units_Z 64
_cell_length_a 13.248710
_cell_length_b 8.708926
_cell_length_c 26.126484
_cell_angle_alpha 90.000000
_cell_angle_beta 90.000000
_cell_angle_gamma 90.000000
_cell_volume 3014.526891
_symmetry_space_group_name_H-M "P B C M"
_symmetry_group_IT_number 57
_symmetry_cell_setting 'orthorhombic'
loop_
_space_group_symop_operation_xyz
x,y,z
-x,-y,1/2+z
x,1/2-y,-z
-x,1/2+y,1/2-z
-x,-y,-z
x,y,1/2-z
-x,1/2+y,z
x,1/2-y,1/2+z
loop_
_atom_site_type_symbol
_atom_site_label
_atom_site_fract_x
_atom_site_fract_y
_atom_site_fract_z
Si Si1 0.023542 0.231316 0.877271
Si Si2 0.737840 0.461464 0.193190
Si Si3 0.471522 0.515099 0.121462
Si Si4 0.839408 0.189959 0.448008
Si Si5 0.789223 0.824331 0.444514
Si Si6 0.644155 0.746584 0.350999
Si Si7 0.029618 0.493031 0.693239
Si Si8 0.357394 0.802691 0.094017
O O1 0.112992 0.253125 0.917554
O O2 0.038378 0.317776 0.823514
O O3 0.917667 0.268909 0.903466
O O4 0.026769 0.059255 0.856095
O O5 0.699385 0.425314 0.250000
O O6 0.720149 0.643824 0.182067
O O7 0.857891 0.436685 0.192484
O O8 0.684274 0.361407 0.149205
O O9 0.407906 0.409490 0.160484
O O10 0.549490 0.631776 0.146878
O O11 0.395155 0.628150 0.093614
O O12 0.543737 0.408678 0.085883
O O13 0.889638 0.250000 0.500000
O O14 0.740041 0.298178 0.441709
O O15 0.811079 0.008460 0.448303
O O16 0.772245 0.750000 0.500000
O O17 0.697975 0.781366 0.405607
O O18 0.986505 0.508905 0.750000
#
# Coordination Sequence:
#
# PCOD9438284 Si02
#       8
#     8   8   8   8   8   8   8   8
#     4  12  24  44  66  96 134 172 210 264 318 384
#     4  10  21  38  67  97 129 170 209 261 324 380
#     4   9  20  38  69  89 123 172 203 263 323 377
#     4  12  27  42  66  95 129 170 218 265 324 382
#     4  12  27  42  66  95 129 170 218 265 324 382
#     4  10  20  42  63  92 129 163 211 263 319 374
#     4  11  23  40  65  99 132 172 216 259 316 381
#     4  10  20  42  63  92 129 163 211 263 319 374
#
# _framework density 21.230528
#
# number of rings (size 3 to 8) (size 9 to 14) (size 15 to 20)
#    0.000    1.250    5.000    0.750    5.250    1.000 
#    0.000   14.375    0.000    0.000    0.000    0.000 
#    0.000    0.000    0.000    0.000    0.000    0.000 
#
# Total GULP energy -356392.734444 kJ/mol
# GULP energy per Si atom -5568.636476 kJ/mol
# Density = 2.118221 g / cm^3
# Si number density = 21.230528 Si / 1000 Ang^3
#
#
#
# Elastic Constant Matrix: (Units=GPa)
#
#
# Indices 1 2 3 4 5 6 
#
# 1 41.7338 -2.9281 21.8076 0.0000 0.0000 0.0000
# 2 -2.9281 68.1272 20.7646 0.0000 0.0000 0.0000
# 3 21.8076 20.7646 102.0785 0.0000 0.0000 0.0000
# 4 0.0000 0.0000 0.0000 25.7177 0.0000 0.0000
# 5 0.0000 0.0000 0.0000 0.0000 13.2746 0.0000
# 6 0.0000 0.0000 0.0000 0.0000 0.0000 8.5311
#
#
#
# Elastic Compliance Matrix: (Units=1/GPa)
#
#
# Indices 1 2 3 4 5 6 
#
# 1 0.027604 0.003181 -0.006544 0.000000 0.000000 0.000000
# 2 0.003181 0.016015 -0.003937 0.000000 0.000000 0.000000
# 3 -0.006544 -0.003937 0.011995 0.000000 0.000000 0.000000
# 4 0.000000 0.000000 0.000000 0.038884 0.000000 0.000000
# 5 0.000000 0.000000 0.000000 0.000000 0.075332 0.000000
# 6 0.000000 0.000000 0.000000 0.000000 0.000000 0.117218
#
#
# Mechanical properties :
#
#
# Convention : Reuss Voigt Hill
#
# Bulk Modulus (GPa) = 24.38213 32.35863 28.37038
# Shear Modulus (GPa) = 15.85685 20.99105 18.42395
#
# Velocity S-wave (km/s) = 2.73589 3.14780 2.94905
# Velocity P-wave (km/s) = 4.63568 5.33725 4.99879
#
# Compressibility (1/GPa) = 0.04101365
#
# Stress axis : x y z
#
# Youngs Moduli (GPa) = 36.22627 62.44060 83.36519
#
# Poissons Ratio (x) = -0.19863 0.54557
# Poissons Ratio (y) = -0.11524 0.32824
# Poissons Ratio (z) = 0.23708 0.24585
#
# Static dielectric constant tensor:
#      x y z
#    x 1.799750 0.000000 0.000000 
#    y 0.000000 1.807630 0.000000 
#    z 0.000000 0.000000 1.737210 
# 
# From -- ./inp_files/27466.got.cif
#   From: 2010.05.17/outbox.cif.g08.bks.cpg/sg57_14_cif.got.tgz:27466.got - 2010.06.03 13:58:18.
