data_PCOD9438202
_publ_section_title
;
Structure prediction by ZEFSAII (Michael W. Deem and Ramdas Pophale) SiO2 
 PCOD9438202
Probable space group: P B C M
;
_chemical_formula_sum "Si O2"
_cell_formula_units_Z 40
_cell_length_a 5.598808
_cell_length_b 18.080163
_cell_length_c 15.500594
_cell_angle_alpha 90.000000
_cell_angle_beta 90.000000
_cell_angle_gamma 90.000000
_cell_volume 1569.084228
_symmetry_space_group_name_H-M "P B C M"
_symmetry_group_IT_number 57
_symmetry_cell_setting 'orthorhombic'
loop_
_space_group_symop_operation_xyz
x,y,z
-x,-y,1/2+z
x,1/2-y,-z
-x,1/2+y,1/2-z
-x,-y,-z
x,y,1/2-z
-x,1/2+y,z
x,1/2-y,1/2+z
loop_
_atom_site_type_symbol
_atom_site_label
_atom_site_fract_x
_atom_site_fract_y
_atom_site_fract_z
Si Si1 0.000000 0.000000 0.000000
Si Si2 0.583127 0.461133 0.750000
Si Si3 0.908997 0.136046 0.900740
Si Si4 0.050816 0.852177 0.750000
Si Si5 0.620347 0.213209 0.750000
Si Si6 0.692342 0.619432 0.101349
Si Si7 0.248117 0.250000 0.000000
Si Si8 0.756856 0.608418 0.750000
O O1 0.829933 0.071266 0.964630
O O2 0.185809 0.060832 0.038590
O O3 0.479334 0.424366 0.664809
O O4 0.548626 0.548169 0.750000
O O5 0.858652 0.437020 0.750000
O O6 0.069364 0.198883 0.944943
O O7 0.089892 0.094461 0.834813
O O8 0.720392 0.174313 0.836810
O O9 0.893780 0.845575 0.835309
O O10 0.272121 0.795354 0.750000
O O11 0.341263 0.192225 0.750000
O O12 0.593107 0.690927 0.051932
#
# Coordination Sequence:
#
# PCOD9438202 Si02
#       8
#     4   4   8   4   4   8   4   4
#     4  10  20  40  66  86 122 172 190 250 314 366
#     4  11  24  40  65  93 123 163 213 257 304 368
#     4  10  22  41  65  88 129 160 209 254 311 361
#     4  11  22  39  66  93 120 165 216 250 302 371
#     4  11  22  39  66  93 120 165 216 250 302 371
#     4  10  22  41  65  88 129 160 209 254 311 361
#     4  10  20  40  60  90 124 170 190 260 318 356
#     4  11  24  40  65  93 123 163 213 257 304 368
#
# _framework density 25.492576
#
# number of rings (size 3 to 8) (size 9 to 14) (size 15 to 20)
#    0.000    1.600    2.000    2.400    2.800    3.200 
#    0.000   24.000    0.000    0.000    0.000    0.000 
#    0.000    0.000    0.000    0.000    0.000    0.000 
#
# Total GULP energy -222851.427167 kJ/mol
# GULP energy per Si atom -5571.285679 kJ/mol
# Density = 2.543455 g / cm^3
# Si number density = 25.492576 Si / 1000 Ang^3
#
#
#
# Elastic Constant Matrix: (Units=GPa)
#
#
# Indices 1 2 3 4 5 6 
#
# 1 17.6186 6.2291 -2.6896 0.0000 0.0000 0.0000
# 2 6.2291 172.9405 36.1997 0.0000 0.0000 0.0000
# 3 -2.6896 36.1997 58.8818 0.0000 0.0000 0.0000
# 4 0.0000 0.0000 0.0000 -2.6336 0.0000 0.0000
# 5 0.0000 0.0000 0.0000 0.0000 6.0030 0.0000
# 6 0.0000 0.0000 0.0000 0.0000 0.0000 31.5649
#
#
#
# Elastic Compliance Matrix: (Units=1/GPa)
#
#
# Indices 1 2 3 4 5 6 
#
# 1 0.058537 -0.003062 0.004556 0.000000 0.000000 0.000000
# 2 -0.003062 0.006797 -0.004318 0.000000 0.000000 0.000000
# 3 0.004556 -0.004318 0.019846 0.000000 0.000000 0.000000
# 4 0.000000 0.000000 0.000000 -0.379702 0.000000 0.000000
# 5 0.000000 0.000000 0.000000 0.000000 0.166582 0.000000
# 6 0.000000 0.000000 0.000000 0.000000 0.000000 0.031681
#
#
# Mechanical properties :
#
#
# Convention : Reuss Voigt Hill
#
# Bulk Modulus (GPa) = 12.57371 36.54659 24.56015
# Shear Modulus (GPa) = -78.00178 20.96695 -28.51741
#
# Velocity S-wave (km/s) = -5.53753 2.87099 -3.34826
# Velocity P-wave (km/s) = 5.99522 5.03561 2.30057
#
# Compressibility (1/GPa) = 0.07953103
#
# Stress axis : x y z
#
# Youngs Moduli (GPa) = 17.08335 147.13390 50.38765
#
# Poissons Ratio (x) = 0.45055 -0.22958
# Poissons Ratio (y) = 0.05231 0.21759
# Poissons Ratio (z) = -0.07784 0.63537
#
# Static dielectric constant tensor:
#      x y z
#    x 2.063000 0.000000 0.000000 
#    y 0.000000 1.924540 0.000000 
#    z 0.000000 0.000000 2.031830 
# 
# From -- ./inp_files/20069.got.cif
#   From: 2010.05.17/outbox.cif.g08.bks.cpg/sg57_11_cif.got.tgz:20069.got - 2010.06.03 13:58:18.
