data_PCOD9438685
_publ_section_title
;
Structure prediction by ZEFSAII (Michael W. Deem and Ramdas Pophale) SiO2 
 PCOD9438685
Probable space group: P B C M
;
_chemical_formula_sum "Si O2"
_cell_formula_units_Z 64
_cell_length_a 11.531831
_cell_length_b 9.409528
_cell_length_c 28.501072
_cell_angle_alpha 90.000000
_cell_angle_beta 90.000000
_cell_angle_gamma 90.000000
_cell_volume 3092.625292
_symmetry_space_group_name_H-M "P B C M"
_symmetry_group_IT_number 57
_symmetry_cell_setting 'orthorhombic'
loop_
_space_group_symop_operation_xyz
x,y,z
-x,-y,1/2+z
x,1/2-y,-z
-x,1/2+y,1/2-z
-x,-y,-z
x,y,1/2-z
-x,1/2+y,z
x,1/2-y,1/2+z
loop_
_atom_site_type_symbol
_atom_site_label
_atom_site_fract_x
_atom_site_fract_y
_atom_site_fract_z
Si Si1 0.397271 0.294320 0.700433
Si Si2 0.460402 0.130487 0.532389
Si Si3 0.621987 0.126962 0.815736
Si Si4 0.727963 0.641155 0.615018
Si Si5 0.300539 0.661412 0.920587
Si Si6 0.117674 0.865362 0.304046
Si Si7 0.869112 0.575610 0.106512
Si Si8 0.119859 0.629110 0.117913
O O1 0.335659 0.267276 0.750000
O O2 0.403914 0.462617 0.693710
O O3 0.524556 0.230306 0.701881
O O4 0.337940 0.213594 0.658142
O O5 0.403236 0.250000 0.500000
O O6 0.369135 0.103955 0.575066
O O7 0.587525 0.186523 0.548160
O O8 0.500000 0.000000 0.500000
O O9 0.636333 0.145754 0.870774
O O10 0.747302 0.164082 0.796916
O O11 0.818541 0.766154 0.602309
O O12 0.801825 0.505422 0.631789
O O13 0.220343 0.520706 0.923352
O O14 0.205093 0.783659 0.916167
O O15 0.067980 0.880067 0.250000
O O16 0.081220 0.733948 0.338681
O O17 0.122046 0.002632 0.340280
O O18 0.003343 0.577924 0.092585
#
# Coordination Sequence:
#
# PCOD9438685 Si02
#       8
#     8   8   8   8   8   8   8   8
#     4  12  23  35  58  89 127 169 211 257 316 383
#     4  12  26  42  69 103 134 164 206 263 343 407
#     4  10  22  37  55  82 125 167 205 254 319 377
#     4  12  23  40  67  95 131 165 217 275 319 391
#     4  10  21  42  66  86 129 166 202 268 325 388
#     4  10  21  38  56  84 129 171 217 277 325 370
#     4  10  21  41  65  86 119 177 222 261 321 382
#     4  10  23  39  64  91 119 173 226 261 321 384
#
# _framework density 20.694392000000001
#
# number of rings (size 3 to 8) (size 9 to 14) (size 15 to 20)
#    0.000    1.500    3.750    4.125    3.500    1.000 
#    0.000    1.250    0.000   15.000    0.000    0.000 
#    0.000    0.000    0.000    0.000    0.000    0.000 
#
# Total GULP energy -356286.593743 kJ/mol
# GULP energy per Si atom -5566.978027 kJ/mol
# Density = 2.064729 g / cm^3
# Si number density = 20.694392 Si / 1000 Ang^3
#
#
#
# Elastic Constant Matrix: (Units=GPa)
#
#
# Indices 1 2 3 4 5 6 
#
# 1 91.7223 19.1862 12.1350 0.0000 0.0000 0.0000
# 2 19.1862 170.6994 -9.8129 0.0000 0.0000 0.0000
# 3 12.1350 -9.8129 79.6084 0.0000 0.0000 0.0000
# 4 0.0000 0.0000 0.0000 57.0813 0.0000 0.0000
# 5 0.0000 0.0000 0.0000 0.0000 -54.8786 0.0000
# 6 0.0000 0.0000 0.0000 0.0000 0.0000 32.5188
#
#
#
# Elastic Compliance Matrix: (Units=1/GPa)
#
#
# Indices 1 2 3 4 5 6 
#
# 1 0.011448 -0.001397 -0.001917 0.000000 0.000000 0.000000
# 2 -0.001397 0.006071 0.000961 0.000000 0.000000 0.000000
# 3 -0.001917 0.000961 0.012972 0.000000 0.000000 0.000000
# 4 0.000000 0.000000 0.000000 0.017519 0.000000 0.000000
# 5 0.000000 0.000000 0.000000 0.000000 -0.018222 0.000000
# 6 0.000000 0.000000 0.000000 0.000000 0.000000 0.030751
#
#
# Mechanical properties :
#
#
# Convention : Reuss Voigt Hill
#
# Bulk Modulus (GPa) = 38.78226 42.78295 40.78261
# Shear Modulus (GPa) = 67.71348 28.31241 48.01295
#
# Velocity S-wave (km/s) = 5.72641 3.70282 4.82196
# Velocity P-wave (km/s) = 7.90591 6.24498 7.12402
#
# Compressibility (1/GPa) = 0.02578498
#
# Stress axis : x y z
#
# Youngs Moduli (GPa) = 87.34883 164.73035 77.08774
#
# Poissons Ratio (x) = 0.23013 0.14780
# Poissons Ratio (y) = 0.12202 -0.07410
# Poissons Ratio (z) = 0.16747 -0.15834
#
# Static dielectric constant tensor:
#      x y z
#    x 1.991150 0.000000 0.000000 
#    y 0.000000 1.771050 0.000000 
#    z 0.000000 0.000000 1.480240 
# 
# From -- ./inp_files/29776.got.cif
#   From: 2010.05.17/outbox.cif.g08.bks.cpg/sg57_15_cif.got.tgz:29776.got - 2010.06.03 13:58:18.
