data_PCOD9438413
_publ_section_title
;
Structure prediction by ZEFSAII (Michael W. Deem and Ramdas Pophale) SiO2 
 PCOD9438413
Probable space group: P B C M
;
_chemical_formula_sum "Si O2"
_cell_formula_units_Z 40
_cell_length_a 23.037570
_cell_length_b 5.313637
_cell_length_c 14.810450
_cell_angle_alpha 90.000000
_cell_angle_beta 90.000000
_cell_angle_gamma 90.000000
_cell_volume 1812.995827
_symmetry_space_group_name_H-M "P B C M"
_symmetry_group_IT_number 57
_symmetry_cell_setting 'orthorhombic'
loop_
_space_group_symop_operation_xyz
x,y,z
-x,-y,1/2+z
x,1/2-y,-z
-x,1/2+y,1/2-z
-x,-y,-z
x,y,1/2-z
-x,1/2+y,z
x,1/2-y,1/2+z
loop_
_atom_site_type_symbol
_atom_site_label
_atom_site_fract_x
_atom_site_fract_y
_atom_site_fract_z
Si Si1 0.152963 0.997786 0.942669
Si Si2 0.655790 0.605049 0.140253
Si Si3 0.968987 0.881170 0.141513
Si Si4 0.722824 0.106091 0.141110
Si Si5 0.523781 0.701251 0.104011
O O1 0.211280 0.923966 0.890116
O O2 0.097326 0.065055 0.882661
O O3 0.137582 0.750000 0.000000
O O4 0.165097 0.250000 0.000000
O O5 0.654507 0.600854 0.250000
O O6 0.692388 0.363166 0.109430
O O7 0.589659 0.608417 0.108269
O O8 0.686567 0.862667 0.111242
O O9 0.974327 0.875175 0.250000
O O10 0.991247 0.611453 0.107304
O O11 0.722080 0.110181 0.250000
O O12 0.484850 0.478644 0.145020
O O13 0.506417 0.750000 0.000000
#
# Coordination Sequence:
#
# PCOD9438413 Si02
#       5
#     8   8   8   8   8
#     4  12  25  39  60  91 122 153 194 243 294 343
#     4  10  21  37  60  85 109 147 195 242 288 337
#     4  10  22  41  64  88 118 160 201 236 286 348
#     4  10  22  41  60  82 116 154 194 239 292 352
#     4  10  21  36  54  80 114 150 185 227 286 349
#
# _framework density 22.062930000000001
#
# number of rings (size 3 to 8) (size 9 to 14) (size 15 to 20)
#    0.000    1.600    0.000    4.200    0.000    5.600 
#    0.000    8.000    0.000    0.000    0.000    0.000 
#    0.000    0.000    0.000    0.000    0.000    0.000 
#
# Total GULP energy -223776.547152 kJ/mol
# GULP energy per Si atom -5594.413679 kJ/mol
# Density = 2.201271 g / cm^3
# Si number density = 22.062930 Si / 1000 Ang^3
#
#
#
# Elastic Constant Matrix: (Units=GPa)
#
#
# Indices 1 2 3 4 5 6 
#
# 1 123.5561 53.6900 -5.8547 0.0000 0.0000 0.0000
# 2 53.6900 193.5544 29.5922 0.0000 0.0000 0.0000
# 3 -5.8547 29.5922 35.3441 0.0000 0.0000 0.0000
# 4 0.0000 0.0000 0.0000 4.0305 0.0000 0.0000
# 5 0.0000 0.0000 0.0000 0.0000 -13.6828 0.0000
# 6 0.0000 0.0000 0.0000 0.0000 0.0000 17.5756
#
#
#
# Elastic Compliance Matrix: (Units=1/GPa)
#
#
# Indices 1 2 3 4 5 6 
#
# 1 0.009780 -0.003395 0.004463 0.000000 0.000000 0.000000
# 2 -0.003395 0.007104 -0.006510 0.000000 0.000000 0.000000
# 3 0.004463 -0.006510 0.034483 0.000000 0.000000 0.000000
# 4 0.000000 0.000000 0.000000 0.248107 0.000000 0.000000
# 5 0.000000 0.000000 0.000000 0.000000 -0.073084 0.000000
# 6 0.000000 0.000000 0.000000 0.000000 0.000000 0.056897
#
#
# Mechanical properties :
#
#
# Convention : Reuss Voigt Hill
#
# Bulk Modulus (GPa) = 24.70220 56.36773 40.53496
# Shear Modulus (GPa) = 16.25140 19.91979 18.08559
#
# Velocity S-wave (km/s) = 2.71697 3.00803 2.86619
# Velocity P-wave (km/s) = 4.58946 6.13746 5.41902
#
# Compressibility (1/GPa) = 0.04048223
#
# Stress axis : x y z
#
# Youngs Moduli (GPa) = 102.24584 140.77306 28.99967
#
# Poissons Ratio (x) = 0.47797 -0.12942
# Poissons Ratio (y) = 0.34715 0.18879
# Poissons Ratio (z) = -0.45631 0.91644
#
# Static dielectric constant tensor:
#      x y z
#    x 1.743410 0.000000 0.000000 
#    y 0.000000 1.844830 0.000000 
#    z 0.000000 0.000000 1.834480 
# 
# From -- ./inp_files/22764.got.cif
#   From: 2010.05.17/outbox.cif.g08.bks.cpg/sg57_12_cif.got.tgz:22764.got - 2010.06.03 13:58:18.
