data_PCOD9438174
_publ_section_title
;
Structure prediction by ZEFSAII (Michael W. Deem and Ramdas Pophale) SiO2 
 PCOD9438174
Probable space group: P B C M
;
_chemical_formula_sum "Si O2"
_cell_formula_units_Z 56
_cell_length_a 19.452519
_cell_length_b 8.814488
_cell_length_c 15.931401
_cell_angle_alpha 90.000000
_cell_angle_beta 90.000000
_cell_angle_gamma 90.000000
_cell_volume 2731.661666
_symmetry_space_group_name_H-M "P B C M"
_symmetry_group_IT_number 57
_symmetry_cell_setting 'orthorhombic'
loop_
_space_group_symop_operation_xyz
x,y,z
-x,-y,1/2+z
x,1/2-y,-z
-x,1/2+y,1/2-z
-x,-y,-z
x,y,1/2-z
-x,1/2+y,z
x,1/2-y,1/2+z
loop_
_atom_site_type_symbol
_atom_site_label
_atom_site_fract_x
_atom_site_fract_y
_atom_site_fract_z
Si Si1 0.696311 0.623961 0.056689
Si Si2 0.422710 0.718629 0.848189
Si Si3 0.174656 0.403396 0.655309
Si Si4 0.075857 0.432702 0.502522
Si Si5 0.291436 0.864773 0.933848
Si Si6 0.435083 0.355929 0.848327
Si Si7 0.830951 0.965100 0.344976
O O1 0.748916 0.556007 0.123953
O O2 0.631336 0.698995 0.101163
O O3 0.734536 0.750000 0.000000
O O4 0.675895 0.495061 0.991889
O O5 0.418587 0.759852 0.750000
O O6 0.353527 0.777281 0.890183
O O7 0.431183 0.537945 0.853855
O O8 0.492472 0.795479 0.881586
O O9 0.160915 0.455508 0.750000
O O10 0.120364 0.462913 0.586832
O O11 0.176321 0.218640 0.656228
O O12 0.071493 0.250000 0.500000
O O13 0.115860 0.492587 0.420414
O O14 0.000000 0.500000 0.500000
O O15 0.238306 0.946499 0.871583
O O16 0.255670 0.750000 0.000000
O O17 0.429065 0.312092 0.750000
O O18 0.851374 0.009633 0.250000
#
# Coordination Sequence:
#
# PCOD9438174 Si02
#       7
#     8   8   8   8   8   8   8
#     4  12  22  39  61  88 119 158 208 257 311 379
#     4  10  23  41  58  82 117 159 207 260 320 379
#     4  10  20  39  65  92 124 165 211 253 302 366
#     4  10  21  40  64  93 129 164 203 250 298 357
#     4  12  23  39  61  88 126 157 203 265 322 369
#     4  10  23  41  58  82 117 158 206 260 317 378
#     4  10  21  40  66  92 123 166 211 253 305 370
#
# _framework density 20.500342
#
# number of rings (size 3 to 8) (size 9 to 14) (size 15 to 20)
#    0.000    1.429    4.286    1.286    2.000    2.286 
#    0.000    0.000    0.000    0.000    0.000    0.000 
#    0.000    0.000    0.000    0.000    0.000    0.000 
#
# Total GULP energy -312705.555994 kJ/mol
# GULP energy per Si atom -5584.027786 kJ/mol
# Density = 2.045368 g / cm^3
# Si number density = 20.500342 Si / 1000 Ang^3
#
#
#
# Elastic Constant Matrix: (Units=GPa)
#
#
# Indices 1 2 3 4 5 6 
#
# 1 126.5729 10.1633 73.4341 0.0000 0.0000 0.0000
# 2 10.1633 19.0352 23.2269 0.0000 0.0000 0.0000
# 3 73.4341 23.2269 154.3881 0.0000 0.0000 0.0000
# 4 0.0000 0.0000 0.0000 19.7681 0.0000 0.0000
# 5 0.0000 0.0000 0.0000 0.0000 12.2482 0.0000
# 6 0.0000 0.0000 0.0000 0.0000 0.0000 34.0713
#
#
#
# Elastic Compliance Matrix: (Units=1/GPa)
#
#
# Indices 1 2 3 4 5 6 
#
# 1 0.010918 0.000621 -0.005286 0.000000 0.000000 0.000000
# 2 0.000621 0.064382 -0.009981 0.000000 0.000000 0.000000
# 3 -0.005286 -0.009981 0.010493 0.000000 0.000000 0.000000
# 4 0.000000 0.000000 0.000000 0.050587 0.000000 0.000000
# 5 0.000000 0.000000 0.000000 0.000000 0.081645 0.000000
# 6 0.000000 0.000000 0.000000 0.000000 0.000000 0.029350
#
#
# Mechanical properties :
#
#
# Convention : Reuss Voigt Hill
#
# Bulk Modulus (GPa) = 17.69921 57.07165 37.38543
# Shear Modulus (GPa) = 16.92044 26.09564 21.50804
#
# Velocity S-wave (km/s) = 2.87605 3.57169 3.24258
# Velocity P-wave (km/s) = 4.43635 6.70143 5.68289
#
# Compressibility (1/GPa) = 0.05649971
#
# Stress axis : x y z
#
# Youngs Moduli (GPa) = 91.59391 15.53236 95.29868
#
# Poissons Ratio (x) = -0.00965 0.50379
# Poissons Ratio (y) = -0.05691 0.95122
# Poissons Ratio (z) = 0.48421 0.15504
#
# Static dielectric constant tensor:
#      x y z
#    x 1.704310 0.000000 0.000000 
#    y 0.000000 1.754680 0.000000 
#    z 0.000000 0.000000 1.752850 
# 
# From -- ./inp_files/19330.got.cif
#   From: 2010.05.17/outbox.cif.g08.bks.cpg/sg57_10_cif.got.tgz:19330.got - 2010.06.03 13:58:18.
