data_PCOD9438403
_publ_section_title
;
Structure prediction by ZEFSAII (Michael W. Deem and Ramdas Pophale) SiO2 
 PCOD9438403
Probable space group: P B C M
;
_chemical_formula_sum "Si O2"
_cell_formula_units_Z 64
_cell_length_a 27.018319
_cell_length_b 15.260529
_cell_length_c 8.208098
_cell_angle_alpha 90.000000
_cell_angle_beta 90.000000
_cell_angle_gamma 90.000000
_cell_volume 3384.312411
_symmetry_space_group_name_H-M "P B C M"
_symmetry_group_IT_number 57
_symmetry_cell_setting 'orthorhombic'
loop_
_space_group_symop_operation_xyz
x,y,z
-x,-y,1/2+z
x,1/2-y,-z
-x,1/2+y,1/2-z
-x,-y,-z
x,y,1/2-z
-x,1/2+y,z
x,1/2-y,1/2+z
loop_
_atom_site_type_symbol
_atom_site_label
_atom_site_fract_x
_atom_site_fract_y
_atom_site_fract_z
Si Si1 0.999823 0.399783 0.055499
Si Si2 0.367153 0.851589 0.053455
Si Si3 0.822665 0.500744 0.449738
Si Si4 0.892419 0.343898 0.054031
Si Si5 0.892691 0.656189 0.443709
Si Si6 0.632515 0.851524 0.553480
Si Si7 0.443511 0.999834 0.446394
Si Si8 0.709396 0.500349 0.448815
O O1 0.998800 0.395737 0.250000
O O2 0.948566 0.358582 0.992069
O O3 0.050878 0.357535 0.999009
O O4 0.000000 0.500000 0.000000
O O5 0.367299 0.850381 0.250000
O O6 0.413958 0.911933 0.999660
O O7 0.320314 0.912255 0.001567
O O8 0.367068 0.750000 0.000000
O O9 0.821734 0.501466 0.250000
O O10 0.854305 0.417113 0.502493
O O11 0.855240 0.582783 0.505774
O O12 0.766026 0.500941 0.504397
O O13 0.894502 0.348968 0.250000
O O14 0.874643 0.250000 0.000000
O O15 0.875002 0.750000 0.500000
O O16 0.893213 0.650757 0.250000
O O17 0.632481 0.750000 0.500000
O O18 0.632348 0.850335 0.750000
O O19 0.585865 0.912122 0.499597
O O20 0.679449 0.911859 0.501585
O O21 0.441485 0.999790 0.250000
O O22 0.500000 0.000000 0.500000
O O23 0.709117 0.500255 0.250000
#
# Coordination Sequence:
#
# PCOD9438403 Si02
#       8
#     8   8   8   8   8   8   8   8
#     4  11  21  36  57  79 105 138 174 213 260 315
#     4   9  18  33  53  77 103 135 176 215 256 307
#     4   9  18  35  55  75 104 137 171 211 261 315
#     4  10  21  36  53  77 103 133 169 206 252 307
#     4  11  22  37  55  79 107 138 176 215 259 316
#     4   9  18  33  53  77 102 134 175 214 256 306
#     4   9  19  34  50  73 107 141 175 211 253 306
#     4   8  16  33  55  74  99 138 173 209 260 313
#
# _framework density 18.910784
#
# number of rings (size 3 to 8) (size 9 to 14) (size 15 to 20)
#    0.000    2.500    1.250    2.625    0.000    4.500 
#    0.000    4.375    0.000    3.000    0.000    0.000 
#    0.000    0.000    0.000    0.000    0.000    0.000 
#
# Total GULP energy -356840.201942 kJ/mol
# GULP energy per Si atom -5575.628155 kJ/mol
# Density = 1.886774 g / cm^3
# Si number density = 18.910784 Si / 1000 Ang^3
#
#
#
# Elastic Constant Matrix: (Units=GPa)
#
#
# Indices 1 2 3 4 5 6 
#
# 1 188.9456 111.6617 18.1769 0.0000 0.0000 0.0000
# 2 111.6617 216.1719 15.4179 0.0000 0.0000 0.0000
# 3 18.1769 15.4179 13.3450 0.0000 0.0000 0.0000
# 4 0.0000 0.0000 0.0000 32.3118 0.0000 0.0000
# 5 0.0000 0.0000 0.0000 0.0000 18.3724 0.0000
# 6 0.0000 0.0000 0.0000 0.0000 0.0000 102.2947
#
#
#
# Elastic Compliance Matrix: (Units=1/GPa)
#
#
# Indices 1 2 3 4 5 6 
#
# 1 0.008147 -0.003723 -0.006795 0.000000 0.000000 0.000000
# 2 -0.003723 0.006743 -0.002719 0.000000 0.000000 0.000000
# 3 -0.006795 -0.002719 0.087331 0.000000 0.000000 0.000000
# 4 0.000000 0.000000 0.000000 0.030948 0.000000 0.000000
# 5 0.000000 0.000000 0.000000 0.000000 0.054429 0.000000
# 6 0.000000 0.000000 0.000000 0.000000 0.000000 0.009776
#
#
# Mechanical properties :
#
#
# Convention : Reuss Voigt Hill
#
# Bulk Modulus (GPa) = 13.20192 78.77507 45.98849
# Shear Modulus (GPa) = 20.07251 48.80952 34.44101
#
# Velocity S-wave (km/s) = 3.26150 5.08591 4.27222
# Velocity P-wave (km/s) = 4.60211 8.73128 6.97906
#
# Compressibility (1/GPa) = 0.07574658
#
# Stress axis : x y z
#
# Youngs Moduli (GPa) = 122.74990 148.29750 11.45072
#
# Poissons Ratio (x) = 0.55218 0.07780
# Poissons Ratio (y) = 0.45706 0.03113
# Poissons Ratio (z) = 0.83403 0.40322
#
# Static dielectric constant tensor:
#      x y z
#    x 1.660070 0.000000 0.000000 
#    y 0.000000 1.630710 0.000000 
#    z 0.000000 0.000000 1.731300 
# 
# From -- ./inp_files/9349.got.cif
#   From: 2010.05.17/outbox.cif.g08.bks.cpg/sg57_5_cif.got.tgz:9349.got - 2010.06.03 13:58:18.
