data_PCOD9438380
_publ_section_title
;
Structure prediction by ZEFSAII (Michael W. Deem and Ramdas Pophale) SiO2 
 PCOD9438380
Probable space group: P B C M
;
_chemical_formula_sum "Si O2"
_cell_formula_units_Z 48
_cell_length_a 5.314870
_cell_length_b 23.779123
_cell_length_c 16.371588
_cell_angle_alpha 90.000000
_cell_angle_beta 90.000000
_cell_angle_gamma 90.000000
_cell_volume 2069.089546
_symmetry_space_group_name_H-M "P B C M"
_symmetry_group_IT_number 57
_symmetry_cell_setting 'orthorhombic'
loop_
_space_group_symop_operation_xyz
x,y,z
-x,-y,1/2+z
x,1/2-y,-z
-x,1/2+y,1/2-z
-x,-y,-z
x,y,1/2-z
-x,1/2+y,z
x,1/2-y,1/2+z
loop_
_atom_site_type_symbol
_atom_site_label
_atom_site_fract_x
_atom_site_fract_y
_atom_site_fract_z
Si Si1 0.721481 0.087516 0.059220
Si Si2 0.092836 0.369887 0.159224
Si Si3 0.341735 0.348915 0.659807
Si Si4 0.918996 0.532995 0.339916
Si Si5 0.924218 0.688514 0.003576
Si Si6 0.574291 0.064591 0.885773
O O1 0.591689 0.117281 0.135907
O O2 0.876493 0.033300 0.088676
O O3 0.893959 0.136850 0.022733
O O4 0.544212 0.071460 0.983544
O O5 0.089171 0.345087 0.250000
O O6 0.316009 0.415808 0.154368
O O7 0.817216 0.397465 0.142650
O O8 0.167175 0.326555 0.087421
O O9 0.353748 0.322219 0.750000
O O10 0.148945 0.401141 0.664258
O O11 0.270545 0.312517 0.579885
O O12 0.005579 0.515050 0.250000
O O13 0.675118 0.496951 0.362729
O O14 0.044956 0.750000 0.000000
#
# Coordination Sequence:
#
# PCOD9438380 Si02
#       6
#     8   8   8   8   8   8
#     4  10  21  39  59  91 123 165 210 267 318 376
#     4  11  23  42  64  95 130 165 212 266 319 382
#     4  10  21  39  62  91 126 161 209 262 316 381
#     4  10  21  35  57  90 127 171 210 252 310 381
#     4  10  23  43  65  87 121 162 211 270 328 385
#     4  11  23  40  64  92 131 174 213 257 317 380
#
# _framework density 23.198609000000001
#
# number of rings (size 3 to 8) (size 9 to 14) (size 15 to 20)
#    0.000    1.667    1.667    2.500    2.333    2.667 
#    0.000    0.000    0.000    0.000    0.000    0.000 
#    0.000    0.000    0.000    0.000    0.000    0.000 
#
# Total GULP energy -267884.117264 kJ/mol
# GULP energy per Si atom -5580.919110 kJ/mol
# Density = 2.314581 g / cm^3
# Si number density = 23.198609 Si / 1000 Ang^3
#
#
#
# Elastic Constant Matrix: (Units=GPa)
#
#
# Indices 1 2 3 4 5 6 
#
# 1 61.6929 -2.2535 20.2483 0.0000 0.0000 0.0000
# 2 -2.2535 66.2509 33.4914 0.0000 0.0000 0.0000
# 3 20.2483 33.4914 181.9110 0.0000 0.0000 0.0000
# 4 0.0000 0.0000 0.0000 -32.6151 0.0000 0.0000
# 5 0.0000 0.0000 0.0000 0.0000 10.8172 0.0000
# 6 0.0000 0.0000 0.0000 0.0000 0.0000 5.3023
#
#
#
# Elastic Compliance Matrix: (Units=1/GPa)
#
#
# Indices 1 2 3 4 5 6 
#
# 1 0.016994 0.001692 -0.002203 0.000000 0.000000 0.000000
# 2 0.001692 0.016812 -0.003283 0.000000 0.000000 0.000000
# 3 -0.002203 -0.003283 0.006347 0.000000 0.000000 0.000000
# 4 0.000000 0.000000 0.000000 -0.030661 0.000000 0.000000
# 5 0.000000 0.000000 0.000000 0.000000 0.092445 0.000000
# 6 0.000000 0.000000 0.000000 0.000000 0.000000 0.188599
#
#
# Mechanical properties :
#
#
# Convention : Reuss Voigt Hill
#
# Bulk Modulus (GPa) = 30.70961 45.86969 38.28965
# Shear Modulus (GPa) = 16.18230 13.92545 15.05387
#
# Velocity S-wave (km/s) = 2.64399 2.45270 2.55014
# Velocity P-wave (km/s) = 4.75262 5.27603 5.02115
#
# Compressibility (1/GPa) = 0.03256310
#
# Stress axis : x y z
#
# Youngs Moduli (GPa) = 58.84368 59.48293 157.55652
#
# Poissons Ratio (x) = -0.10063 0.34711
# Poissons Ratio (y) = -0.09955 0.51733
# Poissons Ratio (z) = 0.12964 0.19531
#
# Static dielectric constant tensor:
#      x y z
#    x 1.944830 0.000000 0.000000 
#    y 0.000000 1.865070 0.000000 
#    z 0.000000 0.000000 1.923270 
# 
# From -- ./inp_files/15087.got.cif
#   From: 2010.05.17/outbox.cif.g08.bks.cpg/sg57_8_cif.got.tgz:15087.got - 2010.06.03 13:58:18.
