data_PCOD9438855
_publ_section_title
;
Structure prediction by ZEFSAII (Michael W. Deem and Ramdas Pophale) SiO2 
 PCOD9438855
Probable space group: P B C M
;
_chemical_formula_sum "Si O2"
_cell_formula_units_Z 32
_cell_length_a 6.540390
_cell_length_b 14.322290
_cell_length_c 17.666211
_cell_angle_alpha 90.000000
_cell_angle_beta 90.000000
_cell_angle_gamma 90.000000
_cell_volume 1654.853383
_symmetry_space_group_name_H-M "P B C M"
_symmetry_group_IT_number 57
_symmetry_cell_setting 'orthorhombic'
loop_
_space_group_symop_operation_xyz
x,y,z
-x,-y,1/2+z
x,1/2-y,-z
-x,1/2+y,1/2-z
-x,-y,-z
x,y,1/2-z
-x,1/2+y,z
x,1/2-y,1/2+z
loop_
_atom_site_type_symbol
_atom_site_label
_atom_site_fract_x
_atom_site_fract_y
_atom_site_fract_z
Si Si1 0.689121 0.841291 0.582107
Si Si2 0.528581 0.142901 0.934029
Si Si3 0.422134 0.972473 0.663615
Si Si4 0.894446 0.407237 0.965025
O O1 0.604515 0.891458 0.505973
O O2 0.568148 0.743536 0.584515
O O3 0.614798 0.903630 0.651288
O O4 0.929684 0.839607 0.568055
O O5 0.495830 0.073287 0.865295
O O6 0.755991 0.139508 0.969048
O O7 0.354195 0.973577 0.750000
O O8 0.248713 0.936517 0.605564
O O9 0.000000 0.500000 0.000000
#
# Coordination Sequence:
#
# PCOD9438855 Si02
#       4
#     8   8   8   8
#     4  10  21  38  65  91 122 161 212 262 306 370
#     4  10  21  38  65  94 118 162 212 265 306 370
#     4  11  23  39  58  92 133 163 200 259 319 373
#     4  11  19  41  68  88 119 166 218 251 309 375
#
# _framework density 19.337060999999999
#
# number of rings (size 3 to 8) (size 9 to 14) (size 15 to 20)
#    0.000    1.500    5.000    1.500    0.000   10.000 
#    0.000    0.000    0.000    0.000    0.000    0.000 
#    0.000    0.000    0.000    0.000    0.000    0.000 
#
# Total GULP energy -178442.034007 kJ/mol
# GULP energy per Si atom -5576.313563 kJ/mol
# Density = 1.929305 g / cm^3
# Si number density = 19.337061 Si / 1000 Ang^3
#
#
#
# Elastic Constant Matrix: (Units=GPa)
#
#
# Indices 1 2 3 4 5 6 
#
# 1 132.5715 62.7316 26.6257 0.0000 0.0000 0.0000
# 2 62.7316 118.9491 42.5424 0.0000 0.0000 0.0000
# 3 26.6257 42.5424 102.3092 0.0000 0.0000 0.0000
# 4 0.0000 0.0000 0.0000 3.1415 0.0000 0.0000
# 5 0.0000 0.0000 0.0000 0.0000 19.1272 0.0000
# 6 0.0000 0.0000 0.0000 0.0000 0.0000 30.0718
#
#
#
# Elastic Compliance Matrix: (Units=1/GPa)
#
#
# Indices 1 2 3 4 5 6 
#
# 1 0.010072 -0.005138 -0.000484 0.000000 0.000000 0.000000
# 2 -0.005138 0.012497 -0.003859 0.000000 0.000000 0.000000
# 3 -0.000484 -0.003859 0.011505 0.000000 0.000000 0.000000
# 4 0.000000 0.000000 0.000000 0.318317 0.000000 0.000000
# 5 0.000000 0.000000 0.000000 0.000000 0.052282 0.000000
# 6 0.000000 0.000000 0.000000 0.000000 0.000000 0.033254
#
#
# Mechanical properties :
#
#
# Convention : Reuss Voigt Hill
#
# Bulk Modulus (GPa) = 66.18279 68.62549 67.40414
# Shear Modulus (GPa) = 10.82421 25.26345 18.04383
#
# Velocity S-wave (km/s) = 2.36850 3.61845 3.05802
# Velocity P-wave (km/s) = 6.46374 7.28174 6.88490
#
# Compressibility (1/GPa) = 0.01510967
#
# Stress axis : x y z
#
# Youngs Moduli (GPa) = 99.28639 80.01805 86.91740
#
# Poissons Ratio (x) = 0.41117 0.04211
# Poissons Ratio (y) = 0.51018 0.33544
# Poissons Ratio (z) = 0.04810 0.30882
#
# Static dielectric constant tensor:
#      x y z
#    x 1.742510 0.000000 0.000000 
#    y 0.000000 1.741730 0.000000 
#    z 0.000000 0.000000 1.653500 
# 
# From -- ./inp_files/19839.got.cif
#   From: 2010.05.17/outbox.cif.g08.bks.cpg/sg57_10_cif.got.tgz:19839.got - 2010.06.03 13:58:18.
