data_PCOD9438529
_publ_section_title
;
Structure prediction by ZEFSAII (Michael W. Deem and Ramdas Pophale) SiO2 
 PCOD9438529
Probable space group: P B C M
;
_chemical_formula_sum "Si O2"
_cell_formula_units_Z 40
_cell_length_a 21.514883
_cell_length_b 5.141625
_cell_length_c 15.583604
_cell_angle_alpha 90.000000
_cell_angle_beta 90.000000
_cell_angle_gamma 90.000000
_cell_volume 1723.881031
_symmetry_space_group_name_H-M "P B C M"
_symmetry_group_IT_number 57
_symmetry_cell_setting 'orthorhombic'
loop_
_space_group_symop_operation_xyz
x,y,z
-x,-y,1/2+z
x,1/2-y,-z
-x,1/2+y,1/2-z
-x,-y,-z
x,y,1/2-z
-x,1/2+y,z
x,1/2-y,1/2+z
loop_
_atom_site_type_symbol
_atom_site_label
_atom_site_fract_x
_atom_site_fract_y
_atom_site_fract_z
Si Si1 0.764070 0.221039 0.103440
Si Si2 0.374134 0.896927 0.654622
Si Si3 0.034499 0.010243 0.353560
Si Si4 0.456955 0.750000 0.500000
Si Si5 0.454855 0.243806 0.750000
Si Si6 0.169787 0.276749 0.602651
O O1 0.697225 0.107301 0.127854
O O2 0.781171 0.508314 0.135809
O O3 0.814666 0.011251 0.135198
O O4 0.765786 0.250000 0.000000
O O5 0.376459 0.776243 0.750000
O O6 0.413653 0.753835 0.583271
O O7 0.408915 0.174826 0.670362
O O8 0.032481 0.003364 0.250000
O O9 0.101895 0.113491 0.378657
O O10 0.984281 0.223968 0.384343
O O11 0.500000 0.500000 0.500000
O O12 0.505303 0.004654 0.750000
O O13 0.176050 0.250000 0.500000
#
# Coordination Sequence:
#
# PCOD9438529 Si02
#       6
#     8   8   8   4   4   8
#     4  10  21  41  57  87 121 158 201 252 307 362
#     4  10  24  43  66  95 125 168 211 261 314 382
#     4  10  21  37  57  85 119 155 196 247 301 358
#     4  12  26  44  68  94 128 168 206 262 324 372
#     4  10  22  40  60  88 122 152 200 254 298 368
#     4  10  22  37  62  86 120 159 201 250 301 362
#
# _framework density 23.203455000000002
#
# number of rings (size 3 to 8) (size 9 to 14) (size 15 to 20)
#    0.600    1.200    1.000    2.400    0.000    5.600 
#    0.000    0.000    0.000    0.000    0.000    0.000 
#    0.000    0.000    0.000    0.000    0.000    0.000 
#
# Total GULP energy -223523.508700 kJ/mol
# GULP energy per Si atom -5588.087718 kJ/mol
# Density = 2.315064 g / cm^3
# Si number density = 23.203455 Si / 1000 Ang^3
#
#
#
# Elastic Constant Matrix: (Units=GPa)
#
#
# Indices 1 2 3 4 5 6 
#
# 1 74.4419 0.0260 -18.7460 0.0000 0.0000 0.0000
# 2 0.0260 87.1532 7.3699 0.0000 0.0000 0.0000
# 3 -18.7460 7.3699 55.3399 0.0000 0.0000 0.0000
# 4 0.0000 0.0000 0.0000 4.8933 0.0000 0.0000
# 5 0.0000 0.0000 0.0000 0.0000 25.3697 0.0000
# 6 0.0000 0.0000 0.0000 0.0000 0.0000 15.7976
#
#
#
# Elastic Compliance Matrix: (Units=1/GPa)
#
#
# Indices 1 2 3 4 5 6 
#
# 1 0.014702 -0.000430 0.005038 0.000000 0.000000 0.000000
# 2 -0.000430 0.011617 -0.001693 0.000000 0.000000 0.000000
# 3 0.005038 -0.001693 0.020002 0.000000 0.000000 0.000000
# 4 0.000000 0.000000 0.000000 0.204362 0.000000 0.000000
# 5 0.000000 0.000000 0.000000 0.000000 0.039417 0.000000
# 6 0.000000 0.000000 0.000000 0.000000 0.000000 0.063301
#
#
# Mechanical properties :
#
#
# Convention : Reuss Voigt Hill
#
# Bulk Modulus (GPa) = 19.17554 21.58166 20.37860
# Shear Modulus (GPa) = 13.70028 24.43112 19.06570
#
# Velocity S-wave (km/s) = 2.43254 3.24838 2.86960
# Velocity P-wave (km/s) = 4.02140 4.83637 4.44759
#
# Compressibility (1/GPa) = 0.05214976
#
# Stress axis : x y z
#
# Youngs Moduli (GPa) = 68.01796 86.07829 49.99496
#
# Poissons Ratio (x) = 0.03705 -0.25185
# Poissons Ratio (y) = 0.02927 0.08464
# Poissons Ratio (z) = -0.34264 0.14572
#
# Static dielectric constant tensor:
#      x y z
#    x 1.845430 0.000000 0.000000 
#    y 0.000000 1.902870 0.000000 
#    z 0.000000 0.000000 1.887980 
# 
# From -- ./inp_files/22991.got.cif
#   From: 2010.05.17/outbox.cif.g08.bks.cpg/sg57_12_cif.got.tgz:22991.got - 2010.06.03 13:58:18.
