data_PCOD9438003
_publ_section_title
;
Structure prediction by ZEFSAII (Michael W. Deem and Ramdas Pophale) SiO2 
 PCOD9438003
Probable space group: P B C M
;
_chemical_formula_sum "Si O2"
_cell_formula_units_Z 48
_cell_length_a 30.947175
_cell_length_b 9.674006
_cell_length_c 8.673848
_cell_angle_alpha 90.000000
_cell_angle_beta 90.000000
_cell_angle_gamma 90.000000
_cell_volume 2596.803994
_symmetry_space_group_name_H-M "P B C M"
_symmetry_group_IT_number 57
_symmetry_cell_setting 'orthorhombic'
loop_
_space_group_symop_operation_xyz
x,y,z
-x,-y,1/2+z
x,1/2-y,-z
-x,1/2+y,1/2-z
-x,-y,-z
x,y,1/2-z
-x,1/2+y,z
x,1/2-y,1/2+z
loop_
_atom_site_type_symbol
_atom_site_label
_atom_site_fract_x
_atom_site_fract_y
_atom_site_fract_z
Si Si1 0.112192 0.901913 0.435881
Si Si2 0.364599 0.904410 0.935013
Si Si3 0.462987 0.903091 0.565835
Si Si4 0.710547 0.596238 0.064850
Si Si5 0.961356 0.905367 0.065162
Si Si6 0.787532 0.100779 0.935149
O O1 0.099806 0.750000 0.500000
O O2 0.108109 0.902156 0.250000
O O3 0.162538 0.924599 0.478604
O O4 0.082171 0.018955 0.508353
O O5 0.360729 0.901014 0.750000
O O6 0.413898 0.946627 0.975308
O O7 0.357640 0.750000 0.000000
O O8 0.329911 0.008094 0.004909
O O9 0.468911 0.750000 0.500000
O O10 0.465779 0.899681 0.750000
O O11 0.500000 0.000000 0.500000
O O12 0.709728 0.600008 0.250000
O O13 0.754154 0.516317 0.014372
O O14 0.709461 0.750000 0.000000
O O15 0.963283 0.901770 0.250000
O O16 0.964262 0.750000 0.000000
O O17 0.000000 0.000000 0.000000
O O18 0.786194 0.108276 0.750000
O O19 0.774404 0.250000 0.000000
#
# Coordination Sequence:
#
# PCOD9438003 Si02
#       6
#     8   8   8   8   8   8
#     4  10  20  38  61  88 119 152 190 234 281 334
#     4  10  21  38  59  83 110 145 186 230 277 333
#     4  10  21  37  58  83 112 145 184 227 277 332
#     4  11  23  38  56  82 114 150 189 234 283 333
#     4  12  25  42  62  87 117 153 193 236 285 338
#     4   9  20  37  59  85 114 149 190 231 278 334
#
# _framework density 18.484259000000002
#
# number of rings (size 3 to 8) (size 9 to 14) (size 15 to 20)
#    0.000    1.667    0.000    4.500    0.000    6.667 
#    0.000    1.667    0.000    0.000    0.000    0.000 
#    0.000    0.000    0.000    0.000    0.000    0.000 
#
# Total GULP energy -268268.857170 kJ/mol
# GULP energy per Si atom -5588.934524 kJ/mol
# Density = 1.844219 g / cm^3
# Si number density = 18.484259 Si / 1000 Ang^3
#
#
#
# Elastic Constant Matrix: (Units=GPa)
#
#
# Indices 1 2 3 4 5 6 
#
# 1 128.9164 114.9426 57.0054 0.0000 0.0000 0.0000
# 2 114.9426 167.6942 63.1177 0.0000 0.0000 0.0000
# 3 57.0054 63.1177 89.4501 0.0000 0.0000 0.0000
# 4 0.0000 0.0000 0.0000 38.5087 0.0000 0.0000
# 5 0.0000 0.0000 0.0000 0.0000 23.7173 0.0000
# 6 0.0000 0.0000 0.0000 0.0000 0.0000 37.8951
#
#
#
# Elastic Compliance Matrix: (Units=1/GPa)
#
#
# Indices 1 2 3 4 5 6 
#
# 1 0.021161 -0.012838 -0.004427 0.000000 0.000000 0.000000
# 2 -0.012838 0.015909 -0.003044 0.000000 0.000000 0.000000
# 3 -0.004427 -0.003044 0.016148 0.000000 0.000000 0.000000
# 4 0.000000 0.000000 0.000000 0.025968 0.000000 0.000000
# 5 0.000000 0.000000 0.000000 0.000000 0.042163 0.000000
# 6 0.000000 0.000000 0.000000 0.000000 0.000000 0.026389
#
#
# Mechanical properties :
#
#
# Convention : Reuss Voigt Hill
#
# Bulk Modulus (GPa) = 79.36260 95.13245 87.24753
# Shear Modulus (GPa) = 25.96651 30.09056 28.02854
#
# Velocity S-wave (km/s) = 3.75212 4.03910 3.89825
# Velocity P-wave (km/s) = 7.86128 8.56335 8.21981
#
# Compressibility (1/GPa) = 0.01260039
#
# Stress axis : x y z
#
# Youngs Moduli (GPa) = 47.25655 62.85915 61.92622
#
# Poissons Ratio (x) = 0.80700 0.27413
# Poissons Ratio (y) = 0.60669 0.18849
# Poissons Ratio (z) = 0.20919 0.19133
#
# Static dielectric constant tensor:
#      x y z
#    x 1.646820 0.000000 0.000000 
#    y 0.000000 1.588220 0.000000 
#    z 0.000000 0.000000 1.618640 
# 
# From -- ./inp_files/9919.got.cif
#   From: 2010.05.17/outbox.cif.g08.bks.cpg/sg57_5_cif.got.tgz:9919.got - 2010.06.03 13:58:18.
