data_PCOD9438589
_publ_section_title
;
Structure prediction by ZEFSAII (Michael W. Deem and Ramdas Pophale) SiO2 
 PCOD9438589
Probable space group: P B C M
;
_chemical_formula_sum "Si O2"
_cell_formula_units_Z 48
_cell_length_a 31.342821
_cell_length_b 9.534985
_cell_length_c 8.641720
_cell_angle_alpha 90.000000
_cell_angle_beta 90.000000
_cell_angle_gamma 90.000000
_cell_volume 2582.606782
_symmetry_space_group_name_H-M "P B C M"
_symmetry_group_IT_number 57
_symmetry_cell_setting 'orthorhombic'
loop_
_space_group_symop_operation_xyz
x,y,z
-x,-y,1/2+z
x,1/2-y,-z
-x,1/2+y,1/2-z
-x,-y,-z
x,y,1/2-z
-x,1/2+y,z
x,1/2-y,1/2+z
loop_
_atom_site_type_symbol
_atom_site_label
_atom_site_fract_x
_atom_site_fract_y
_atom_site_fract_z
Si Si1 0.130020 0.407325 0.435350
Si Si2 0.380767 0.405105 0.064514
Si Si3 0.712155 0.595435 0.435256
Si Si4 0.461284 0.907150 0.935808
Si Si5 0.793108 0.093104 0.563934
Si Si6 0.038368 0.092744 0.435576
O O1 0.137139 0.250000 0.500000
O O2 0.128219 0.402102 0.250000
O O3 0.167680 0.506934 0.492520
O O4 0.084404 0.456715 0.501913
O O5 0.378967 0.396671 0.250000
O O6 0.417214 0.515202 0.019757
O O7 0.391007 0.250000 0.000000
O O8 0.334130 0.444433 0.001315
O O9 0.722545 0.750000 0.500000
O O10 0.709323 0.604131 0.250000
O O11 0.749300 0.487333 0.477177
O O12 0.463737 0.903282 0.750000
O O13 0.463156 0.750000 0.000000
O O14 0.500000 0.000000 0.000000
O O15 0.792667 0.250000 0.500000
O O16 0.796955 0.094008 0.750000
O O17 0.033153 0.250000 0.500000
O O18 0.038558 0.093748 0.250000
O O19 0.000000 0.000000 0.500000
#
# Coordination Sequence:
#
# PCOD9438589 Si02
#       6
#     8   8   8   8   8   8
#     4  11  22  39  62  87 115 152 194 237 285 342
#     4  10  21  37  59  86 115 148 189 234 284 338
#     4  10  21  37  60  86 114 150 192 234 283 341
#     4  11  24  40  60  86 116 153 193 238 288 343
#     4  11  24  40  58  85 117 152 192 239 291 342
#     4  11  22  39  61  88 119 153 193 238 287 342
#
# _framework density 18.585872999999999
#
# number of rings (size 3 to 8) (size 9 to 14) (size 15 to 20)
#    0.000    1.333    0.000    8.000    0.000    9.333 
#    0.000    6.667    0.000    0.000    0.000    0.000 
#    0.000    0.000    0.000    0.000    0.000    0.000 
#
# Total GULP energy -268430.381050 kJ/mol
# GULP energy per Si atom -5592.299605 kJ/mol
# Density = 1.854357 g / cm^3
# Si number density = 18.585873 Si / 1000 Ang^3
#
#
#
# Elastic Constant Matrix: (Units=GPa)
#
#
# Indices 1 2 3 4 5 6 
#
# 1 180.8247 134.3973 81.2331 0.0000 0.0000 0.0000
# 2 134.3973 138.1695 65.6631 0.0000 0.0000 0.0000
# 3 81.2331 65.6631 125.6048 0.0000 0.0000 0.0000
# 4 0.0000 0.0000 0.0000 35.2083 0.0000 0.0000
# 5 0.0000 0.0000 0.0000 0.0000 27.4086 0.0000
# 6 0.0000 0.0000 0.0000 0.0000 0.0000 38.7985
#
#
#
# Elastic Compliance Matrix: (Units=1/GPa)
#
#
# Indices 1 2 3 4 5 6 
#
# 1 0.021321 -0.018875 -0.003921 0.000000 0.000000 0.000000
# 2 -0.018875 0.026340 -0.001563 0.000000 0.000000 0.000000
# 3 -0.003921 -0.001563 0.011315 0.000000 0.000000 0.000000
# 4 0.000000 0.000000 0.000000 0.028402 0.000000 0.000000
# 5 0.000000 0.000000 0.000000 0.000000 0.036485 0.000000
# 6 0.000000 0.000000 0.000000 0.000000 0.000000 0.025774
#
#
# Mechanical properties :
#
#
# Convention : Reuss Voigt Hill
#
# Bulk Modulus (GPa) = 97.49635 111.90954 104.70294
# Shear Modulus (GPa) = 24.78029 31.17011 27.97520
#
# Velocity S-wave (km/s) = 3.65538 4.09967 3.88388
# Velocity P-wave (km/s) = 8.38969 9.09684 8.75041
#
# Compressibility (1/GPa) = 0.01025679
#
# Stress axis : x y z
#
# Youngs Moduli (GPa) = 46.90306 37.96550 88.38168
#
# Poissons Ratio (x) = 0.71659 0.34659
# Poissons Ratio (y) = 0.88529 0.13811
# Poissons Ratio (z) = 0.18393 0.05933
#
# Static dielectric constant tensor:
#      x y z
#    x 1.632440 0.000000 0.000000 
#    y 0.000000 1.614070 0.000000 
#    z 0.000000 0.000000 1.622750 
# 
# From -- ./inp_files/10079.got.cif
#   From: 2010.05.17/outbox.cif.g08.bks.cpg/sg57_6_cif.got.tgz:10079.got - 2010.06.03 13:58:18.
