data_PCOD9438018
_publ_section_title
;
Structure prediction by ZEFSAII (Michael W. Deem and Ramdas Pophale) SiO2 
 PCOD9438018
Probable space group: P B C M
;
_chemical_formula_sum "Si O2"
_cell_formula_units_Z 40
_cell_length_a 8.850009
_cell_length_b 10.228857
_cell_length_c 22.856105
_cell_angle_alpha 90.000000
_cell_angle_beta 90.000000
_cell_angle_gamma 90.000000
_cell_volume 2069.059796
_symmetry_space_group_name_H-M "P B C M"
_symmetry_group_IT_number 57
_symmetry_cell_setting 'orthorhombic'
loop_
_space_group_symop_operation_xyz
x,y,z
-x,-y,1/2+z
x,1/2-y,-z
-x,1/2+y,1/2-z
-x,-y,-z
x,y,1/2-z
-x,1/2+y,z
x,1/2-y,1/2+z
loop_
_atom_site_type_symbol
_atom_site_label
_atom_site_fract_x
_atom_site_fract_y
_atom_site_fract_z
Si Si1 0.643566 0.554653 0.313984
Si Si2 0.585754 0.837848 0.350297
Si Si3 0.657503 0.237557 0.439056
Si Si4 0.158204 0.990975 0.429457
Si Si5 0.194417 0.040994 0.940148
O O1 0.705469 0.512473 0.250000
O O2 0.621937 0.711038 0.311934
O O3 0.487883 0.470089 0.322954
O O4 0.750518 0.530471 0.370977
O O5 0.448295 0.784230 0.388562
O O6 0.725279 0.863704 0.394317
O O7 0.569580 0.250000 0.500000
O O8 0.793383 0.341218 0.442959
O O9 0.712195 0.092053 0.432165
O O10 0.197776 0.069560 0.489636
O O11 0.978363 0.989403 0.423368
#
# Coordination Sequence:
#
# PCOD9438018 Si02
#       5
#     8   8   8   8   8
#     4  11  24  42  60  87 122 162 207 248 297 358
#     4  11  22  38  66  87 118 159 202 253 299 352
#     4   9  19  34  55  91 122 148 193 243 305 362
#     4   9  22  37  62  88 125 158 193 252 306 368
#     4  10  20  38  61  95 120 152 198 251 318 357
#
# _framework density 19.332453000000001
#
# number of rings (size 3 to 8) (size 9 to 14) (size 15 to 20)
#    0.000    2.000    2.000    0.600    5.600    2.400 
#    0.000    2.000    0.000    0.000    0.000    0.000 
#    0.000    0.000    0.000    0.000    0.000    0.000 
#
# Total GULP energy -222709.899195 kJ/mol
# GULP energy per Si atom -5567.747480 kJ/mol
# Density = 1.928845 g / cm^3
# Si number density = 19.332453 Si / 1000 Ang^3
#
#
#
# Elastic Constant Matrix: (Units=GPa)
#
#
# Indices 1 2 3 4 5 6 
#
# 1 63.1530 11.3603 42.4551 0.0000 0.0000 0.0000
# 2 11.3603 70.9101 43.0352 0.0000 0.0000 0.0000
# 3 42.4551 43.0352 135.7612 0.0000 0.0000 0.0000
# 4 0.0000 0.0000 0.0000 16.2100 0.0000 0.0000
# 5 0.0000 0.0000 0.0000 0.0000 11.1873 0.0000
# 6 0.0000 0.0000 0.0000 0.0000 0.0000 -25.6654
#
#
#
# Elastic Compliance Matrix: (Units=1/GPa)
#
#
# Indices 1 2 3 4 5 6 
#
# 1 0.020080 0.000736 -0.006513 0.000000 0.000000 0.000000
# 2 0.000736 0.017489 -0.005774 0.000000 0.000000 0.000000
# 3 -0.006513 -0.005774 0.011233 0.000000 0.000000 0.000000
# 4 0.000000 0.000000 0.000000 0.061690 0.000000 0.000000
# 5 0.000000 0.000000 0.000000 0.000000 0.089387 0.000000
# 6 0.000000 0.000000 0.000000 0.000000 0.000000 -0.038963
#
#
# Mechanical properties :
#
#
# Convention : Reuss Voigt Hill
#
# Bulk Modulus (GPa) = 38.91059 51.50282 45.20671
# Shear Modulus (GPa) = 25.96259 11.87797 18.92028
#
# Velocity S-wave (km/s) = 3.66861 2.48141 3.13178
# Velocity P-wave (km/s) = 6.17379 5.90832 6.04252
#
# Compressibility (1/GPa) = 0.02569994
#
# Stress axis : x y z
#
# Youngs Moduli (GPa) = 49.79968 57.18013 89.02549
#
# Poissons Ratio (x) = -0.04206 0.57979
# Poissons Ratio (y) = -0.03663 0.51401
# Poissons Ratio (z) = 0.32433 0.33014
#
# Static dielectric constant tensor:
#      x y z
#    x 1.660460 0.000000 0.000000 
#    y 0.000000 1.725210 0.000000 
#    z 0.000000 0.000000 1.751760 
# 
# From -- ./inp_files/24129.got.cif
#   From: 2010.05.17/outbox.cif.g08.bks.cpg/sg57_13_cif.got.tgz:24129.got - 2010.06.03 13:58:18.
