data_PCOD9438541
_publ_section_title
;
Structure prediction by ZEFSAII (Michael W. Deem and Ramdas Pophale) SiO2 
 PCOD9438541
Probable space group: P B C M
;
_chemical_formula_sum "Si O2"
_cell_formula_units_Z 48
_cell_length_a 31.015352
_cell_length_b 9.701916
_cell_length_c 8.738267
_cell_angle_alpha 90.000000
_cell_angle_beta 90.000000
_cell_angle_gamma 90.000000
_cell_volume 2629.417416
_symmetry_space_group_name_H-M "P B C M"
_symmetry_group_IT_number 57
_symmetry_cell_setting 'orthorhombic'
loop_
_space_group_symop_operation_xyz
x,y,z
-x,-y,1/2+z
x,1/2-y,-z
-x,1/2+y,1/2-z
-x,-y,-z
x,y,1/2-z
-x,1/2+y,z
x,1/2-y,1/2+z
loop_
_atom_site_type_symbol
_atom_site_label
_atom_site_fract_x
_atom_site_fract_y
_atom_site_fract_z
Si Si1 0.208795 0.902969 0.066119
Si Si2 0.714182 0.898606 0.565632
Si Si3 0.537824 0.403973 0.065676
Si Si4 0.963740 0.598140 0.567306
Si Si5 0.865060 0.596698 0.933550
Si Si6 0.615267 0.601157 0.434161
O O1 0.207289 0.898205 0.250000
O O2 0.252278 0.984224 0.018884
O O3 0.208204 0.750000 0.000000
O O4 0.168709 0.991178 0.004465
O O5 0.727291 0.750000 0.500000
O O6 0.714709 0.890354 0.750000
O O7 0.664718 0.925188 0.516771
O O8 0.534865 0.398950 0.250000
O O9 0.582487 0.480517 0.022032
O O10 0.535365 0.250000 0.000000
O O11 0.500000 0.500000 0.000000
O O12 0.969807 0.750000 0.500000
O O13 0.967241 0.602366 0.750000
O O14 0.914503 0.555813 0.529123
O O15 0.000000 0.500000 0.500000
O O16 0.860531 0.601038 0.750000
O O17 0.857863 0.750000 0.000000
O O18 0.601862 0.750000 0.500000
O O19 0.614698 0.611240 0.250000
#
# Coordination Sequence:
#
# PCOD9438541 Si02
#       6
#     8   8   8   8   8   8
#     4  11  23  37  55  80 111 145 182 227 275 322
#     4   9  19  36  57  81 108 141 181 222 268 323
#     4  11  23  38  57  81 111 146 184 227 275 326
#     4  10  21  37  58  83 111 144 181 223 270 322
#     4  10  21  38  59  82 109 143 183 224 269 323
#     4   9  19  36  57  81 109 141 179 223 270 322
#
# _framework density 18.254995000000001
#
# number of rings (size 3 to 8) (size 9 to 14) (size 15 to 20)
#    0.000    2.000    0.000    3.000    0.000    8.667 
#    0.000    0.000    0.000    0.000    0.000    0.000 
#    0.000    0.000    0.000    0.000    0.000    0.000 
#
# Total GULP energy -268098.603181 kJ/mol
# GULP energy per Si atom -5585.387566 kJ/mol
# Density = 1.821345 g / cm^3
# Si number density = 18.254995 Si / 1000 Ang^3
#
#
#
# Elastic Constant Matrix: (Units=GPa)
#
#
# Indices 1 2 3 4 5 6 
#
# 1 132.9993 120.3897 53.3753 0.0000 0.0000 0.0000
# 2 120.3897 172.1428 54.2876 0.0000 0.0000 0.0000
# 3 53.3753 54.2876 48.9826 0.0000 0.0000 0.0000
# 4 0.0000 0.0000 0.0000 37.5788 0.0000 0.0000
# 5 0.0000 0.0000 0.0000 0.0000 26.2066 0.0000
# 6 0.0000 0.0000 0.0000 0.0000 0.0000 37.5051
#
#
#
# Elastic Compliance Matrix: (Units=1/GPa)
#
#
# Indices 1 2 3 4 5 6 
#
# 1 0.024183 -0.013224 -0.011695 0.000000 0.000000 0.000000
# 2 -0.013224 0.016162 -0.003502 0.000000 0.000000 0.000000
# 3 -0.011695 -0.003502 0.037041 0.000000 0.000000 0.000000
# 4 0.000000 0.000000 0.000000 0.026611 0.000000 0.000000
# 5 0.000000 0.000000 0.000000 0.000000 0.038158 0.000000
# 6 0.000000 0.000000 0.000000 0.000000 0.000000 0.026663
#
#
# Mechanical properties :
#
#
# Convention : Reuss Voigt Hill
#
# Bulk Modulus (GPa) = 48.67932 90.02552 69.35242
# Shear Modulus (GPa) = 21.50460 28.66291 25.08376
#
# Velocity S-wave (km/s) = 3.43594 3.96680 3.71088
# Velocity P-wave (km/s) = 6.51653 8.39067 7.51227
#
# Compressibility (1/GPa) = 0.02054260
#
# Stress axis : x y z
#
# Youngs Moduli (GPa) = 41.35188 61.87285 26.99725
#
# Poissons Ratio (x) = 0.81822 0.31573
# Poissons Ratio (y) = 0.54685 0.09456
# Poissons Ratio (z) = 0.48360 0.21670
#
# Static dielectric constant tensor:
#      x y z
#    x 1.640010 0.000000 0.000000 
#    y 0.000000 1.576640 0.000000 
#    z 0.000000 0.000000 1.613550 
# 
# From -- ./inp_files/9965.got.cif
#   From: 2010.05.17/outbox.cif.g08.bks.cpg/sg57_5_cif.got.tgz:9965.got - 2010.06.03 13:58:18.
