data_PCOD9438188
_publ_section_title
;
Structure prediction by ZEFSAII (Michael W. Deem and Ramdas Pophale) SiO2 
 PCOD9438188
Probable space group: P B C M
;
_chemical_formula_sum "Si O2"
_cell_formula_units_Z 40
_cell_length_a 7.796721
_cell_length_b 15.125038
_cell_length_c 13.552671
_cell_angle_alpha 90.000000
_cell_angle_beta 90.000000
_cell_angle_gamma 90.000000
_cell_volume 1598.208234
_symmetry_space_group_name_H-M "P B C M"
_symmetry_group_IT_number 57
_symmetry_cell_setting 'orthorhombic'
loop_
_space_group_symop_operation_xyz
x,y,z
-x,-y,1/2+z
x,1/2-y,-z
-x,1/2+y,1/2-z
-x,-y,-z
x,y,1/2-z
-x,1/2+y,z
x,1/2-y,1/2+z
loop_
_atom_site_type_symbol
_atom_site_label
_atom_site_fract_x
_atom_site_fract_y
_atom_site_fract_z
Si Si1 0.162356 0.105137 0.368753
Si Si2 0.468558 0.890266 0.943447
Si Si3 0.832478 0.513282 0.868988
Si Si4 0.039303 0.298360 0.369360
Si Si5 0.364820 0.698610 0.864958
O O1 0.175671 0.106933 0.250000
O O2 0.112562 0.204292 0.402019
O O3 0.345889 0.078748 0.409615
O O4 0.008683 0.038632 0.391818
O O5 0.677299 0.040725 0.085025
O O6 0.459148 0.864463 0.058281
O O7 0.427499 0.798429 0.885452
O O8 0.810951 0.511743 0.750000
O O9 0.859931 0.614363 0.900941
O O10 0.048398 0.297522 0.250000
O O11 0.837176 0.305371 0.391375
O O12 0.389046 0.676105 0.750000
#
# Coordination Sequence:
#
# PCOD9438188 Si02
#       5
#     8   8   8   8   8
#     4  10  20  39  67 100 139 179 226 279 338 408
#     4  11  22  39  68  99 130 179 225 280 342 400
#     4  10  20  39  67 101 143 181 225 279 335 404
#     4   9  19  39  68  99 138 186 222 276 346 398
#     4  10  21  42  66  93 132 175 226 281 340 399
#
# _framework density 25.028027999999999
#
# number of rings (size 3 to 8) (size 9 to 14) (size 15 to 20)
#    0.000    2.000    2.000    1.800    0.000    0.800 
#   10.800    1.000    0.000    0.000    0.000    0.000 
#    0.000    0.000    0.000    0.000    0.000    0.000 
#
# Total GULP energy -224672.840811 kJ/mol
# GULP energy per Si atom -5616.821020 kJ/mol
# Density = 2.497106 g / cm^3
# Si number density = 25.028028 Si / 1000 Ang^3
#
#
#
# Elastic Constant Matrix: (Units=GPa)
#
#
# Indices 1 2 3 4 5 6 
#
# 1 192.0068 80.1447 56.0028 0.0000 0.0000 0.0000
# 2 80.1447 159.7326 62.9785 0.0000 0.0000 0.0000
# 3 56.0028 62.9785 152.4316 0.0000 0.0000 0.0000
# 4 0.0000 0.0000 0.0000 37.1002 0.0000 0.0000
# 5 0.0000 0.0000 0.0000 0.0000 32.4925 0.0000
# 6 0.0000 0.0000 0.0000 0.0000 0.0000 14.9778
#
#
#
# Elastic Compliance Matrix: (Units=1/GPa)
#
#
# Indices 1 2 3 4 5 6 
#
# 1 0.006797 -0.002898 -0.001300 0.000000 0.000000 0.000000
# 2 -0.002898 0.008714 -0.002536 0.000000 0.000000 0.000000
# 3 -0.001300 -0.002536 0.008086 0.000000 0.000000 0.000000
# 4 0.000000 0.000000 0.000000 0.026954 0.000000 0.000000
# 5 0.000000 0.000000 0.000000 0.000000 0.030776 0.000000
# 6 0.000000 0.000000 0.000000 0.000000 0.000000 0.066765
#
#
# Mechanical properties :
#
#
# Convention : Reuss Voigt Hill
#
# Bulk Modulus (GPa) = 98.71842 100.26922 99.49382
# Shear Modulus (GPa) = 30.31485 37.25043 33.78264
#
# Velocity S-wave (km/s) = 3.48406 3.86210 3.67794
# Velocity P-wave (km/s) = 7.46416 7.74839 7.60760
#
# Compressibility (1/GPa) = 0.01012982
#
# Stress axis : x y z
#
# Youngs Moduli (GPa) = 147.12749 114.75586 123.67739
#
# Poissons Ratio (x) = 0.33253 0.16077
# Poissons Ratio (y) = 0.42634 0.31361
# Poissons Ratio (z) = 0.19125 0.29099
#
# Static dielectric constant tensor:
#      x y z
#    x 1.899210 0.000000 0.000000 
#    y 0.000000 1.940950 0.000000 
#    z 0.000000 0.000000 2.007250 
# 
# From -- ./inp_files/15913.got.cif
#   From: 2010.05.17/outbox.cif.g08.bks.cpg/sg57_8_cif.got.tgz:15913.got - 2010.06.03 13:58:18.
