data_PCOD9438677
_publ_section_title
;
Structure prediction by ZEFSAII (Michael W. Deem and Ramdas Pophale) SiO2 
 PCOD9438677
Probable space group: P B C M
;
_chemical_formula_sum "Si O2"
_cell_formula_units_Z 56
_cell_length_a 9.394031
_cell_length_b 14.172890
_cell_length_c 22.317357
_cell_angle_alpha 90.000000
_cell_angle_beta 90.000000
_cell_angle_gamma 90.000000
_cell_volume 2971.345588
_symmetry_space_group_name_H-M "P B C M"
_symmetry_group_IT_number 57
_symmetry_cell_setting 'orthorhombic'
loop_
_space_group_symop_operation_xyz
x,y,z
-x,-y,1/2+z
x,1/2-y,-z
-x,1/2+y,1/2-z
-x,-y,-z
x,y,1/2-z
-x,1/2+y,z
x,1/2-y,1/2+z
loop_
_atom_site_type_symbol
_atom_site_label
_atom_site_fract_x
_atom_site_fract_y
_atom_site_fract_z
Si Si1 0.234894 0.745116 0.821915
Si Si2 0.484654 0.247692 0.098716
Si Si3 0.575867 0.899544 0.498058
Si Si4 0.016241 0.376179 0.128241
Si Si5 0.919524 0.599754 0.005276
Si Si6 0.017534 0.601354 0.136260
Si Si7 0.221856 0.275163 0.682826
O O1 0.249543 0.737717 0.750000
O O2 0.381131 0.743523 0.858172
O O3 0.134349 0.661805 0.847778
O O4 0.152696 0.842170 0.838862
O O5 0.450909 0.345154 0.064266
O O6 0.349711 0.218255 0.137373
O O7 0.495872 0.167247 0.048096
O O8 0.747229 0.906344 0.508069
O O9 0.500000 0.000000 0.500000
O O10 0.032281 0.488627 0.135989
O O11 0.130914 0.317453 0.165988
O O12 0.040512 0.352251 0.057819
O O13 0.979541 0.636016 0.068604
O O14 0.000000 0.500000 0.000000
O O15 0.884576 0.636979 0.175222
O O16 0.275019 0.268793 0.750000
#
# Coordination Sequence:
#
# PCOD9438677 Si02
#       7
#     8   8   8   8   8   8   8
#     4  11  26  42  60  91 127 167 215 255 300 370
#     4  11  25  41  64  91 128 165 201 255 312 374
#     4  11  25  43  66  96 128 159 203 253 316 378
#     4  10  22  40  65  91 124 159 208 262 311 360
#     4  10  21  37  67  97 121 152 202 260 314 372
#     4  10  22  40  65  91 124 159 208 262 311 360
#     4  11  22  39  62  88 122 169 208 250 302 363
#
# _framework density 18.846681
#
# number of rings (size 3 to 8) (size 9 to 14) (size 15 to 20)
#    0.000    1.429    2.857    2.143    8.000    5.714 
#    0.000    0.000    0.000    5.143    0.000    0.000 
#    0.000    0.000    0.000    0.000    0.000    0.000 
#
# Total GULP energy -312599.490810 kJ/mol
# GULP energy per Si atom -5582.133764 kJ/mol
# Density = 1.880379 g / cm^3
# Si number density = 18.846681 Si / 1000 Ang^3
#
#
#
# Elastic Constant Matrix: (Units=GPa)
#
#
# Indices 1 2 3 4 5 6 
#
# 1 70.1727 -16.6339 17.1214 0.0000 0.0000 0.0000
# 2 -16.6339 66.4826 2.8119 0.0000 0.0000 0.0000
# 3 17.1214 2.8119 113.6344 0.0000 0.0000 0.0000
# 4 0.0000 0.0000 0.0000 20.0561 0.0000 0.0000
# 5 0.0000 0.0000 0.0000 0.0000-2571.7745 0.0000
# 6 0.0000 0.0000 0.0000 0.0000 0.0000 10.4838
#
#
#
# Elastic Compliance Matrix: (Units=1/GPa)
#
#
# Indices 1 2 3 4 5 6 
#
# 1 0.015820 0.004063 -0.002484 0.000000 0.000000 0.000000
# 2 0.004063 0.016101 -0.001011 0.000000 0.000000 0.000000
# 3 -0.002484 -0.001011 0.009199 0.000000 0.000000 0.000000
# 4 0.000000 0.000000 0.000000 0.049860 0.000000 0.000000
# 5 0.000000 0.000000 0.000000 0.000000 -0.000389 0.000000
# 6 0.000000 0.000000 0.000000 0.000000 0.000000 0.095385
#
#
# Mechanical properties :
#
#
# Convention : Reuss Voigt Hill
#
# Bulk Modulus (GPa) = 23.66474 28.54317 26.10396
# Shear Modulus (GPa) = 25.13503 -491.78090 -233.32293
#
# Velocity S-wave (km/s) = 3.65589 -16.17109 -11.13864
# Velocity P-wave (km/s) = 5.51402 18.26183 12.31036
#
# Compressibility (1/GPa) = 0.04225696
#
# Stress axis : x y z
#
# Youngs Moduli (GPa) = 63.21189 62.10843 108.70220
#
# Poissons Ratio (x) = -0.25236 0.27003
# Poissons Ratio (y) = -0.25684 0.10986
# Poissons Ratio (z) = 0.15703 0.06277
#
# Static dielectric constant tensor:
#      x y z
#    x 1.668590 0.000000 0.000000 
#    y 0.000000 1.594530 0.000000 
#    z 0.000000 0.000000 1.724800 
# 
# From -- ./inp_files/24444.got.cif
#   From: 2010.05.17/outbox.cif.g08.bks.cpg/sg57_13_cif.got.tgz:24444.got - 2010.06.03 13:58:18.
