data_PCOD9438539
_publ_section_title
;
Structure prediction by ZEFSAII (Michael W. Deem and Ramdas Pophale) SiO2 
 PCOD9438539
Probable space group: P B C M
;
_chemical_formula_sum "Si O2"
_cell_formula_units_Z 48
_cell_length_a 31.640806
_cell_length_b 9.386832
_cell_length_c 8.678867
_cell_angle_alpha 90.000000
_cell_angle_beta 90.000000
_cell_angle_gamma 90.000000
_cell_volume 2577.683646
_symmetry_space_group_name_H-M "P B C M"
_symmetry_group_IT_number 57
_symmetry_cell_setting 'orthorhombic'
loop_
_space_group_symop_operation_xyz
x,y,z
-x,-y,1/2+z
x,1/2-y,-z
-x,1/2+y,1/2-z
-x,-y,-z
x,y,1/2-z
-x,1/2+y,z
x,1/2-y,1/2+z
loop_
_atom_site_type_symbol
_atom_site_label
_atom_site_fract_x
_atom_site_fract_y
_atom_site_fract_z
Si Si1 0.038191 0.408943 0.434029
Si Si2 0.209368 0.908624 0.434182
Si Si3 0.377054 0.090658 0.435141
Si Si4 0.539114 0.410013 0.434604
Si Si5 0.867352 0.590174 0.564874
Si Si6 0.700358 0.410200 0.934567
O O1 0.035399 0.250000 0.500000
O O2 0.035223 0.403709 0.250000
O O3 0.085327 0.465241 0.473238
O O4 0.000000 0.500000 0.500000
O O5 0.203747 0.750000 0.500000
O O6 0.212102 0.905190 0.250000
O O7 0.254026 0.960508 0.503314
O O8 0.169958 0.000840 0.489624
O O9 0.381752 0.250000 0.500000
O O10 0.373260 0.096326 0.250000
O O11 0.417966 0.994834 0.474023
O O12 0.336270 0.013340 0.505932
O O13 0.539612 0.250000 0.500000
O O14 0.500000 0.500000 0.500000
O O15 0.535795 0.402747 0.250000
O O16 0.865136 0.750000 0.500000
O O17 0.862897 0.591175 0.750000
O O18 0.700815 0.403950 0.750000
O O19 0.693598 0.250000 0.000000
#
# Coordination Sequence:
#
# PCOD9438539 Si02
#       6
#     8   8   8   8   8   8
#     4  10  21  37  58  82 112 147 187 233 283 338
#     4  11  22  38  60  86 116 151 191 237 285 340
#     4  11  24  41  61  89 121 156 197 243 291 344
#     4  11  24  41  64  91 123 159 199 244 293 347
#     4  10  21  38  58  83 113 148 188 233 284 340
#     4  11  22  39  62  87 117 153 192 238 288 343
#
# _framework density 18.621369999999999
#
# number of rings (size 3 to 8) (size 9 to 14) (size 15 to 20)
#    0.000    1.333    0.000    7.000    0.000    8.667 
#    0.000    3.333    0.000    0.000    0.000    0.000 
#    0.000    0.000    0.000    0.000    0.000    0.000 
#
# Total GULP energy -268365.794651 kJ/mol
# GULP energy per Si atom -5590.954055 kJ/mol
# Density = 1.857899 g / cm^3
# Si number density = 18.621370 Si / 1000 Ang^3
#
#
#
# Elastic Constant Matrix: (Units=GPa)
#
#
# Indices 1 2 3 4 5 6 
#
# 1 212.1735 113.7133 96.3447 0.0000 0.0000 0.0000
# 2 113.7133 119.5779 62.2439 0.0000 0.0000 0.0000
# 3 96.3447 62.2439 130.4798 0.0000 0.0000 0.0000
# 4 0.0000 0.0000 0.0000 38.4576 0.0000 0.0000
# 5 0.0000 0.0000 0.0000 0.0000 33.9257 0.0000
# 6 0.0000 0.0000 0.0000 0.0000 0.0000 46.7014
#
#
#
# Elastic Compliance Matrix: (Units=1/GPa)
#
#
# Indices 1 2 3 4 5 6 
#
# 1 0.011116 -0.008379 -0.004211 0.000000 0.000000 0.000000
# 2 -0.008379 0.017441 -0.002133 0.000000 0.000000 0.000000
# 3 -0.004211 -0.002133 0.011791 0.000000 0.000000 0.000000
# 4 0.000000 0.000000 0.000000 0.026003 0.000000 0.000000
# 5 0.000000 0.000000 0.000000 0.000000 0.029476 0.000000
# 6 0.000000 0.000000 0.000000 0.000000 0.000000 0.021413
#
#
# Mechanical properties :
#
#
# Convention : Reuss Voigt Hill
#
# Bulk Modulus (GPa) = 91.72581 111.87056 101.79818
# Shear Modulus (GPa) = 33.26276 36.47890 34.87083
#
# Velocity S-wave (km/s) = 4.23101 4.43084 4.33208
# Velocity P-wave (km/s) = 8.55768 9.29426 8.93357
#
# Compressibility (1/GPa) = 0.01090206
#
# Stress axis : x y z
#
# Youngs Moduli (GPa) = 89.96318 57.33633 84.81182
#
# Poissons Ratio (x) = 0.48040 0.35712
# Poissons Ratio (y) = 0.75377 0.18093
# Poissons Ratio (z) = 0.37881 0.12231
#
# Static dielectric constant tensor:
#      x y z
#    x 1.641410 0.000000 0.000000 
#    y 0.000000 1.548870 0.000000 
#    z 0.000000 0.000000 1.620800 
# 
# From -- ./inp_files/10010.got.cif
#   From: 2010.05.17/outbox.cif.g08.bks.cpg/sg57_6_cif.got.tgz:10010.got - 2010.06.03 13:58:18.
