data_PCOD9438122
_publ_section_title
;
Structure prediction by ZEFSAII (Michael W. Deem and Ramdas Pophale) SiO2 
 PCOD9438122
Probable space group: P B C M
;
_chemical_formula_sum "Si O2"
_cell_formula_units_Z 40
_cell_length_a 23.347241
_cell_length_b 8.883139
_cell_length_c 10.053363
_cell_angle_alpha 90.000000
_cell_angle_beta 90.000000
_cell_angle_gamma 90.000000
_cell_volume 2085.035185
_symmetry_space_group_name_H-M "P B C M"
_symmetry_group_IT_number 57
_symmetry_cell_setting 'orthorhombic'
loop_
_space_group_symop_operation_xyz
x,y,z
-x,-y,1/2+z
x,1/2-y,-z
-x,1/2+y,1/2-z
-x,-y,-z
x,y,1/2-z
-x,1/2+y,z
x,1/2-y,1/2+z
loop_
_atom_site_type_symbol
_atom_site_label
_atom_site_fract_x
_atom_site_fract_y
_atom_site_fract_z
Si Si1 0.661739 0.429628 0.984375
Si Si2 0.062971 0.430715 0.994768
Si Si3 0.746083 0.110827 0.250000
Si Si4 0.855085 0.904872 0.750000
Si Si5 0.726575 0.467878 0.250000
Si Si6 0.545429 0.596931 0.587102
Si Si7 0.133303 0.456350 0.250000
O O1 0.712422 0.444759 0.878777
O O2 0.605876 0.511830 0.929581
O O3 0.649491 0.250000 0.000000
O O4 0.686682 0.494637 0.121738
O O5 0.106641 0.459881 0.873895
O O6 0.056431 0.250000 0.000000
O O7 0.095778 0.489529 0.122615
O O8 0.000000 0.500000 0.000000
O O9 0.741912 0.290775 0.250000
O O10 0.809431 0.050449 0.250000
O O11 0.854279 0.722845 0.750000
O O12 0.788588 0.953154 0.750000
O O13 0.548877 0.750000 0.500000
O O14 0.500000 0.500000 0.500000
O O15 0.533246 0.613170 0.750000
#
# Coordination Sequence:
#
# PCOD9438122 Si02
#       7
#     8   8   4   4   4   8   4
#     4  10  22  41  65  92 129 167 211 259 319 375
#     4  10  21  36  54  79 109 148 194 247 307 372
#     4  10  20  39  58  89 119 160 206 250 309 372
#     4  10  21  37  53  83 115 150 199 248 312 372
#     4  10  22  35  62  91 121 160 206 258 303 380
#     4  12  27  46  71 101 136 176 223 272 327 389
#     4  10  21  35  57  77 115 154 191 246 310 368
#
# _framework density 19.184329000000002
#
# number of rings (size 3 to 8) (size 9 to 14) (size 15 to 20)
#    0.000    1.600    1.000    3.000    2.800    3.200 
#    0.000    0.000    0.000    0.000    0.000    0.000 
#    0.000    0.000    0.000    0.000    0.000    0.000 
#
# Total GULP energy -223138.001569 kJ/mol
# GULP energy per Si atom -5578.450039 kJ/mol
# Density = 1.914066 g / cm^3
# Si number density = 19.184329 Si / 1000 Ang^3
#
#
#
# Elastic Constant Matrix: (Units=GPa)
#
#
# Indices 1 2 3 4 5 6 
#
# 1 127.8109 36.4152 47.8753 0.0000 0.0000 0.0000
# 2 36.4152 29.0809 28.2144 0.0000 0.0000 0.0000
# 3 47.8753 28.2144 170.5635 0.0000 0.0000 0.0000
# 4 0.0000 0.0000 0.0000 45.9284 0.0000 0.0000
# 5 0.0000 0.0000 0.0000 0.0000 -27.2634 0.0000
# 6 0.0000 0.0000 0.0000 0.0000 0.0000 41.4383
#
#
#
# Elastic Compliance Matrix: (Units=1/GPa)
#
#
# Indices 1 2 3 4 5 6 
#
# 1 0.012329 -0.014390 -0.001080 0.000000 0.000000 0.000000
# 2 -0.014390 0.057757 -0.005515 0.000000 0.000000 0.000000
# 3 -0.001080 -0.005515 0.007078 0.000000 0.000000 0.000000
# 4 0.000000 0.000000 0.000000 0.021773 0.000000 0.000000
# 5 0.000000 0.000000 0.000000 0.000000 -0.036679 0.000000
# 6 0.000000 0.000000 0.000000 0.000000 0.000000 0.024132
#
#
# Mechanical properties :
#
#
# Convention : Reuss Voigt Hill
#
# Bulk Modulus (GPa) = 28.41427 61.38500 44.89963
# Shear Modulus (GPa) = 35.69113 26.35069 31.02091
#
# Velocity S-wave (km/s) = 4.31795 3.71017 4.02555
# Velocity P-wave (km/s) = 6.30103 7.10076 6.71281
#
# Compressibility (1/GPa) = 0.03519359
#
# Stress axis : x y z
#
# Youngs Moduli (GPa) = 81.11239 17.31402 141.27545
#
# Poissons Ratio (x) = 0.24915 0.15260
# Poissons Ratio (y) = 1.16720 0.77912
# Poissons Ratio (z) = 0.08761 0.09549
#
# Static dielectric constant tensor:
#      x y z
#    x 1.631240 0.000000 0.000000 
#    y 0.000000 1.673990 0.000000 
#    z 0.000000 0.000000 1.683470 
# 
# From -- ./inp_files/9034.got.cif
#   From: 2010.05.17/outbox.cif.g08.bks.cpg/sg57_5_cif.got.tgz:9034.got - 2010.06.03 13:58:18.
