data_PCOD9438867
_publ_section_title
;
Structure prediction by ZEFSAII (Michael W. Deem and Ramdas Pophale) SiO2 
 PCOD9438867
Probable space group: P B C M
;
_chemical_formula_sum "Si O2"
_cell_formula_units_Z 56
_cell_length_a 15.378629
_cell_length_b 5.471238
_cell_length_c 25.684042
_cell_angle_alpha 90.000000
_cell_angle_beta 90.000000
_cell_angle_gamma 90.000000
_cell_volume 2161.058874
_symmetry_space_group_name_H-M "P B C M"
_symmetry_group_IT_number 57
_symmetry_cell_setting 'orthorhombic'
loop_
_space_group_symop_operation_xyz
x,y,z
-x,-y,1/2+z
x,1/2-y,-z
-x,1/2+y,1/2-z
-x,-y,-z
x,y,1/2-z
-x,1/2+y,z
x,1/2-y,1/2+z
loop_
_atom_site_type_symbol
_atom_site_label
_atom_site_fract_x
_atom_site_fract_y
_atom_site_fract_z
Si Si1 0.021904 0.275783 0.661058
Si Si2 0.725872 0.930714 0.451389
Si Si3 0.540328 0.960217 0.076201
Si Si4 0.192361 0.101092 0.381138
Si Si5 0.589220 0.846973 0.191609
Si Si6 0.903680 0.243895 0.443710
Si Si7 0.699208 0.157164 0.693631
O O1 0.966041 0.307779 0.606046
O O2 0.012344 0.535673 0.687467
O O3 0.124075 0.246972 0.651614
O O4 0.721477 0.750000 0.500000
O O5 0.634202 0.062331 0.443158
O O6 0.729710 0.760559 0.400794
O O7 0.817016 0.076583 0.450432
O O8 0.523554 0.679119 0.058564
O O9 0.536829 0.914525 0.139115
O O10 0.229185 0.871212 0.350691
O O11 0.137652 0.005424 0.429991
O O12 0.546435 0.849427 0.250000
O O13 0.654154 0.080605 0.192643
O O14 0.635527 0.580122 0.188419
O O15 0.948796 0.250000 0.500000
O O16 0.741751 0.127000 0.750000
#
# Coordination Sequence:
#
# PCOD9438867 Si02
#       7
#     8   8   8   8   8   8   8
#     4  10  22  37  58  94 132 168 209 267 330 378
#     4  12  25  43  66  92 127 175 230 266 329 398
#     4  12  28  45  68  95 132 171 215 272 329 393
#     4  11  22  39  65  92 134 175 214 270 327 393
#     4  10  21  41  69  99 130 161 209 271 333 394
#     4  11  23  38  64  95 132 173 222 278 332 393
#     4  10  21  38  67 100 129 170 217 263 320 393
#
# _framework density 25.913222000000001
#
# number of rings (size 3 to 8) (size 9 to 14) (size 15 to 20)
#    0.000    1.143    4.286    1.714    2.000    4.000 
#    0.000    0.000    0.000    3.429    0.000    0.000 
#    0.000    0.000    0.000    0.000    0.000    0.000 
#
# Total GULP energy -312738.719751 kJ/mol
# GULP energy per Si atom -5584.619996 kJ/mol
# Density = 2.585424 g / cm^3
# Si number density = 25.913222 Si / 1000 Ang^3
#
#
#
# Elastic Constant Matrix: (Units=GPa)
#
#
# Indices 1 2 3 4 5 6 
#
# 1 81.7017 26.1493 9.2650 0.0000 0.0000 0.0000
# 2 26.1493 121.1522 20.0509 0.0000 0.0000 0.0000
# 3 9.2650 20.0509 80.3916 0.0000 0.0000 0.0000
# 4 0.0000 0.0000 0.0000 16.8865 0.0000 0.0000
# 5 0.0000 0.0000 0.0000 0.0000 -32.5188 0.0000
# 6 0.0000 0.0000 0.0000 0.0000 0.0000 50.0281
#
#
#
# Elastic Compliance Matrix: (Units=1/GPa)
#
#
# Indices 1 2 3 4 5 6 
#
# 1 0.013203 -0.002710 -0.000846 0.000000 0.000000 0.000000
# 2 -0.002710 0.009166 -0.001974 0.000000 0.000000 0.000000
# 3 -0.000846 -0.001974 0.013029 0.000000 0.000000 0.000000
# 4 0.000000 0.000000 0.000000 0.059219 0.000000 0.000000
# 5 0.000000 0.000000 0.000000 0.000000 -0.030751 0.000000
# 6 0.000000 0.000000 0.000000 0.000000 0.000000 0.019989
#
#
# Mechanical properties :
#
#
# Convention : Reuss Voigt Hill
#
# Bulk Modulus (GPa) = 41.08656 43.79731 42.44194
# Shear Modulus (GPa) = 48.53201 22.06451 35.29826
#
# Velocity S-wave (km/s) = 4.33236 2.92117 3.69477
# Velocity P-wave (km/s) = 6.39653 5.32127 5.88352
#
# Compressibility (1/GPa) = 0.02433886
#
# Stress axis : x y z
#
# Youngs Moduli (GPa) = 75.74142 109.10363 76.75260
#
# Poissons Ratio (x) = 0.29564 0.06491
# Poissons Ratio (y) = 0.20524 0.15149
# Poissons Ratio (z) = 0.06406 0.21534
#
# Static dielectric constant tensor:
#      x y z
#    x 2.027720 0.000000 0.000000 
#    y 0.000000 2.076640 0.000000 
#    z 0.000000 0.000000 2.076880 
# 
# From -- ./inp_files/29853.got.cif
#   From: 2010.05.17/outbox.cif.g08.bks.cpg/sg57_15_cif.got.tgz:29853.got - 2010.06.03 13:58:18.
