data_PCOD9438510
_publ_section_title
;
Structure prediction by ZEFSAII (Michael W. Deem and Ramdas Pophale) SiO2 
 PCOD9438510
Probable space group: P B C M
;
_chemical_formula_sum "Si O2"
_cell_formula_units_Z 40
_cell_length_a 25.944014
_cell_length_b 9.695073
_cell_length_c 8.735794
_cell_angle_alpha 90.000000
_cell_angle_beta 90.000000
_cell_angle_gamma 90.000000
_cell_volume 2197.306487
_symmetry_space_group_name_H-M "P B C M"
_symmetry_group_IT_number 57
_symmetry_cell_setting 'orthorhombic'
loop_
_space_group_symop_operation_xyz
x,y,z
-x,-y,1/2+z
x,1/2-y,-z
-x,1/2+y,1/2-z
-x,-y,-z
x,y,1/2-z
-x,1/2+y,z
x,1/2-y,1/2+z
loop_
_atom_site_type_symbol
_atom_site_label
_atom_site_fract_x
_atom_site_fract_y
_atom_site_fract_z
Si Si1 0.633652 0.596802 0.566013
Si Si2 0.753643 0.599486 0.567699
Si Si3 0.454113 0.905190 0.066082
Si Si4 0.044163 0.903648 0.433350
Si Si5 0.160011 0.597117 0.932929
O O1 0.622098 0.750000 0.500000
O O2 0.626191 0.598271 0.750000
O O3 0.693792 0.566236 0.532682
O O4 0.597568 0.482760 0.489308
O O5 0.763828 0.750000 0.500000
O O6 0.758792 0.602600 0.750000
O O7 0.794530 0.495083 0.498420
O O8 0.456844 0.900525 0.250000
O O9 0.457082 0.750000 0.000000
O O10 0.500000 0.000000 0.000000
O O11 0.038829 0.750000 0.500000
O O12 0.040297 0.898345 0.250000
O O13 0.102175 0.953765 0.473366
O O14 0.000000 0.000000 0.500000
O O15 0.163500 0.602260 0.750000
O O16 0.164611 0.750000 0.000000
#
# Coordination Sequence:
#
# PCOD9438510 Si02
#       5
#     8   8   8   8   8
#     4  10  21  39  61  87 117 151 190 233 281 333
#     4  10  21  37  59  85 115 150 189 232 279 331
#     4  12  25  42  63  88 118 153 192 235 282 334
#     4  10  21  37  57  81 109 144 184 230 280 334
#     4  10  21  37  57  81 111 146 186 230 280 334
#
# _framework density 18.204104999999998
#
# number of rings (size 3 to 8) (size 9 to 14) (size 15 to 20)
#    0.000    1.600    0.000    4.800    0.000    6.400 
#    0.000    0.000    0.000    0.000    0.000    0.000 
#    0.000    0.000    0.000    0.000    0.000    0.000 
#
# Total GULP energy -223521.182803 kJ/mol
# GULP energy per Si atom -5588.029570 kJ/mol
# Density = 1.816267 g / cm^3
# Si number density = 18.204105 Si / 1000 Ang^3
#
#
#
# Elastic Constant Matrix: (Units=GPa)
#
#
# Indices 1 2 3 4 5 6 
#
# 1 146.7093 115.6312 82.2988 0.0000 0.0000 0.0000
# 2 115.6312 136.0838 74.0598 0.0000 0.0000 0.0000
# 3 82.2988 74.0598 113.6171 0.0000 0.0000 0.0000
# 4 0.0000 0.0000 0.0000 40.2445 0.0000 0.0000
# 5 0.0000 0.0000 0.0000 0.0000 35.7537 0.0000
# 6 0.0000 0.0000 0.0000 0.0000 0.0000 44.0084
#
#
#
# Elastic Compliance Matrix: (Units=1/GPa)
#
#
# Indices 1 2 3 4 5 6 
#
# 1 0.023074 -0.016288 -0.006096 0.000000 0.000000 0.000000
# 2 -0.016288 0.022886 -0.003120 0.000000 0.000000 0.000000
# 3 -0.006096 -0.003120 0.015251 0.000000 0.000000 0.000000
# 4 0.000000 0.000000 0.000000 0.024848 0.000000 0.000000
# 5 0.000000 0.000000 0.000000 0.000000 0.027969 0.000000
# 6 0.000000 0.000000 0.000000 0.000000 0.000000 0.022723
#
#
# Mechanical properties :
#
#
# Convention : Reuss Voigt Hill
#
# Bulk Modulus (GPa) = 98.01467 104.48774 101.25121
# Shear Modulus (GPa) = 26.15595 32.29602 29.22599
#
# Velocity S-wave (km/s) = 3.79465 4.21658 4.01117
# Velocity P-wave (km/s) = 8.55325 9.01269 8.78597
#
# Compressibility (1/GPa) = 0.01020255
#
# Stress axis : x y z
#
# Youngs Moduli (GPa) = 43.33917 43.69394 65.56948
#
# Poissons Ratio (x) = 0.71170 0.39973
# Poissons Ratio (y) = 0.70592 0.20457
# Poissons Ratio (z) = 0.26421 0.13632
#
# Static dielectric constant tensor:
#      x y z
#    x 1.634060 0.000000 0.000000 
#    y 0.000000 1.572840 0.000000 
#    z 0.000000 0.000000 1.605360 
# 
# From -- ./inp_files/8854.got.cif
#   From: 2010.05.17/outbox.cif.g08.bks.cpg/sg57_5_cif.got.tgz:8854.got - 2010.06.03 13:58:18.
