data_PCOD9438210
_publ_section_title
;
Structure prediction by ZEFSAII (Michael W. Deem and Ramdas Pophale) SiO2 
 PCOD9438210
Probable space group: P B C M
;
_chemical_formula_sum "Si O2"
_cell_formula_units_Z 40
_cell_length_a 20.599617
_cell_length_b 9.535698
_cell_length_c 10.465256
_cell_angle_alpha 90.000000
_cell_angle_beta 90.000000
_cell_angle_gamma 90.000000
_cell_volume 2055.708306
_symmetry_space_group_name_H-M "P B C M"
_symmetry_group_IT_number 57
_symmetry_cell_setting 'orthorhombic'
loop_
_space_group_symop_operation_xyz
x,y,z
-x,-y,1/2+z
x,1/2-y,-z
-x,1/2+y,1/2-z
-x,-y,-z
x,y,1/2-z
-x,1/2+y,z
x,1/2-y,1/2+z
loop_
_atom_site_type_symbol
_atom_site_label
_atom_site_fract_x
_atom_site_fract_y
_atom_site_fract_z
Si Si1 0.950103 0.132346 0.250000
Si Si2 0.460622 0.637738 0.887260
Si Si3 0.398612 0.413041 0.035331
Si Si4 0.853812 0.086211 0.482917
Si Si5 0.743189 0.625449 0.895327
Si Si6 0.079764 0.958777 0.250000
O O1 0.910836 0.084610 0.376498
O O2 0.949834 0.301212 0.250000
O O3 0.021563 0.069052 0.250000
O O4 0.449836 0.704559 0.750000
O O5 0.533297 0.572587 0.890151
O O6 0.455344 0.750000 0.000000
O O7 0.410029 0.513896 0.914966
O O8 0.329545 0.439015 0.098574
O O9 0.397287 0.250000 0.000000
O O10 0.835195 0.250000 0.500000
O O11 0.878730 0.031294 0.620037
O O12 0.795345 0.992108 0.431698
O O13 0.754265 0.676327 0.750000
O O14 0.747327 0.750000 0.000000
#
# Coordination Sequence:
#
# PCOD9438210 Si02
#       6
#     4   8   8   8   8   4
#     4  10  20  40  62  92 122 159 198 249 298 357
#     4  10  21  38  61  90 121 156 203 254 311 373
#     4   9  21  38  59  85 119 159 201 254 307 360
#     4  10  22  41  62  89 125 165 202 248 299 358
#     4  11  24  41  62  89 122 161 206 254 305 361
#     4  10  22  36  64  92 124 157 200 243 304 355
#
# _framework density 19.458015
#
# number of rings (size 3 to 8) (size 9 to 14) (size 15 to 20)
#    0.000    2.000    1.000    1.200    1.400   13.600 
#    0.000    0.000    0.000    0.000    0.000    0.000 
#    0.000    0.000    0.000    0.000    0.000    0.000 
#
# Total GULP energy -223137.442445 kJ/mol
# GULP energy per Si atom -5578.436061 kJ/mol
# Density = 1.941373 g / cm^3
# Si number density = 19.458015 Si / 1000 Ang^3
#
#
#
# Elastic Constant Matrix: (Units=GPa)
#
#
# Indices 1 2 3 4 5 6 
#
# 1 80.0983 43.4186 38.2197 0.0000 0.0000 0.0000
# 2 43.4186 51.5054 40.2131 0.0000 0.0000 0.0000
# 3 38.2197 40.2131 173.3777 0.0000 0.0000 0.0000
# 4 0.0000 0.0000 0.0000 25.0334 0.0000 0.0000
# 5 0.0000 0.0000 0.0000 0.0000 -0.7218 0.0000
# 6 0.0000 0.0000 0.0000 0.0000 0.0000 48.2742
#
#
#
# Elastic Compliance Matrix: (Units=1/GPa)
#
#
# Indices 1 2 3 4 5 6 
#
# 1 0.023060 -0.018891 -0.000702 0.000000 0.000000 0.000000
# 2 -0.018891 0.039185 -0.004924 0.000000 0.000000 0.000000
# 3 -0.000702 -0.004924 0.007065 0.000000 0.000000 0.000000
# 4 0.000000 0.000000 0.000000 0.039947 0.000000 0.000000
# 5 0.000000 0.000000 0.000000 0.000000 -1.385473 0.000000
# 6 0.000000 0.000000 0.000000 0.000000 0.000000 0.020715
#
#
# Mechanical properties :
#
#
# Convention : Reuss Voigt Hill
#
# Bulk Modulus (GPa) = 49.32136 60.96489 55.14312
# Shear Modulus (GPa) = -4.16768 26.72582 11.27907
#
# Velocity S-wave (km/s) = -1.46511 3.71011 2.41023
# Velocity P-wave (km/s) = 4.74769 7.05356 6.01221
#
# Compressibility (1/GPa) = 0.02027519
#
# Stress axis : x y z
#
# Youngs Moduli (GPa) = 43.36532 25.51973 141.55191
#
# Poissons Ratio (x) = 0.48210 0.09933
# Poissons Ratio (y) = 0.81923 0.69703
# Poissons Ratio (z) = 0.03043 0.12566
#
# Static dielectric constant tensor:
#      x y z
#    x 1.662680 0.000000 0.000000 
#    y 0.000000 1.672580 0.000000 
#    z 0.000000 0.000000 1.717290 
# 
# From -- ./inp_files/14052.got.cif
#   From: 2010.05.17/outbox.cif.g08.bks.cpg/sg57_8_cif.got.tgz:14052.got - 2010.06.03 13:58:18.
