data_PCOD9438634
_publ_section_title
;
Structure prediction by ZEFSAII (Michael W. Deem and Ramdas Pophale) SiO2 
 PCOD9438634
Probable space group: P B C M
;
_chemical_formula_sum "Si O2"
_cell_formula_units_Z 36
_cell_length_a 9.095642
_cell_length_b 21.286223
_cell_length_c 9.934269
_cell_angle_alpha 90.000000
_cell_angle_beta 90.000000
_cell_angle_gamma 90.000000
_cell_volume 1923.392338
_symmetry_space_group_name_H-M "P B C M"
_symmetry_group_IT_number 57
_symmetry_cell_setting 'orthorhombic'
loop_
_space_group_symop_operation_xyz
x,y,z
-x,-y,1/2+z
x,1/2-y,-z
-x,1/2+y,1/2-z
-x,-y,-z
x,y,1/2-z
-x,1/2+y,z
x,1/2-y,1/2+z
loop_
_atom_site_type_symbol
_atom_site_label
_atom_site_fract_x
_atom_site_fract_y
_atom_site_fract_z
Si Si1 0.557411 0.179770 0.477164
Si Si2 0.134114 0.963146 0.250000
Si Si3 0.394420 0.344002 0.250000
Si Si4 0.063556 0.397654 0.750000
Si Si5 0.199928 0.579359 0.047759
Si Si6 0.215686 0.470961 0.250000
Si Si7 0.682947 0.702870 0.250000
O O1 0.618213 0.250000 0.500000
O O2 0.495828 0.156639 0.618992
O O3 0.681326 0.133108 0.424869
O O4 0.418874 0.185740 0.377556
O O5 0.187372 0.932484 0.388706
O O6 0.957722 0.958204 0.250000
O O7 0.160624 0.038528 0.250000
O O8 0.298382 0.406014 0.250000
O O9 0.302116 0.278626 0.250000
O O10 0.168029 0.337211 0.750000
O O11 0.954297 0.402214 0.620601
O O12 0.247172 0.514843 0.121043
#
# Coordination Sequence:
#
# PCOD9438634 Si02
#       7
#     8   4   4   4   8   4   4
#     4  10  22  42  61  85 122 159 196 248 299 349
#     4  10  21  37  61  87 125 155 185 254 307 340
#     4  10  23  39  61  87 125 154 196 252 298 350
#     4  10  21  39  62  86 119 156 197 240 298 357
#     4  10  21  40  62  89 119 159 197 246 296 354
#     4  10  21  38  59  88 128 153 198 247 298 352
#     4  10  22  41  63  84 121 162 196 243 309 349
#
# _framework density 18.716930999999999
#
# number of rings (size 3 to 8) (size 9 to 14) (size 15 to 20)
#    0.000    2.222    0.000    4.667    6.222    0.889 
#    8.000    0.000    0.000    0.000    0.000    0.000 
#    0.000    0.000    0.000    0.000    0.000    0.000 
#
# Total GULP energy -200943.989969 kJ/mol
# GULP energy per Si atom -5581.777499 kJ/mol
# Density = 1.867433 g / cm^3
# Si number density = 18.716931 Si / 1000 Ang^3
#
#
#
# Elastic Constant Matrix: (Units=GPa)
#
#
# Indices 1 2 3 4 5 6 
#
# 1 58.4995 80.9815 25.5318 0.0000 0.0000 0.0000
# 2 80.9815 142.9104 38.8360 0.0000 0.0000 0.0000
# 3 25.5318 38.8360 139.8375 0.0000 0.0000 0.0000
# 4 0.0000 0.0000 0.0000 144.6745 0.0000 0.0000
# 5 0.0000 0.0000 0.0000 0.0000 24.0054 0.0000
# 6 0.0000 0.0000 0.0000 0.0000 0.0000 36.1441
#
#
#
# Elastic Compliance Matrix: (Units=1/GPa)
#
#
# Indices 1 2 3 4 5 6 
#
# 1 0.079907 -0.044688 -0.002179 0.000000 0.000000 0.000000
# 2 -0.044688 0.032560 -0.000884 0.000000 0.000000 0.000000
# 3 -0.002179 -0.000884 0.007794 0.000000 0.000000 0.000000
# 4 0.000000 0.000000 0.000000 0.006912 0.000000 0.000000
# 5 0.000000 0.000000 0.000000 0.000000 0.041657 0.000000
# 6 0.000000 0.000000 0.000000 0.000000 0.000000 0.027667
#
#
# Mechanical properties :
#
#
# Convention : Reuss Voigt Hill
#
# Bulk Modulus (GPa) = 40.38568 70.21623 55.30095
# Shear Modulus (GPa) = 16.65268 54.02469 35.33868
#
# Velocity S-wave (km/s) = 2.98604 5.37836 4.34989
# Velocity P-wave (km/s) = 5.78900 8.72727 7.40533
#
# Compressibility (1/GPa) = 0.02476125
#
# Stress axis : x y z
#
# Youngs Moduli (GPa) = 12.51455 30.71226 128.29846
#
# Poissons Ratio (x) = 1.37247 0.27953
# Poissons Ratio (y) = 0.55925 0.11335
# Poissons Ratio (z) = 0.02727 0.02713
#
# Static dielectric constant tensor:
#      x y z
#    x 1.613080 0.000000 0.000000 
#    y 0.000000 1.653710 0.000000 
#    z 0.000000 0.000000 1.658300 
# 
# From -- ./inp_files/1388.got.cif
#   From: 2010.05.17/outbox.cif.g08.bks.cpg/sg57_1_cif.got.tgz:1388.got - 2010.06.03 13:58:18.
