data_PCOD9438209
_publ_section_title
;
Structure prediction by ZEFSAII (Michael W. Deem and Ramdas Pophale) SiO2 
 PCOD9438209
Probable space group: P B C M
;
_chemical_formula_sum "Si O2"
_cell_formula_units_Z 36
_cell_length_a 19.117571
_cell_length_b 9.134016
_cell_length_c 9.753028
_cell_angle_alpha 90.000000
_cell_angle_beta 90.000000
_cell_angle_gamma 90.000000
_cell_volume 1703.075694
_symmetry_space_group_name_H-M "P B C M"
_symmetry_group_IT_number 57
_symmetry_cell_setting 'orthorhombic'
loop_
_space_group_symop_operation_xyz
x,y,z
-x,-y,1/2+z
x,1/2-y,-z
-x,1/2+y,1/2-z
-x,-y,-z
x,y,1/2-z
-x,1/2+y,z
x,1/2-y,1/2+z
loop_
_atom_site_type_symbol
_atom_site_label
_atom_site_fract_x
_atom_site_fract_y
_atom_site_fract_z
Si Si1 0.965521 0.574537 0.750000
Si Si2 0.106987 0.421816 0.750000
Si Si3 0.796134 0.917882 0.250000
Si Si4 0.549152 0.103427 0.090045
Si Si5 0.064309 0.250000 0.000000
Si Si6 0.748884 0.571666 0.250000
Si Si7 0.293451 0.925260 0.523178
O O1 0.881088 0.561216 0.750000
O O2 0.980345 0.656380 0.606596
O O3 0.024297 0.453297 0.750000
O O4 0.112096 0.342884 0.602324
O O5 0.176319 0.517518 0.750000
O O6 0.769182 0.746385 0.250000
O O7 0.764658 0.002230 0.380081
O O8 0.527204 0.119944 0.250000
O O9 0.548982 0.250000 0.000000
O O10 0.630106 0.054053 0.088912
O O11 0.500000 0.000000 0.000000
O O12 0.708571 0.516166 0.117479
O O13 0.282367 0.750000 0.500000
#
# Coordination Sequence:
#
# PCOD9438209 Si02
#       7
#     4   4   4   8   4   4   8
#     4  11  23  41  66  87 133 174 226 295 351 412
#     4  11  23  43  62  93 127 176 226 295 355 408
#     4  12  23  46  70 101 136 184 237 296 346 422
#     4  11  25  47  77 106 149 190 237 289 349 419
#     4  10  20  40  62  86 124 162 222 274 370 390
#     4  12  25  42  74  99 138 186 237 298 344 424
#     4  11  26  47  69 104 148 184 228 284 361 418
#
# _framework density 21.138226
#
# number of rings (size 3 to 8) (size 9 to 14) (size 15 to 20)
#    0.000    0.889    3.333    4.000    6.222    1.778 
#   12.000    0.000    0.000    0.000    0.000    0.000 
#    0.000    0.000    0.000    0.000    0.000    0.000 
#
# Total GULP energy -200486.881932 kJ/mol
# GULP energy per Si atom -5569.080054 kJ/mol
# Density = 2.109011 g / cm^3
# Si number density = 21.138226 Si / 1000 Ang^3
#
#
#
# Elastic Constant Matrix: (Units=GPa)
#
#
# Indices 1 2 3 4 5 6 
#
# 1 98.0558 53.5510 42.4476 0.0000 0.0000 0.0000
# 2 53.5510 76.9008 46.2313 0.0000 0.0000 0.0000
# 3 42.4476 46.2313 206.0388 0.0000 0.0000 0.0000
# 4 0.0000 0.0000 0.0000 30.7380 0.0000 0.0000
# 5 0.0000 0.0000 0.0000 0.0000 25.3414 0.0000
# 6 0.0000 0.0000 0.0000 0.0000 0.0000 24.5464
#
#
#
# Elastic Compliance Matrix: (Units=1/GPa)
#
#
# Indices 1 2 3 4 5 6 
#
# 1 0.016618 -0.010998 -0.000956 0.000000 0.000000 0.000000
# 2 -0.010998 0.022309 -0.002740 0.000000 0.000000 0.000000
# 3 -0.000956 -0.002740 0.005665 0.000000 0.000000 0.000000
# 4 0.000000 0.000000 0.000000 0.032533 0.000000 0.000000
# 5 0.000000 0.000000 0.000000 0.000000 0.039461 0.000000
# 6 0.000000 0.000000 0.000000 0.000000 0.000000 0.040739
#
#
# Mechanical properties :
#
#
# Convention : Reuss Voigt Hill
#
# Bulk Modulus (GPa) = 65.76595 73.93947 69.85271
# Shear Modulus (GPa) = 26.07123 32.04286 29.05705
#
# Velocity S-wave (km/s) = 3.51575 3.89764 3.71161
# Velocity P-wave (km/s) = 6.90366 7.43710 7.17534
#
# Compressibility (1/GPa) = 0.01520544
#
# Stress axis : x y z
#
# Youngs Moduli (GPa) = 60.17483 44.82402 176.51519
#
# Poissons Ratio (x) = 0.49296 0.16874
# Poissons Ratio (y) = 0.66178 0.48367
# Poissons Ratio (z) = 0.05753 0.12282
#
# Static dielectric constant tensor:
#      x y z
#    x 1.750680 0.000000 0.000000 
#    y 0.000000 1.964680 0.000000 
#    z 0.000000 0.000000 1.768260 
# 
# From -- ./inp_files/7739.got.cif
#   From: 2010.05.17/outbox.cif.g08.bks.cpg/sg57_4_cif.got.tgz:7739.got - 2010.06.03 13:58:18.
