data_PCOD9438958
_publ_section_title
;
Structure prediction by ZEFSAII (Michael W. Deem and Ramdas Pophale) SiO2 
 PCOD9438958
Probable space group: P B C M
;
_chemical_formula_sum "Si O2"
_cell_formula_units_Z 48
_cell_length_a 30.854737
_cell_length_b 9.310433
_cell_length_c 8.742541
_cell_angle_alpha 90.000000
_cell_angle_beta 90.000000
_cell_angle_gamma 90.000000
_cell_volume 2511.478160
_symmetry_space_group_name_H-M "P B C M"
_symmetry_group_IT_number 57
_symmetry_cell_setting 'orthorhombic'
loop_
_space_group_symop_operation_xyz
x,y,z
-x,-y,1/2+z
x,1/2-y,-z
-x,1/2+y,1/2-z
-x,-y,-z
x,y,1/2-z
-x,1/2+y,z
x,1/2-y,1/2+z
loop_
_atom_site_type_symbol
_atom_site_label
_atom_site_fract_x
_atom_site_fract_y
_atom_site_fract_z
Si Si1 0.616060 0.092108 0.432420
Si Si2 0.539621 0.908674 0.932649
Si Si3 0.126721 0.590313 0.433420
Si Si4 0.959992 0.910289 0.067002
Si Si5 0.793938 0.909033 0.567332
Si Si6 0.717683 0.408233 0.932358
O O1 0.607221 0.250000 0.500000
O O2 0.608689 0.092535 0.250000
O O3 0.666864 0.060638 0.459996
O O4 0.584209 0.981265 0.512666
O O5 0.537205 0.906183 0.750000
O O6 0.536827 0.750000 0.000000
O O7 0.500000 0.000000 0.000000
O O8 0.122213 0.750000 0.500000
O O9 0.131464 0.597880 0.250000
O O10 0.084209 0.495751 0.469018
O O11 0.168149 0.511588 0.504766
O O12 0.964173 0.901831 0.250000
O O13 0.959009 0.750000 0.000000
O O14 0.000000 0.000000 0.000000
O O15 0.799605 0.750000 0.500000
O O16 0.795313 0.903834 0.750000
O O17 0.748841 0.977011 0.510493
O O18 0.725032 0.406417 0.750000
O O19 0.726884 0.250000 0.000000
#
# Coordination Sequence:
#
# PCOD9438958 Si02
#       6
#     8   8   8   8   8   8
#     4  10  21  39  63  91 122 158 199 244 296 353
#     4  12  25  42  63  88 120 157 199 246 297 354
#     4  11  24  42  64  91 122 159 202 248 300 357
#     4  11  24  41  64  92 125 162 202 249 300 357
#     4  12  25  41  62  88 121 159 201 250 302 357
#     4  10  21  39  63  90 122 159 200 245 295 354
#
# _framework density 19.11225
#
# number of rings (size 3 to 8) (size 9 to 14) (size 15 to 20)
#    0.000    1.000    0.000    7.000    0.000    8.000 
#    0.000    0.000    0.000    0.000    0.000    0.000 
#    0.000    0.000    0.000    0.000    0.000    0.000 
#
# Total GULP energy -268680.508001 kJ/mol
# GULP energy per Si atom -5597.510583 kJ/mol
# Density = 1.906875 g / cm^3
# Si number density = 19.112250 Si / 1000 Ang^3
#
#
#
# Elastic Constant Matrix: (Units=GPa)
#
#
# Indices 1 2 3 4 5 6 
#
# 1 101.9429 98.0161 83.0934 0.0000 0.0000 0.0000
# 2 98.0161 193.6363 91.6128 0.0000 0.0000 0.0000
# 3 83.0934 91.6128 145.5656 0.0000 0.0000 0.0000
# 4 0.0000 0.0000 0.0000 41.8567 0.0000 0.0000
# 5 0.0000 0.0000 0.0000 0.0000 32.4721 0.0000
# 6 0.0000 0.0000 0.0000 0.0000 0.0000 13.4089
#
#
#
# Elastic Compliance Matrix: (Units=1/GPa)
#
#
# Indices 1 2 3 4 5 6 
#
# 1 0.025551 -0.008591 -0.009178 0.000000 0.000000 0.000000
# 2 -0.008591 0.010243 -0.001542 0.000000 0.000000 0.000000
# 3 -0.009178 -0.001542 0.013080 0.000000 0.000000 0.000000
# 4 0.000000 0.000000 0.000000 0.023891 0.000000 0.000000
# 5 0.000000 0.000000 0.000000 0.000000 0.030796 0.000000
# 6 0.000000 0.000000 0.000000 0.000000 0.000000 0.074577
#
#
# Mechanical properties :
#
#
# Convention : Reuss Voigt Hill
#
# Bulk Modulus (GPa) = 97.56269 109.62105 103.59187
# Shear Modulus (GPa) = 22.70902 28.77572 25.74237
#
# Velocity S-wave (km/s) = 3.45076 3.88444 3.67400
# Velocity P-wave (km/s) = 8.18749 8.80905 8.50395
#
# Compressibility (1/GPa) = 0.01024982
#
# Stress axis : x y z
#
# Youngs Moduli (GPa) = 39.13785 97.63101 76.45442
#
# Poissons Ratio (x) = 0.83875 0.70172
# Poissons Ratio (y) = 0.33623 0.11791
# Poissons Ratio (z) = 0.35922 0.15057
#
# Static dielectric constant tensor:
#      x y z
#    x 1.650340 0.000000 0.000000 
#    y 0.000000 1.618380 0.000000 
#    z 0.000000 0.000000 1.635450 
# 
# From -- ./inp_files/10059.got.cif
#   From: 2010.05.17/outbox.cif.g08.bks.cpg/sg57_6_cif.got.tgz:10059.got - 2010.06.03 13:58:18.
