data_PCOD9438599
_publ_section_title
;
Structure prediction by ZEFSAII (Michael W. Deem and Ramdas Pophale) SiO2 
 PCOD9438599
Probable space group: P B C M
;
_chemical_formula_sum "Si O2"
_cell_formula_units_Z 48
_cell_length_a 5.320530
_cell_length_b 23.122346
_cell_length_c 15.484395
_cell_angle_alpha 90.000000
_cell_angle_beta 90.000000
_cell_angle_gamma 90.000000
_cell_volume 1904.938825
_symmetry_space_group_name_H-M "P B C M"
_symmetry_group_IT_number 57
_symmetry_cell_setting 'orthorhombic'
loop_
_space_group_symop_operation_xyz
x,y,z
-x,-y,1/2+z
x,1/2-y,-z
-x,1/2+y,1/2-z
-x,-y,-z
x,y,1/2-z
-x,1/2+y,z
x,1/2-y,1/2+z
loop_
_atom_site_type_symbol
_atom_site_label
_atom_site_fract_x
_atom_site_fract_y
_atom_site_fract_z
Si Si1 0.422374 0.302176 0.646636
Si Si2 0.082729 0.741162 0.645654
Si Si3 0.857592 0.940732 0.983790
Si Si4 0.432540 0.994712 0.346153
Si Si5 0.028571 0.605209 0.650583
Si Si6 0.230204 0.590830 0.154085
O O1 0.405743 0.293250 0.750000
O O2 0.158732 0.277133 0.612624
O O3 0.529540 0.367400 0.637848
O O4 0.654749 0.264967 0.611182
O O5 0.089540 0.748971 0.750000
O O6 0.072382 0.672563 0.633234
O O7 0.030048 0.901937 0.921489
O O8 0.635066 0.966045 0.927910
O O9 0.828009 0.913127 0.077508
O O10 0.000000 0.000000 0.000000
O O11 0.334368 0.012882 0.250000
O O12 0.714337 0.021577 0.339362
O O13 0.284580 0.933791 0.358274
O O14 -0.061370 0.598899 0.750000
O O15 0.135663 0.608516 0.250000
#
# Coordination Sequence:
#
# PCOD9438599 Si02
#       6
#     8   8   8   8   8   8
#     4   9  19  35  63  91 122 165 213 268 328 390
#     4   9  18  37  60  90 122 164 214 263 326 390
#     4  10  21  37  59  88 125 164 209 264 329 387
#     4   9  19  37  61  91 122 161 209 267 331 395
#     4   9  19  38  60  86 124 166 217 263 322 397
#     4  10  21  37  62  93 124 164 214 271 332 396
#
# _framework density 25.197659999999999
#
# number of rings (size 3 to 8) (size 9 to 14) (size 15 to 20)
#    0.000    2.667    0.000    0.500    2.333    3.333 
#    9.000    0.833    0.000    0.000    0.000    0.000 
#    0.000    0.000    0.000    0.000    0.000    0.000 
#
# Total GULP energy -267354.956114 kJ/mol
# GULP energy per Si atom -5569.894919 kJ/mol
# Density = 2.514031 g / cm^3
# Si number density = 25.197660 Si / 1000 Ang^3
#
#
#
# Elastic Constant Matrix: (Units=GPa)
#
#
# Indices 1 2 3 4 5 6 
#
# 1 65.9085 32.0836 27.9694 0.0000 0.0000 0.0000
# 2 32.0836 139.0488 48.1481 0.0000 0.0000 0.0000
# 3 27.9694 48.1481 111.1355 0.0000 0.0000 0.0000
# 4 0.0000 0.0000 0.0000 19.2146 0.0000 0.0000
# 5 0.0000 0.0000 0.0000 0.0000 20.5972 0.0000
# 6 0.0000 0.0000 0.0000 0.0000 0.0000 30.8043
#
#
#
# Elastic Compliance Matrix: (Units=1/GPa)
#
#
# Indices 1 2 3 4 5 6 
#
# 1 0.018019 -0.003044 -0.003216 0.000000 0.000000 0.000000
# 2 -0.003044 0.008975 -0.003122 0.000000 0.000000 0.000000
# 3 -0.003216 -0.003122 0.011160 0.000000 0.000000 0.000000
# 4 0.000000 0.000000 0.000000 0.052044 0.000000 0.000000
# 5 0.000000 0.000000 0.000000 0.000000 0.048550 0.000000
# 6 0.000000 0.000000 0.000000 0.000000 0.000000 0.032463
#
#
# Mechanical properties :
#
#
# Convention : Reuss Voigt Hill
#
# Bulk Modulus (GPa) = 51.57395 59.16613 55.37004
# Shear Modulus (GPa) = 25.45309 27.98265 26.71787
#
# Velocity S-wave (km/s) = 3.18171 3.33607 3.25981
# Velocity P-wave (km/s) = 5.83180 6.19443 6.01585
#
# Compressibility (1/GPa) = 0.01938963
#
# Stress axis : x y z
#
# Youngs Moduli (GPa) = 55.49644 111.41744 89.60479
#
# Poissons Ratio (x) = 0.33916 0.28818
# Poissons Ratio (y) = 0.16893 0.27978
# Poissons Ratio (z) = 0.17848 0.34788
#
# Static dielectric constant tensor:
#      x y z
#    x 2.206280 0.000000 0.000000 
#    y 0.000000 2.035970 0.000000 
#    z 0.000000 0.000000 1.912100 
# 
# From -- ./inp_files/20175.got.cif
#   From: 2010.05.17/outbox.cif.g08.bks.cpg/sg57_11_cif.got.tgz:20175.got - 2010.06.03 13:58:18.
