data_PCOD9438591
_publ_section_title
;
Structure prediction by ZEFSAII (Michael W. Deem and Ramdas Pophale) SiO2 
 PCOD9438591
Probable space group: P B C M
;
_chemical_formula_sum "Si O2"
_cell_formula_units_Z 40
_cell_length_a 14.521935
_cell_length_b 8.489520
_cell_length_c 16.827987
_cell_angle_alpha 90.000000
_cell_angle_beta 90.000000
_cell_angle_gamma 90.000000
_cell_volume 2074.625885
_symmetry_space_group_name_H-M "P B C M"
_symmetry_group_IT_number 57
_symmetry_cell_setting 'orthorhombic'
loop_
_space_group_symop_operation_xyz
x,y,z
-x,-y,1/2+z
x,1/2-y,-z
-x,1/2+y,1/2-z
-x,-y,-z
x,y,1/2-z
-x,1/2+y,z
x,1/2-y,1/2+z
loop_
_atom_site_type_symbol
_atom_site_label
_atom_site_fract_x
_atom_site_fract_y
_atom_site_fract_z
Si Si1 0.554704 0.959170 0.918473
Si Si2 0.401301 0.137365 0.840554
Si Si3 0.787413 0.050697 0.340719
Si Si4 0.253141 0.639382 0.577289
Si Si5 0.896615 0.937572 0.491974
O O1 0.579409 0.778175 0.901818
O O2 0.484918 0.016421 0.850620
O O3 0.650151 0.052760 0.913248
O O4 0.500000 0.000000 0.000000
O O5 0.396316 0.197168 0.750000
O O6 0.307390 0.043561 0.857544
O O7 0.814582 0.019576 0.250000
O O8 0.769752 0.236719 0.353679
O O9 0.859102 0.991728 0.406084
O O10 0.261960 0.750000 0.500000
O O11 0.171215 0.518562 0.556606
O O12 0.893322 0.750000 0.500000
O O13 0.000000 0.000000 0.500000
#
# Coordination Sequence:
#
# PCOD9438591 Si02
#       5
#     8   8   8   8   8
#     4  12  22  35  56  84 116 159 209 251 293 354
#     4  11  23  37  55  82 120 161 199 248 306 358
#     4  10  22  41  63  89 121 157 203 255 307 366
#     4  10  21  37  59  86 117 154 197 248 301 354
#     4  11  22  42  67  91 120 157 197 244 305 368
#
# _framework density 19.280584999999999
#
# number of rings (size 3 to 8) (size 9 to 14) (size 15 to 20)
#    0.000    1.200    0.000    9.000    0.000    3.200 
#    0.000    5.000    0.000    0.000    0.000    0.000 
#    0.000    0.000    0.000    0.000    0.000    0.000 
#
# Total GULP energy -223540.395673 kJ/mol
# GULP energy per Si atom -5588.509892 kJ/mol
# Density = 1.923670 g / cm^3
# Si number density = 19.280585 Si / 1000 Ang^3
#
#
#
# Elastic Constant Matrix: (Units=GPa)
#
#
# Indices 1 2 3 4 5 6 
#
# 1 171.5788 65.8528 62.9957 0.0000 0.0000 0.0000
# 2 65.8528 141.3143 51.0335 0.0000 0.0000 0.0000
# 3 62.9957 51.0335 94.7161 0.0000 0.0000 0.0000
# 4 0.0000 0.0000 0.0000 24.6920 0.0000 0.0000
# 5 0.0000 0.0000 0.0000 0.0000 17.1336 0.0000
# 6 0.0000 0.0000 0.0000 0.0000 0.0000 39.5859
#
#
#
# Elastic Compliance Matrix: (Units=1/GPa)
#
#
# Indices 1 2 3 4 5 6 
#
# 1 0.008283 -0.002322 -0.004258 0.000000 0.000000 0.000000
# 2 -0.002322 0.009437 -0.003540 0.000000 0.000000 0.000000
# 3 -0.004258 -0.003540 0.015297 0.000000 0.000000 0.000000
# 4 0.000000 0.000000 0.000000 0.040499 0.000000 0.000000
# 5 0.000000 0.000000 0.000000 0.000000 0.058365 0.000000
# 6 0.000000 0.000000 0.000000 0.000000 0.000000 0.025262
#
#
# Mechanical properties :
#
#
# Convention : Reuss Voigt Hill
#
# Bulk Modulus (GPa) = 78.26704 85.26368 81.76536
# Shear Modulus (GPa) = 27.52676 31.46410 29.49543
#
# Velocity S-wave (km/s) = 3.78258 4.04407 3.91551
# Velocity P-wave (km/s) = 7.73040 8.13170 7.93359
#
# Compressibility (1/GPa) = 0.01277677
#
# Stress axis : x y z
#
# Youngs Moduli (GPa) = 120.73386 105.96497 65.37182
#
# Poissons Ratio (x) = 0.24607 0.27833
# Poissons Ratio (y) = 0.28037 0.23143
# Poissons Ratio (z) = 0.51404 0.37514
#
# Static dielectric constant tensor:
#      x y z
#    x 1.634690 0.000000 0.000000 
#    y 0.000000 1.690790 0.000000 
#    z 0.000000 0.000000 1.733210 
# 
# From -- ./inp_files/18194.got.cif
#   From: 2010.05.17/outbox.cif.g08.bks.cpg/sg57_10_cif.got.tgz:18194.got - 2010.06.03 13:58:18.
