data_PCOD9438030
_publ_section_title
;
Structure prediction by ZEFSAII (Michael W. Deem and Ramdas Pophale) SiO2 
 PCOD9438030
Probable space group: P B C M
;
_chemical_formula_sum "Si O2"
_cell_formula_units_Z 36
_cell_length_a 9.725008
_cell_length_b 20.385762
_cell_length_c 7.823317
_cell_angle_alpha 90.000000
_cell_angle_beta 90.000000
_cell_angle_gamma 90.000000
_cell_volume 1550.985883
_symmetry_space_group_name_H-M "P B C M"
_symmetry_group_IT_number 57
_symmetry_cell_setting 'orthorhombic'
loop_
_space_group_symop_operation_xyz
x,y,z
-x,-y,1/2+z
x,1/2-y,-z
-x,1/2+y,1/2-z
-x,-y,-z
x,y,1/2-z
-x,1/2+y,z
x,1/2-y,1/2+z
loop_
_atom_site_type_symbol
_atom_site_label
_atom_site_fract_x
_atom_site_fract_y
_atom_site_fract_z
Si Si1 0.752448 0.379602 0.447850
Si Si2 0.244501 0.250000 0.500000
Si Si3 0.952376 0.647435 0.443819
Si Si4 0.557061 0.859359 0.458092
Si Si5 0.772296 0.970893 0.453488
O O1 0.760759 0.360956 0.250000
O O2 0.601192 0.360557 0.510852
O O3 0.764593 0.458232 0.463562
O O4 0.885052 0.349463 0.537504
O O5 0.132314 0.303477 0.435230
O O6 0.356309 0.195593 0.443696
O O7 0.913213 0.665450 0.250000
O O8 0.897279 0.574384 0.481154
O O9 0.566325 0.846882 0.250000
O O10 0.634484 0.928338 0.487125
O O11 0.786683 0.979341 0.250000
#
# Coordination Sequence:
#
# PCOD9438030 Si02
#       5
#     8   4   8   8   8
#     4  11  22  37  59  89 122 152 190 239 293 347
#     4  10  22  42  62  82 110 152 200 244 288 344
#     4  11  23  39  61  87 118 156 196 238 287 343
#     4   9  20  38  60  85 114 151 192 240 291 343
#     4  10  20  38  62  88 120 154 193 237 288 346
#
# _framework density 23.211044000000001
#
# number of rings (size 3 to 8) (size 9 to 14) (size 15 to 20)
#    0.000    1.778    0.000    4.000    0.000    3.556 
#    0.000   14.444    0.000    0.000    0.000    0.000 
#    0.000    0.000    0.000    0.000    0.000    0.000 
#
# Total GULP energy -200789.346714 kJ/mol
# GULP energy per Si atom -5577.481853 kJ/mol
# Density = 2.315821 g / cm^3
# Si number density = 23.211044 Si / 1000 Ang^3
#
#
#
# Elastic Constant Matrix: (Units=GPa)
#
#
# Indices 1 2 3 4 5 6 
#
# 1 218.6952 39.8093 33.7861 0.0000 0.0000 0.0000
# 2 39.8093 80.8689 1.3046 0.0000 0.0000 0.0000
# 3 33.7861 1.3046 75.3569 0.0000 0.0000 0.0000
# 4 0.0000 0.0000 0.0000 -38.7956 0.0000 0.0000
# 5 0.0000 0.0000 0.0000 0.0000 9.3718 0.0000
# 6 0.0000 0.0000 0.0000 0.0000 0.0000 5.8889
#
#
#
# Elastic Compliance Matrix: (Units=1/GPa)
#
#
# Indices 1 2 3 4 5 6 
#
# 1 0.005420 -0.002629 -0.002384 0.000000 0.000000 0.000000
# 2 -0.002629 0.013645 0.000943 0.000000 0.000000 0.000000
# 3 -0.002384 0.000943 0.014323 0.000000 0.000000 0.000000
# 4 0.000000 0.000000 0.000000 -0.025776 0.000000 0.000000
# 5 0.000000 0.000000 0.000000 0.000000 0.106703 0.000000
# 6 0.000000 0.000000 0.000000 0.000000 0.000000 0.169812
#
#
# Mechanical properties :
#
#
# Convention : Reuss Voigt Hill
#
# Bulk Modulus (GPa) = 39.61155 58.30233 48.95694
# Shear Modulus (GPa) = 16.62881 15.29443 15.96162
#
# Velocity S-wave (km/s) = 2.67950 2.56975 2.62520
# Velocity P-wave (km/s) = 5.16487 5.82904 5.50697
#
# Compressibility (1/GPa) = 0.02524516
#
# Stress axis : x y z
#
# Youngs Moduli (GPa) = 184.51674 73.28764 69.81839
#
# Poissons Ratio (x) = 0.19270 0.16647
# Poissons Ratio (y) = 0.48517 -0.06582
# Poissons Ratio (z) = 0.43995 -0.06909
#
# Static dielectric constant tensor:
#      x y z
#    x 1.844890 0.000000 0.000000 
#    y 0.000000 1.826440 0.000000 
#    z 0.000000 0.000000 1.951200 
# 
# From -- ./inp_files/1323.got.cif
#   From: 2010.05.17/outbox.cif.g08.bks.cpg/sg57_1_cif.got.tgz:1323.got - 2010.06.03 13:58:18.
