data_PCOD9438936
_publ_section_title
;
Structure prediction by ZEFSAII (Michael W. Deem and Ramdas Pophale) SiO2 
 PCOD9438936
Probable space group: P B C M
;
_chemical_formula_sum "Si O2"
_cell_formula_units_Z 64
_cell_length_a 11.198826
_cell_length_b 14.734659
_cell_length_c 18.206534
_cell_angle_alpha 90.000000
_cell_angle_beta 90.000000
_cell_angle_gamma 90.000000
_cell_volume 3004.276239
_symmetry_space_group_name_H-M "P B C M"
_symmetry_group_IT_number 57
_symmetry_cell_setting 'orthorhombic'
loop_
_space_group_symop_operation_xyz
x,y,z
-x,-y,1/2+z
x,1/2-y,-z
-x,1/2+y,1/2-z
-x,-y,-z
x,y,1/2-z
-x,1/2+y,z
x,1/2-y,1/2+z
loop_
_atom_site_type_symbol
_atom_site_label
_atom_site_fract_x
_atom_site_fract_y
_atom_site_fract_z
Si Si1 0.792683 0.282302 0.915163
Si Si2 0.165930 0.352786 0.838048
Si Si3 0.575201 0.926652 0.833931
Si Si4 0.528638 0.910037 0.069734
Si Si5 0.988107 0.808820 0.337732
Si Si6 0.929310 0.483111 0.425084
Si Si7 0.555971 0.260343 0.165233
Si Si8 0.301973 0.948464 0.985305
O O1 0.906975 0.256216 0.868079
O O2 0.682038 0.233361 0.875647
O O3 0.761236 0.388771 0.922593
O O4 0.806656 0.250000 0.000000
O O5 0.152453 0.362370 0.750000
O O6 0.299896 0.382210 0.857577
O O7 0.082488 0.425085 0.878887
O O8 0.130718 0.249166 0.855319
O O9 0.590242 0.957907 0.750000
O O10 0.529692 0.010063 0.881177
O O11 0.482850 0.844010 0.835208
O O12 0.650359 0.952587 0.038695
O O13 0.535860 0.821445 0.119150
O O14 0.425762 0.897757 0.007990
O O15 0.996875 0.821375 0.250000
O O16 0.007927 0.903360 0.379264
O O17 0.794987 0.454316 0.449788
O O18 0.000000 0.500000 0.500000
O O19 0.562512 0.290190 0.250000
#
# Coordination Sequence:
#
# PCOD9438936 Si02
#       8
#     8   8   8   8   8   8   8   8
#     4  12  21  39  63  92 129 160 207 273 317 379
#     4  10  23  43  65  90 126 172 217 265 326 394
#     4  10  21  39  62  87 122 165 212 261 311 383
#     4  11  21  39  60  86 130 165 207 262 316 382
#     4  11  25  44  67  94 128 171 215 270 330 390
#     4  12  24  41  67  97 128 167 218 273 326 393
#     4  11  23  38  62  94 125 169 216 259 319 382
#     4  11  23  37  59  94 126 164 207 260 324 377
#
# _framework density 21.302966999999999
#
# number of rings (size 3 to 8) (size 9 to 14) (size 15 to 20)
#    0.000    1.000    5.000    1.875    0.000    1.000 
#    0.000    0.000    0.000    1.500    0.000    0.000 
#    0.000    0.000    0.000    0.000    0.000    0.000 
#
# Total GULP energy -357621.769782 kJ/mol
# GULP energy per Si atom -5587.840153 kJ/mol
# Density = 2.125448 g / cm^3
# Si number density = 21.302967 Si / 1000 Ang^3
#
#
#
# Elastic Constant Matrix: (Units=GPa)
#
#
# Indices 1 2 3 4 5 6 
#
# 1 45.9267 8.7245 10.0568 0.0000 0.0000 0.0000
# 2 8.7245 58.5260 23.7729 0.0000 0.0000 0.0000
# 3 10.0568 23.7729 71.8040 0.0000 0.0000 0.0000
# 4 0.0000 0.0000 0.0000 44.1807 0.0000 0.0000
# 5 0.0000 0.0000 0.0000 0.0000 28.5596 0.0000
# 6 0.0000 0.0000 0.0000 0.0000 0.0000 31.8432
#
#
#
# Elastic Compliance Matrix: (Units=1/GPa)
#
#
# Indices 1 2 3 4 5 6 
#
# 1 0.022756 -0.002424 -0.002385 0.000000 0.000000 0.000000
# 2 -0.002424 0.019999 -0.006282 0.000000 0.000000 0.000000
# 3 -0.002385 -0.006282 0.016341 0.000000 0.000000 0.000000
# 4 0.000000 0.000000 0.000000 0.022634 0.000000 0.000000
# 5 0.000000 0.000000 0.000000 0.000000 0.035014 0.000000
# 6 0.000000 0.000000 0.000000 0.000000 0.000000 0.031404
#
#
# Mechanical properties :
#
#
# Convention : Reuss Voigt Hill
#
# Bulk Modulus (GPa) = 27.08878 29.04059 28.06469
# Shear Modulus (GPa) = 27.37698 29.83022 28.60360
#
# Velocity S-wave (km/s) = 3.58875 3.74610 3.66827
# Velocity P-wave (km/s) = 5.46953 5.68971 5.58071
#
# Compressibility (1/GPa) = 0.03691565
#
# Stress axis : x y z
#
# Youngs Moduli (GPa) = 43.94359 50.00148 61.19706
#
# Poissons Ratio (x) = 0.12118 0.14595
# Poissons Ratio (y) = 0.10650 0.38444
# Poissons Ratio (z) = 0.10480 0.31411
#
# Static dielectric constant tensor:
#      x y z
#    x 1.794220 0.000000 0.000000 
#    y 0.000000 1.786840 0.000000 
#    z 0.000000 0.000000 1.787200 
# 
# From -- ./inp_files/22082.got.cif
#   From: 2010.05.17/outbox.cif.g08.bks.cpg/sg57_12_cif.got.tgz:22082.got - 2010.06.03 13:58:18.
