data_PCOD9438821
_publ_section_title
;
Structure prediction by ZEFSAII (Michael W. Deem and Ramdas Pophale) SiO2 
 PCOD9438821
Probable space group: P B C M
;
_chemical_formula_sum "Si O2"
_cell_formula_units_Z 48
_cell_length_a 5.614952
_cell_length_b 28.447002
_cell_length_c 15.074503
_cell_angle_alpha 90.000000
_cell_angle_beta 90.000000
_cell_angle_gamma 90.000000
_cell_volume 2407.828518
_symmetry_space_group_name_H-M "P B C M"
_symmetry_group_IT_number 57
_symmetry_cell_setting 'orthorhombic'
loop_
_space_group_symop_operation_xyz
x,y,z
-x,-y,1/2+z
x,1/2-y,-z
-x,1/2+y,1/2-z
-x,-y,-z
x,y,1/2-z
-x,1/2+y,z
x,1/2-y,1/2+z
loop_
_atom_site_type_symbol
_atom_site_label
_atom_site_fract_x
_atom_site_fract_y
_atom_site_fract_z
Si Si1 0.695912 0.528163 0.555908
Si Si2 0.207552 0.141672 0.346663
Si Si3 0.083610 0.560670 0.086591
Si Si4 0.443833 0.705398 0.650083
Si Si5 0.524971 0.119331 0.981166
Si Si6 0.949670 0.756358 0.605975
O O1 0.500000 0.500000 0.500000
O O2 0.794477 0.487587 0.620807
O O3 0.592834 0.578906 0.581629
O O4 0.890928 0.542563 0.483621
O O5 0.330494 0.145075 0.250000
O O6 0.367180 0.134961 0.434309
O O7 0.065364 0.189665 0.363564
O O8 0.040997 0.095757 0.346297
O O9 0.257138 0.593164 0.028182
O O10 0.450489 0.686307 0.750000
O O11 0.423381 0.664546 0.577279
O O12 0.696660 0.732630 0.635581
O O13 0.199930 0.735415 0.640902
O O14 0.956026 0.750000 0.500000
#
# Coordination Sequence:
#
# PCOD9438821 Si02
#       6
#     8   8   8   8   8   8
#     4   8  16  34  61  90 121 158 210 262 323 393
#     4  11  23  38  59  92 128 168 220 273 329 394
#     4   9  18  35  61  89 121 164 208 265 325 393
#     4  12  26  44  66  97 135 174 225 278 328 394
#     4  10  21  38  62  92 124 171 214 264 335 392
#     4  12  25  46  67  95 131 179 223 276 334 397
#
# _framework density 19.934974
#
# number of rings (size 3 to 8) (size 9 to 14) (size 15 to 20)
#    0.000    1.667    1.667    3.000    4.667    0.667 
#    0.000    0.833    0.000   31.000    0.000    0.000 
#    0.000    0.000    0.000    0.000    0.000    0.000 
#
# Total GULP energy -267300.938794 kJ/mol
# GULP energy per Si atom -5568.769558 kJ/mol
# Density = 1.988960 g / cm^3
# Si number density = 19.934974 Si / 1000 Ang^3
#
#
#
# Elastic Constant Matrix: (Units=GPa)
#
#
# Indices 1 2 3 4 5 6 
#
# 1 102.4682 53.0986 26.7523 0.0000 0.0000 0.0000
# 2 53.0986 144.8281 41.2080 0.0000 0.0000 0.0000
# 3 26.7523 41.2080 112.5018 0.0000 0.0000 0.0000
# 4 0.0000 0.0000 0.0000 6.6891 0.0000 0.0000
# 5 0.0000 0.0000 0.0000 0.0000 -5.1892 0.0000
# 6 0.0000 0.0000 0.0000 0.0000 0.0000 38.4363
#
#
#
# Elastic Compliance Matrix: (Units=1/GPa)
#
#
# Indices 1 2 3 4 5 6 
#
# 1 0.012247 -0.004087 -0.001415 0.000000 0.000000 0.000000
# 2 -0.004087 0.009072 -0.002351 0.000000 0.000000 0.000000
# 3 -0.001415 -0.002351 0.010086 0.000000 0.000000 0.000000
# 4 0.000000 0.000000 0.000000 0.149497 0.000000 0.000000
# 5 0.000000 0.000000 0.000000 0.000000 -0.192708 0.000000
# 6 0.000000 0.000000 0.000000 0.000000 0.000000 0.026017
#
#
# Mechanical properties :
#
#
# Convention : Reuss Voigt Hill
#
# Bulk Modulus (GPa) = 63.70125 66.87956 65.29040
# Shear Modulus (GPa) = 142.24244 23.90318 83.07281
#
# Velocity S-wave (km/s) = 8.45625 3.46650 6.46238
# Velocity P-wave (km/s) = 11.28575 7.04584 9.40776
#
# Compressibility (1/GPa) = 0.01569828
#
# Stress axis : x y z
#
# Youngs Moduli (GPa) = 81.65517 110.22611 99.14333
#
# Poissons Ratio (x) = 0.45054 0.14029
# Poissons Ratio (y) = 0.33376 0.23310
# Poissons Ratio (z) = 0.11554 0.25915
#
# Static dielectric constant tensor:
#      x y z
#    x 1.965660 0.000000 0.000000 
#    y 0.000000 1.699240 0.000000 
#    z 0.000000 0.000000 0.376620 
# 
# From -- ./inp_files/15118.got.cif
#   From: 2010.05.17/outbox.cif.g08.bks.cpg/sg57_8_cif.got.tgz:15118.got - 2010.06.03 13:58:18.
