data_PCOD9438039
_publ_section_title
;
Structure prediction by ZEFSAII (Michael W. Deem and Ramdas Pophale) SiO2 
 PCOD9438039
Probable space group: P B C M
;
_chemical_formula_sum "Si O2"
_cell_formula_units_Z 48
_cell_length_a 8.396576
_cell_length_b 10.460672
_cell_length_c 29.345359
_cell_angle_alpha 90.000000
_cell_angle_beta 90.000000
_cell_angle_gamma 90.000000
_cell_volume 2577.515199
_symmetry_space_group_name_H-M "P B C M"
_symmetry_group_IT_number 57
_symmetry_cell_setting 'orthorhombic'
loop_
_space_group_symop_operation_xyz
x,y,z
-x,-y,1/2+z
x,1/2-y,-z
-x,1/2+y,1/2-z
-x,-y,-z
x,y,1/2-z
-x,1/2+y,z
x,1/2-y,1/2+z
loop_
_atom_site_type_symbol
_atom_site_label
_atom_site_fract_x
_atom_site_fract_y
_atom_site_fract_z
Si Si1 0.104548 0.507045 0.399386
Si Si2 0.852523 0.775388 0.883866
Si Si3 0.389041 0.252854 0.303323
Si Si4 0.272329 0.608273 0.012309
Si Si5 0.392632 0.081063 0.437919
Si Si6 0.436018 0.980374 0.653197
O O1 0.062320 0.357950 0.394900
O O2 0.161987 0.542060 0.450118
O O3 0.257431 0.527622 0.366539
O O4 0.966389 0.603533 0.385987
O O5 0.765867 0.766989 0.835126
O O6 0.713295 0.799838 0.921295
O O7 0.355674 0.244729 0.250000
O O8 0.452309 0.392668 0.317019
O O9 0.512712 0.144102 0.318909
O O10 0.448990 0.621500 0.034835
O O11 0.215034 0.750000 0.000000
O O12 0.294242 0.516624 0.968980
O O13 0.452140 0.013691 0.391545
#
# Coordination Sequence:
#
# PCOD9438039 Si02
#       6
#     8   8   8   8   8   8
#     4  10  23  39  56  82 117 157 193 228 286 333
#     4  10  23  40  58  79 118 158 188 237 289 343
#     4  10  20  38  62  90 113 143 188 240 289 348
#     4  10  22  34  58  86 112 149 201 239 273 341
#     4   9  21  36  57  82 116 152 190 240 286 325
#     4   9  20  36  62  86 115 148 184 236 291 342
#
# _framework density 18.622586999999999
#
# number of rings (size 3 to 8) (size 9 to 14) (size 15 to 20)
#    0.000    2.333    0.000    0.500   16.333    2.000 
#    0.000    4.167    0.000    0.000    0.000    0.000 
#    0.000    0.000    0.000    0.000    0.000    0.000 
#
# Total GULP energy -268068.432635 kJ/mol
# GULP energy per Si atom -5584.759013 kJ/mol
# Density = 1.858020 g / cm^3
# Si number density = 18.622587 Si / 1000 Ang^3
#
#
#
# Elastic Constant Matrix: (Units=GPa)
#
#
# Indices 1 2 3 4 5 6 
#
# 1 28.2047 23.9475 5.2462 0.0000 0.0000 0.0000
# 2 23.9475 96.3487 32.9078 0.0000 0.0000 0.0000
# 3 5.2462 32.9078 98.8645 0.0000 0.0000 0.0000
# 4 0.0000 0.0000 0.0000 21.5001 0.0000 0.0000
# 5 0.0000 0.0000 0.0000 0.0000 6.0125 0.0000
# 6 0.0000 0.0000 0.0000 0.0000 0.0000 27.3428
#
#
#
# Elastic Compliance Matrix: (Units=1/GPa)
#
#
# Indices 1 2 3 4 5 6 
#
# 1 0.045138 -0.011735 0.001511 0.000000 0.000000 0.000000
# 2 -0.011735 0.014761 -0.004291 0.000000 0.000000 0.000000
# 3 0.001511 -0.004291 0.011463 0.000000 0.000000 0.000000
# 4 0.000000 0.000000 0.000000 0.046511 0.000000 0.000000
# 5 0.000000 0.000000 0.000000 0.000000 0.166320 0.000000
# 6 0.000000 0.000000 0.000000 0.000000 0.000000 0.036573
#
#
# Mechanical properties :
#
#
# Convention : Reuss Voigt Hill
#
# Bulk Modulus (GPa) = 23.62268 38.62456 31.12362
# Shear Modulus (GPa) = 13.73978 21.72550 17.73264
#
# Velocity S-wave (km/s) = 2.71920 3.41929 3.08914
# Velocity P-wave (km/s) = 4.75092 6.03112 5.42889
#
# Compressibility (1/GPa) = 0.04233220
#
# Stress axis : x y z
#
# Youngs Moduli (GPa) = 22.15434 67.74517 87.23829
#
# Poissons Ratio (x) = 0.79500 -0.13181
# Poissons Ratio (y) = 0.25998 0.37431
# Poissons Ratio (z) = -0.03347 0.29067
#
# Static dielectric constant tensor:
#      x y z
#    x 1.651160 0.000000 0.000000 
#    y 0.000000 1.640120 0.000000 
#    z 0.000000 0.000000 1.633640 
# 
# From -- ./inp_files/29453.got.cif
#   From: 2010.05.17/outbox.cif.g08.bks.cpg/sg57_15_cif.got.tgz:29453.got - 2010.06.03 13:58:18.
