data_PCOD9438940
_publ_section_title
;
Structure prediction by ZEFSAII (Michael W. Deem and Ramdas Pophale) SiO2 
 PCOD9438940
Probable space group: P B C M
;
_chemical_formula_sum "Si O2"
_cell_formula_units_Z 48
_cell_length_a 15.104111
_cell_length_b 19.627007
_cell_length_c 8.746930
_cell_angle_alpha 90.000000
_cell_angle_beta 90.000000
_cell_angle_gamma 90.000000
_cell_volume 2593.014211
_symmetry_space_group_name_H-M "P B C M"
_symmetry_group_IT_number 57
_symmetry_cell_setting 'orthorhombic'
loop_
_space_group_symop_operation_xyz
x,y,z
-x,-y,1/2+z
x,1/2-y,-z
-x,1/2+y,1/2-z
-x,-y,-z
x,y,1/2-z
-x,1/2+y,z
x,1/2-y,1/2+z
loop_
_atom_site_type_symbol
_atom_site_label
_atom_site_fract_x
_atom_site_fract_y
_atom_site_fract_z
Si Si1 0.072384 0.324547 0.567392
Si Si2 0.227762 0.089167 0.567739
Si Si3 0.608196 0.674186 0.067129
Si Si4 0.864403 0.175638 0.432502
Si Si5 0.739915 0.440471 0.432038
Si Si6 0.467290 0.928033 0.067409
O O1 0.094111 0.250000 0.500000
O O2 0.085700 0.324010 0.750000
O O3 0.135613 0.379607 0.490459
O O4 0.968591 0.337581 0.536177
O O5 0.233704 0.093445 0.750000
O O6 0.306093 0.133748 0.493559
O O7 0.238968 0.011728 0.513431
O O8 0.610007 0.676308 0.250000
O O9 0.607717 0.750000 0.000000
O O10 0.523457 0.631814 0.009393
O O11 0.843346 0.250000 0.500000
O O12 0.852361 0.176301 0.250000
O O13 0.803824 0.118316 0.507270
O O14 0.750577 0.449085 0.250000
O O15 0.637357 0.421982 0.461390
O O16 0.482287 0.927498 0.250000
O O17 0.500000 0.000000 0.000000
#
# Coordination Sequence:
#
# PCOD9438940 Si02
#       6
#     8   8   8   8   8   8
#     4  10  21  39  62  89 123 162 206 253 308 366
#     4  12  24  39  62  91 125 163 205 252 309 372
#     4  12  25  42  64  92 126 163 207 258 308 367
#     4  10  22  41  65  91 122 162 206 256 308 364
#     4  11  24  41  64  92 124 162 205 253 308 367
#     4  11  23  41  65  91 122 163 205 252 309 367
#
# _framework density 18.511275999999999
#
# number of rings (size 3 to 8) (size 9 to 14) (size 15 to 20)
#    0.000    1.000    1.667    5.500    0.000    5.333 
#    0.000    0.000    0.000    0.000    0.000    0.000 
#    0.000    0.000    0.000    0.000    0.000    0.000 
#
# Total GULP energy -268571.911842 kJ/mol
# GULP energy per Si atom -5595.248163 kJ/mol
# Density = 1.846914 g / cm^3
# Si number density = 18.511276 Si / 1000 Ang^3
#
#
#
# Elastic Constant Matrix: (Units=GPa)
#
#
# Indices 1 2 3 4 5 6 
#
# 1 107.8666 96.5647 89.4605 0.0000 0.0000 0.0000
# 2 96.5647 175.2591 92.2070 0.0000 0.0000 0.0000
# 3 89.4605 92.2070 148.7124 0.0000 0.0000 0.0000
# 4 0.0000 0.0000 0.0000 41.1441 0.0000 0.0000
# 5 0.0000 0.0000 0.0000 0.0000 25.3991 0.0000
# 6 0.0000 0.0000 0.0000 0.0000 0.0000 114.7827
#
#
#
# Elastic Compliance Matrix: (Units=1/GPa)
#
#
# Indices 1 2 3 4 5 6 
#
# 1 0.025158 -0.008755 -0.009706 0.000000 0.000000 0.000000
# 2 -0.008755 0.011515 -0.001873 0.000000 0.000000 0.000000
# 3 -0.009706 -0.001873 0.013724 0.000000 0.000000 0.000000
# 4 0.000000 0.000000 0.000000 0.024305 0.000000 0.000000
# 5 0.000000 0.000000 0.000000 0.000000 0.039372 0.000000
# 6 0.000000 0.000000 0.000000 0.000000 0.000000 0.008712
#
#
# Mechanical properties :
#
#
# Convention : Reuss Voigt Hill
#
# Bulk Modulus (GPa) = 102.77736 109.81141 106.29438
# Shear Modulus (GPa) = 29.99435 46.50556 38.24996
#
# Velocity S-wave (km/s) = 4.02970 5.01771 4.55059
# Velocity P-wave (km/s) = 8.79166 9.64469 9.22804
#
# Compressibility (1/GPa) = 0.00972977
#
# Stress axis : x y z
#
# Youngs Moduli (GPa) = 39.74813 86.84080 72.86328
#
# Poissons Ratio (x) = 0.76033 0.70719
# Poissons Ratio (y) = 0.34801 0.13647
# Poissons Ratio (z) = 0.38579 0.16265
#
# Static dielectric constant tensor:
#      x y z
#    x 1.625240 0.000000 0.000000 
#    y 0.000000 1.591760 0.000000 
#    z 0.000000 0.000000 1.617140 
# 
# From -- ./inp_files/4653.got.cif
#   From: 2010.05.17/outbox.cif.g08.bks.cpg/sg57_3_cif.got.tgz:4653.got - 2010.06.03 13:58:18.
