data_PCOD9438624
_publ_section_title
;
Structure prediction by ZEFSAII (Michael W. Deem and Ramdas Pophale) SiO2 
 PCOD9438624
Probable space group: P B C M
;
_chemical_formula_sum "Si O2"
_cell_formula_units_Z 56
_cell_length_a 14.748040
_cell_length_b 12.232472
_cell_length_c 14.261257
_cell_angle_alpha 90.000000
_cell_angle_beta 90.000000
_cell_angle_gamma 90.000000
_cell_volume 2572.801874
_symmetry_space_group_name_H-M "P B C M"
_symmetry_group_IT_number 57
_symmetry_cell_setting 'orthorhombic'
loop_
_space_group_symop_operation_xyz
x,y,z
-x,-y,1/2+z
x,1/2-y,-z
-x,1/2+y,1/2-z
-x,-y,-z
x,y,1/2-z
-x,1/2+y,z
x,1/2-y,1/2+z
loop_
_atom_site_type_symbol
_atom_site_label
_atom_site_fract_x
_atom_site_fract_y
_atom_site_fract_z
Si Si1 0.674954 0.803062 0.360500
Si Si2 0.414546 0.063124 0.135909
Si Si3 0.105376 0.493425 0.527384
Si Si4 0.385027 0.968704 0.944189
Si Si5 0.127106 0.274541 0.637232
Si Si6 0.787073 0.154434 0.079576
Si Si7 0.933644 0.307963 0.147238
O O1 0.663755 0.824073 0.250000
O O2 0.631576 0.682726 0.377658
O O3 0.632102 0.905881 0.412980
O O4 0.782284 0.793315 0.380325
O O5 0.409811 0.038639 0.250000
O O6 0.517259 0.065720 0.096282
O O7 0.373826 0.976069 0.058904
O O8 0.133583 0.384825 0.578740
O O9 0.168351 0.537095 0.445556
O O10 0.114907 0.592342 0.599567
O O11 0.000000 0.500000 0.500000
O O12 0.314040 0.883572 0.899039
O O13 0.122308 0.296175 0.750000
O O14 0.031705 0.221887 0.605898
O O15 0.863785 0.207879 0.145159
O O16 0.780308 0.250000 0.000000
O O17 0.956561 0.344368 0.250000
#
# Coordination Sequence:
#
# PCOD9438624 Si02
#       7
#     8   8   8   8   8   8   8
#     4  10  22  40  64  97 129 162 215 272 327 394
#     4  10  23  43  64  93 131 164 207 272 340 398
#     4  11  21  36  57  83 119 169 210 254 307 374
#     4  11  23  41  69  97 126 170 220 269 327 400
#     4  10  21  37  60  91 126 164 211 264 315 373
#     4  10  23  41  58  90 124 162 213 263 311 377
#     4  10  22  39  57  85 126 166 209 262 319 374
#
# _framework density 21.766152000000002
#
# number of rings (size 3 to 8) (size 9 to 14) (size 15 to 20)
#    0.000    1.714    1.429    2.143    2.000    3.429 
#    0.000    2.857    0.000    0.000    0.000    0.000 
#    0.000    0.000    0.000    0.000    0.000    0.000 
#
# Total GULP energy -312160.406232 kJ/mol
# GULP energy per Si atom -5574.292968 kJ/mol
# Density = 2.171661 g / cm^3
# Si number density = 21.766152 Si / 1000 Ang^3
#
#
#
# Elastic Constant Matrix: (Units=GPa)
#
#
# Indices 1 2 3 4 5 6 
#
# 1 82.3816 -1.7492 9.7624 0.0000 0.0000 0.0000
# 2 -1.7492 47.7119 24.8291 0.0000 0.0000 0.0000
# 3 9.7624 24.8291 85.7872 0.0000 0.0000 0.0000
# 4 0.0000 0.0000 0.0000 9.4135 0.0000 0.0000
# 5 0.0000 0.0000 0.0000 0.0000 23.0289 0.0000
# 6 0.0000 0.0000 0.0000 0.0000 0.0000 24.4477
#
#
#
# Elastic Compliance Matrix: (Units=1/GPa)
#
#
# Indices 1 2 3 4 5 6 
#
# 1 0.012383 0.001398 -0.001814 0.000000 0.000000 0.000000
# 2 0.001398 0.024834 -0.007347 0.000000 0.000000 0.000000
# 3 -0.001814 -0.007347 0.013989 0.000000 0.000000 0.000000
# 4 0.000000 0.000000 0.000000 0.106231 0.000000 0.000000
# 5 0.000000 0.000000 0.000000 0.000000 0.043424 0.000000
# 6 0.000000 0.000000 0.000000 0.000000 0.000000 0.040904
#
#
# Mechanical properties :
#
#
# Convention : Reuss Voigt Hill
#
# Bulk Modulus (GPa) = 28.02590 31.28503 29.65546
# Shear Modulus (GPa) = 18.57471 23.58056 21.07764
#
# Velocity S-wave (km/s) = 2.92443 3.29501 3.11524
# Velocity P-wave (km/s) = 4.93020 5.37407 5.15691
#
# Compressibility (1/GPa) = 0.03568129
#
# Stress axis : x y z
#
# Youngs Moduli (GPa) = 80.75426 40.26817 71.48240
#
# Poissons Ratio (x) = -0.05629 0.12965
# Poissons Ratio (y) = -0.11288 0.52515
# Poissons Ratio (z) = 0.14647 0.29583
#
# Static dielectric constant tensor:
#      x y z
#    x 0.654450 0.000000 0.000000 
#    y 0.000000 1.685120 0.000000 
#    z 0.000000 0.000000 1.796460 
# 
# From -- ./inp_files/18496.got.cif
#   From: 2010.05.17/outbox.cif.g08.bks.cpg/sg57_10_cif.got.tgz:18496.got - 2010.06.03 13:58:18.
