data_PCOD9438487
_publ_section_title
;
Structure prediction by ZEFSAII (Michael W. Deem and Ramdas Pophale) SiO2 
 PCOD9438487
Probable space group: P B C M
;
_chemical_formula_sum "Si O2"
_cell_formula_units_Z 48
_cell_length_a 16.188860
_cell_length_b 18.531079
_cell_length_c 8.485617
_cell_angle_alpha 90.000000
_cell_angle_beta 90.000000
_cell_angle_gamma 90.000000
_cell_volume 2545.660013
_symmetry_space_group_name_H-M "P B C M"
_symmetry_group_IT_number 57
_symmetry_cell_setting 'orthorhombic'
loop_
_space_group_symop_operation_xyz
x,y,z
-x,-y,1/2+z
x,1/2-y,-z
-x,1/2+y,1/2-z
-x,-y,-z
x,y,1/2-z
-x,1/2+y,z
x,1/2-y,1/2+z
loop_
_atom_site_type_symbol
_atom_site_label
_atom_site_fract_x
_atom_site_fract_y
_atom_site_fract_z
Si Si1 0.661334 0.668941 0.439202
Si Si2 0.999861 0.917590 0.061340
Si Si3 0.495828 0.081396 0.560885
Si Si4 0.659257 0.168486 0.940721
Si Si5 0.174076 0.412793 0.560107
Si Si6 0.819495 0.419364 0.441869
O O1 0.652597 0.750000 0.500000
O O2 0.660544 0.668851 0.250000
O O3 0.585696 0.620784 0.498858
O O4 0.748324 0.634404 0.492790
O O5 0.996726 0.917724 0.250000
O O6 0.090203 0.888880 0.011738
O O7 0.914950 0.884923 0.997402
O O8 0.000000 0.000000 0.000000
O O9 0.494570 0.080914 0.750000
O O10 0.577338 0.125364 0.509127
O O11 0.500000 0.000000 0.500000
O O12 0.660361 0.168968 0.750000
O O13 0.741627 0.126843 0.996305
O O14 0.657380 0.250000 0.000000
O O15 0.172572 0.413452 0.750000
O O16 0.185677 0.496506 0.508361
O O17 0.817452 0.419973 0.250000
#
# Coordination Sequence:
#
# PCOD9438487 Si02
#       6
#     8   8   8   8   8   8
#     4  11  23  39  58  81 113 150 186 228 280 335
#     4   9  16  28  50  78 107 139 178 225 274 324
#     4  11  23  39  61  86 111 142 182 227 275 329
#     4  10  21  37  55  77 108 144 178 216 266 321
#     4   9  18  34  55  77 104 141 184 230 278 325
#     4   8  15  31  53  75 102 138 177 218 268 320
#
# _framework density 18.855620999999999
#
# number of rings (size 3 to 8) (size 9 to 14) (size 15 to 20)
#    0.000    2.333    0.000    4.000    0.000    6.667 
#    0.000    5.000    0.000    4.000    0.000    0.000 
#    0.000    0.000    0.000    0.000    0.000    0.000 
#
# Total GULP energy -267816.389108 kJ/mol
# GULP energy per Si atom -5579.508106 kJ/mol
# Density = 1.881270 g / cm^3
# Si number density = 18.855621 Si / 1000 Ang^3
#
#
#
# Elastic Constant Matrix: (Units=GPa)
#
#
# Indices 1 2 3 4 5 6 
#
# 1 198.9828 80.8065 36.3297 0.0000 0.0000 0.0000
# 2 80.8065 110.8118 22.1601 0.0000 0.0000 0.0000
# 3 36.3297 22.1601 24.1357 0.0000 0.0000 0.0000
# 4 0.0000 0.0000 0.0000 27.0969 0.0000 0.0000
# 5 0.0000 0.0000 0.0000 0.0000 27.3281 0.0000
# 6 0.0000 0.0000 0.0000 0.0000 0.0000 -8.9735
#
#
#
# Elastic Compliance Matrix: (Units=1/GPa)
#
#
# Indices 1 2 3 4 5 6 
#
# 1 0.008375 -0.004393 -0.008573 0.000000 0.000000 0.000000
# 2 -0.004393 0.013358 -0.005653 0.000000 0.000000 0.000000
# 3 -0.008573 -0.005653 0.059526 0.000000 0.000000 0.000000
# 4 0.000000 0.000000 0.000000 0.036905 0.000000 0.000000
# 5 0.000000 0.000000 0.000000 0.000000 0.036592 0.000000
# 6 0.000000 0.000000 0.000000 0.000000 0.000000 -0.111439
#
#
# Mechanical properties :
#
#
# Convention : Reuss Voigt Hill
#
# Bulk Modulus (GPa) = 22.71549 68.05810 45.38680
# Shear Modulus (GPa) = 52.50664 22.06590 37.28627
#
# Velocity S-wave (km/s) = 5.28272 3.42461 4.45169
# Velocity P-wave (km/s) = 7.02017 7.19791 7.10960
#
# Compressibility (1/GPa) = 0.04402282
#
# Stress axis : x y z
#
# Youngs Moduli (GPa) = 119.40981 74.86211 16.79937
#
# Poissons Ratio (x) = 0.32884 0.14401
# Poissons Ratio (y) = 0.52451 0.09496
# Poissons Ratio (z) = 1.02365 0.42317
#
# Static dielectric constant tensor:
#      x y z
#    x 1.679710 0.000000 0.000000 
#    y 0.000000 1.589890 0.000000 
#    z 0.000000 0.000000 1.650410 
# 
# From -- ./inp_files/4539.got.cif
#   From: 2010.05.17/outbox.cif.g08.bks.cpg/sg57_3_cif.got.tgz:4539.got - 2010.06.03 13:58:18.
