data_PCOD9438637
_publ_section_title
;
Structure prediction by ZEFSAII (Michael W. Deem and Ramdas Pophale) SiO2 
 PCOD9438637
Probable space group: P B C M
;
_chemical_formula_sum "Si O2"
_cell_formula_units_Z 36
_cell_length_a 21.700261
_cell_length_b 9.164768
_cell_length_c 9.156503
_cell_angle_alpha 90.000000
_cell_angle_beta 90.000000
_cell_angle_gamma 90.000000
_cell_volume 1821.025700
_symmetry_space_group_name_H-M "P B C M"
_symmetry_group_IT_number 57
_symmetry_cell_setting 'orthorhombic'
loop_
_space_group_symop_operation_xyz
x,y,z
-x,-y,1/2+z
x,1/2-y,-z
-x,1/2+y,1/2-z
-x,-y,-z
x,y,1/2-z
-x,1/2+y,z
x,1/2-y,1/2+z
loop_
_atom_site_type_symbol
_atom_site_label
_atom_site_fract_x
_atom_site_fract_y
_atom_site_fract_z
Si Si1 0.664144 0.590310 0.073799
Si Si2 0.911180 0.010677 0.404434
Si Si3 0.555964 0.409495 0.928266
Si Si4 0.995473 0.750000 0.500000
Si Si5 0.194760 0.404637 0.920052
O O1 0.651814 0.595908 0.250000
O O2 0.735432 0.543553 0.053240
O O3 0.657911 0.750000 0.000000
O O4 0.617919 0.485581 0.988120
O O5 0.877904 0.012440 0.250000
O O6 0.859606 0.009856 0.527877
O O7 0.951275 0.862792 0.416873
O O8 0.958998 0.143005 0.413524
O O9 0.553065 0.406919 0.750000
O O10 0.552748 0.250000 0.000000
O O11 0.500000 0.500000 0.000000
O O12 0.188198 0.377492 0.750000
O O13 0.186937 0.250000 0.000000
#
# Coordination Sequence:
#
# PCOD9438637 Si02
#       5
#     8   8   8   4   8
#     4  10  21  40  64  93 126 165 210 260 309 368
#     4  11  22  39  61  86 117 156 202 253 310 371
#     4  12  25  43  67  97 132 171 211 257 306 363
#     4  10  24  38  58  88 118 154 198 256 310 374
#     4  10  21  37  61  89 121 159 205 253 305 366
#
# _framework density 19.769079999999999
#
# number of rings (size 3 to 8) (size 9 to 14) (size 15 to 20)
#    0.000    1.333    1.111    4.667    0.000    7.111 
#    2.000    0.000    0.000    0.000    0.000    0.000 
#    0.000    0.000    0.000    0.000    0.000    0.000 
#
# Total GULP energy -200972.370731 kJ/mol
# GULP energy per Si atom -5582.565854 kJ/mol
# Density = 1.972408 g / cm^3
# Si number density = 19.769080 Si / 1000 Ang^3
#
#
#
# Elastic Constant Matrix: (Units=GPa)
#
#
# Indices 1 2 3 4 5 6 
#
# 1 129.5945 56.2074 82.5937 0.0000 0.0000 0.0000
# 2 56.2074 108.5762 48.0071 0.0000 0.0000 0.0000
# 3 82.5937 48.0071 155.8845 0.0000 0.0000 0.0000
# 4 0.0000 0.0000 0.0000 9.7648 0.0000 0.0000
# 5 0.0000 0.0000 0.0000 0.0000 18.8068 0.0000
# 6 0.0000 0.0000 0.0000 0.0000 0.0000 26.0697
#
#
#
# Elastic Compliance Matrix: (Units=1/GPa)
#
#
# Indices 1 2 3 4 5 6 
#
# 1 0.013203 -0.004332 -0.005662 0.000000 0.000000 0.000000
# 2 -0.004332 0.012083 -0.001426 0.000000 0.000000 0.000000
# 3 -0.005662 -0.001426 0.009854 0.000000 0.000000 0.000000
# 4 0.000000 0.000000 0.000000 0.102409 0.000000 0.000000
# 5 0.000000 0.000000 0.000000 0.000000 0.053172 0.000000
# 6 0.000000 0.000000 0.000000 0.000000 0.000000 0.038359
#
#
# Mechanical properties :
#
#
# Convention : Reuss Voigt Hill
#
# Bulk Modulus (GPa) = 81.29073 85.29685 83.29379
# Shear Modulus (GPa) = 19.52976 24.74474 22.13725
#
# Velocity S-wave (km/s) = 3.14649 3.54176 3.34996
# Velocity P-wave (km/s) = 7.37631 7.74375 7.56226
#
# Compressibility (1/GPa) = 0.01230153
#
# Stress axis : x y z
#
# Youngs Moduli (GPa) = 75.73767 82.76013 101.48227
#
# Poissons Ratio (x) = 0.35850 0.57456
# Poissons Ratio (y) = 0.32808 0.14472
# Poissons Ratio (z) = 0.42880 0.11802
#
# Static dielectric constant tensor:
#      x y z
#    x 1.692300 0.000000 0.000000 
#    y 0.000000 1.680750 0.000000 
#    z 0.000000 0.000000 1.679730 
# 
# From -- ./inp_files/7644.got.cif
#   From: 2010.05.17/outbox.cif.g08.bks.cpg/sg57_4_cif.got.tgz:7644.got - 2010.06.03 13:58:18.
