data_PCOD9438607
_publ_section_title
;
Structure prediction by ZEFSAII (Michael W. Deem and Ramdas Pophale) SiO2 
 PCOD9438607
Probable space group: P B C M
;
_chemical_formula_sum "Si O2"
_cell_formula_units_Z 48
_cell_length_a 14.701398
_cell_length_b 8.280246
_cell_length_c 17.197345
_cell_angle_alpha 90.000000
_cell_angle_beta 90.000000
_cell_angle_gamma 90.000000
_cell_volume 2093.453306
_symmetry_space_group_name_H-M "P B C M"
_symmetry_group_IT_number 57
_symmetry_cell_setting 'orthorhombic'
loop_
_space_group_symop_operation_xyz
x,y,z
-x,-y,1/2+z
x,1/2-y,-z
-x,1/2+y,1/2-z
-x,-y,-z
x,y,1/2-z
-x,1/2+y,z
x,1/2-y,1/2+z
loop_
_atom_site_type_symbol
_atom_site_label
_atom_site_fract_x
_atom_site_fract_y
_atom_site_fract_z
Si Si1 0.456454 0.826790 0.342569
Si Si2 0.697095 0.170096 0.418600
Si Si3 0.117281 0.800547 0.409352
Si Si4 0.198073 0.171574 0.582029
Si Si5 0.026670 0.492306 0.340777
Si Si6 0.634313 0.839852 0.655923
O O1 0.462694 0.840045 0.250000
O O2 0.389725 0.678753 0.363682
O O3 0.557619 0.788800 0.371103
O O4 0.406430 0.988392 0.370692
O O5 0.669351 0.250000 0.500000
O O6 0.777732 0.286131 0.386551
O O7 0.745219 0.996834 0.428775
O O8 0.112033 0.750000 0.500000
O O9 0.064243 0.669389 0.358367
O O10 0.063564 0.962524 0.391563
O O11 0.172883 0.250000 0.500000
O O12 0.108553 0.123571 0.630069
O O13 0.267986 0.291793 0.623875
O O14 0.008429 0.470910 0.250000
O O15 0.638341 0.839428 0.750000
#
# Coordination Sequence:
#
# PCOD9438607 Si02
#       6
#     8   8   8   8   8   8
#     4  10  21  37  60  86 117 153 192 240 295 352
#     4  10  22  39  59  84 115 151 196 243 291 350
#     4  10  22  40  61  86 119 160 199 244 297 355
#     4  11  23  39  60  85 118 157 197 245 299 356
#     4  11  23  39  61  90 121 156 199 249 298 353
#     4  10  21  38  59  87 118 153 195 241 295 356
#
# _framework density 22.928623000000002
#
# number of rings (size 3 to 8) (size 9 to 14) (size 15 to 20)
#    0.000    1.667    0.000    4.000    0.000   10.000 
#    0.000    5.000    0.000    0.000    0.000    0.000 
#    0.000    0.000    0.000    0.000    0.000    0.000 
#
# Total GULP energy -268493.053545 kJ/mol
# GULP energy per Si atom -5593.605282 kJ/mol
# Density = 2.287644 g / cm^3
# Si number density = 22.928623 Si / 1000 Ang^3
#
#
#
# Elastic Constant Matrix: (Units=GPa)
#
#
# Indices 1 2 3 4 5 6 
#
# 1 77.9188 4.8123 10.0682 0.0000 0.0000 0.0000
# 2 4.8123 67.7653 2.7781 0.0000 0.0000 0.0000
# 3 10.0682 2.7781 43.6788 0.0000 0.0000 0.0000
# 4 0.0000 0.0000 0.0000 31.9228 0.0000 0.0000
# 5 0.0000 0.0000 0.0000 0.0000 14.4629 0.0000
# 6 0.0000 0.0000 0.0000 0.0000 0.0000 35.7943
#
#
#
# Elastic Compliance Matrix: (Units=1/GPa)
#
#
# Indices 1 2 3 4 5 6 
#
# 1 0.013273 -0.000819 -0.003007 0.000000 0.000000 0.000000
# 2 -0.000819 0.014846 -0.000755 0.000000 0.000000 0.000000
# 3 -0.003007 -0.000755 0.023636 0.000000 0.000000 0.000000
# 4 0.000000 0.000000 0.000000 0.031326 0.000000 0.000000
# 5 0.000000 0.000000 0.000000 0.000000 0.069143 0.000000
# 6 0.000000 0.000000 0.000000 0.000000 0.000000 0.027937
#
#
# Mechanical properties :
#
#
# Convention : Reuss Voigt Hill
#
# Bulk Modulus (GPa) = 23.47939 24.96446 24.22193
# Shear Modulus (GPa) = 24.56745 27.88293 26.22519
#
# Velocity S-wave (km/s) = 3.27689 3.49101 3.38564
# Velocity P-wave (km/s) = 4.95780 5.21163 5.08630
#
# Compressibility (1/GPa) = 0.04259054
#
# Stress axis : x y z
#
# Youngs Moduli (GPa) = 75.34045 67.35834 42.30888
#
# Poissons Ratio (x) = 0.05519 0.12724
# Poissons Ratio (y) = 0.06173 0.03196
# Poissons Ratio (z) = 0.22658 0.05088
#
# Static dielectric constant tensor:
#      x y z
#    x 1.819030 0.000000 0.000000 
#    y 0.000000 1.940660 0.000000 
#    z 0.000000 0.000000 1.797720 
# 
# From -- ./inp_files/22465.got.cif
#   From: 2010.05.17/outbox.cif.g08.bks.cpg/sg57_12_cif.got.tgz:22465.got - 2010.06.03 13:58:18.
