data_PCOD9438273
_publ_section_title
;
Structure prediction by ZEFSAII (Michael W. Deem and Ramdas Pophale) SiO2 
 PCOD9438273
Probable space group: P B C M
;
_chemical_formula_sum "Si O2"
_cell_formula_units_Z 32
_cell_length_a 12.453598
_cell_length_b 10.056106
_cell_length_c 13.300015
_cell_angle_alpha 90.000000
_cell_angle_beta 90.000000
_cell_angle_gamma 90.000000
_cell_volume 1665.623409
_symmetry_space_group_name_H-M "P B C M"
_symmetry_group_IT_number 57
_symmetry_cell_setting 'orthorhombic'
loop_
_space_group_symop_operation_xyz
x,y,z
-x,-y,1/2+z
x,1/2-y,-z
-x,1/2+y,1/2-z
-x,-y,-z
x,y,1/2-z
-x,1/2+y,z
x,1/2-y,1/2+z
loop_
_atom_site_type_symbol
_atom_site_label
_atom_site_fract_x
_atom_site_fract_y
_atom_site_fract_z
Si Si1 0.388020 0.283030 0.750000
Si Si2 0.600393 0.463184 0.750000
Si Si3 0.012830 0.624552 0.426768
Si Si4 0.250185 0.885860 0.937230
Si Si5 0.219351 0.364686 0.917550
O O1 0.491688 0.377315 0.750000
O O2 0.313311 0.322223 0.843859
O O3 0.413365 0.124437 0.750000
O O4 0.665113 0.421284 0.649158
O O5 0.017368 0.750000 0.500000
O O6 0.900054 0.627950 0.368171
O O7 0.000000 0.500000 0.500000
O O8 0.132469 0.618158 0.382969
O O9 0.269901 0.750000 0.000000
O O10 0.244799 0.000622 0.022043
O O11 0.210755 0.250000 0.000000
#
# Coordination Sequence:
#
# PCOD9438273 Si02
#       5
#     4   4   8   8   8
#     4  12  28  43  64  90 122 169 223 264 301 370
#     4  12  28  45  62  90 124 165 223 262 305 370
#     4   8  16  33  62  94 123 154 196 245 307 382
#     4  10  22  41  67  96 128 162 198 259 318 372
#     4  10  20  41  66  93 125 162 204 253 317 369
#
# _framework density 19.212026000000002
#
# number of rings (size 3 to 8) (size 9 to 14) (size 15 to 20)
#    0.000    2.000    2.500    0.000    3.500    3.000 
#    0.000    0.000    0.000    0.000    0.000    0.000 
#    0.000    0.000    0.000    0.000    0.000    0.000 
#
# Total GULP energy -178244.396498 kJ/mol
# GULP energy per Si atom -5570.137391 kJ/mol
# Density = 1.916830 g / cm^3
# Si number density = 19.212026 Si / 1000 Ang^3
#
#
#
# Elastic Constant Matrix: (Units=GPa)
#
#
# Indices 1 2 3 4 5 6 
#
# 1 195.6866 56.6245 62.7116 0.0000 0.0000 0.0000
# 2 56.6245 179.2217 43.6050 0.0000 0.0000 0.0000
# 3 62.7116 43.6050 83.9914 0.0000 0.0000 0.0000
# 4 0.0000 0.0000 0.0000 19.0929 0.0000 0.0000
# 5 0.0000 0.0000 0.0000 0.0000 55.2201 0.0000
# 6 0.0000 0.0000 0.0000 0.0000 0.0000 29.9275
#
#
#
# Elastic Compliance Matrix: (Units=1/GPa)
#
#
# Indices 1 2 3 4 5 6 
#
# 1 0.006889 -0.001059 -0.004594 0.000000 0.000000 0.000000
# 2 -0.001059 0.006549 -0.002609 0.000000 0.000000 0.000000
# 3 -0.004594 -0.002609 0.016691 0.000000 0.000000 0.000000
# 4 0.000000 0.000000 0.000000 0.052375 0.000000 0.000000
# 5 0.000000 0.000000 0.000000 0.000000 0.018109 0.000000
# 6 0.000000 0.000000 0.000000 0.000000 0.000000 0.033414
#
#
# Mechanical properties :
#
#
# Convention : Reuss Voigt Hill
#
# Bulk Modulus (GPa) = 73.50570 87.19798 80.35184
# Shear Modulus (GPa) = 32.24013 40.57868 36.40941
#
# Velocity S-wave (km/s) = 4.10093 4.60080 4.35804
# Velocity P-wave (km/s) = 7.79531 8.58539 8.19987
#
# Compressibility (1/GPa) = 0.01360439
#
# Stress axis : x y z
#
# Youngs Moduli (GPa) = 145.16430 152.69269 59.91394
#
# Poissons Ratio (x) = 0.16167 0.27523
# Poissons Ratio (y) = 0.15370 0.15634
# Poissons Ratio (z) = 0.66685 0.39845
#
# Static dielectric constant tensor:
#      x y z
#    x 1.737720 0.000000 0.000000 
#    y 0.000000 1.679710 0.000000 
#    z 0.000000 0.000000 1.635110 
# 
# From -- ./inp_files/17196.got.cif
#   From: 2010.05.17/outbox.cif.g08.bks.cpg/sg57_9_cif.got.tgz:17196.got - 2010.06.03 13:58:18.
