data_PCOD9438029
_publ_section_title
;
Structure prediction by ZEFSAII (Michael W. Deem and Ramdas Pophale) SiO2 
 PCOD9438029
Probable space group: P B C M
;
_chemical_formula_sum "Si O2"
_cell_formula_units_Z 64
_cell_length_a 14.285641
_cell_length_b 9.489854
_cell_length_c 25.709333
_cell_angle_alpha 90.000000
_cell_angle_beta 90.000000
_cell_angle_gamma 90.000000
_cell_volume 3485.379500
_symmetry_space_group_name_H-M "P B C M"
_symmetry_group_IT_number 57
_symmetry_cell_setting 'orthorhombic'
loop_
_space_group_symop_operation_xyz
x,y,z
-x,-y,1/2+z
x,1/2-y,-z
-x,1/2+y,1/2-z
-x,-y,-z
x,y,1/2-z
-x,1/2+y,z
x,1/2-y,1/2+z
loop_
_atom_site_type_symbol
_atom_site_label
_atom_site_fract_x
_atom_site_fract_y
_atom_site_fract_z
Si Si1 0.091776 0.515698 0.810591
Si Si2 0.897288 0.978707 0.135112
Si Si3 0.202842 0.258662 0.309342
Si Si4 0.482995 0.481156 0.379617
Si Si5 0.414430 0.281580 0.811435
Si Si6 0.825994 0.216190 0.897633
Si Si7 0.613158 0.252514 0.563159
Si Si8 0.002112 0.631470 0.963376
O O1 0.109499 0.547137 0.750000
O O2 0.124096 0.356150 0.821506
O O3 0.151785 0.613667 0.849050
O O4 0.981837 0.524473 0.823364
O O5 0.809135 0.893693 0.155467
O O6 0.940477 0.897067 0.086564
O O7 0.867263 0.133242 0.118986
O O8 0.190806 0.303905 0.250000
O O9 0.303809 0.190050 0.314000
O O10 0.535825 0.589072 0.340607
O O11 0.432047 0.365000 0.342600
O O12 0.549489 0.377751 0.414564
O O13 0.424052 0.594464 0.414915
O O14 0.440932 0.269907 0.750000
O O15 0.718635 0.228056 0.915171
O O16 0.893128 0.164627 0.944269
O O17 0.611885 0.250000 0.500000
O O18 0.961735 0.750000 0.000000
O O19 0.000000 0.500000 0.000000
#
# Coordination Sequence:
#
# PCOD9438029 Si02
#       8
#     8   8   8   8   8   8   8   8
#     4  10  21  37  57  83 120 159 193 237 293 350
#     4  11  22  35  56  81 116 153 196 237 284 345
#     4  10  21  36  55  82 114 149 187 234 285 346
#     4  10  22  40  62  90 115 155 200 247 314 380
#     4  10  20  38  62  88 120 150 189 244 306 369
#     4  11  23  38  59  89 115 154 200 248 295 357
#     4  11  23  41  64  85 121 157 205 260 314 364
#     4  11  22  39  57  81 115 154 195 240 287 339
#
# _framework density 18.36242
#
# number of rings (size 3 to 8) (size 9 to 14) (size 15 to 20)
#    0.000    1.500    1.250    4.500    1.750    2.000 
#    0.000    3.125    0.000    0.000    0.000    0.000 
#    0.000    0.000    0.000    0.000    0.000    0.000 
#
# Total GULP energy -356867.442806 kJ/mol
# GULP energy per Si atom -5576.053794 kJ/mol
# Density = 1.832063 g / cm^3
# Si number density = 18.362420 Si / 1000 Ang^3
#
#
#
# Elastic Constant Matrix: (Units=GPa)
#
#
# Indices 1 2 3 4 5 6 
#
# 1 53.7065 16.2426 28.9847 0.0000 0.0000 0.0000
# 2 16.2426 81.8532 48.6336 0.0000 0.0000 0.0000
# 3 28.9847 48.6336 99.5708 0.0000 0.0000 0.0000
# 4 0.0000 0.0000 0.0000 35.5210 0.0000 0.0000
# 5 0.0000 0.0000 0.0000 0.0000 18.4046 0.0000
# 6 0.0000 0.0000 0.0000 0.0000 0.0000 29.7442
#
#
#
# Elastic Compliance Matrix: (Units=1/GPa)
#
#
# Indices 1 2 3 4 5 6 
#
# 1 0.022127 -0.000794 -0.006053 0.000000 0.000000 0.000000
# 2 -0.000794 0.017241 -0.008190 0.000000 0.000000 0.000000
# 3 -0.006053 -0.008190 0.015805 0.000000 0.000000 0.000000
# 4 0.000000 0.000000 0.000000 0.028152 0.000000 0.000000
# 5 0.000000 0.000000 0.000000 0.000000 0.054334 0.000000
# 6 0.000000 0.000000 0.000000 0.000000 0.000000 0.033620
#
#
# Mechanical properties :
#
#
# Convention : Reuss Voigt Hill
#
# Bulk Modulus (GPa) = 39.84298 46.98359 43.41329
# Shear Modulus (GPa) = 23.84143 26.15193 24.99668
#
# Velocity S-wave (km/s) = 3.60722 3.77796 3.69358
# Velocity P-wave (km/s) = 6.25256 6.68379 6.47177
#
# Compressibility (1/GPa) = 0.02509852
#
# Stress axis : x y z
#
# Youngs Moduli (GPa) = 45.19429 58.00292 63.27032
#
# Poissons Ratio (x) = 0.04607 0.38298
# Poissons Ratio (y) = 0.03590 0.51816
# Poissons Ratio (z) = 0.27356 0.47502
#
# Static dielectric constant tensor:
#      x y z
#    x 1.612610 0.000000 0.000000 
#    y 0.000000 1.623510 0.000000 
#    z 0.000000 0.000000 1.609710 
# 
# From -- ./inp_files/27448.got.cif
#   From: 2010.05.17/outbox.cif.g08.bks.cpg/sg57_14_cif.got.tgz:27448.got - 2010.06.03 13:58:18.
