data_PCOD9438788
_publ_section_title
;
Structure prediction by ZEFSAII (Michael W. Deem and Ramdas Pophale) SiO2 
 PCOD9438788
Probable space group: P B C M
;
_chemical_formula_sum "Si O2"
_cell_formula_units_Z 64
_cell_length_a 14.751242
_cell_length_b 25.991330
_cell_length_c 8.572629
_cell_angle_alpha 90.000000
_cell_angle_beta 90.000000
_cell_angle_gamma 90.000000
_cell_volume 3286.783667
_symmetry_space_group_name_H-M "P B C M"
_symmetry_group_IT_number 57
_symmetry_cell_setting 'orthorhombic'
loop_
_space_group_symop_operation_xyz
x,y,z
-x,-y,1/2+z
x,1/2-y,-z
-x,1/2+y,1/2-z
-x,-y,-z
x,y,1/2-z
-x,1/2+y,z
x,1/2-y,1/2+z
loop_
_atom_site_type_symbol
_atom_site_label
_atom_site_fract_x
_atom_site_fract_y
_atom_site_fract_z
Si Si1 0.380606 0.598118 0.561508
Si Si2 0.716630 0.992612 0.563216
Si Si3 0.700515 0.692405 0.062550
Si Si4 0.905888 0.807523 0.938256
Si Si5 0.732189 0.306529 0.563109
Si Si6 0.913498 0.137372 0.439816
Si Si7 0.590047 0.597848 0.563219
Si Si8 0.904410 0.019643 0.437015
O O1 0.377112 0.600666 0.750000
O O2 0.324633 0.547642 0.511345
O O3 0.336574 0.649720 0.494438
O O4 0.485369 0.592427 0.513987
O O5 0.718775 0.991598 0.750000
O O6 0.651899 0.947467 0.504509
O O7 0.818570 0.988408 0.500140
O O8 0.695402 0.692496 0.250000
O O9 0.803785 0.676956 0.015945
O O10 0.685343 0.750000 0.000000
O O11 0.630597 0.651821 0.994006
O O12 0.907827 0.806372 0.750000
O O13 0.987831 0.843542 0.992819
O O14 0.921326 0.750000 0.000000
O O15 0.711409 0.250000 0.500000
O O16 0.731305 0.305300 0.750000
O O17 0.832640 0.324944 0.510123
O O18 0.914220 0.137554 0.250000
O O19 0.893835 0.079137 0.489039
O O20 0.593302 0.595633 0.750000
O O21 0.904629 0.018013 0.250000
O O22 0.000000 0.000000 0.500000
#
# Coordination Sequence:
#
# PCOD9438788 Si02
#       8
#     8   8   8   8   8   8   8   8
#     4  10  23  43  64  89 121 158 203 258 313 370
#     4  11  23  42  66  92 123 160 204 253 309 371
#     4  10  21  38  61  88 122 161 201 250 305 364
#     4   9  18  34  55  81 113 150 190 235 286 345
#     4  11  22  38  62  91 124 164 208 257 313 372
#     4   9  19  36  58  84 119 158 196 243 297 358
#     4  11  24  41  64  92 121 156 204 257 311 375
#     4  11  23  40  61  91 127 165 204 246 305 366
#
# _framework density 19.471921999999999
#
# number of rings (size 3 to 8) (size 9 to 14) (size 15 to 20)
#    0.000    1.750    1.250    2.625    1.750    2.500 
#    0.000    1.875    0.000    0.000    0.000    0.000 
#    0.000    0.000    0.000    0.000    0.000    0.000 
#
# Total GULP energy -357661.127584 kJ/mol
# GULP energy per Si atom -5588.455119 kJ/mol
# Density = 1.942760 g / cm^3
# Si number density = 19.471922 Si / 1000 Ang^3
#
#
#
# Elastic Constant Matrix: (Units=GPa)
#
#
# Indices 1 2 3 4 5 6 
#
# 1 152.4792 61.9818 36.7060 0.0000 0.0000 0.0000
# 2 61.9818 96.7362 25.9697 0.0000 0.0000 0.0000
# 3 36.7060 25.9697 38.9067 0.0000 0.0000 0.0000
# 4 0.0000 0.0000 0.0000 31.2744 0.0000 0.0000
# 5 0.0000 0.0000 0.0000 0.0000 24.2427 0.0000
# 6 0.0000 0.0000 0.0000 0.0000 0.0000 -44.3985
#
#
#
# Elastic Compliance Matrix: (Units=1/GPa)
#
#
# Indices 1 2 3 4 5 6 
#
# 1 0.009984 -0.004713 -0.006274 0.000000 0.000000 0.000000
# 2 -0.004713 0.014819 -0.005445 0.000000 0.000000 0.000000
# 3 -0.006274 -0.005445 0.035256 0.000000 0.000000 0.000000
# 4 0.000000 0.000000 0.000000 0.031975 0.000000 0.000000
# 5 0.000000 0.000000 0.000000 0.000000 0.041250 0.000000
# 6 0.000000 0.000000 0.000000 0.000000 0.000000 -0.022523
#
#
# Mechanical properties :
#
#
# Convention : Reuss Voigt Hill
#
# Bulk Modulus (GPa) = 36.77059 59.71524 48.24292
# Shear Modulus (GPa) = 32.74624 13.12134 22.93379
#
# Velocity S-wave (km/s) = 4.10532 2.59870 3.43561
# Velocity P-wave (km/s) = 6.43401 6.30383 6.36925
#
# Compressibility (1/GPa) = 0.02719565
#
# Stress axis : x y z
#
# Youngs Moduli (GPa) = 100.15674 67.48118 28.36406
#
# Poissons Ratio (x) = 0.31804 0.17795
# Poissons Ratio (y) = 0.47204 0.15444
# Poissons Ratio (z) = 0.62835 0.36744
#
# Static dielectric constant tensor:
#      x y z
#    x 1.676020 0.000000 0.000000 
#    y 0.000000 1.651220 0.000000 
#    z 0.000000 0.000000 1.658190 
# 
# From -- ./inp_files/5648.got.cif
#   From: 2010.05.17/outbox.cif.g08.bks.cpg/sg57_3_cif.got.tgz:5648.got - 2010.06.03 13:58:18.
