data_PCOD9438304
_publ_section_title
;
Structure prediction by ZEFSAII (Michael W. Deem and Ramdas Pophale) SiO2 
 PCOD9438304
Probable space group: P B C M
;
_chemical_formula_sum "Si O2"
_cell_formula_units_Z 64
_cell_length_a 14.537167
_cell_length_b 11.695295
_cell_length_c 18.023417
_cell_angle_alpha 90.000000
_cell_angle_beta 90.000000
_cell_angle_gamma 90.000000
_cell_volume 3064.277493
_symmetry_space_group_name_H-M "P B C M"
_symmetry_group_IT_number 57
_symmetry_cell_setting 'orthorhombic'
loop_
_space_group_symop_operation_xyz
x,y,z
-x,-y,1/2+z
x,1/2-y,-z
-x,1/2+y,1/2-z
-x,-y,-z
x,y,1/2-z
-x,1/2+y,z
x,1/2-y,1/2+z
loop_
_atom_site_type_symbol
_atom_site_label
_atom_site_fract_x
_atom_site_fract_y
_atom_site_fract_z
Si Si1 0.372681 0.843149 0.393561
Si Si2 0.353561 0.918140 0.556407
Si Si3 0.167302 0.632648 0.664174
Si Si4 0.834781 0.537914 0.583481
Si Si5 0.713113 0.754332 0.588824
Si Si6 0.431340 0.114588 0.835511
Si Si7 0.877614 0.584820 0.079130
Si Si8 0.951120 0.141922 0.335872
O O1 0.381271 0.915757 0.469956
O O2 0.372842 0.708759 0.414281
O O3 0.274514 0.865269 0.356515
O O4 0.459942 0.869668 0.343215
O O5 0.245216 0.948519 0.559641
O O6 0.401294 0.012925 0.608406
O O7 0.156081 0.600199 0.750000
O O8 0.117592 0.540566 0.613195
O O9 0.121041 0.755812 0.653467
O O10 0.779471 0.648457 0.610823
O O11 0.885476 0.577691 0.509025
O O12 0.901054 0.474939 0.639951
O O13 0.693187 0.750000 0.500000
O O14 0.621162 0.728618 0.634490
O O15 0.776875 0.864561 0.599059
O O16 0.405474 0.091568 0.750000
O O17 0.958898 0.658019 0.114371
O O18 0.977701 0.137965 0.250000
#
# Coordination Sequence:
#
# PCOD9438304 Si02
#       8
#     8   8   8   8   8   8   8   8
#     4  11  22  42  68  97 131 176 220 275 335 393
#     4  10  22  41  68  95 129 173 224 275 330 392
#     4  11  24  41  64  96 134 171 218 275 333 396
#     4  10  20  43  67  94 122 170 219 270 323 391
#     4   9  23  43  66  93 128 172 220 271 327 394
#     4  11  25  41  66 101 135 177 224 272 337 400
#     4  11  23  43  66  95 133 168 225 271 325 396
#     4  11  25  41  62  95 132 171 213 270 337 395
#
# _framework density 20.885836999999999
#
# number of rings (size 3 to 8) (size 9 to 14) (size 15 to 20)
#    0.000    1.500    2.500    1.500    3.500    5.500 
#    2.250    0.000    0.000    0.000    0.000    0.000 
#    0.000    0.000    0.000    0.000    0.000    0.000 
#
# Total GULP energy -357662.059525 kJ/mol
# GULP energy per Si atom -5588.469680 kJ/mol
# Density = 2.083830 g / cm^3
# Si number density = 20.885837 Si / 1000 Ang^3
#
#
#
# Elastic Constant Matrix: (Units=GPa)
#
#
# Indices 1 2 3 4 5 6 
#
# 1 86.6951 -0.4090 32.0479 0.0000 0.0000 0.0000
# 2 -0.4090 38.4665 10.6955 0.0000 0.0000 0.0000
# 3 32.0479 10.6955 56.9427 0.0000 0.0000 0.0000
# 4 0.0000 0.0000 0.0000 23.3949 0.0000 0.0000
# 5 0.0000 0.0000 0.0000 0.0000 26.1905 0.0000
# 6 0.0000 0.0000 0.0000 0.0000 0.0000 16.4564
#
#
#
# Elastic Compliance Matrix: (Units=1/GPa)
#
#
# Indices 1 2 3 4 5 6 
#
# 1 0.014809 0.002611 -0.008825 0.000000 0.000000 0.000000
# 2 0.002611 0.027890 -0.006708 0.000000 0.000000 0.000000
# 3 -0.008825 -0.006708 0.023789 0.000000 0.000000 0.000000
# 4 0.000000 0.000000 0.000000 0.042744 0.000000 0.000000
# 5 0.000000 0.000000 0.000000 0.000000 0.038182 0.000000
# 6 0.000000 0.000000 0.000000 0.000000 0.000000 0.060767
#
#
# Mechanical properties :
#
#
# Convention : Reuss Voigt Hill
#
# Bulk Modulus (GPa) = 24.60439 29.64145 27.12292
# Shear Modulus (GPa) = 20.19609 22.52633 21.36121
#
# Velocity S-wave (km/s) = 3.11300 3.28768 3.20153
# Velocity P-wave (km/s) = 4.97262 5.35115 5.16535
#
# Compressibility (1/GPa) = 0.04064315
#
# Stress axis : x y z
#
# Youngs Moduli (GPa) = 67.52466 35.85565 42.03711
#
# Poissons Ratio (x) = -0.09363 0.37099
# Poissons Ratio (y) = -0.17633 0.28199
# Poissons Ratio (z) = 0.59593 0.24053
#
# Static dielectric constant tensor:
#      x y z
#    x 1.754780 0.000000 0.000000 
#    y 0.000000 1.752450 0.000000 
#    z 0.000000 0.000000 1.725280 
# 
# From -- ./inp_files/22698.got.cif
#   From: 2010.05.17/outbox.cif.g08.bks.cpg/sg57_12_cif.got.tgz:22698.got - 2010.06.03 13:58:18.
