data_PCOD9438969
_publ_section_title
;
Structure prediction by ZEFSAII (Michael W. Deem and Ramdas Pophale) SiO2 
 PCOD9438969
Probable space group: P B C M
;
_chemical_formula_sum "Si O2"
_cell_formula_units_Z 56
_cell_length_a 15.366141
_cell_length_b 11.058149
_cell_length_c 13.930873
_cell_angle_alpha 90.000000
_cell_angle_beta 90.000000
_cell_angle_gamma 90.000000
_cell_volume 2367.148940
_symmetry_space_group_name_H-M "P B C M"
_symmetry_group_IT_number 57
_symmetry_cell_setting 'orthorhombic'
loop_
_space_group_symop_operation_xyz
x,y,z
-x,-y,1/2+z
x,1/2-y,-z
-x,1/2+y,1/2-z
-x,-y,-z
x,y,1/2-z
-x,1/2+y,z
x,1/2-y,1/2+z
loop_
_atom_site_type_symbol
_atom_site_label
_atom_site_fract_x
_atom_site_fract_y
_atom_site_fract_z
Si Si1 0.107066 0.031215 0.933334
Si Si2 0.627210 0.240261 0.358692
Si Si3 0.077848 0.540078 0.639898
Si Si4 0.280106 0.121171 0.544752
Si Si5 0.323709 0.014878 0.146230
Si Si6 0.178120 0.791844 0.863189
Si Si7 0.438617 0.256658 0.359139
O O1 0.116966 0.887387 0.915575
O O2 0.197656 0.083933 0.892611
O O3 0.096540 0.047764 0.048834
O O4 0.021885 0.078889 0.880531
O O5 0.624664 0.190231 0.250000
O O6 0.631369 0.385629 0.353921
O O7 0.721116 0.200328 0.397833
O O8 0.532166 0.218308 0.401189
O O9 0.082009 0.493954 0.750000
O O10 0.141772 0.655625 0.631010
O O11 0.256791 0.250000 0.500000
O O12 0.280403 0.027602 0.457027
O O13 0.375468 0.145474 0.589855
O O14 0.275677 0.021094 0.250000
O O15 0.385332 0.131879 0.145354
O O16 0.178276 0.821139 0.750000
O O17 0.452932 0.299752 0.250000
#
# Coordination Sequence:
#
# PCOD9438969 Si02
#       7
#     8   8   8   8   8   8   8
#     4  11  23  39  64  91 119 155 203 253 301 359
#     4   9  18  34  59  88 117 154 199 245 293 350
#     4  10  23  42  61  85 120 156 192 246 314 373
#     4  10  22  38  56  84 117 153 198 243 291 352
#     4   9  18  35  55  76 110 154 194 235 290 349
#     4  10  21  39  63  92 122 152 196 248 300 361
#     4   9  19  35  54  81 120 159 196 243 296 351
#
# _framework density 23.657150999999999
#
# number of rings (size 3 to 8) (size 9 to 14) (size 15 to 20)
#    0.000    2.286    0.000    1.714    0.000    6.857 
#    0.000   10.000    0.000    0.000    0.000    0.000 
#    0.000    0.000    0.000    0.000    0.000    0.000 
#
# Total GULP energy -312193.493692 kJ/mol
# GULP energy per Si atom -5574.883816 kJ/mol
# Density = 2.360331 g / cm^3
# Si number density = 23.657151 Si / 1000 Ang^3
#
#
#
# Elastic Constant Matrix: (Units=GPa)
#
#
# Indices 1 2 3 4 5 6 
#
# 1 173.2699 4.2694 19.9190 0.0000 0.0000 0.0000
# 2 4.2694 26.4589 7.1565 0.0000 0.0000 0.0000
# 3 19.9190 7.1565 105.0559 0.0000 0.0000 0.0000
# 4 0.0000 0.0000 0.0000 20.4363 0.0000 0.0000
# 5 0.0000 0.0000 0.0000 0.0000 94.6454 0.0000
# 6 0.0000 0.0000 0.0000 0.0000 0.0000 11.6355
#
#
#
# Elastic Compliance Matrix: (Units=1/GPa)
#
#
# Indices 1 2 3 4 5 6 
#
# 1 0.005911 -0.000663 -0.001076 0.000000 0.000000 0.000000
# 2 -0.000663 0.038578 -0.002502 0.000000 0.000000 0.000000
# 3 -0.001076 -0.002502 0.009893 0.000000 0.000000 0.000000
# 4 0.000000 0.000000 0.000000 0.048933 0.000000 0.000000
# 5 0.000000 0.000000 0.000000 0.000000 0.010566 0.000000
# 6 0.000000 0.000000 0.000000 0.000000 0.000000 0.085944
#
#
# Mechanical properties :
#
#
# Convention : Reuss Voigt Hill
#
# Bulk Modulus (GPa) = 21.78601 40.83050 31.30825
# Shear Modulus (GPa) = 22.36066 43.57276 32.96671
#
# Velocity S-wave (km/s) = 3.07774 4.29633 3.73704
# Velocity P-wave (km/s) = 4.67536 6.47364 5.64655
#
# Compressibility (1/GPa) = 0.04590102
#
# Stress axis : x y z
#
# Youngs Moduli (GPa) = 169.16658 25.92134 101.08005
#
# Poissons Ratio (x) = 0.01718 0.10873
# Poissons Ratio (y) = 0.11214 0.25293
# Poissons Ratio (z) = 0.18196 0.06486
#
# Static dielectric constant tensor:
#      x y z
#    x 1.989310 0.000000 0.000000 
#    y 0.000000 1.823810 0.000000 
#    z 0.000000 0.000000 1.994470 
# 
# From -- ./inp_files/18542.got.cif
#   From: 2010.05.17/outbox.cif.g08.bks.cpg/sg57_10_cif.got.tgz:18542.got - 2010.06.03 13:58:18.
