data_PCOD9438114
_publ_section_title
;
Structure prediction by ZEFSAII (Michael W. Deem and Ramdas Pophale) SiO2 
 PCOD9438114
Probable space group: P B C M
;
_chemical_formula_sum "Si O2"
_cell_formula_units_Z 64
_cell_length_a 10.008355
_cell_length_b 22.197122
_cell_length_c 15.480283
_cell_angle_alpha 90.000000
_cell_angle_beta 90.000000
_cell_angle_gamma 90.000000
_cell_volume 3439.048230
_symmetry_space_group_name_H-M "P B C M"
_symmetry_group_IT_number 57
_symmetry_cell_setting 'orthorhombic'
loop_
_space_group_symop_operation_xyz
x,y,z
-x,-y,1/2+z
x,1/2-y,-z
-x,1/2+y,1/2-z
-x,-y,-z
x,y,1/2-z
-x,1/2+y,z
x,1/2-y,1/2+z
loop_
_atom_site_type_symbol
_atom_site_label
_atom_site_fract_x
_atom_site_fract_y
_atom_site_fract_z
Si Si1 0.378338 0.045062 0.511863
Si Si2 0.297142 0.253194 0.396005
Si Si3 0.988771 0.262360 0.397327
Si Si4 0.798365 0.125838 0.851038
Si Si5 0.040168 0.872975 0.653716
Si Si6 0.484191 0.361222 0.348792
Si Si7 0.278948 0.116161 0.153293
Si Si8 0.132916 0.539644 0.007088
O O1 0.416682 0.093142 0.584392
O O2 0.346605 0.078656 0.422181
O O3 0.500000 0.000000 0.500000
O O4 0.249986 0.005307 0.534113
O O5 0.307438 0.250000 0.500000
O O6 0.407366 0.298362 0.360485
O O7 0.313708 0.186374 0.358846
O O8 0.144978 0.274040 0.375388
O O9 0.982699 0.250000 0.500000
O O10 0.895065 0.317690 0.371374
O O11 0.946529 0.199119 0.354781
O O12 0.813291 0.109378 0.750000
O O13 0.642989 0.143165 0.866008
O O14 0.834180 0.071713 0.915990
O O15 0.081670 0.891758 0.750000
O O16 0.114143 0.908199 0.578093
O O17 0.881925 0.886823 0.643692
O O18 0.468536 0.381964 0.250000
O O19 0.314191 0.095977 0.250000
O O20 0.000000 0.500000 0.000000
#
# Coordination Sequence:
#
# PCOD9438114 Si02
#       8
#     8   8   8   8   8   8   8   8
#     4  12  25  44  64  89 125 170 214 259 309 367
#     4  10  20  38  69  99 125 158 207 261 317 373
#     4  10  20  38  69  97 126 161 202 258 322 378
#     4  11  25  44  65  94 130 170 208 257 322 381
#     4  10  21  40  65  96 127 158 203 262 317 372
#     4  11  25  44  65  93 130 168 211 261 315 378
#     4  10  21  40  67  94 124 165 207 253 314 379
#     4  12  25  42  66  91 123 164 218 261 308 371
#
# _framework density 18.6098
#
# number of rings (size 3 to 8) (size 9 to 14) (size 15 to 20)
#    0.000    1.250    5.000    0.750    1.750    4.000 
#    2.250    0.000    0.000    0.000    0.000    0.000 
#    0.000    0.000    0.000    0.000    0.000    0.000 
#
# Total GULP energy -357652.434073 kJ/mol
# GULP energy per Si atom -5588.319282 kJ/mol
# Density = 1.856744 g / cm^3
# Si number density = 18.609800 Si / 1000 Ang^3
#
#
#
# Elastic Constant Matrix: (Units=GPa)
#
#
# Indices 1 2 3 4 5 6 
#
# 1 101.0927 49.4197 37.6629 0.0000 0.0000 0.0000
# 2 49.4197 73.5210 38.9678 0.0000 0.0000 0.0000
# 3 37.6629 38.9678 115.0446 0.0000 0.0000 0.0000
# 4 0.0000 0.0000 0.0000 -10.9392 0.0000 0.0000
# 5 0.0000 0.0000 0.0000 0.0000 23.9342 0.0000
# 6 0.0000 0.0000 0.0000 0.0000 0.0000 38.0499
#
#
#
# Elastic Compliance Matrix: (Units=1/GPa)
#
#
# Indices 1 2 3 4 5 6 
#
# 1 0.015042 -0.009142 -0.001828 0.000000 0.000000 0.000000
# 2 -0.009142 0.022134 -0.004504 0.000000 0.000000 0.000000
# 3 -0.001828 -0.004504 0.010816 0.000000 0.000000 0.000000
# 4 0.000000 0.000000 0.000000 -0.091414 0.000000 0.000000
# 5 0.000000 0.000000 0.000000 0.000000 0.041781 0.000000
# 6 0.000000 0.000000 0.000000 0.000000 0.000000 0.026281
#
#
# Mechanical properties :
#
#
# Convention : Reuss Voigt Hill
#
# Bulk Modulus (GPa) = 58.67189 60.19545 59.43367
# Shear Modulus (GPa) = 81.60486 21.11619 51.36053
#
# Velocity S-wave (km/s) = 6.62915 3.37216 5.25914
# Velocity P-wave (km/s) = 9.49685 6.89770 8.29965
#
# Compressibility (1/GPa) = 0.01704394
#
# Stress axis : x y z
#
# Youngs Moduli (GPa) = 66.47998 45.17877 92.45263
#
# Poissons Ratio (x) = 0.41304 0.16898
# Poissons Ratio (y) = 0.60778 0.41644
# Poissons Ratio (z) = 0.12151 0.20350
#
# Static dielectric constant tensor:
#      x y z
#    x 1.614260 0.000000 0.000000 
#    y 0.000000 1.628720 0.000000 
#    z 0.000000 0.000000 1.652890 
# 
# From -- ./inp_files/16948.got.cif
#   From: 2010.05.17/outbox.cif.g08.bks.cpg/sg57_9_cif.got.tgz:16948.got - 2010.06.03 13:58:18.
