data_PCOD9438441
_publ_section_title
;
Structure prediction by ZEFSAII (Michael W. Deem and Ramdas Pophale) SiO2 
 PCOD9438441
Probable space group: P B C M
;
_chemical_formula_sum "Si O2"
_cell_formula_units_Z 36
_cell_length_a 11.495701
_cell_length_b 8.476660
_cell_length_c 19.902445
_cell_angle_alpha 90.000000
_cell_angle_beta 90.000000
_cell_angle_gamma 90.000000
_cell_volume 1939.396715
_symmetry_space_group_name_H-M "P B C M"
_symmetry_group_IT_number 57
_symmetry_cell_setting 'orthorhombic'
loop_
_space_group_symop_operation_xyz
x,y,z
-x,-y,1/2+z
x,1/2-y,-z
-x,1/2+y,1/2-z
-x,-y,-z
x,y,1/2-z
-x,1/2+y,z
x,1/2-y,1/2+z
loop_
_atom_site_type_symbol
_atom_site_label
_atom_site_fract_x
_atom_site_fract_y
_atom_site_fract_z
Si Si1 0.475232 0.750000 0.000000
Si Si2 0.334007 0.482937 0.444737
Si Si3 0.075980 0.457722 0.672232
Si Si4 0.879715 0.073341 0.971010
Si Si5 0.830632 0.896803 0.326313
O O1 0.561097 0.866138 0.038934
O O2 0.392200 0.654456 0.050162
O O3 0.231164 0.479211 0.500165
O O4 0.270651 0.440063 0.376537
O O5 0.107109 0.501590 0.750000
O O6 0.122479 0.560489 0.609837
O O7 0.115763 0.277533 0.660581
O O8 0.936992 0.480211 0.667551
O O9 0.873660 0.250000 0.000000
O O10 0.000000 0.000000 0.000000
O O11 0.789294 0.897249 0.250000
#
# Coordination Sequence:
#
# PCOD9438441 Si02
#       5
#     4   8   8   8   8
#     4  10  24  40  62  80 112 164 208 262 300 336
#     4  11  22  41  60  86 119 155 211 255 296 360
#     4  10  21  36  56  91 132 162 189 240 320 387
#     4  12  23  35  60  95 122 156 203 252 314 376
#     4  10  21  37  60  89 125 162 196 245 312 379
#
# _framework density 18.562473000000001
#
# number of rings (size 3 to 8) (size 9 to 14) (size 15 to 20)
#    0.000    1.333    3.333    2.667    1.556    0.000 
#    0.000    1.111    0.000    5.333    0.000    0.000 
#    0.000    0.000    0.000    0.000    0.000    0.000 
#
# Total GULP energy -200977.371634 kJ/mol
# GULP energy per Si atom -5582.704768 kJ/mol
# Density = 1.852022 g / cm^3
# Si number density = 18.562473 Si / 1000 Ang^3
#
#
#
# Elastic Constant Matrix: (Units=GPa)
#
#
# Indices 1 2 3 4 5 6 
#
# 1 102.7206 43.2378 66.2365 0.0000 0.0000 0.0000
# 2 43.2378 93.4291 69.6939 0.0000 0.0000 0.0000
# 3 66.2365 69.6939 152.7336 0.0000 0.0000 0.0000
# 4 0.0000 0.0000 0.0000 30.3202 0.0000 0.0000
# 5 0.0000 0.0000 0.0000 0.0000 27.8899 0.0000
# 6 0.0000 0.0000 0.0000 0.0000 0.0000 31.0903
#
#
#
# Elastic Compliance Matrix: (Units=1/GPa)
#
#
# Indices 1 2 3 4 5 6 
#
# 1 0.014036 -0.002964 -0.004734 0.000000 0.000000 0.000000
# 2 -0.002964 0.016852 -0.006405 0.000000 0.000000 0.000000
# 3 -0.004734 -0.006405 0.011523 0.000000 0.000000 0.000000
# 4 0.000000 0.000000 0.000000 0.032981 0.000000 0.000000
# 5 0.000000 0.000000 0.000000 0.000000 0.035855 0.000000
# 6 0.000000 0.000000 0.000000 0.000000 0.000000 0.032164
#
#
# Mechanical properties :
#
#
# Convention : Reuss Voigt Hill
#
# Bulk Modulus (GPa) = 70.39605 78.57995 74.48800
# Shear Modulus (GPa) = 28.35224 29.17441 28.76333
#
# Velocity S-wave (km/s) = 3.91243 3.96875 3.94069
# Velocity P-wave (km/s) = 7.64301 7.96404 7.80518
#
# Compressibility (1/GPa) = 0.01420534
#
# Stress axis : x y z
#
# Youngs Moduli (GPa) = 71.24772 59.33840 86.78260
#
# Poissons Ratio (x) = 0.17587 0.41087
# Poissons Ratio (y) = 0.21116 0.55581
# Poissons Ratio (z) = 0.33732 0.38004
#
# Static dielectric constant tensor:
#      x y z
#    x 1.608640 0.000000 0.000000 
#    y 0.000000 1.690860 0.000000 
#    z 0.000000 0.000000 1.647390 
# 
# From -- ./inp_files/24827.got.cif
#   From: 2010.05.17/outbox.cif.g08.bks.cpg/sg57_13_cif.got.tgz:24827.got - 2010.06.03 13:58:18.
