data_PCOD9438738
_publ_section_title
;
Structure prediction by ZEFSAII (Michael W. Deem and Ramdas Pophale) SiO2 
 PCOD9438738
Probable space group: P B C M
;
_chemical_formula_sum "Si O2"
_cell_formula_units_Z 48
_cell_length_a 7.479212
_cell_length_b 14.492547
_cell_length_c 23.456646
_cell_angle_alpha 90.000000
_cell_angle_beta 90.000000
_cell_angle_gamma 90.000000
_cell_volume 2542.532276
_symmetry_space_group_name_H-M "P B C M"
_symmetry_group_IT_number 57
_symmetry_cell_setting 'orthorhombic'
loop_
_space_group_symop_operation_xyz
x,y,z
-x,-y,1/2+z
x,1/2-y,-z
-x,1/2+y,1/2-z
-x,-y,-z
x,y,1/2-z
-x,1/2+y,z
x,1/2-y,1/2+z
loop_
_atom_site_type_symbol
_atom_site_label
_atom_site_fract_x
_atom_site_fract_y
_atom_site_fract_z
Si Si1 0.867062 0.453181 0.456353
Si Si2 0.880137 0.277083 0.112042
Si Si3 0.552000 0.131572 0.681373
Si Si4 0.225209 0.233674 0.316058
Si Si5 0.377886 0.661235 0.465160
Si Si6 0.370335 0.060750 0.125787
O O1 0.946325 0.363149 0.425862
O O2 0.694407 0.413348 0.489883
O O3 0.801402 0.523647 0.408483
O O4 0.000000 0.500000 0.500000
O O5 0.721092 0.316665 0.152381
O O6 0.789582 0.202611 0.070318
O O7 0.046013 0.240581 0.147459
O O8 0.573281 0.127645 0.750000
O O9 0.373292 0.189525 0.668122
O O10 0.542778 0.029600 0.654307
O O11 0.181338 0.246237 0.250000
O O12 0.314822 0.134888 0.327261
O O13 0.453367 0.750000 0.500000
O O14 0.508347 0.613501 0.420406
#
# Coordination Sequence:
#
# PCOD9438738 Si02
#       6
#     8   8   8   8   8   8
#     4  10  22  36  58  90 122 156 203 252 295 363
#     4  10  21  40  62  85 124 160 198 255 301 358
#     4  10  22  41  61  88 122 157 202 254 301 358
#     4  11  23  40  64  91 119 162 207 246 310 365
#     4  10  21  38  59  88 120 160 205 242 309 360
#     4  11  22  39  64  88 124 162 202 253 302 365
#
# _framework density 18.878817000000002
#
# number of rings (size 3 to 8) (size 9 to 14) (size 15 to 20)
#    0.000    1.667    1.667    2.500    2.333    1.333 
#    0.000    0.000    0.000    0.000    0.000    0.000 
#    0.000    0.000    0.000    0.000    0.000    0.000 
#
# Total GULP energy -268078.178048 kJ/mol
# GULP energy per Si atom -5584.962043 kJ/mol
# Density = 1.883585 g / cm^3
# Si number density = 18.878817 Si / 1000 Ang^3
#
#
#
# Elastic Constant Matrix: (Units=GPa)
#
#
# Indices 1 2 3 4 5 6 
#
# 1 25.1684 23.2441 4.5357 0.0000 0.0000 0.0000
# 2 23.2441 81.6539 14.0725 0.0000 0.0000 0.0000
# 3 4.5357 14.0725 52.7482 0.0000 0.0000 0.0000
# 4 0.0000 0.0000 0.0000 38.3447 0.0000 0.0000
# 5 0.0000 0.0000 0.0000 0.0000 34.0639 0.0000
# 6 0.0000 0.0000 0.0000 0.0000 0.0000 11.6763
#
#
#
# Elastic Compliance Matrix: (Units=1/GPa)
#
#
# Indices 1 2 3 4 5 6 
#
# 1 0.053920 -0.015251 -0.000568 0.000000 0.000000 0.000000
# 2 -0.015251 0.017151 -0.003264 0.000000 0.000000 0.000000
# 3 -0.000568 -0.003264 0.019878 0.000000 0.000000 0.000000
# 4 0.000000 0.000000 0.000000 0.026079 0.000000 0.000000
# 5 0.000000 0.000000 0.000000 0.000000 0.029357 0.000000
# 6 0.000000 0.000000 0.000000 0.000000 0.000000 0.085643
#
#
# Mechanical properties :
#
#
# Convention : Reuss Voigt Hill
#
# Bulk Modulus (GPa) = 18.94579 27.03057 22.98818
# Shear Modulus (GPa) = 17.37392 24.66488 21.01940
#
# Velocity S-wave (km/s) = 3.03691 3.61845 3.34036
# Velocity P-wave (km/s) = 4.72804 5.63974 5.20389
#
# Compressibility (1/GPa) = 0.05278218
#
# Stress axis : x y z
#
# Youngs Moduli (GPa) = 18.54606 58.30595 50.30777
#
# Poissons Ratio (x) = 0.88924 0.02855
# Poissons Ratio (y) = 0.28285 0.16422
# Poissons Ratio (z) = 0.01053 0.19032
#
# Static dielectric constant tensor:
#      x y z
#    x 1.628450 0.000000 0.000000 
#    y 0.000000 1.646040 0.000000 
#    z 0.000000 0.000000 1.643520 
# 
# From -- ./inp_files/26699.got.cif
#   From: 2010.05.17/outbox.cif.g08.bks.cpg/sg57_14_cif.got.tgz:26699.got - 2010.06.03 13:58:18.
