data_PCOD9438097
_publ_section_title
;
Structure prediction by ZEFSAII (Michael W. Deem and Ramdas Pophale) SiO2 
 PCOD9438097
Probable space group: P B C M
;
_chemical_formula_sum "Si O2"
_cell_formula_units_Z 24
_cell_length_a 7.680840
_cell_length_b 14.819974
_cell_length_c 11.004075
_cell_angle_alpha 90.000000
_cell_angle_beta 90.000000
_cell_angle_gamma 90.000000
_cell_volume 1252.592197
_symmetry_space_group_name_H-M "P B C M"
_symmetry_group_IT_number 57
_symmetry_cell_setting 'orthorhombic'
loop_
_space_group_symop_operation_xyz
x,y,z
-x,-y,1/2+z
x,1/2-y,-z
-x,1/2+y,1/2-z
-x,-y,-z
x,y,1/2-z
-x,1/2+y,z
x,1/2-y,1/2+z
loop_
_atom_site_type_symbol
_atom_site_label
_atom_site_fract_x
_atom_site_fract_y
_atom_site_fract_z
Si Si1 0.202104 0.459778 0.250000
Si Si2 0.481048 0.193872 0.750000
Si Si3 0.687519 0.049235 0.005230
Si Si4 0.178324 0.582490 0.750000
Si Si5 0.448006 0.750000 0.000000
O O1 0.372584 0.397538 0.250000
O O2 0.213733 0.516758 0.374265
O O3 0.027022 0.400521 0.250000
O O4 0.686650 0.166785 0.750000
O O5 0.444030 0.243608 0.624538
O O6 0.658234 0.157081 0.011177
O O7 0.778450 0.030977 0.875575
O O8 0.500000 0.000000 0.000000
#
# Coordination Sequence:
#
# PCOD9438097 Si02
#       5
#     4   4   8   4   4
#     4  12  21  39  65  90 121 165 198 257 304 361
#     4  10  21  40  59  89 122 159 208 244 309 360
#     4  11  20  40  66  87 122 165 201 249 311 354
#     4  10  22  37  62  91 119 156 210 245 301 369
#     4  10  20  38  66  84 122 164 200 250 302 364
#
# _framework density 19.160264999999999
#
# number of rings (size 3 to 8) (size 9 to 14) (size 15 to 20)
#    0.000    1.333    6.667    2.000    0.000    0.000 
#    0.000    6.667   14.667    0.000    0.000    0.000 
#    0.000    0.000    0.000    0.000    0.000    0.000 
#
# Total GULP energy -133683.908903 kJ/mol
# GULP energy per Si atom -5570.162871 kJ/mol
# Density = 1.911666 g / cm^3
# Si number density = 19.160265 Si / 1000 Ang^3
#
#
#
# Elastic Constant Matrix: (Units=GPa)
#
#
# Indices 1 2 3 4 5 6 
#
# 1 45.9284 30.2944 4.1581 0.0000 0.0000 0.0000
# 2 30.2944 77.1589 34.3222 0.0000 0.0000 0.0000
# 3 4.1581 34.3222 212.7609 0.0000 0.0000 0.0000
# 4 0.0000 0.0000 0.0000 27.6436 0.0000 0.0000
# 5 0.0000 0.0000 0.0000 0.0000 -2.4966 0.0000
# 6 0.0000 0.0000 0.0000 0.0000 0.0000 5.6758
#
#
#
# Elastic Compliance Matrix: (Units=1/GPa)
#
#
# Indices 1 2 3 4 5 6 
#
# 1 0.029767 -0.012312 0.001404 0.000000 0.000000 0.000000
# 2 -0.012312 0.019054 -0.002833 0.000000 0.000000 0.000000
# 3 0.001404 -0.002833 0.005130 0.000000 0.000000 0.000000
# 4 0.000000 0.000000 0.000000 0.036175 0.000000 0.000000
# 5 0.000000 0.000000 0.000000 0.000000 -0.400544 0.000000
# 6 0.000000 0.000000 0.000000 0.000000 0.000000 0.176186
#
#
# Mechanical properties :
#
#
# Convention : Reuss Voigt Hill
#
# Bulk Modulus (GPa) = 37.77919 52.59973 45.18946
# Shear Modulus (GPa) = -51.05805 23.96947 -13.54429
#
# Velocity S-wave (km/s) = -5.16776 3.54078 -2.66163
# Velocity P-wave (km/s) = 3.98088 6.65044 3.76702
#
# Compressibility (1/GPa) = 0.02646960
#
# Stress axis : x y z
#
# Youngs Moduli (GPa) = 33.59457 52.48120 194.94267
#
# Poissons Ratio (x) = 0.64614 -0.27377
# Poissons Ratio (y) = 0.41361 0.55231
# Poissons Ratio (z) = -0.04718 0.14869
#
# Static dielectric constant tensor:
#      x y z
#    x 1.652290 0.000000 0.000000 
#    y 0.000000 1.662410 0.000000 
#    z 0.000000 0.000000 1.643910 
# 
# From -- ./inp_files/11191.got.cif
#   From: 2010.05.17/outbox.cif.g08.bks.cpg/sg57_6_cif.got.tgz:11191.got - 2010.06.03 13:58:18.
