data_PCOD9438069
_publ_section_title
;
Structure prediction by ZEFSAII (Michael W. Deem and Ramdas Pophale) SiO2 
 PCOD9438069
Probable space group: P B C M
;
_chemical_formula_sum "Si O2"
_cell_formula_units_Z 32
_cell_length_a 14.886774
_cell_length_b 9.579639
_cell_length_c 9.184602
_cell_angle_alpha 90.000000
_cell_angle_beta 90.000000
_cell_angle_gamma 90.000000
_cell_volume 1309.815364
_symmetry_space_group_name_H-M "P B C M"
_symmetry_group_IT_number 57
_symmetry_cell_setting 'orthorhombic'
loop_
_space_group_symop_operation_xyz
x,y,z
-x,-y,1/2+z
x,1/2-y,-z
-x,1/2+y,1/2-z
-x,-y,-z
x,y,1/2-z
-x,1/2+y,z
x,1/2-y,1/2+z
loop_
_atom_site_type_symbol
_atom_site_label
_atom_site_fract_x
_atom_site_fract_y
_atom_site_fract_z
Si Si1 0.141871 0.903336 0.250000
Si Si2 0.383673 0.346494 0.750000
Si Si3 0.999600 0.346694 0.750000
Si Si4 0.729020 0.999525 0.502053
Si Si5 0.498053 0.398790 0.250000
Si Si6 0.390173 0.750000 0.500000
Si Si7 0.853292 0.597259 0.750000
O O1 0.077815 0.772298 0.250000
O O2 0.075902 0.033505 0.250000
O O3 0.204650 0.916229 0.109873
O O4 0.330009 0.400494 0.891896
O O5 0.477172 0.437525 0.750000
O O6 0.402857 0.180956 0.750000
O O7 0.081078 0.228341 0.750000
O O8 0.919721 0.466129 0.750000
O O9 0.789317 0.914179 0.390178
O O10 0.669491 0.124070 0.433138
O O11 0.548400 0.333504 0.388187
#
# Coordination Sequence:
#
# PCOD9438069 Si02
#       7
#     4   4   4   8   4   4   4
#     4  10  22  40  60  86 122 160 202 252 302 364
#     4   9  22  44  64  89 122 162 204 249 304 364
#     4  10  24  39  62  91 122 160 204 252 306 357
#     4  10  21  39  63  87 121 161 204 248 301 363
#     4  10  21  39  64  91 121 154 206 254 299 361
#     4  10  20  38  64  90 118 166 208 240 300 374
#     4  11  23  40  64  91 123 162 204 251 301 360
#
# _framework density 24.430924000000001
#
# number of rings (size 3 to 8) (size 9 to 14) (size 15 to 20)
#    0.000    2.000    0.000    3.000    0.000   11.000 
#    0.000   13.750    0.000    0.000    0.000    0.000 
#    0.000    0.000    0.000    0.000    0.000    0.000 
#
# Total GULP energy -178171.666431 kJ/mol
# GULP energy per Si atom -5567.864576 kJ/mol
# Density = 2.437532 g / cm^3
# Si number density = 24.430924 Si / 1000 Ang^3
#
#
#
# Elastic Constant Matrix: (Units=GPa)
#
#
# Indices 1 2 3 4 5 6 
#
# 1 125.9102 49.2935 30.4224 0.0000 0.0000 0.0000
# 2 49.2935 187.8652 3.2809 0.0000 0.0000 0.0000
# 3 30.4224 3.2809 84.3607 0.0000 0.0000 0.0000
# 4 0.0000 0.0000 0.0000 143.1571 0.0000 0.0000
# 5 0.0000 0.0000 0.0000 0.0000 -84.1823 0.0000
# 6 0.0000 0.0000 0.0000 0.0000 0.0000 80.7031
#
#
#
# Elastic Compliance Matrix: (Units=1/GPa)
#
#
# Indices 1 2 3 4 5 6 
#
# 1 0.009746 -0.002497 -0.003417 0.000000 0.000000 0.000000
# 2 -0.002497 0.005967 0.000669 0.000000 0.000000 0.000000
# 3 -0.003417 0.000669 0.013060 0.000000 0.000000 0.000000
# 4 0.000000 0.000000 0.000000 0.006985 0.000000 0.000000
# 5 0.000000 0.000000 0.000000 0.000000 -0.011879 0.000000
# 6 0.000000 0.000000 0.000000 0.000000 0.000000 0.012391
#
#
# Mechanical properties :
#
#
# Convention : Reuss Voigt Hill
#
# Bulk Modulus (GPa) = 54.70462 62.68109 58.69286
# Shear Modulus (GPa) = 94.59720 48.94486 71.77103
#
# Velocity S-wave (km/s) = 6.22931 4.48079 5.42595
# Velocity P-wave (km/s) = 8.61274 7.24445 7.95806
#
# Compressibility (1/GPa) = 0.01827999
#
# Stress axis : x y z
#
# Youngs Moduli (GPa) = 102.61023 167.60002 76.56826
#
# Poissons Ratio (x) = 0.41857 0.26166
# Poissons Ratio (y) = 0.25626 -0.05119
# Poissons Ratio (z) = 0.35066 -0.11205
#
# Static dielectric constant tensor:
#      x y z
#    x 1.875390 0.000000 0.000000 
#    y 0.000000 1.881840 0.000000 
#    z 0.000000 0.000000 1.949170 
# 
# From -- ./inp_files/13490.got.cif
#   From: 2010.05.17/outbox.cif.g08.bks.cpg/sg57_7_cif.got.tgz:13490.got - 2010.06.03 13:58:18.
