data_PCOD9438291
_publ_section_title
;
Structure prediction by ZEFSAII (Michael W. Deem and Ramdas Pophale) SiO2 
 PCOD9438291
Probable space group: P B C M
;
_chemical_formula_sum "Si O2"
_cell_formula_units_Z 56
_cell_length_a 5.570280
_cell_length_b 33.997947
_cell_length_c 13.830402
_cell_angle_alpha 90.000000
_cell_angle_beta 90.000000
_cell_angle_gamma 90.000000
_cell_volume 2619.175035
_symmetry_space_group_name_H-M "P B C M"
_symmetry_group_IT_number 57
_symmetry_cell_setting 'orthorhombic'
loop_
_space_group_symop_operation_xyz
x,y,z
-x,-y,1/2+z
x,1/2-y,-z
-x,1/2+y,1/2-z
-x,-y,-z
x,y,1/2-z
-x,1/2+y,z
x,1/2-y,1/2+z
loop_
_atom_site_type_symbol
_atom_site_label
_atom_site_fract_x
_atom_site_fract_y
_atom_site_fract_z
Si Si1 0.547578 0.355151 0.458156
Si Si2 0.595439 0.227677 0.634002
Si Si3 0.846280 0.909478 0.550894
Si Si4 0.746864 0.995641 0.559569
Si Si5 0.157340 0.922970 0.141008
Si Si6 0.131556 0.654332 0.143335
Si Si7 0.896220 0.737054 0.138396
O O1 0.515889 0.315972 0.396544
O O2 0.336555 0.376384 0.515746
O O3 0.653651 0.389091 0.387998
O O4 0.716348 0.342106 0.546471
O O5 0.610979 0.230319 0.750000
O O6 0.372104 0.254836 0.601398
O O7 0.864183 0.240393 0.600146
O O8 0.975017 0.919411 0.448797
O O9 0.013069 0.888296 0.629051
O O10 0.746435 0.950258 0.592704
O O11 0.745772 0.032354 0.632893
O O12 0.500000 0.000000 0.500000
O O13 0.000000 0.000000 0.500000
O O14 0.065678 0.916278 0.250000
O O15 0.249499 0.657276 0.250000
O O16 0.949596 0.690789 0.137529
O O17 0.884498 0.749886 0.250000
#
# Coordination Sequence:
#
# PCOD9438291 Si02
#       7
#     8   8   8   8   8   8   8
#     4  11  23  40  63  98 130 173 219 276 333 401
#     4  10  22  40  64  95 132 170 214 272 335 401
#     4  10  23  41  66  95 133 172 220 277 330 393
#     4  10  20  42  66  91 133 173 215 267 323 389
#     4  10  22  40  66  99 135 177 216 266 335 403
#     4  10  24  44  64  90 127 176 229 282 337 392
#     4   9  21  42  64  90 128 172 218 274 331 392
#
# _framework density 21.380776000000001
#
# number of rings (size 3 to 8) (size 9 to 14) (size 15 to 20)
#    0.000    2.000    1.429    0.429    6.000    2.857 
#    0.000    0.000    0.000    0.000    0.000    0.000 
#    0.000    0.000    0.000    0.000    0.000    0.000 
#
# Total GULP energy -311887.879884 kJ/mol
# GULP energy per Si atom -5569.426426 kJ/mol
# Density = 2.133211 g / cm^3
# Si number density = 21.380776 Si / 1000 Ang^3
#
#
#
# Elastic Constant Matrix: (Units=GPa)
#
#
# Indices 1 2 3 4 5 6 
#
# 1 63.1992 7.4396 -6.6046 0.0000 0.0000 0.0000
# 2 7.4396 49.9821 15.7398 0.0000 0.0000 0.0000
# 3 -6.6046 15.7398 88.2314 0.0000 0.0000 0.0000
# 4 0.0000 0.0000 0.0000 29.2107 0.0000 0.0000
# 5 0.0000 0.0000 0.0000 0.0000 52.9567 0.0000
# 6 0.0000 0.0000 0.0000 0.0000 0.0000 30.1915
#
#
#
# Elastic Compliance Matrix: (Units=1/GPa)
#
#
# Indices 1 2 3 4 5 6 
#
# 1 0.016358 -0.002988 0.001758 0.000000 0.000000 0.000000
# 2 -0.002988 0.021744 -0.004103 0.000000 0.000000 0.000000
# 3 0.001758 -0.004103 0.012197 0.000000 0.000000 0.000000
# 4 0.000000 0.000000 0.000000 0.034234 0.000000 0.000000
# 5 0.000000 0.000000 0.000000 0.000000 0.018883 0.000000
# 6 0.000000 0.000000 0.000000 0.000000 0.000000 0.033122
#
#
# Mechanical properties :
#
#
# Convention : Reuss Voigt Hill
#
# Bulk Modulus (GPa) = 25.23158 26.06248 25.64703
# Shear Modulus (GPa) = 31.16885 34.79433 32.98159
#
# Velocity S-wave (km/s) = 3.82225 4.03844 3.93183
# Velocity P-wave (km/s) = 5.59519 5.82765 5.71260
#
# Compressibility (1/GPa) = 0.03963287
#
# Stress axis : x y z
#
# Youngs Moduli (GPa) = 61.13048 45.98988 81.98550
#
# Poissons Ratio (x) = 0.13743 -0.14410
# Poissons Ratio (y) = 0.18268 0.33636
# Poissons Ratio (z) = -0.10744 0.18868
#
# Static dielectric constant tensor:
#      x y z
#    x 1.792370 0.000000 0.000000 
#    y 0.000000 1.818830 0.000000 
#    z 0.000000 0.000000 1.735760 
# 
# From -- ./inp_files/15265.got.cif
#   From: 2010.05.17/outbox.cif.g08.bks.cpg/sg57_8_cif.got.tgz:15265.got - 2010.06.03 13:58:18.
