data_PCOD9438216
_publ_section_title
;
Structure prediction by ZEFSAII (Michael W. Deem and Ramdas Pophale) SiO2 
 PCOD9438216
Probable space group: P B C M
;
_chemical_formula_sum "Si O2"
_cell_formula_units_Z 48
_cell_length_a 8.491612
_cell_length_b 11.026357
_cell_length_c 22.989744
_cell_angle_alpha 90.000000
_cell_angle_beta 90.000000
_cell_angle_gamma 90.000000
_cell_volume 2152.565259
_symmetry_space_group_name_H-M "P B C M"
_symmetry_group_IT_number 57
_symmetry_cell_setting 'orthorhombic'
loop_
_space_group_symop_operation_xyz
x,y,z
-x,-y,1/2+z
x,1/2-y,-z
-x,1/2+y,1/2-z
-x,-y,-z
x,y,1/2-z
-x,1/2+y,z
x,1/2-y,1/2+z
loop_
_atom_site_type_symbol
_atom_site_label
_atom_site_fract_x
_atom_site_fract_y
_atom_site_fract_z
Si Si1 0.132753 0.216147 0.101508
Si Si2 0.379473 0.930842 0.910059
Si Si3 0.699378 0.957634 0.978753
Si Si4 0.198354 0.821550 0.098364
Si Si5 0.064439 0.995284 0.184893
Si Si6 0.706463 0.893499 0.182946
O O1 0.186855 0.143651 0.045471
O O2 0.067455 0.112726 0.144899
O O3 0.271470 0.280070 0.139033
O O4 0.984505 0.297551 0.085242
O O5 0.532866 0.916218 0.950728
O O6 0.294243 0.803277 0.899837
O O7 0.397668 0.004930 0.850114
O O8 0.283019 0.021094 0.952893
O O9 0.731991 0.087415 0.949016
O O10 0.184179 0.896031 0.158585
O O11 0.109211 0.028061 0.250000
O O12 0.886398 0.944166 0.185401
O O13 0.659513 0.867865 0.250000
#
# Coordination Sequence:
#
# PCOD9438216 Si02
#       6
#     8   8   8   8   8   8
#     4  10  20  40  63  93 125 163 210 265 315 369
#     4  11  23  43  63  90 127 170 212 254 328 382
#     4  10  25  42  64  89 128 170 209 262 321 389
#     4  10  21  40  62  93 123 161 215 267 313 372
#     4   9  18  36  62  92 124 164 209 257 316 371
#     4  10  21  37  61  92 125 162 207 258 313 376
#
# _framework density 22.298976
#
# number of rings (size 3 to 8) (size 9 to 14) (size 15 to 20)
#    0.000    2.000    1.667    1.000    2.333    2.667 
#    6.000    4.167    0.000    0.000    0.000    0.000 
#    0.000    0.000    0.000    0.000    0.000    0.000 
#
# Total GULP energy -268054.284536 kJ/mol
# GULP energy per Si atom -5584.464261 kJ/mol
# Density = 2.224822 g / cm^3
# Si number density = 22.298976 Si / 1000 Ang^3
#
#
#
# Elastic Constant Matrix: (Units=GPa)
#
#
# Indices 1 2 3 4 5 6 
#
# 1 35.0819 12.4773 9.4686 0.0000 0.0000 0.0000
# 2 12.4773 54.8477 21.8715 0.0000 0.0000 0.0000
# 3 9.4686 21.8715 91.0305 0.0000 0.0000 0.0000
# 4 0.0000 0.0000 0.0000 15.6059 0.0000 0.0000
# 5 0.0000 0.0000 0.0000 0.0000 18.8029 0.0000
# 6 0.0000 0.0000 0.0000 0.0000 0.0000 21.7079
#
#
#
# Elastic Compliance Matrix: (Units=1/GPa)
#
#
# Indices 1 2 3 4 5 6 
#
# 1 0.031252 -0.006429 -0.001706 0.000000 0.000000 0.000000
# 2 -0.006429 0.021487 -0.004494 0.000000 0.000000 0.000000
# 3 -0.001706 -0.004494 0.012242 0.000000 0.000000 0.000000
# 4 0.000000 0.000000 0.000000 0.064078 0.000000 0.000000
# 5 0.000000 0.000000 0.000000 0.000000 0.053183 0.000000
# 6 0.000000 0.000000 0.000000 0.000000 0.000000 0.046066
#
#
# Mechanical properties :
#
#
# Convention : Reuss Voigt Hill
#
# Bulk Modulus (GPa) = 25.17419 29.84386 27.50902
# Shear Modulus (GPa) = 18.74006 20.36618 19.55312
#
# Velocity S-wave (km/s) = 2.90211 3.02540 2.96440
# Velocity P-wave (km/s) = 4.74801 5.06129 4.90715
#
# Compressibility (1/GPa) = 0.03972323
#
# Stress axis : x y z
#
# Youngs Moduli (GPa) = 31.99814 46.54001 81.68273
#
# Poissons Ratio (x) = 0.29922 0.13935
# Poissons Ratio (y) = 0.20572 0.36707
# Poissons Ratio (z) = 0.05459 0.20914
#
# Static dielectric constant tensor:
#      x y z
#    x 1.880950 0.000000 0.000000 
#    y 0.000000 1.821320 0.000000 
#    z 0.000000 0.000000 1.826330 
# 
# From -- ./inp_files/26692.got.cif
#   From: 2010.05.17/outbox.cif.g08.bks.cpg/sg57_14_cif.got.tgz:26692.got - 2010.06.03 13:58:18.
