data_PCOD9438579
_publ_section_title
;
Structure prediction by ZEFSAII (Michael W. Deem and Ramdas Pophale) SiO2 
 PCOD9438579
Probable space group: P B C M
;
_chemical_formula_sum "Si O2"
_cell_formula_units_Z 64
_cell_length_a 28.425926
_cell_length_b 5.253459
_cell_length_c 19.050465
_cell_angle_alpha 90.000000
_cell_angle_beta 90.000000
_cell_angle_gamma 90.000000
_cell_volume 2844.890461
_symmetry_space_group_name_H-M "P B C M"
_symmetry_group_IT_number 57
_symmetry_cell_setting 'orthorhombic'
loop_
_space_group_symop_operation_xyz
x,y,z
-x,-y,1/2+z
x,1/2-y,-z
-x,1/2+y,1/2-z
-x,-y,-z
x,y,1/2-z
-x,1/2+y,z
x,1/2-y,1/2+z
loop_
_atom_site_type_symbol
_atom_site_label
_atom_site_fract_x
_atom_site_fract_y
_atom_site_fract_z
Si Si1 0.110559 0.262380 0.171760
Si Si2 0.746670 0.676875 0.928314
Si Si3 0.025067 0.592215 0.834274
Si Si4 0.844472 0.092969 0.431019
Si Si5 0.794629 0.468918 0.327529
Si Si6 0.672603 0.478911 0.829960
Si Si7 0.388475 0.475846 0.830853
Si Si8 0.473842 0.778593 0.084546
O O1 0.096161 0.364669 0.250000
O O2 0.077128 0.021984 0.156274
O O3 0.112936 0.438006 0.103406
O O4 0.164938 0.183848 0.179016
O O5 0.797405 0.564646 0.950054
O O6 0.716185 0.487888 0.882209
O O7 0.755710 0.916505 0.878116
O O8 0.721373 0.750000 0.000000
O O9 0.019650 0.611031 0.750000
O O10 0.009846 0.868737 0.860720
O O11 0.857784 0.250000 0.500000
O O12 0.823787 0.255553 0.366965
O O13 0.778131 0.397622 0.250000
O O14 0.687615 0.539648 0.750000
O O15 0.649667 0.202216 0.830587
O O16 0.635691 0.705573 0.849736
O O17 0.406252 0.450972 0.750000
O O18 0.428349 0.588290 0.881860
O O19 0.485933 0.487252 0.105644
O O20 0.470036 0.750000 0.000000
#
# Coordination Sequence:
#
# PCOD9438579 Si02
#       8
#     8   8   8   8   8   8   8   8
#     4   9  20  35  55  86 116 150 195 242 301 362
#     4  11  23  39  57  85 118 154 201 248 301 364
#     4   9  18  32  54  84 118 151 189 243 298 353
#     4  11  22  37  59  83 115 153 198 252 300 358
#     4  10  21  37  59  84 113 149 194 247 297 355
#     4  10  23  40  60  86 121 161 203 251 300 359
#     4  10  22  40  60  88 121 157 204 250 300 360
#     4  10  21  37  60  89 122 156 198 249 304 362
#
# _framework density 22.496473000000002
#
# number of rings (size 3 to 8) (size 9 to 14) (size 15 to 20)
#    0.000    2.000    1.250    1.500    3.500    3.000 
#    0.000    0.000    0.000    0.750    0.000    0.000 
#    0.000    0.000    0.000    0.000    0.000    0.000 
#
# Total GULP energy -357166.018122 kJ/mol
# GULP energy per Si atom -5580.719033 kJ/mol
# Density = 2.244527 g / cm^3
# Si number density = 22.496473 Si / 1000 Ang^3
#
#
#
# Elastic Constant Matrix: (Units=GPa)
#
#
# Indices 1 2 3 4 5 6 
#
# 1 57.7807 6.1460 15.3303 0.0000 0.0000 0.0000
# 2 6.1460 82.2580 14.5493 0.0000 0.0000 0.0000
# 3 15.3303 14.5493 74.9158 0.0000 0.0000 0.0000
# 4 0.0000 0.0000 0.0000 7.0439 0.0000 0.0000
# 5 0.0000 0.0000 0.0000 0.0000 13.4333 0.0000
# 6 0.0000 0.0000 0.0000 0.0000 0.0000 34.2695
#
#
#
# Elastic Compliance Matrix: (Units=1/GPa)
#
#
# Indices 1 2 3 4 5 6 
#
# 1 0.018343 -0.000732 -0.003611 0.000000 0.000000 0.000000
# 2 -0.000732 0.012619 -0.002301 0.000000 0.000000 0.000000
# 3 -0.003611 -0.002301 0.014534 0.000000 0.000000 0.000000
# 4 0.000000 0.000000 0.000000 0.141967 0.000000 0.000000
# 5 0.000000 0.000000 0.000000 0.000000 0.074442 0.000000
# 6 0.000000 0.000000 0.000000 0.000000 0.000000 0.029181
#
#
# Mechanical properties :
#
#
# Convention : Reuss Voigt Hill
#
# Bulk Modulus (GPa) = 31.04876 31.88951 31.46913
# Shear Modulus (GPa) = 15.86752 22.87792 19.37272
#
# Velocity S-wave (km/s) = 2.65869 3.19243 2.93771
# Velocity P-wave (km/s) = 4.82249 5.27209 5.05230
#
# Compressibility (1/GPa) = 0.03220741
#
# Stress axis : x y z
#
# Youngs Moduli (GPa) = 54.51718 79.24870 68.80324
#
# Poissons Ratio (x) = 0.05799 0.24848
# Poissons Ratio (y) = 0.03989 0.15831
# Poissons Ratio (z) = 0.19689 0.18234
#
# Static dielectric constant tensor:
#      x y z
#    x 1.859250 0.000000 0.000000 
#    y 0.000000 1.895570 0.000000 
#    z 0.000000 0.000000 1.842920 
# 
# From -- ./inp_files/23193.got.cif
#   From: 2010.05.17/outbox.cif.g08.bks.cpg/sg57_12_cif.got.tgz:23193.got - 2010.06.03 13:58:18.
