data_PCOD9438093
_publ_section_title
;
Structure prediction by ZEFSAII (Michael W. Deem and Ramdas Pophale) SiO2 
 PCOD9438093
Probable space group: P B C M
;
_chemical_formula_sum "Si O2"
_cell_formula_units_Z 36
_cell_length_a 10.164195
_cell_length_b 5.287691
_cell_length_c 23.792363
_cell_angle_alpha 90.000000
_cell_angle_beta 90.000000
_cell_angle_gamma 90.000000
_cell_volume 1278.723462
_symmetry_space_group_name_H-M "P B C M"
_symmetry_group_IT_number 57
_symmetry_cell_setting 'orthorhombic'
loop_
_space_group_symop_operation_xyz
x,y,z
-x,-y,1/2+z
x,1/2-y,-z
-x,1/2+y,1/2-z
-x,-y,-z
x,y,1/2-z
-x,1/2+y,z
x,1/2-y,1/2+z
loop_
_atom_site_type_symbol
_atom_site_label
_atom_site_fract_x
_atom_site_fract_y
_atom_site_fract_z
Si Si1 0.429670 0.553020 0.833871
Si Si2 0.040361 0.110800 0.068962
Si Si3 0.086491 0.184955 0.750000
Si Si4 0.200297 0.594484 0.148098
Si Si5 0.670121 0.698522 0.435262
O O1 0.474358 0.276888 0.813059
O O2 0.286034 0.678181 0.825744
O O3 0.428705 0.481138 0.900848
O O4 0.943924 0.169517 0.123344
O O5 0.042822 0.388199 0.043580
O O6 0.192410 0.041054 0.068975
O O7 0.171195 0.114202 0.804581
O O8 0.972528 0.965917 0.750000
O O9 0.288243 0.448638 0.100983
O O10 0.637849 0.750000 0.500000
#
# Coordination Sequence:
#
# PCOD9438093 Si02
#       5
#     8   8   4   8   8
#     4  12  26  49  74 101 150 204 256 306 361 441
#     4  10  20  38  65  96 141 174 226 298 369 441
#     4  12  28  46  84 118 152 194 240 322 396 464
#     4  11  25  48  74 111 151 192 257 312 388 461
#     4  11  25  45  74 112 154 202 251 318 386 460
#
# _framework density 28.153075000000001
#
# number of rings (size 3 to 8) (size 9 to 14) (size 15 to 20)
#    0.000    0.889    4.444    2.667    3.111    5.333 
#    0.000    1.111    0.000    0.000    0.000    0.000 
#    0.000    0.000    0.000    0.000    0.000    0.000 
#
# Total GULP energy -200985.623217 kJ/mol
# GULP energy per Si atom -5582.933978 kJ/mol
# Density = 2.808900 g / cm^3
# Si number density = 28.153075 Si / 1000 Ang^3
#
#
#
# Elastic Constant Matrix: (Units=GPa)
#
#
# Indices 1 2 3 4 5 6 
#
# 1 127.3568 44.9880 40.9183 0.0000 0.0000 0.0000
# 2 44.9880 155.2950 18.4380 0.0000 0.0000 0.0000
# 3 40.9183 18.4380 130.9881 0.0000 0.0000 0.0000
# 4 0.0000 0.0000 0.0000 10.8069 0.0000 0.0000
# 5 0.0000 0.0000 0.0000 0.0000 -4.3706 0.0000
# 6 0.0000 0.0000 0.0000 0.0000 0.0000 64.6036
#
#
#
# Elastic Compliance Matrix: (Units=1/GPa)
#
#
# Indices 1 2 3 4 5 6 
#
# 1 0.009570 -0.002458 -0.002643 0.000000 0.000000 0.000000
# 2 -0.002458 0.007180 -0.000243 0.000000 0.000000 0.000000
# 3 -0.002643 -0.000243 0.008494 0.000000 0.000000 0.000000
# 4 0.000000 0.000000 0.000000 0.092533 0.000000 0.000000
# 5 0.000000 0.000000 0.000000 0.000000 -0.228802 0.000000
# 6 0.000000 0.000000 0.000000 0.000000 0.000000 0.015479
#
#
# Mechanical properties :
#
#
# Convention : Reuss Voigt Hill
#
# Bulk Modulus (GPa) = 68.70404 69.14760 68.92582
# Shear Modulus (GPa) = -62.49632 34.82768 -13.83432
#
# Velocity S-wave (km/s) = -4.71667 3.52103 -2.21915
# Velocity P-wave (km/s) = 2.28164 6.41443 4.23904
#
# Compressibility (1/GPa) = 0.01455518
#
# Stress axis : x y z
#
# Youngs Moduli (GPa) = 104.49699 139.26857 117.72760
#
# Poissons Ratio (x) = 0.34238 0.31119
# Poissons Ratio (y) = 0.25690 0.02858
# Poissons Ratio (z) = 0.27622 0.03381
#
# Static dielectric constant tensor:
#      x y z
#    x 2.211260 0.000000 0.000000 
#    y 0.000000 2.227300 0.000000 
#    z 0.000000 0.000000 2.515480 
# 
# From -- ./inp_files/28691.got.cif
#   From: 2010.05.17/outbox.cif.g08.bks.cpg/sg57_15_cif.got.tgz:28691.got - 2010.06.03 13:58:18.
