data_PCOD9438567
_publ_section_title
;
Structure prediction by ZEFSAII (Michael W. Deem and Ramdas Pophale) SiO2 
 PCOD9438567
Probable space group: P B C M
;
_chemical_formula_sum "Si O2"
_cell_formula_units_Z 64
_cell_length_a 26.224253
_cell_length_b 14.877330
_cell_length_c 8.823106
_cell_angle_alpha 90.000000
_cell_angle_beta 90.000000
_cell_angle_gamma 90.000000
_cell_volume 3442.307153
_symmetry_space_group_name_H-M "P B C M"
_symmetry_group_IT_number 57
_symmetry_cell_setting 'orthorhombic'
loop_
_space_group_symop_operation_xyz
x,y,z
-x,-y,1/2+z
x,1/2-y,-z
-x,1/2+y,1/2-z
-x,-y,-z
x,y,1/2-z
-x,1/2+y,z
x,1/2-y,1/2+z
loop_
_atom_site_type_symbol
_atom_site_label
_atom_site_fract_x
_atom_site_fract_y
_atom_site_fract_z
Si Si1 0.863198 0.149533 0.067905
Si Si2 0.785930 0.493838 0.068290
Si Si3 0.500484 0.400520 0.430787
Si Si4 0.866959 0.649681 0.431593
Si Si5 0.605051 0.660393 0.429031
Si Si6 0.056126 0.006176 0.568517
Si Si7 0.325300 0.488579 0.073773
Si Si8 0.395114 0.663511 0.424962
O O1 0.857760 0.155339 0.250000
O O2 0.912043 0.085330 0.034413
O O3 0.866834 0.250000 0.000000
O O4 0.816694 0.091508 0.998109
O O5 0.781869 0.485105 0.250000
O O6 0.818233 0.585064 0.035997
O O7 0.730931 0.500541 0.991940
O O8 0.500000 0.500000 0.500000
O O9 0.498156 0.403826 0.250000
O O10 0.450121 0.353686 0.494938
O O11 0.552814 0.356201 0.485511
O O12 0.863282 0.750000 0.500000
O O13 0.872286 0.656405 0.250000
O O14 0.913666 0.591389 0.499400
O O15 0.627964 0.750000 0.500000
O O16 0.598907 0.666994 0.250000
O O17 0.641781 0.579868 0.474889
O O18 0.054251 0.015633 0.750000
O O19 0.000000 0.000000 0.500000
O O20 0.323801 0.459467 0.250000
O O21 0.356763 0.580908 0.067553
O O22 0.370210 0.750000 0.500000
O O23 0.408379 0.679653 0.250000
#
# Coordination Sequence:
#
# PCOD9438567 Si02
#       8
#     8   8   8   8   8   8   8   8
#     4  10  21  38  61  88 118 157 203 249 300 354
#     4  10  22  40  62  87 118 155 198 247 301 355
#     4  12  23  39  63  89 119 155 194 237 291 354
#     4  10  21  38  61  88 118 157 202 249 298 355
#     4  12  25  42  64  89 120 156 196 242 294 355
#     4  10  21  37  58  87 125 164 203 249 297 352
#     4  11  24  42  63  88 121 156 197 246 298 355
#     4  11  24  41  62  88 119 154 195 240 292 352
#
# _framework density 18.592182000000001
#
# number of rings (size 3 to 8) (size 9 to 14) (size 15 to 20)
#    0.000    1.250    1.250    4.875    0.000    6.000 
#    0.000    3.750    0.000    0.000    0.000    0.000 
#    0.000    0.000    0.000    0.000    0.000    0.000 
#
# Total GULP energy -357719.217117 kJ/mol
# GULP energy per Si atom -5589.362767 kJ/mol
# Density = 1.854987 g / cm^3
# Si number density = 18.592182 Si / 1000 Ang^3
#
#
#
# Elastic Constant Matrix: (Units=GPa)
#
#
# Indices 1 2 3 4 5 6 
#
# 1 119.7373 34.4993 61.4523 0.0000 0.0000 0.0000
# 2 34.4993 134.9392 67.3802 0.0000 0.0000 0.0000
# 3 61.4523 67.3802 154.3696 0.0000 0.0000 0.0000
# 4 0.0000 0.0000 0.0000 36.6067 0.0000 0.0000
# 5 0.0000 0.0000 0.0000 0.0000 38.7742 0.0000
# 6 0.0000 0.0000 0.0000 0.0000 0.0000 36.6480
#
#
#
# Elastic Compliance Matrix: (Units=1/GPa)
#
#
# Indices 1 2 3 4 5 6 
#
# 1 0.010558 -0.000768 -0.003868 0.000000 0.000000 0.000000
# 2 -0.000768 0.009532 -0.003855 0.000000 0.000000 0.000000
# 3 -0.003868 -0.003855 0.009700 0.000000 0.000000 0.000000
# 4 0.000000 0.000000 0.000000 0.027317 0.000000 0.000000
# 5 0.000000 0.000000 0.000000 0.000000 0.025790 0.000000
# 6 0.000000 0.000000 0.000000 0.000000 0.000000 0.027287
#
#
# Mechanical properties :
#
#
# Convention : Reuss Voigt Hill
#
# Bulk Modulus (GPa) = 78.07027 81.74553 79.90790
# Shear Modulus (GPa) = 38.04154 38.78674 38.41414
#
# Velocity S-wave (km/s) = 4.52830 4.57243 4.55042
# Velocity P-wave (km/s) = 8.33203 8.48171 8.40720
#
# Compressibility (1/GPa) = 0.01280897
#
# Stress axis : x y z
#
# Youngs Moduli (GPa) = 94.71560 104.91025 103.09031
#
# Poissons Ratio (x) = 0.08057 0.39873
# Poissons Ratio (y) = 0.07274 0.39740
# Poissons Ratio (z) = 0.36634 0.40441
#
# Static dielectric constant tensor:
#      x y z
#    x 1.621910 0.000000 0.000000 
#    y 0.000000 1.628900 0.000000 
#    z 0.000000 0.000000 1.626150 
# 
# From -- ./inp_files/9445.got.cif
#   From: 2010.05.17/outbox.cif.g08.bks.cpg/sg57_5_cif.got.tgz:9445.got - 2010.06.03 13:58:18.
