data_PCOD9438259
_publ_section_title
;
Structure prediction by ZEFSAII (Michael W. Deem and Ramdas Pophale) SiO2 
 PCOD9438259
Probable space group: P B C M
;
_chemical_formula_sum "Si O2"
_cell_formula_units_Z 48
_cell_length_a 9.586745
_cell_length_b 10.947399
_cell_length_c 21.211994
_cell_angle_alpha 90.000000
_cell_angle_beta 90.000000
_cell_angle_gamma 90.000000
_cell_volume 2226.197129
_symmetry_space_group_name_H-M "P B C M"
_symmetry_group_IT_number 57
_symmetry_cell_setting 'orthorhombic'
loop_
_space_group_symop_operation_xyz
x,y,z
-x,-y,1/2+z
x,1/2-y,-z
-x,1/2+y,1/2-z
-x,-y,-z
x,y,1/2-z
-x,1/2+y,z
x,1/2-y,1/2+z
loop_
_atom_site_type_symbol
_atom_site_label
_atom_site_fract_x
_atom_site_fract_y
_atom_site_fract_z
Si Si1 0.938525 0.073903 0.058210
Si Si2 0.282474 0.413354 0.750000
Si Si3 0.290035 0.429642 0.378988
Si Si4 0.415124 0.921561 0.395574
Si Si5 0.652136 0.162791 0.750000
Si Si6 0.778569 0.657267 0.385037
Si Si7 0.373978 0.555885 0.250000
Si Si8 0.709261 0.250000 0.000000
O O1 0.066561 0.146376 0.088335
O O2 0.860809 0.980194 0.103912
O O3 0.813907 0.158550 0.035140
O O4 0.000000 0.000000 0.000000
O O5 0.234287 0.554839 0.750000
O O6 0.226186 0.345942 0.809932
O O7 0.454765 0.421852 0.750000
O O8 0.432682 0.475775 0.411329
O O9 0.289419 0.287467 0.398890
O O10 0.321601 0.477514 0.308859
O O11 0.411751 0.864733 0.322447
O O12 0.375979 0.819570 0.446069
O O13 0.307548 0.034424 0.401502
O O14 0.683867 0.305732 0.750000
#
# Coordination Sequence:
#
# PCOD9438259 Si02
#       8
#     8   4   8   8   4   8   4   4
#     4  12  27  48  69  95 143 199 235 292 362 433
#     4  10  21  39  75 102 148 177 224 300 366 413
#     4  12  26  43  76 106 140 187 242 299 363 433
#     4  11  24  44  74 108 139 186 242 309 362 423
#     4  10  20  40  69 103 143 178 224 297 373 419
#     4  11  24  46  69 105 146 184 236 291 366 437
#     4  12  21  41  70 113 135 179 238 301 361 424
#     4  12  26  46  72 100 146 190 254 300 356 432
#
# _framework density 21.561430999999999
#
# number of rings (size 3 to 8) (size 9 to 14) (size 15 to 20)
#    0.000    0.667    5.000    3.500    2.333    2.667 
#    0.000    0.833    0.000    0.000    0.000    0.000 
#    0.000    0.000    0.000    0.000    0.000    0.000 
#
# Total GULP energy -267508.415228 kJ/mol
# GULP energy per Si atom -5573.091984 kJ/mol
# Density = 2.151236 g / cm^3
# Si number density = 21.561431 Si / 1000 Ang^3
#
#
#
# Elastic Constant Matrix: (Units=GPa)
#
#
# Indices 1 2 3 4 5 6 
#
# 1 85.1990 12.6687 34.5923 0.0000 0.0000 0.0000
# 2 12.6687 69.7774 1.5216 0.0000 0.0000 0.0000
# 3 34.5923 1.5216 57.7650 0.0000 0.0000 0.0000
# 4 0.0000 0.0000 0.0000 17.7620 0.0000 0.0000
# 5 0.0000 0.0000 0.0000 0.0000 19.6457 0.0000
# 6 0.0000 0.0000 0.0000 0.0000 0.0000 30.7387
#
#
#
# Elastic Compliance Matrix: (Units=1/GPa)
#
#
# Indices 1 2 3 4 5 6 
#
# 1 0.016000 -0.002697 -0.009510 0.000000 0.000000 0.000000
# 2 -0.002697 0.014794 0.001226 0.000000 0.000000 0.000000
# 3 -0.009510 0.001226 0.022974 0.000000 0.000000 0.000000
# 4 0.000000 0.000000 0.000000 0.056300 0.000000 0.000000
# 5 0.000000 0.000000 0.000000 0.000000 0.050902 0.000000
# 6 0.000000 0.000000 0.000000 0.000000 0.000000 0.032532
#
#
# Mechanical properties :
#
#
# Convention : Reuss Voigt Hill
#
# Bulk Modulus (GPa) = 31.44237 34.47851 32.96044
# Shear Modulus (GPa) = 22.11725 24.55987 23.33856
#
# Velocity S-wave (km/s) = 3.20625 3.37867 3.29359
# Velocity P-wave (km/s) = 5.32176 5.58982 5.45743
#
# Compressibility (1/GPa) = 0.03180422
#
# Stress axis : x y z
#
# Youngs Moduli (GPa) = 62.50134 67.59357 43.52673
#
# Poissons Ratio (x) = 0.18233 0.41395
# Poissons Ratio (y) = 0.16860 -0.05335
# Poissons Ratio (z) = 0.59440 -0.08285
#
# Static dielectric constant tensor:
#      x y z
#    x 1.845970 0.000000 0.000000 
#    y 0.000000 1.904290 0.000000 
#    z 0.000000 0.000000 2.179480 
# 
# From -- ./inp_files/26757.got.cif
#   From: 2010.05.17/outbox.cif.g08.bks.cpg/sg57_14_cif.got.tgz:26757.got - 2010.06.03 13:58:18.
