data_PCOD9438062
_publ_section_title
;
Structure prediction by ZEFSAII (Michael W. Deem and Ramdas Pophale) SiO2 
 PCOD9438062
Probable space group: P B C M
;
_chemical_formula_sum "Si O2"
_cell_formula_units_Z 48
_cell_length_a 29.518941
_cell_length_b 8.844309
_cell_length_c 9.317857
_cell_angle_alpha 90.000000
_cell_angle_beta 90.000000
_cell_angle_gamma 90.000000
_cell_volume 2432.656120
_symmetry_space_group_name_H-M "P B C M"
_symmetry_group_IT_number 57
_symmetry_cell_setting 'orthorhombic'
loop_
_space_group_symop_operation_xyz
x,y,z
-x,-y,1/2+z
x,1/2-y,-z
-x,1/2+y,1/2-z
-x,-y,-z
x,y,1/2-z
-x,1/2+y,z
x,1/2-y,1/2+z
loop_
_atom_site_type_symbol
_atom_site_label
_atom_site_fract_x
_atom_site_fract_y
_atom_site_fract_z
Si Si1 0.562497 0.421341 0.250000
Si Si2 0.534355 0.431610 0.750000
Si Si3 0.877318 0.913014 0.077114
Si Si4 0.600254 0.929842 0.477865
Si Si5 0.689190 0.101064 0.414047
Si Si6 0.958192 0.412702 0.426170
Si Si7 0.773571 0.909479 0.420313
O O1 0.518434 0.530278 0.250000
O O2 0.546240 0.246996 0.250000
O O3 0.592868 0.469317 0.382565
O O4 0.558606 0.514498 0.618474
O O5 0.887567 0.905590 0.250000
O O6 0.825156 0.965632 0.062051
O O7 0.879600 0.750000 0.000000
O O8 0.912356 0.012947 0.987713
O O9 0.598282 0.750000 0.500000
O O10 0.648617 0.979757 0.416646
O O11 0.676434 0.250000 0.500000
O O12 0.697216 0.145848 0.250000
O O13 0.735066 0.024407 0.471550
O O14 0.960285 0.250000 0.500000
O O15 0.960208 0.411635 0.250000
O O16 0.000000 0.500000 0.500000
O O17 0.769139 0.750000 0.500000
O O18 0.766404 0.884981 0.250000
#
# Coordination Sequence:
#
# PCOD9438062 Si02
#       7
#     4   4   8   8   8   8   8
#     4  12  26  42  70  92 130 164 208 252 315 366
#     4  12  24  46  64  98 126 166 204 258 305 380
#     4  10  20  38  63  92 127 167 211 262 319 378
#     4  12  25  43  66  93 126 164 210 257 312 374
#     4  11  24  42  63  91 126 163 208 259 315 374
#     4  12  25  42  63  90 125 166 214 265 322 385
#     4   9  20  39  63  92 126 164 210 259 310 376
#
# _framework density 19.73152
#
# number of rings (size 3 to 8) (size 9 to 14) (size 15 to 20)
#    0.000    1.000    0.833    6.500    1.167    2.000 
#    0.000    1.667    0.000    0.000    0.000    0.000 
#    0.000    0.000    0.000    0.000    0.000    0.000 
#
# Total GULP energy -268037.895119 kJ/mol
# GULP energy per Si atom -5584.122815 kJ/mol
# Density = 1.968661 g / cm^3
# Si number density = 19.731520 Si / 1000 Ang^3
#
#
#
# Elastic Constant Matrix: (Units=GPa)
#
#
# Indices 1 2 3 4 5 6 
#
# 1 99.0239 47.2908 34.0797 0.0000 0.0000 0.0000
# 2 47.2908 125.4194 24.7244 0.0000 0.0000 0.0000
# 3 34.0797 24.7244 113.7406 0.0000 0.0000 0.0000
# 4 0.0000 0.0000 0.0000 18.3418 0.0000 0.0000
# 5 0.0000 0.0000 0.0000 0.0000 34.0159 0.0000
# 6 0.0000 0.0000 0.0000 0.0000 0.0000 39.1217
#
#
#
# Elastic Compliance Matrix: (Units=1/GPa)
#
#
# Indices 1 2 3 4 5 6 
#
# 1 0.013234 -0.004397 -0.003010 0.000000 0.000000 0.000000
# 2 -0.004397 0.009791 -0.000811 0.000000 0.000000 0.000000
# 3 -0.003010 -0.000811 0.009870 0.000000 0.000000 0.000000
# 4 0.000000 0.000000 0.000000 0.054520 0.000000 0.000000
# 5 0.000000 0.000000 0.000000 0.000000 0.029398 0.000000
# 6 0.000000 0.000000 0.000000 0.000000 0.000000 0.025561
#
#
# Mechanical properties :
#
#
# Convention : Reuss Voigt Hill
#
# Bulk Modulus (GPa) = 60.75139 61.15263 60.95201
# Shear Modulus (GPa) = 30.43289 33.76848 32.10068
#
# Velocity S-wave (km/s) = 3.93154 4.14139 4.03783
# Velocity P-wave (km/s) = 7.17392 7.34356 7.25923
#
# Compressibility (1/GPa) = 0.01646053
#
# Stress axis : x y z
#
# Youngs Moduli (GPa) = 75.56244 102.13502 101.31772
#
# Poissons Ratio (x) = 0.44907 0.30492
# Poissons Ratio (y) = 0.33223 0.08216
# Poissons Ratio (z) = 0.22741 0.08282
#
# Static dielectric constant tensor:
#      x y z
#    x 1.690960 0.000000 0.000000 
#    y 0.000000 1.690030 0.000000 
#    z 0.000000 0.000000 1.635980 
# 
# From -- ./inp_files/10197.got.cif
#   From: 2010.05.17/outbox.cif.g08.bks.cpg/sg57_6_cif.got.tgz:10197.got - 2010.06.03 13:58:18.
