data_PCOD9438649
_publ_section_title
;
Structure prediction by ZEFSAII (Michael W. Deem and Ramdas Pophale) SiO2 
 PCOD9438649
Probable space group: P B C M
;
_chemical_formula_sum "Si O2"
_cell_formula_units_Z 64
_cell_length_a 11.786228
_cell_length_b 11.914028
_cell_length_c 21.719429
_cell_angle_alpha 90.000000
_cell_angle_beta 90.000000
_cell_angle_gamma 90.000000
_cell_volume 3049.873722
_symmetry_space_group_name_H-M "P B C M"
_symmetry_group_IT_number 57
_symmetry_cell_setting 'orthorhombic'
loop_
_space_group_symop_operation_xyz
x,y,z
-x,-y,1/2+z
x,1/2-y,-z
-x,1/2+y,1/2-z
-x,-y,-z
x,y,1/2-z
-x,1/2+y,z
x,1/2-y,1/2+z
loop_
_atom_site_type_symbol
_atom_site_label
_atom_site_fract_x
_atom_site_fract_y
_atom_site_fract_z
Si Si1 0.337377 0.667155 0.889686
Si Si2 0.513777 0.978460 0.178298
Si Si3 0.488902 0.859833 0.929949
Si Si4 0.321458 0.013703 0.008714
Si Si5 0.843158 0.168387 0.324066
Si Si6 0.910261 0.595743 0.996762
Si Si7 0.072865 0.260765 0.609308
Si Si8 0.765311 0.587676 0.823727
O O1 0.407902 0.599952 0.838380
O O2 0.431637 0.739225 0.926962
O O3 0.289584 0.574428 0.937016
O O4 0.246615 0.752084 0.860114
O O5 0.519989 0.003835 0.250000
O O6 0.631889 0.917907 0.160157
O O7 0.502117 0.091674 0.139001
O O8 0.608269 0.882303 0.962935
O O9 0.403324 0.944590 0.964133
O O10 0.211485 0.055267 0.973547
O O11 0.834616 0.185207 0.250000
O O12 0.967929 0.200941 0.348920
O O13 0.816561 0.036961 0.336772
O O14 0.884382 0.637940 0.066215
O O15 0.962808 0.679682 0.946894
O O16 0.000000 0.500000 0.000000
O O17 0.166056 0.190234 0.646350
O O18 0.772882 0.601593 0.750000
#
# Coordination Sequence:
#
# PCOD9438649 Si02
#       8
#     8   8   8   8   8   8   8   8
#     4  11  22  37  65  95 128 171 217 264 328 391
#     4  10  21  37  61  92 128 168 216 265 320 390
#     4  10  21  39  62  90 129 169 211 264 325 389
#     4  10  23  41  60  95 129 167 214 270 327 390
#     4  11  23  41  67  94 129 172 221 269 321 390
#     4  11  24  41  63  90 128 165 215 272 326 386
#     4  11  24  40  63  93 121 172 215 268 325 384
#     4  10  21  40  64  91 127 171 216 267 321 386
#
# _framework density 20.984476000000001
#
# number of rings (size 3 to 8) (size 9 to 14) (size 15 to 20)
#    0.000    1.500    1.250    3.375    3.500    0.500 
#    4.500    0.000    0.000    1.500    0.000    0.000 
#    0.000    0.000    0.000    0.000    0.000    0.000 
#
# Total GULP energy -357491.741139 kJ/mol
# GULP energy per Si atom -5585.808455 kJ/mol
# Density = 2.093671 g / cm^3
# Si number density = 20.984476 Si / 1000 Ang^3
#
#
#
# Elastic Constant Matrix: (Units=GPa)
#
#
# Indices 1 2 3 4 5 6 
#
# 1 54.1932 5.5293 8.7784 0.0000 0.0000 0.0000
# 2 5.5293 59.2255 14.9455 0.0000 0.0000 0.0000
# 3 8.7784 14.9455 88.5126 0.0000 0.0000 0.0000
# 4 0.0000 0.0000 0.0000 37.3248 0.0000 0.0000
# 5 0.0000 0.0000 0.0000 0.0000 29.6868 0.0000
# 6 0.0000 0.0000 0.0000 0.0000 0.0000 26.6141
#
#
#
# Elastic Compliance Matrix: (Units=1/GPa)
#
#
# Indices 1 2 3 4 5 6 
#
# 1 0.018856 -0.001346 -0.001643 0.000000 0.000000 0.000000
# 2 -0.001346 0.017732 -0.002861 0.000000 0.000000 0.000000
# 3 -0.001643 -0.002861 0.011944 0.000000 0.000000 0.000000
# 4 0.000000 0.000000 0.000000 0.026792 0.000000 0.000000
# 5 0.000000 0.000000 0.000000 0.000000 0.033685 0.000000
# 6 0.000000 0.000000 0.000000 0.000000 0.000000 0.037574
#
#
# Mechanical properties :
#
#
# Convention : Reuss Voigt Hill
#
# Bulk Modulus (GPa) = 27.14934 28.93751 28.04342
# Shear Modulus (GPa) = 29.31537 30.23703 29.77620
#
# Velocity S-wave (km/s) = 3.74170 3.80007 3.77100
# Velocity P-wave (km/s) = 5.62433 5.75099 5.68801
#
# Compressibility (1/GPa) = 0.03683331
#
# Stress axis : x y z
#
# Youngs Moduli (GPa) = 53.03375 56.39476 83.72563
#
# Poissons Ratio (x) = 0.07590 0.13755
# Poissons Ratio (y) = 0.07137 0.23951
# Poissons Ratio (z) = 0.08713 0.16132
#
# Static dielectric constant tensor:
#      x y z
#    x 1.835000 0.000000 0.000000 
#    y 0.000000 1.754950 0.000000 
#    z 0.000000 0.000000 1.764750 
# 
# From -- ./inp_files/27300.got.cif
#   From: 2010.05.17/outbox.cif.g08.bks.cpg/sg57_14_cif.got.tgz:27300.got - 2010.06.03 13:58:18.
