data_PCOD9438227
_publ_section_title
;
Structure prediction by ZEFSAII (Michael W. Deem and Ramdas Pophale) SiO2 
 PCOD9438227
Probable space group: P B C M
;
_chemical_formula_sum "Si O2"
_cell_formula_units_Z 64
_cell_length_a 11.367335
_cell_length_b 17.426537
_cell_length_c 18.012402
_cell_angle_alpha 90.000000
_cell_angle_beta 90.000000
_cell_angle_gamma 90.000000
_cell_volume 3568.135864
_symmetry_space_group_name_H-M "P B C M"
_symmetry_group_IT_number 57
_symmetry_cell_setting 'orthorhombic'
loop_
_space_group_symop_operation_xyz
x,y,z
-x,-y,1/2+z
x,1/2-y,-z
-x,1/2+y,1/2-z
-x,-y,-z
x,y,1/2-z
-x,1/2+y,z
x,1/2-y,1/2+z
loop_
_atom_site_type_symbol
_atom_site_label
_atom_site_fract_x
_atom_site_fract_y
_atom_site_fract_z
Si Si1 0.914775 0.055294 0.546568
Si Si2 0.904955 0.174445 0.336665
Si Si3 0.120360 0.432404 0.664266
Si Si4 0.332084 0.201018 0.576030
Si Si5 0.521265 0.911216 0.518236
Si Si6 0.940203 0.795760 0.079138
Si Si7 0.268024 0.665083 0.034846
Si Si8 0.640892 0.846512 0.836931
O O1 0.814119 0.100863 0.502968
O O2 0.997718 0.122771 0.575305
O O3 0.858125 0.002567 0.609835
O O4 0.000000 0.000000 0.500000
O O5 0.882716 0.179058 0.250000
O O6 0.785115 0.170804 0.382653
O O7 0.991551 0.102323 0.351377
O O8 0.985354 0.244812 0.364117
O O9 0.124958 0.456251 0.750000
O O10 0.219836 0.366828 0.654842
O O11 0.332325 0.250000 0.500000
O O12 0.401831 0.126070 0.548965
O O13 0.196120 0.189390 0.596355
O O14 0.383117 0.258540 0.638258
O O15 0.400505 0.863268 0.525015
O O16 0.581767 0.898611 0.599041
O O17 0.500000 0.000000 0.500000
O O18 0.946969 0.750000 0.000000
O O19 0.253388 0.750000 0.000000
O O20 0.610121 0.859638 0.750000
#
# Coordination Sequence:
#
# PCOD9438227 Si02
#       8
#     8   8   8   8   8   8   8   8
#     4  12  22  33  59  88 123 160 196 239 307 371
#     4  11  21  37  59  88 124 164 198 243 311 374
#     4  10  21  36  56  87 121 152 197 253 305 356
#     4   9  20  35  62  89 112 151 207 253 293 353
#     4  11  25  41  63  92 122 158 209 262 312 368
#     4  11  19  36  59  87 119 152 202 249 294 358
#     4  12  23  41  59  86 124 161 202 252 300 369
#     4  10  20  40  65  85 113 158 206 254 303 358
#
# _framework density 17.936536
#
# number of rings (size 3 to 8) (size 9 to 14) (size 15 to 20)
#    0.000    1.250    5.000    1.875    5.250    1.000 
#    0.000    0.625    0.000    2.250    0.000    0.000 
#    0.000    0.000    0.000    0.000    0.000    0.000 
#
# Total GULP energy -356921.927079 kJ/mol
# GULP energy per Si atom -5576.905111 kJ/mol
# Density = 1.789571 g / cm^3
# Si number density = 17.936536 Si / 1000 Ang^3
#
#
#
# Elastic Constant Matrix: (Units=GPa)
#
#
# Indices 1 2 3 4 5 6 
#
# 1 66.0938 19.6147 26.5442 0.0000 0.0000 0.0000
# 2 19.6147 97.1963 48.2820 0.0000 0.0000 0.0000
# 3 26.5442 48.2820 95.6446 0.0000 0.0000 0.0000
# 4 0.0000 0.0000 0.0000 25.8989 0.0000 0.0000
# 5 0.0000 0.0000 0.0000 0.0000 -34.0422 0.0000
# 6 0.0000 0.0000 0.0000 0.0000 0.0000 -256.8963
#
#
#
# Elastic Compliance Matrix: (Units=1/GPa)
#
#
# Indices 1 2 3 4 5 6 
#
# 1 0.017183 -0.001466 -0.004029 0.000000 0.000000 0.000000
# 2 -0.001466 0.013857 -0.006588 0.000000 0.000000 0.000000
# 3 -0.004029 -0.006588 0.014899 0.000000 0.000000 0.000000
# 4 0.000000 0.000000 0.000000 0.038612 0.000000 0.000000
# 5 0.000000 0.000000 0.000000 0.000000 -0.029375 0.000000
# 6 0.000000 0.000000 0.000000 0.000000 0.000000 -0.003893
#
#
# Mechanical properties :
#
#
# Convention : Reuss Voigt Hill
#
# Bulk Modulus (GPa) = 45.92839 49.75737 47.84288
# Shear Modulus (GPa) = 60.45437 -42.04167 9.20635
#
# Velocity S-wave (km/s) = 5.81186 -4.84665 2.26801
# Velocity P-wave (km/s) = 8.40825 1.87590 5.79567
#
# Compressibility (1/GPa) = 0.02177303
#
# Stress axis : x y z
#
# Youngs Moduli (GPa) = 58.19662 72.16547 67.11794
#
# Poissons Ratio (x) = 0.10583 0.27039
# Poissons Ratio (y) = 0.08534 0.44218
# Poissons Ratio (z) = 0.23445 0.47544
#
# Static dielectric constant tensor:
#      x y z
#    x 1.642480 0.000000 0.000000 
#    y 0.000000 1.898110 0.000000 
#    z 0.000000 0.000000 1.618720 
# 
# From -- ./inp_files/22062.got.cif
#   From: 2010.05.17/outbox.cif.g08.bks.cpg/sg57_12_cif.got.tgz:22062.got - 2010.06.03 13:58:18.
