data_PCOD9438002
_publ_section_title
;
Structure prediction by ZEFSAII (Michael W. Deem and Ramdas Pophale) SiO2 
 PCOD9438002
Probable space group: P B C M
;
_chemical_formula_sum "Si O2"
_cell_formula_units_Z 48
_cell_length_a 5.535653
_cell_length_b 12.581343
_cell_length_c 30.112768
_cell_angle_alpha 90.000000
_cell_angle_beta 90.000000
_cell_angle_gamma 90.000000
_cell_volume 2097.232308
_symmetry_space_group_name_H-M "P B C M"
_symmetry_group_IT_number 57
_symmetry_cell_setting 'orthorhombic'
loop_
_space_group_symop_operation_xyz
x,y,z
-x,-y,1/2+z
x,1/2-y,-z
-x,1/2+y,1/2-z
-x,-y,-z
x,y,1/2-z
-x,1/2+y,z
x,1/2-y,1/2+z
loop_
_atom_site_type_symbol
_atom_site_label
_atom_site_fract_x
_atom_site_fract_y
_atom_site_fract_z
Si Si1 0.464927 0.561246 0.954185
Si Si2 0.038521 0.307931 0.046581
Si Si3 0.344662 0.105271 0.799842
Si Si4 0.049457 0.614734 0.300810
Si Si5 0.728664 0.007363 0.635497
Si Si6 0.007247 0.777026 0.139944
O O1 0.716762 0.622958 0.945857
O O2 0.408191 0.488900 0.910731
O O3 0.223127 0.633894 0.958862
O O4 0.500000 0.500000 0.000000
O O5 0.023015 0.232362 0.090264
O O6 0.080299 0.250000 0.000000
O O7 0.412589 0.136254 0.750000
O O8 0.561321 0.066523 0.829431
O O9 0.207021 0.197375 0.825742
O O10 0.182378 0.998095 0.797091
O O11 0.988317 0.645281 0.250000
O O12 0.841353 0.588852 0.337075
O O13 0.184549 0.707368 0.328614
O O14 0.920220 0.101608 0.626973
#
# Coordination Sequence:
#
# PCOD9438002 Si02
#       6
#     8   8   8   8   8   8
#     4  11  24  43  69  97 131 173 220 270 338 397
#     4  11  24  43  66  99 131 168 220 272 332 396
#     4  10  20  38  61  87 123 161 210 266 317 382
#     4  10  22  38  60  93 124 167 219 266 323 389
#     4  10  22  40  61  90 126 166 214 266 327 388
#     4  10  22  40  61  87 127 166 210 265 325 388
#
# _framework density 22.887307
#
# number of rings (size 3 to 8) (size 9 to 14) (size 15 to 20)
#    0.000    1.667    1.667    2.000    2.333    4.667 
#    0.000    1.667    0.000    0.000    0.000    0.000 
#    0.000    0.000    0.000    0.000    0.000    0.000 
#
# Total GULP energy -267327.238981 kJ/mol
# GULP energy per Si atom -5569.317479 kJ/mol
# Density = 2.283521 g / cm^3
# Si number density = 22.887307 Si / 1000 Ang^3
#
#
#
# Elastic Constant Matrix: (Units=GPa)
#
#
# Indices 1 2 3 4 5 6 
#
# 1 83.2869 10.5539 35.7171 0.0000 0.0000 0.0000
# 2 10.5539 61.6324 37.9656 0.0000 0.0000 0.0000
# 3 35.7171 37.9656 238.0912 0.0000 0.0000 0.0000
# 4 0.0000 0.0000 0.0000 36.1226 0.0000 0.0000
# 5 0.0000 0.0000 0.0000 0.0000 25.9405 0.0000
# 6 0.0000 0.0000 0.0000 0.0000 0.0000 9.8867
#
#
#
# Elastic Compliance Matrix: (Units=1/GPa)
#
#
# Indices 1 2 3 4 5 6 
#
# 1 0.012903 -0.001128 -0.001756 0.000000 0.000000 0.000000
# 2 -0.001128 0.018091 -0.002716 0.000000 0.000000 0.000000
# 3 -0.001756 -0.002716 0.004896 0.000000 0.000000 0.000000
# 4 0.000000 0.000000 0.000000 0.027684 0.000000 0.000000
# 5 0.000000 0.000000 0.000000 0.000000 0.038550 0.000000
# 6 0.000000 0.000000 0.000000 0.000000 0.000000 0.101146
#
#
# Mechanical properties :
#
#
# Convention : Reuss Voigt Hill
#
# Bulk Modulus (GPa) = 40.49929 61.27596 50.88762
# Shear Modulus (GPa) = 22.45185 34.30821 28.38003
#
# Velocity S-wave (km/s) = 3.13545 3.87590 3.52517
# Velocity P-wave (km/s) = 5.55352 6.84552 6.23309
#
# Compressibility (1/GPa) = 0.02469179
#
# Stress axis : x y z
#
# Youngs Moduli (GPa) = 77.50411 55.27561 204.22844
#
# Poissons Ratio (x) = 0.06234 0.35857
# Poissons Ratio (y) = 0.08742 0.55460
# Poissons Ratio (z) = 0.13608 0.15011
#
# Static dielectric constant tensor:
#      x y z
#    x 1.712380 0.000000 0.000000 
#    y 0.000000 4.451940 0.000000 
#    z 0.000000 0.000000 2.561710 
# 
# From -- ./inp_files/27949.got.cif
#   From: 2010.05.17/outbox.cif.g08.bks.cpg/sg57_14_cif.got.tgz:27949.got - 2010.06.03 13:58:18.
