data_PCOD9438816
_publ_section_title
;
Structure prediction by ZEFSAII (Michael W. Deem and Ramdas Pophale) SiO2 
 PCOD9438816
Probable space group: P B C M
;
_chemical_formula_sum "Si O2"
_cell_formula_units_Z 48
_cell_length_a 5.457989
_cell_length_b 28.432897
_cell_length_c 14.418930
_cell_angle_alpha 90.000000
_cell_angle_beta 90.000000
_cell_angle_gamma 90.000000
_cell_volume 2237.622402
_symmetry_space_group_name_H-M "P B C M"
_symmetry_group_IT_number 57
_symmetry_cell_setting 'orthorhombic'
loop_
_space_group_symop_operation_xyz
x,y,z
-x,-y,1/2+z
x,1/2-y,-z
-x,1/2+y,1/2-z
-x,-y,-z
x,y,1/2-z
-x,1/2+y,z
x,1/2-y,1/2+z
loop_
_atom_site_type_symbol
_atom_site_label
_atom_site_fract_x
_atom_site_fract_y
_atom_site_fract_z
Si Si1 0.925726 0.884265 0.986767
Si Si2 0.911324 0.798894 0.862307
Si Si3 0.402779 0.750030 0.639325
Si Si4 0.751474 0.426196 0.350184
Si Si5 0.748436 0.984475 0.949166
Si Si6 0.626556 0.846898 0.147444
O O1 0.975771 0.850602 0.900705
O O2 0.765649 0.928130 0.948674
O O3 0.802094 0.849645 0.061196
O O4 0.128132 0.907348 0.054761
O O5 0.903733 0.799371 0.750000
O O6 0.647197 0.777762 0.893806
O O7 0.140899 0.767513 0.894644
O O8 0.399171 0.757844 0.750000
O O9 0.434281 0.694278 0.626858
O O10 0.872447 0.414352 0.250000
O O11 0.740634 0.482406 0.358818
O O12 0.496232 0.398324 0.348017
O O13 0.500000 0.000000 0.000000
O O14 0.000000 0.000000 0.000000
O O15 0.730728 0.835484 0.250000
#
# Coordination Sequence:
#
# PCOD9438816 Si02
#       6
#     8   8   8   8   8   8
#     4  11  23  38  65  93 130 163 218 262 321 382
#     4  10  23  42  63  88 126 170 214 265 313 375
#     4   9  21  41  61  86 124 168 211 259 315 372
#     4  10  22  40  63  93 128 167 209 262 321 380
#     4  10  21  40  61  86 123 161 200 254 313 371
#     4  10  21  38  62  90 126 166 206 258 320 377
#
# _framework density 21.451342
#
# number of rings (size 3 to 8) (size 9 to 14) (size 15 to 20)
#    0.000    2.000    1.667    0.500    4.667    1.333 
#    0.000    0.000    0.000    1.000    0.000    0.000 
#    0.000    0.000    0.000    0.000    0.000    0.000 
#
# Total GULP energy -267302.047987 kJ/mol
# GULP energy per Si atom -5568.792666 kJ/mol
# Density = 2.140252 g / cm^3
# Si number density = 21.451342 Si / 1000 Ang^3
#
#
#
# Elastic Constant Matrix: (Units=GPa)
#
#
# Indices 1 2 3 4 5 6 
#
# 1 74.2568 -1.2901 12.3147 0.0000 0.0000 0.0000
# 2 -1.2901 61.4714 16.2994 0.0000 0.0000 0.0000
# 3 12.3147 16.2994 71.6319 0.0000 0.0000 0.0000
# 4 0.0000 0.0000 0.0000 40.3311 0.0000 0.0000
# 5 0.0000 0.0000 0.0000 0.0000 10.0059 0.0000
# 6 0.0000 0.0000 0.0000 0.0000 0.0000 29.0326
#
#
#
# Elastic Compliance Matrix: (Units=1/GPa)
#
#
# Indices 1 2 3 4 5 6 
#
# 1 0.013918 0.000986 -0.002617 0.000000 0.000000 0.000000
# 2 0.000986 0.017382 -0.004125 0.000000 0.000000 0.000000
# 3 -0.002617 -0.004125 0.015349 0.000000 0.000000 0.000000
# 4 0.000000 0.000000 0.000000 0.024795 0.000000 0.000000
# 5 0.000000 0.000000 0.000000 0.000000 0.099941 0.000000
# 6 0.000000 0.000000 0.000000 0.000000 0.000000 0.034444
#
#
# Mechanical properties :
#
#
# Convention : Reuss Voigt Hill
#
# Bulk Modulus (GPa) = 28.45983 29.11201 28.78592
# Shear Modulus (GPa) = 21.82907 27.87632 24.85270
#
# Velocity S-wave (km/s) = 3.19346 3.60879 3.40746
# Velocity P-wave (km/s) = 5.18590 5.56463 5.37860
#
# Compressibility (1/GPa) = 0.03513725
#
# Stress axis : x y z
#
# Youngs Moduli (GPa) = 71.84973 57.53040 65.15197
#
# Poissons Ratio (x) = -0.05673 0.17051
# Poissons Ratio (y) = -0.07085 0.26873
# Poissons Ratio (z) = 0.18804 0.23730
#
# Static dielectric constant tensor:
#      x y z
#    x 1.811530 0.000000 0.000000 
#    y 0.000000 1.844580 0.000000 
#    z 0.000000 0.000000 1.852590 
# 
# From -- ./inp_files/15091.got.cif
#   From: 2010.05.17/outbox.cif.g08.bks.cpg/sg57_8_cif.got.tgz:15091.got - 2010.06.03 13:58:18.
