data_PCOD9438073
_publ_section_title
;
Structure prediction by ZEFSAII (Michael W. Deem and Ramdas Pophale) SiO2 
 PCOD9438073
Probable space group: P B C M
;
_chemical_formula_sum "Si O2"
_cell_formula_units_Z 40
_cell_length_a 8.723377
_cell_length_b 14.366938
_cell_length_c 14.556529
_cell_angle_alpha 90.000000
_cell_angle_beta 90.000000
_cell_angle_gamma 90.000000
_cell_volume 1824.343818
_symmetry_space_group_name_H-M "P B C M"
_symmetry_group_IT_number 57
_symmetry_cell_setting 'orthorhombic'
loop_
_space_group_symop_operation_xyz
x,y,z
-x,-y,1/2+z
x,1/2-y,-z
-x,1/2+y,1/2-z
-x,-y,-z
x,y,1/2-z
-x,1/2+y,z
x,1/2-y,1/2+z
loop_
_atom_site_type_symbol
_atom_site_label
_atom_site_fract_x
_atom_site_fract_y
_atom_site_fract_z
Si Si1 0.333982 0.609946 0.405886
Si Si2 0.548491 0.971370 0.750000
Si Si3 0.997688 0.834237 0.571216
Si Si4 0.256124 0.423059 0.453403
Si Si5 0.524374 0.750000 0.500000
Si Si6 0.793043 0.819788 0.750000
Si Si7 0.667878 0.622942 0.750000
O O1 0.452855 0.568134 0.334699
O O2 0.321524 0.524795 0.479289
O O3 0.407779 0.709241 0.426329
O O4 0.155182 0.627016 0.387126
O O5 0.712218 0.921238 0.750000
O O6 0.505027 0.080711 0.750000
O O7 0.029461 0.750000 0.500000
O O8 0.898771 0.904911 0.508924
O O9 0.891191 0.807653 0.657446
O O10 0.369488 0.337714 0.476928
O O11 0.246995 0.414576 0.342131
O O12 0.673072 0.734429 0.750000
#
# Coordination Sequence:
#
# PCOD9438073 Si02
#       7
#     8   4   8   8   4   4   4
#     4  11  24  41  65  96 133 170 221 282 323 390
#     4  10  23  41  63  96 128 168 220 270 328 385
#     4  12  23  43  67  95 130 176 217 265 333 391
#     4  11  22  41  66  93 132 180 219 265 337 388
#     4  12  22  38  64  94 130 174 230 270 332 386
#     4  12  23  43  75  92 132 175 216 272 331 398
#     4  10  20  38  64  92 128 167 214 268 313 383
#
# _framework density 21.925692000000002
#
# number of rings (size 3 to 8) (size 9 to 14) (size 15 to 20)
#    0.000    0.800    4.000    4.200    0.000    1.600 
#    0.000    0.000    0.000    0.000    0.000    0.000 
#    0.000    0.000    0.000    0.000    0.000    0.000 
#
# Total GULP energy -222987.099506 kJ/mol
# GULP energy per Si atom -5574.677488 kJ/mol
# Density = 2.187579 g / cm^3
# Si number density = 21.925692 Si / 1000 Ang^3
#
#
#
# Elastic Constant Matrix: (Units=GPa)
#
#
# Indices 1 2 3 4 5 6 
#
# 1 89.0259 23.3232 3.6516 0.0000 0.0000 0.0000
# 2 23.3232 88.6881 -16.1048 0.0000 0.0000 0.0000
# 3 3.6516 -16.1048 65.0864 0.0000 0.0000 0.0000
# 4 0.0000 0.0000 0.0000 -54.0956 0.0000 0.0000
# 5 0.0000 0.0000 0.0000 0.0000 13.3808 0.0000
# 6 0.0000 0.0000 0.0000 0.0000 0.0000 35.4275
#
#
#
# Elastic Compliance Matrix: (Units=1/GPa)
#
#
# Indices 1 2 3 4 5 6 
#
# 1 0.012211 -0.003493 -0.001549 0.000000 0.000000 0.000000
# 2 -0.003493 0.012805 0.003364 0.000000 0.000000 0.000000
# 3 -0.001549 0.003364 0.016284 0.000000 0.000000 0.000000
# 4 0.000000 0.000000 0.000000 -0.018486 0.000000 0.000000
# 5 0.000000 0.000000 0.000000 0.000000 0.074734 0.000000
# 6 0.000000 0.000000 0.000000 0.000000 0.000000 0.028227
#
#
# Mechanical properties :
#
#
# Convention : Reuss Voigt Hill
#
# Bulk Modulus (GPa) = 26.35427 29.39339 27.87383
# Shear Modulus (GPa) = 35.26645 14.40457 24.83551
#
# Velocity S-wave (km/s) = 4.01490 2.56593 3.36923
# Velocity P-wave (km/s) = 5.79124 4.71314 5.27978
#
# Compressibility (1/GPa) = 0.03794451
#
# Stress axis : x y z
#
# Youngs Moduli (GPa) = 81.89173 78.09514 61.41155
#
# Poissons Ratio (x) = 0.27276 0.09515
# Poissons Ratio (y) = 0.28602 -0.20661
# Poissons Ratio (z) = 0.12688 -0.26274
#
# Static dielectric constant tensor:
#      x y z
#    x 1.781900 0.000000 0.000000 
#    y 0.000000 1.894410 0.000000 
#    z 0.000000 0.000000 1.727130 
# 
# From -- ./inp_files/16000.got.cif
#   From: 2010.05.17/outbox.cif.g08.bks.cpg/sg57_8_cif.got.tgz:16000.got - 2010.06.03 13:58:18.
