data_PCOD9438110
_publ_section_title
;
Structure prediction by ZEFSAII (Michael W. Deem and Ramdas Pophale) SiO2 
 PCOD9438110
Probable space group: P B C M
;
_chemical_formula_sum "Si O2"
_cell_formula_units_Z 48
_cell_length_a 15.346027
_cell_length_b 9.465348
_cell_length_c 16.042215
_cell_angle_alpha 90.000000
_cell_angle_beta 90.000000
_cell_angle_gamma 90.000000
_cell_volume 2330.219736
_symmetry_space_group_name_H-M "P B C M"
_symmetry_group_IT_number 57
_symmetry_cell_setting 'orthorhombic'
loop_
_space_group_symop_operation_xyz
x,y,z
-x,-y,1/2+z
x,1/2-y,-z
-x,1/2+y,1/2-z
-x,-y,-z
x,y,1/2-z
-x,1/2+y,z
x,1/2-y,1/2+z
loop_
_atom_site_type_symbol
_atom_site_label
_atom_site_fract_x
_atom_site_fract_y
_atom_site_fract_z
Si Si1 0.469525 0.452412 0.250000
Si Si2 0.227104 0.780340 0.379064
Si Si3 0.939651 0.915211 0.064742
Si Si4 0.038571 0.689060 0.339282
Si Si5 0.241031 0.501558 0.008466
Si Si6 0.566350 0.896138 0.449806
Si Si7 0.621191 0.246352 0.750000
O O1 0.442218 0.398923 0.153452
O O2 0.442620 0.617513 0.250000
O O3 0.568353 0.399080 0.250000
O O4 0.131983 0.767135 0.339159
O O5 0.226277 0.647833 0.441841
O O6 0.236688 0.937611 0.415372
O O7 0.312899 0.749478 0.326489
O O8 0.980706 0.768406 0.092553
O O9 0.942787 0.025599 0.141706
O O10 0.841397 0.907167 0.031989
O O11 0.000000 0.000000 0.000000
O O12 0.995097 0.702893 0.250000
O O13 0.334104 0.440010 0.031377
O O14 0.551314 0.750000 0.500000
O O15 0.500000 0.000000 0.500000
#
# Coordination Sequence:
#
# PCOD9438110 Si02
#       7
#     4   8   8   8   8   8   4
#     4  12  26  44  70 105 137 179 231 294 348 411
#     4  10  20  38  68  94 125 172 222 274 325 422
#     4  11  22  40  67  94 133 173 225 279 332 413
#     4  11  22  39  62  96 132 174 222 278 340 397
#     4  10  22  41  65  96 128 174 227 270 344 402
#     4  12  27  46  71 100 139 184 230 287 346 418
#     4  12  22  42  70  95 135 173 223 282 348 405
#
# _framework density 20.598917
#
# number of rings (size 3 to 8) (size 9 to 14) (size 15 to 20)
#    0.000    1.000    4.167    3.000    2.333    1.333 
#    1.500    0.000    0.000    0.000    0.000    0.000 
#    0.000    0.000    0.000    0.000    0.000    0.000 
#
# Total GULP energy -267340.271761 kJ/mol
# GULP energy per Si atom -5569.588995 kJ/mol
# Density = 2.055203 g / cm^3
# Si number density = 20.598917 Si / 1000 Ang^3
#
#
#
# Elastic Constant Matrix: (Units=GPa)
#
#
# Indices 1 2 3 4 5 6 
#
# 1 134.1680 42.5777 20.4935 0.0000 0.0000 0.0000
# 2 42.5777 103.4247 35.3122 0.0000 0.0000 0.0000
# 3 20.4935 35.3122 98.1405 0.0000 0.0000 0.0000
# 4 0.0000 0.0000 0.0000 18.6040 0.0000 0.0000
# 5 0.0000 0.0000 0.0000 0.0000 12.2440 0.0000
# 6 0.0000 0.0000 0.0000 0.0000 0.0000 38.6401
#
#
#
# Elastic Compliance Matrix: (Units=1/GPa)
#
#
# Indices 1 2 3 4 5 6 
#
# 1 0.008604 -0.003339 -0.000595 0.000000 0.000000 0.000000
# 2 -0.003339 0.012319 -0.003735 0.000000 0.000000 0.000000
# 3 -0.000595 -0.003735 0.011658 0.000000 0.000000 0.000000
# 4 0.000000 0.000000 0.000000 0.053752 0.000000 0.000000
# 5 0.000000 0.000000 0.000000 0.000000 0.081672 0.000000
# 6 0.000000 0.000000 0.000000 0.000000 0.000000 0.025880
#
#
# Mechanical properties :
#
#
# Convention : Reuss Voigt Hill
#
# Bulk Modulus (GPa) = 57.99894 59.16666 58.58280
# Shear Modulus (GPa) = 23.25905 29.72096 26.49001
#
# Velocity S-wave (km/s) = 3.36391 3.80260 3.58996
# Velocity P-wave (km/s) = 6.58068 6.93291 6.75909
#
# Compressibility (1/GPa) = 0.01724170
#
# Stress axis : x y z
#
# Youngs Moduli (GPa) = 116.22755 81.17756 85.77975
#
# Poissons Ratio (x) = 0.27103 0.05106
# Poissons Ratio (y) = 0.38806 0.32041
# Poissons Ratio (z) = 0.06919 0.30322
#
# Static dielectric constant tensor:
#      x y z
#    x 1.699630 0.000000 0.000000 
#    y 0.000000 1.753430 0.000000 
#    z 0.000000 0.000000 1.907080 
# 
# From -- ./inp_files/22519.got.cif
#   From: 2010.05.17/outbox.cif.g08.bks.cpg/sg57_12_cif.got.tgz:22519.got - 2010.06.03 13:58:18.
