data_PCOD9438418
_publ_section_title
;
Structure prediction by ZEFSAII (Michael W. Deem and Ramdas Pophale) SiO2 
 PCOD9438418
Probable space group: P B C M
;
_chemical_formula_sum "Si O2"
_cell_formula_units_Z 64
_cell_length_a 21.493224
_cell_length_b 19.157671
_cell_length_c 8.636794
_cell_angle_alpha 90.000000
_cell_angle_beta 90.000000
_cell_angle_gamma 90.000000
_cell_volume 3556.287283
_symmetry_space_group_name_H-M "P B C M"
_symmetry_group_IT_number 57
_symmetry_cell_setting 'orthorhombic'
loop_
_space_group_symop_operation_xyz
x,y,z
-x,-y,1/2+z
x,1/2-y,-z
-x,1/2+y,1/2-z
-x,-y,-z
x,y,1/2-z
-x,1/2+y,z
x,1/2-y,1/2+z
loop_
_atom_site_type_symbol
_atom_site_label
_atom_site_fract_x
_atom_site_fract_y
_atom_site_fract_z
Si Si1 0.123991 0.825754 0.436910
Si Si2 0.391403 0.175179 0.065151
Si Si3 0.502792 0.577943 0.563993
Si Si4 0.062870 0.532376 0.563868
Si Si5 0.746356 0.105473 0.561781
Si Si6 0.747516 0.675924 0.565842
Si Si7 0.615885 0.171731 0.937287
Si Si8 0.806723 0.961671 0.563021
O O1 0.108144 0.750000 0.500000
O O2 0.123787 0.824059 0.250000
O O3 0.078188 0.888319 0.486930
O O4 0.193893 0.848580 0.486261
O O5 0.391343 0.176668 0.250000
O O6 0.413248 0.250000 0.000000
O O7 0.436791 0.116235 0.002367
O O8 0.321340 0.165131 0.004698
O O9 0.500000 0.500000 0.500000
O O10 0.505235 0.576737 0.750000
O O11 0.442097 0.623028 0.517253
O O12 0.059670 0.533179 0.750000
O O13 0.123839 0.487083 0.522565
O O14 0.000000 0.500000 0.500000
O O15 0.745887 0.105808 0.750000
O O16 0.681079 0.137314 0.509211
O O17 0.760780 0.025465 0.516711
O O18 0.770833 0.750000 0.500000
O O19 0.742762 0.680599 0.750000
O O20 0.788497 0.610495 0.514750
O O21 0.617047 0.174681 0.750000
O O22 0.609513 0.250000 0.000000
O O23 0.803073 0.954656 0.750000
#
# Coordination Sequence:
#
# PCOD9438418 Si02
#       8
#     8   8   8   8   8   8   8   8
#     4   9  17  31  52  79 109 141 179 220 263 316
#     4  11  22  39  61  81 106 144 185 231 285 338
#     4  11  24  39  55  80 110 143 188 233 280 335
#     4   9  19  35  55  80 111 149 189 228 271 321
#     4   8  16  32  54  79 108 141 176 215 266 325
#     4  11  22  37  58  86 113 141 182 232 283 339
#     4  10  21  36  55  79 107 142 177 216 271 328
#     4   9  18  35  58  81 110 147 184 225 276 328
#
# _framework density 17.996296000000001
#
# number of rings (size 3 to 8) (size 9 to 14) (size 15 to 20)
#    0.000    2.250    0.000    5.625    1.750    3.000 
#    0.000    3.125    0.000    1.500    0.000    0.000 
#    0.000    0.000    0.000    0.000    0.000    0.000 
#
# Total GULP energy -357278.681478 kJ/mol
# GULP energy per Si atom -5582.479398 kJ/mol
# Density = 1.795534 g / cm^3
# Si number density = 17.996296 Si / 1000 Ang^3
#
#
#
# Elastic Constant Matrix: (Units=GPa)
#
#
# Indices 1 2 3 4 5 6 
#
# 1 85.4609 90.4376 34.6132 0.0000 0.0000 0.0000
# 2 90.4376 193.4707 52.2538 0.0000 0.0000 0.0000
# 3 34.6132 52.2538 62.4292 0.0000 0.0000 0.0000
# 4 0.0000 0.0000 0.0000 33.6737 0.0000 0.0000
# 5 0.0000 0.0000 0.0000 0.0000 20.6535 0.0000
# 6 0.0000 0.0000 0.0000 0.0000 0.0000 24.4999
#
#
#
# Elastic Compliance Matrix: (Units=1/GPa)
#
#
# Indices 1 2 3 4 5 6 
#
# 1 0.024368 -0.010003 -0.005138 0.000000 0.000000 0.000000
# 2 -0.010003 0.010785 -0.003481 0.000000 0.000000 0.000000
# 3 -0.005138 -0.003481 0.021780 0.000000 0.000000 0.000000
# 4 0.000000 0.000000 0.000000 0.029697 0.000000 0.000000
# 5 0.000000 0.000000 0.000000 0.000000 0.048418 0.000000
# 6 0.000000 0.000000 0.000000 0.000000 0.000000 0.040817
#
#
# Mechanical properties :
#
#
# Convention : Reuss Voigt Hill
#
# Bulk Modulus (GPa) = 50.78893 77.33004 64.05948
# Shear Modulus (GPa) = 22.76138 26.70251 24.73195
#
# Velocity S-wave (km/s) = 3.56023 3.85616 3.71115
# Velocity P-wave (km/s) = 6.72187 7.93032 7.35097
#
# Compressibility (1/GPa) = 0.01968933
#
# Stress axis : x y z
#
# Youngs Moduli (GPa) = 41.03805 92.72348 45.91308
#
# Poissons Ratio (x) = 0.92751 0.23589
# Poissons Ratio (y) = 0.41050 0.15982
# Poissons Ratio (z) = 0.21085 0.32276
#
# Static dielectric constant tensor:
#      x y z
#    x 1.603500 0.000000 0.000000 
#    y 0.000000 1.594380 0.000000 
#    z 0.000000 0.000000 1.609030 
# 
# From -- ./inp_files/8564.got.cif
#   From: 2010.05.17/outbox.cif.g08.bks.cpg/sg57_5_cif.got.tgz:8564.got - 2010.06.03 13:58:18.
