data_PCOD9438386
_publ_section_title
;
Structure prediction by ZEFSAII (Michael W. Deem and Ramdas Pophale) SiO2 
 PCOD9438386
Probable space group: P B C M
;
_chemical_formula_sum "Si O2"
_cell_formula_units_Z 52
_cell_length_a 9.244402
_cell_length_b 10.502737
_cell_length_c 26.035326
_cell_angle_alpha 90.000000
_cell_angle_beta 90.000000
_cell_angle_gamma 90.000000
_cell_volume 2527.809451
_symmetry_space_group_name_H-M "P B C M"
_symmetry_group_IT_number 57
_symmetry_cell_setting 'orthorhombic'
loop_
_space_group_symop_operation_xyz
x,y,z
-x,-y,1/2+z
x,1/2-y,-z
-x,1/2+y,1/2-z
-x,-y,-z
x,y,1/2-z
-x,1/2+y,z
x,1/2-y,1/2+z
loop_
_atom_site_type_symbol
_atom_site_label
_atom_site_fract_x
_atom_site_fract_y
_atom_site_fract_z
Si Si1 0.704331 0.311363 0.750000
Si Si2 0.852529 0.187524 0.048968
Si Si3 0.061999 0.882437 0.250000
Si Si4 0.364882 0.726936 0.865078
Si Si5 0.313179 0.218298 0.860517
Si Si6 0.820880 0.992483 0.853038
Si Si7 0.280709 0.108989 0.750000
Si Si8 0.927603 0.585202 0.573015
O O1 0.868063 0.257871 0.750000
O O2 0.643575 0.264715 0.695168
O O3 0.690094 0.460542 0.750000
O O4 0.754500 0.200182 0.100233
O O5 0.992523 0.283415 0.054768
O O6 0.884434 0.038161 0.038731
O O7 0.773332 0.250000 0.000000
O O8 0.891594 0.872201 0.250000
O O9 0.122060 0.957619 0.298721
O O10 0.528471 0.743432 0.883520
O O11 0.315058 0.580283 0.867947
O O12 0.224666 0.347799 0.853680
O O13 0.337458 0.164368 0.803292
O O14 0.213246 0.126861 0.894754
O O15 0.951678 0.021262 0.891008
#
# Coordination Sequence:
#
# PCOD9438386 Si02
#       8
#     4   8   4   8   8   8   4   8
#     4  10  23  42  59  91 135 173 214 259 328 391
#     4  11  24  46  71  99 131 171 220 275 332 388
#     4  10  21  35  58  91 128 171 215 265 319 385
#     4  10  25  43  65  92 135 177 210 267 324 397
#     4  12  24  39  64  96 130 174 217 265 331 391
#     4  10  22  39  61  90 131 167 218 263 316 387
#     4  12  24  31  63  90 129 172 217 266 323 386
#     4  11  22  42  70  97 126 166 216 276 326 382
#
# _framework density 20.571172000000001
#
# number of rings (size 3 to 8) (size 9 to 14) (size 15 to 20)
#    0.000    1.231    3.077    2.308    6.462    0.000 
#    0.000    1.538    0.000    0.000    0.000    0.000 
#    0.000    0.000    0.000    0.000    0.000    0.000 
#
# Total GULP energy -290261.206044 kJ/mol
# GULP energy per Si atom -5581.946270 kJ/mol
# Density = 2.052435 g / cm^3
# Si number density = 20.571172 Si / 1000 Ang^3
#
#
#
# Elastic Constant Matrix: (Units=GPa)
#
#
# Indices 1 2 3 4 5 6 
#
# 1 89.3064 11.7700 20.3638 0.0000 0.0000 0.0000
# 2 11.7700 104.3123 10.4784 0.0000 0.0000 0.0000
# 3 20.3638 10.4784 60.2688 0.0000 0.0000 0.0000
# 4 0.0000 0.0000 0.0000 32.2193 0.0000 0.0000
# 5 0.0000 0.0000 0.0000 0.0000 2.6647 0.0000
# 6 0.0000 0.0000 0.0000 0.0000 0.0000 9.4516
#
#
#
# Elastic Compliance Matrix: (Units=1/GPa)
#
#
# Indices 1 2 3 4 5 6 
#
# 1 0.012230 -0.000982 -0.003962 0.000000 0.000000 0.000000
# 2 -0.000982 0.009836 -0.001378 0.000000 0.000000 0.000000
# 3 -0.003962 -0.001378 0.018171 0.000000 0.000000 0.000000
# 4 0.000000 0.000000 0.000000 0.031037 0.000000 0.000000
# 5 0.000000 0.000000 0.000000 0.000000 0.375282 0.000000
# 6 0.000000 0.000000 0.000000 0.000000 0.000000 0.105802
#
#
# Mechanical properties :
#
#
# Convention : Reuss Voigt Hill
#
# Bulk Modulus (GPa) = 36.24146 37.67910 36.96028
# Shear Modulus (GPa) = 8.70778 22.95213 15.82996
#
# Velocity S-wave (km/s) = 2.05966 3.34390 2.77703
# Velocity P-wave (km/s) = 4.82826 5.76759 5.31870
#
# Compressibility (1/GPa) = 0.02759271
#
# Stress axis : x y z
#
# Youngs Moduli (GPa) = 81.76497 101.66888 55.03414
#
# Poissons Ratio (x) = 0.09984 0.21803
# Poissons Ratio (y) = 0.08030 0.07585
# Poissons Ratio (z) = 0.32392 0.14013
#
# Static dielectric constant tensor:
#      x y z
#    x 1.715660 0.000000 0.000000 
#    y 0.000000 1.727480 0.000000 
#    z 0.000000 0.000000 1.755780 
# 
# From -- ./inp_files/28366.got.cif
#   From: 2010.05.17/outbox.cif.g08.bks.cpg/sg57_15_cif.got.tgz:28366.got - 2010.06.03 13:58:18.
