data_PCOD9438307
_publ_section_title
;
Structure prediction by ZEFSAII (Michael W. Deem and Ramdas Pophale) SiO2 
 PCOD9438307
Probable space group: P B C M
;
_chemical_formula_sum "Si O2"
_cell_formula_units_Z 60
_cell_length_a 9.308932
_cell_length_b 11.344371
_cell_length_c 29.920543
_cell_angle_alpha 90.000000
_cell_angle_beta 90.000000
_cell_angle_gamma 90.000000
_cell_volume 3159.728371
_symmetry_space_group_name_H-M "P B C M"
_symmetry_group_IT_number 57
_symmetry_cell_setting 'orthorhombic'
loop_
_space_group_symop_operation_xyz
x,y,z
-x,-y,1/2+z
x,1/2-y,-z
-x,1/2+y,1/2-z
-x,-y,-z
x,y,1/2-z
-x,1/2+y,z
x,1/2-y,1/2+z
loop_
_atom_site_type_symbol
_atom_site_label
_atom_site_fract_x
_atom_site_fract_y
_atom_site_fract_z
Si Si1 0.711637 0.968625 0.158933
Si Si2 0.822240 0.735287 0.299389
Si Si3 0.705526 0.750000 0.500000
Si Si4 0.443148 0.291789 0.408568
Si Si5 0.085490 0.057006 0.041184
Si Si6 0.752922 0.112269 0.609274
Si Si7 0.059190 0.664032 0.371698
Si Si8 0.410492 0.416710 0.661329
O O1 0.782885 0.871572 0.191135
O O2 0.651464 0.888867 0.117879
O O3 0.831112 0.063113 0.144722
O O4 0.566785 0.035060 0.175271
O O5 0.885033 0.721226 0.250000
O O6 0.673162 0.663520 0.303505
O O7 0.926053 0.683946 0.337967
O O8 0.610536 0.711349 0.541435
O O9 0.804239 0.853382 0.518855
O O10 0.608864 0.325900 0.407713
O O11 0.426999 0.168030 0.382256
O O12 0.993227 0.127144 0.078683
O O13 0.168873 0.959526 0.070249
O O14 0.000000 0.000000 0.000000
O O15 0.859229 0.211696 0.626921
O O16 0.693640 0.023407 0.647009
#
# Coordination Sequence:
#
# PCOD9438307 Si02
#       8
#     8   8   4   8   8   8   8   8
#     4  10  22  42  69  91 123 166 213 262 320 386
#     4  11  25  43  68  99 128 162 208 270 333 400
#     4  12  22  38  56  90 132 170 212 280 312 370
#     4  10  21  39  66  89 125 167 220 267 322 372
#     4  12  24  38  59  91 136 176 221 264 321 384
#     4  11  22  40  66  91 123 175 216 266 323 385
#     4  12  23  43  67  96 131 175 215 265 333 399
#     4  10  20  46  67  92 125 170 214 265 325 390
#
# _framework density 18.988975
#
# number of rings (size 3 to 8) (size 9 to 14) (size 15 to 20)
#    0.000    1.067    4.000    3.200    0.000    2.667 
#    0.000    0.000    0.000    0.000    0.000    0.000 
#    0.000    0.000    0.000    0.000    0.000    0.000 
#
# Total GULP energy -335141.859313 kJ/mol
# GULP energy per Si atom -5585.697655 kJ/mol
# Density = 1.894575 g / cm^3
# Si number density = 18.988975 Si / 1000 Ang^3
#
#
#
# Elastic Constant Matrix: (Units=GPa)
#
#
# Indices 1 2 3 4 5 6 
#
# 1 77.9594 34.9457 22.9311 0.0000 0.0000 0.0000
# 2 34.9457 88.1714 13.8470 0.0000 0.0000 0.0000
# 3 22.9311 13.8470 45.6161 0.0000 0.0000 0.0000
# 4 0.0000 0.0000 0.0000 5.3962 0.0000 0.0000
# 5 0.0000 0.0000 0.0000 0.0000 -5.4001 0.0000
# 6 0.0000 0.0000 0.0000 0.0000 0.0000 -104.9327
#
#
#
# Elastic Compliance Matrix: (Units=1/GPa)
#
#
# Indices 1 2 3 4 5 6 
#
# 1 0.017512 -0.005836 -0.007031 0.000000 0.000000 0.000000
# 2 -0.005836 0.013854 -0.001272 0.000000 0.000000 0.000000
# 3 -0.007031 -0.001272 0.025843 0.000000 0.000000 0.000000
# 4 0.000000 0.000000 0.000000 0.185317 0.000000 0.000000
# 5 0.000000 0.000000 0.000000 0.000000 -0.185182 0.000000
# 6 0.000000 0.000000 0.000000 0.000000 0.000000 -0.009530
#
#
# Mechanical properties :
#
#
# Convention : Reuss Voigt Hill
#
# Bulk Modulus (GPa) = 34.56615 39.46605 37.01610
# Shear Modulus (GPa) = 58.31873 -11.65245 23.33314
#
# Velocity S-wave (km/s) = 5.54784 -2.47987 3.50919
# Velocity P-wave (km/s) = 7.69941 3.55375 5.99625
#
# Compressibility (1/GPa) = 0.02893004
#
# Stress axis : x y z
#
# Youngs Moduli (GPa) = 57.10527 72.17927 38.69561
#
# Poissons Ratio (x) = 0.42126 0.27208
# Poissons Ratio (y) = 0.33328 0.04921
# Poissons Ratio (z) = 0.40153 0.09179
#
# Static dielectric constant tensor:
#      x y z
#    x 1.619160 0.000000 0.000000 
#    y 0.000000 1.658460 0.000000 
#    z 0.000000 0.000000 1.658910 
# 
# From -- ./inp_files/28411.got.cif
#   From: 2010.05.17/outbox.cif.g08.bks.cpg/sg57_15_cif.got.tgz:28411.got - 2010.06.03 13:58:18.
