data_PCOD9438231
_publ_section_title
;
Structure prediction by ZEFSAII (Michael W. Deem and Ramdas Pophale) SiO2 
 PCOD9438231
Probable space group: P B C M
;
_chemical_formula_sum "Si O2"
_cell_formula_units_Z 48
_cell_length_a 12.952404
_cell_length_b 9.024301
_cell_length_c 16.297731
_cell_angle_alpha 90.000000
_cell_angle_beta 90.000000
_cell_angle_gamma 90.000000
_cell_volume 1904.982980
_symmetry_space_group_name_H-M "P B C M"
_symmetry_group_IT_number 57
_symmetry_cell_setting 'orthorhombic'
loop_
_space_group_symop_operation_xyz
x,y,z
-x,-y,1/2+z
x,1/2-y,-z
-x,1/2+y,1/2-z
-x,-y,-z
x,y,1/2-z
-x,1/2+y,z
x,1/2-y,1/2+z
loop_
_atom_site_type_symbol
_atom_site_label
_atom_site_fract_x
_atom_site_fract_y
_atom_site_fract_z
Si Si1 0.363998 0.592071 0.750000
Si Si2 0.785013 0.952978 0.619722
Si Si3 0.011342 0.637292 0.659910
Si Si4 0.641325 0.695584 0.905435
Si Si5 0.709473 0.106751 0.040295
Si Si6 0.929889 0.409725 0.569037
Si Si7 0.512492 0.684137 0.250000
O O1 0.299832 0.541229 0.827869
O O2 0.465440 0.489428 0.750000
O O3 0.395526 0.761179 0.750000
O O4 0.748154 0.781833 0.620375
O O5 0.891579 0.023514 0.650626
O O6 0.766837 0.002506 0.526997
O O7 0.012298 0.702309 0.750000
O O8 0.004823 0.767520 0.594512
O O9 0.918519 0.528515 0.641067
O O10 0.647310 0.516202 0.909402
O O11 0.563695 0.751552 0.834293
O O12 0.616393 0.750000 0.000000
O O13 0.816453 0.168778 0.075331
O O14 0.653944 0.250000 0.000000
O O15 0.000000 0.500000 0.500000
#
# Coordination Sequence:
#
# PCOD9438231 Si02
#       7
#     4   8   8   8   8   8   4
#     4  10  22  42  70  95 137 172 216 281 354 413
#     4  10  20  40  65  91 127 180 217 278 343 410
#     4  12  25  42  61  95 138 178 239 283 346 402
#     4   9  22  41  69  97 138 180 232 278 353 428
#     4  11  21  40  62  94 128 173 232 280 338 404
#     4  12  24  41  65  92 133 182 233 291 336 400
#     4  10  22  46  68 107 135 178 228 285 352 429
#
# _framework density 25.197075000000002
#
# number of rings (size 3 to 8) (size 9 to 14) (size 15 to 20)
#    0.000    1.333    4.167    1.000    2.333    2.667 
#    3.000    8.333    0.000    0.000    0.000    0.000 
#    0.000    0.000    0.000    0.000    0.000    0.000 
#
# Total GULP energy -267248.663071 kJ/mol
# GULP energy per Si atom -5567.680481 kJ/mol
# Density = 2.513972 g / cm^3
# Si number density = 25.197075 Si / 1000 Ang^3
#
#
#
# Elastic Constant Matrix: (Units=GPa)
#
#
# Indices 1 2 3 4 5 6 
#
# 1 34.0409 13.9859 -1.5210 0.0000 0.0000 0.0000
# 2 13.9859 140.9648 7.0535 0.0000 0.0000 0.0000
# 3 -1.5210 7.0535 83.5800 0.0000 0.0000 0.0000
# 4 0.0000 0.0000 0.0000 36.7069 0.0000 0.0000
# 5 0.0000 0.0000 0.0000 0.0000 10.4949 0.0000
# 6 0.0000 0.0000 0.0000 0.0000 0.0000 27.3321
#
#
#
# Elastic Compliance Matrix: (Units=1/GPa)
#
#
# Indices 1 2 3 4 5 6 
#
# 1 0.030681 -0.003085 0.000819 0.000000 0.000000 0.000000
# 2 -0.003085 0.007434 -0.000684 0.000000 0.000000 0.000000
# 3 0.000819 -0.000684 0.012037 0.000000 0.000000 0.000000
# 4 0.000000 0.000000 0.000000 0.027243 0.000000 0.000000
# 5 0.000000 0.000000 0.000000 0.000000 0.095285 0.000000
# 6 0.000000 0.000000 0.000000 0.000000 0.000000 0.036587
#
#
# Mechanical properties :
#
#
# Convention : Reuss Voigt Hill
#
# Bulk Modulus (GPa) = 22.59771 33.06916 27.83343
# Shear Modulus (GPa) = 21.74701 30.84460 26.29581
#
# Velocity S-wave (km/s) = 2.94100 3.50256 3.23399
# Velocity P-wave (km/s) = 4.52996 5.43230 5.00152
#
# Compressibility (1/GPa) = 0.04425228
#
# Stress axis : x y z
#
# Youngs Moduli (GPa) = 32.59399 134.51259 83.07603
#
# Poissons Ratio (x) = 0.41496 -0.06801
# Poissons Ratio (y) = 0.10055 0.05678
# Poissons Ratio (z) = -0.02668 0.09194
#
# Static dielectric constant tensor:
#      x y z
#    x 2.135570 0.000000 0.000000 
#    y 0.000000 2.010310 0.000000 
#    z 0.000000 0.000000 2.094530 
# 
# From -- ./inp_files/22538.got.cif
#   From: 2010.05.17/outbox.cif.g08.bks.cpg/sg57_12_cif.got.tgz:22538.got - 2010.06.03 13:58:18.
