data_PCOD9438136
_publ_section_title
;
Structure prediction by ZEFSAII (Michael W. Deem and Ramdas Pophale) SiO2 
 PCOD9438136
Probable space group: P B C M
;
_chemical_formula_sum "Si O2"
_cell_formula_units_Z 48
_cell_length_a 9.663944
_cell_length_b 17.041960
_cell_length_c 14.618221
_cell_angle_alpha 90.000000
_cell_angle_beta 90.000000
_cell_angle_gamma 90.000000
_cell_volume 2407.512050
_symmetry_space_group_name_H-M "P B C M"
_symmetry_group_IT_number 57
_symmetry_cell_setting 'orthorhombic'
loop_
_space_group_symop_operation_xyz
x,y,z
-x,-y,1/2+z
x,1/2-y,-z
-x,1/2+y,1/2-z
-x,-y,-z
x,y,1/2-z
-x,1/2+y,z
x,1/2-y,1/2+z
loop_
_atom_site_type_symbol
_atom_site_label
_atom_site_fract_x
_atom_site_fract_y
_atom_site_fract_z
Si Si1 0.938452 0.431761 0.941989
Si Si2 0.963890 0.431293 0.750000
Si Si3 0.532744 0.508368 0.750000
Si Si4 0.786909 0.833585 0.551219
Si Si5 0.322673 0.828579 0.543393
Si Si6 0.443199 0.077724 0.550161
Si Si7 0.700551 0.149262 0.250000
Si Si8 0.719408 0.616153 0.250000
O O1 0.922414 0.470703 0.842858
O O2 0.054576 0.363100 0.937135
O O3 0.791940 0.396017 0.968106
O O4 0.000000 0.500000 0.000000
O O5 0.127062 0.420179 0.750000
O O6 0.868438 0.352330 0.750000
O O7 0.545550 0.559498 0.842195
O O8 0.649010 0.440689 0.750000
O O9 0.393277 0.453951 0.750000
O O10 0.780228 0.750000 0.500000
O O11 0.705894 0.896997 0.488418
O O12 0.716574 0.836700 0.653183
O O13 0.264836 0.750000 0.500000
O O14 0.457022 0.853357 0.486702
O O15 0.348436 0.817997 0.652345
O O16 0.500000 0.000000 0.500000
#
# Coordination Sequence:
#
# PCOD9438136 Si02
#       8
#     8   4   4   8   8   8   4   4
#     4  10  21  39  63  92 122 162 205 249 299 359
#     4   8  20  34  58  86 118 156 198 236 308 356
#     4  12  24  38  64  88 124 154 212 262 296 356
#     4  11  23  40  63  91 128 162 203 250 310 367
#     4  11  23  40  63  91 128 162 203 250 310 367
#     4  12  23  40  61  91 115 163 209 251 295 363
#     4  10  20  39  61  85 125 166 192 251 317 355
#     4  10  20  39  61  85 125 166 192 251 317 355
#
# _framework density 19.937594000000001
#
# number of rings (size 3 to 8) (size 9 to 14) (size 15 to 20)
#    0.000    1.333    3.333    2.000    4.667    1.333 
#    0.000    1.667    0.000    0.000    0.000    0.000 
#    0.000    0.000    0.000    0.000    0.000    0.000 
#
# Total GULP energy -267653.051104 kJ/mol
# GULP energy per Si atom -5576.105231 kJ/mol
# Density = 1.989222 g / cm^3
# Si number density = 19.937594 Si / 1000 Ang^3
#
#
#
# Elastic Constant Matrix: (Units=GPa)
#
#
# Indices 1 2 3 4 5 6 
#
# 1 92.5232 -8.1046 10.9759 0.0000 0.0000 0.0000
# 2 -8.1046 47.5539 38.0606 0.0000 0.0000 0.0000
# 3 10.9759 38.0606 185.8945 0.0000 0.0000 0.0000
# 4 0.0000 0.0000 0.0000 26.5839 0.0000 0.0000
# 5 0.0000 0.0000 0.0000 0.0000 21.1060 0.0000
# 6 0.0000 0.0000 0.0000 0.0000 0.0000 29.0661
#
#
#
# Elastic Compliance Matrix: (Units=1/GPa)
#
#
# Indices 1 2 3 4 5 6 
#
# 1 0.011213 0.002919 -0.001260 0.000000 0.000000 0.000000
# 2 0.002919 0.025910 -0.005477 0.000000 0.000000 0.000000
# 3 -0.001260 -0.005477 0.006575 0.000000 0.000000 0.000000
# 4 0.000000 0.000000 0.000000 0.037617 0.000000 0.000000
# 5 0.000000 0.000000 0.000000 0.000000 0.047380 0.000000
# 6 0.000000 0.000000 0.000000 0.000000 0.000000 0.034404
#
#
# Mechanical properties :
#
#
# Convention : Reuss Voigt Hill
#
# Bulk Modulus (GPa) = 27.72907 45.31505 36.52206
# Shear Modulus (GPa) = 27.35886 34.35386 30.85636
#
# Velocity S-wave (km/s) = 3.70837 4.15549 3.93828
# Velocity P-wave (km/s) = 5.68104 6.76771 6.24804
#
# Compressibility (1/GPa) = 0.03606324
#
# Stress axis : x y z
#
# Youngs Moduli (GPa) = 89.18007 38.59487 152.08622
#
# Poissons Ratio (x) = -0.11267 0.19160
# Poissons Ratio (y) = -0.26035 0.83302
# Poissons Ratio (z) = 0.11235 0.21140
#
# Static dielectric constant tensor:
#      x y z
#    x 1.775400 0.000000 0.000000 
#    y 0.000000 1.712900 0.000000 
#    z 0.000000 0.000000 1.692620 
# 
# From -- ./inp_files/16472.got.cif
#   From: 2010.05.17/outbox.cif.g08.bks.cpg/sg57_9_cif.got.tgz:16472.got - 2010.06.03 13:58:18.
