data_PCOD9438960
_publ_section_title
;
Structure prediction by ZEFSAII (Michael W. Deem and Ramdas Pophale) SiO2 
 PCOD9438960
Probable space group: P B C M
;
_chemical_formula_sum "Si O2"
_cell_formula_units_Z 48
_cell_length_a 15.106796
_cell_length_b 19.595206
_cell_length_c 8.765864
_cell_angle_alpha 90.000000
_cell_angle_beta 90.000000
_cell_angle_gamma 90.000000
_cell_volume 2594.877895
_symmetry_space_group_name_H-M "P B C M"
_symmetry_group_IT_number 57
_symmetry_cell_setting 'orthorhombic'
loop_
_space_group_symop_operation_xyz
x,y,z
-x,-y,1/2+z
x,1/2-y,-z
-x,1/2+y,1/2-z
-x,-y,-z
x,y,1/2-z
-x,1/2+y,z
x,1/2-y,1/2+z
loop_
_atom_site_type_symbol
_atom_site_label
_atom_site_fract_x
_atom_site_fract_y
_atom_site_fract_z
Si Si1 0.385869 0.325401 0.567870
Si Si2 0.774353 0.913833 0.432207
Si Si3 0.073035 0.324536 0.568120
Si Si4 0.264785 0.562624 0.932196
Si Si5 0.864481 0.175590 0.068053
Si Si6 0.457691 0.931109 0.567957
O O1 0.392518 0.250000 0.500000
O O2 0.371639 0.322237 0.750000
O O3 0.304655 0.365704 0.492080
O O4 0.474443 0.369333 0.539443
O O5 0.772603 0.917143 0.250000
O O6 0.865224 0.880422 0.490377
O O7 0.760251 0.988691 0.501218
O O8 0.094773 0.250000 0.500000
O O9 0.087754 0.323848 0.750000
O O10 0.968934 0.337252 0.539514
O O11 0.265086 0.559657 0.750000
O O12 0.195575 0.618448 0.991288
O O13 0.362674 0.580247 0.992571
O O14 0.850674 0.175888 0.250000
O O15 0.843681 0.250000 0.000000
O O16 0.447435 0.939145 0.750000
O O17 0.500000 0.000000 0.500000
#
# Coordination Sequence:
#
# PCOD9438960 Si02
#       6
#     8   8   8   8   8   8
#     4  11  24  41  63  92 125 161 205 254 306 366
#     4  12  24  39  62  90 125 164 206 255 309 371
#     4  10  21  39  63  90 124 163 206 254 309 370
#     4  12  25  41  64  92 125 164 207 256 311 371
#     4  10  22  42  66  92 123 162 207 257 310 368
#     4  11  23  41  65  90 122 163 207 252 307 369
#
# _framework density 18.497979000000001
#
# number of rings (size 3 to 8) (size 9 to 14) (size 15 to 20)
#    0.000    1.000    1.667    5.500    0.000    5.333 
#    0.000    1.667    0.000    0.000    0.000    0.000 
#    0.000    0.000    0.000    0.000    0.000    0.000 
#
# Total GULP energy -268578.535977 kJ/mol
# GULP energy per Si atom -5595.386166 kJ/mol
# Density = 1.845588 g / cm^3
# Si number density = 18.497979 Si / 1000 Ang^3
#
#
#
# Elastic Constant Matrix: (Units=GPa)
#
#
# Indices 1 2 3 4 5 6 
#
# 1 113.5317 98.5014 93.5398 0.0000 0.0000 0.0000
# 2 98.5014 175.7497 105.0451 0.0000 0.0000 0.0000
# 3 93.5398 105.0451 157.0292 0.0000 0.0000 0.0000
# 4 0.0000 0.0000 0.0000 38.9487 0.0000 0.0000
# 5 0.0000 0.0000 0.0000 0.0000 29.9765 0.0000
# 6 0.0000 0.0000 0.0000 0.0000 0.0000 -586.2945
#
#
#
# Elastic Compliance Matrix: (Units=1/GPa)
#
#
# Indices 1 2 3 4 5 6 
#
# 1 0.021942 -0.007474 -0.008071 0.000000 0.000000 0.000000
# 2 -0.007474 0.012026 -0.003593 0.000000 0.000000 0.000000
# 3 -0.008071 -0.003593 0.013580 0.000000 0.000000 0.000000
# 4 0.000000 0.000000 0.000000 0.025675 0.000000 0.000000
# 5 0.000000 0.000000 0.000000 0.000000 0.033359 0.000000
# 6 0.000000 0.000000 0.000000 0.000000 0.000000 -0.001706
#
#
# Mechanical properties :
#
#
# Convention : Reuss Voigt Hill
#
# Bulk Modulus (GPa) = 107.84636 115.60923 111.72779
# Shear Modulus (GPa) = 34.18969 -93.52556 -29.66793
#
# Velocity S-wave (km/s) = 4.30384 -7.11826 -4.00915
# Velocity P-wave (km/s) = 9.11733 2.21936 6.25300
#
# Compressibility (1/GPa) = 0.00927245
#
# Stress axis : x y z
#
# Youngs Moduli (GPa) = 45.57412 83.15184 73.64036
#
# Poissons Ratio (x) = 0.62146 0.59435
# Poissons Ratio (y) = 0.34061 0.26458
# Poissons Ratio (z) = 0.36783 0.29876
#
# Static dielectric constant tensor:
#      x y z
#    x 1.620660 0.000000 0.000000 
#    y 0.000000 1.595410 0.000000 
#    z 0.000000 0.000000 1.615040 
# 
# From -- ./inp_files/4698.got.cif
#   From: 2010.05.17/outbox.cif.g08.bks.cpg/sg57_3_cif.got.tgz:4698.got - 2010.06.03 13:58:18.
