data_PCOD9438242
_publ_section_title
;
Structure prediction by ZEFSAII (Michael W. Deem and Ramdas Pophale) SiO2 
 PCOD9438242
Probable space group: P B C M
;
_chemical_formula_sum "Si O2"
_cell_formula_units_Z 36
_cell_length_a 12.728181
_cell_length_b 13.620021
_cell_length_c 10.516166
_cell_angle_alpha 90.000000
_cell_angle_beta 90.000000
_cell_angle_gamma 90.000000
_cell_volume 1823.062478
_symmetry_space_group_name_H-M "P B C M"
_symmetry_group_IT_number 57
_symmetry_cell_setting 'orthorhombic'
loop_
_space_group_symop_operation_xyz
x,y,z
-x,-y,1/2+z
x,1/2-y,-z
-x,1/2+y,1/2-z
-x,-y,-z
x,y,1/2-z
-x,1/2+y,z
x,1/2-y,1/2+z
loop_
_atom_site_type_symbol
_atom_site_label
_atom_site_fract_x
_atom_site_fract_y
_atom_site_fract_z
Si Si1 0.006182 0.080329 0.390718
Si Si2 0.390281 0.585219 0.250000
Si Si3 0.625339 0.659394 0.250000
Si Si4 0.220073 0.860961 0.541114
Si Si5 0.227134 0.422315 0.533334
Si Si6 0.693573 0.882915 0.250000
O O1 0.009969 0.036121 0.250000
O O2 0.119397 0.128200 0.417421
O O3 0.897653 0.139373 0.399457
O O4 0.000000 0.000000 0.500000
O O5 0.503059 0.633716 0.250000
O O6 0.316822 0.615022 0.367109
O O7 0.395598 0.467008 0.250000
O O8 0.680256 0.615629 0.123371
O O9 0.646851 0.775092 0.250000
O O10 0.237746 0.750000 0.500000
O O11 0.219000 0.958511 0.451521
O O12 0.243198 0.400599 0.382686
#
# Coordination Sequence:
#
# PCOD9438242 Si02
#       6
#     8   4   4   8   8   4
#     4  10  20  40  66  94 131 170 215 266 324 382
#     4  10  24  43  63  89 132 168 217 271 321 387
#     4  12  24  41  69  99 124 164 229 271 321 379
#     4  10  22  40  64  93 132 177 210 258 330 396
#     4  10  23  42  65  97 131 166 218 270 317 389
#     4  10  24  44  66  90 130 176 208 266 338 378
#
# _framework density 19.746991000000001
#
# number of rings (size 3 to 8) (size 9 to 14) (size 15 to 20)
#    0.000    1.778    2.222    0.667    4.667    9.778 
#    2.000    0.000    0.000    0.000    0.000    0.000 
#    0.000    0.000    0.000    0.000    0.000    0.000 
#
# Total GULP energy -200486.727881 kJ/mol
# GULP energy per Si atom -5569.075774 kJ/mol
# Density = 1.970205 g / cm^3
# Si number density = 19.746991 Si / 1000 Ang^3
#
#
#
# Elastic Constant Matrix: (Units=GPa)
#
#
# Indices 1 2 3 4 5 6 
#
# 1 159.6063 46.2825 35.2289 0.0000 0.0000 0.0000
# 2 46.2825 150.4170 39.7451 0.0000 0.0000 0.0000
# 3 35.2289 39.7451 117.0162 0.0000 0.0000 0.0000
# 4 0.0000 0.0000 0.0000 9.6602 0.0000 0.0000
# 5 0.0000 0.0000 0.0000 0.0000 29.3817 0.0000
# 6 0.0000 0.0000 0.0000 0.0000 0.0000 16.5091
#
#
#
# Elastic Compliance Matrix: (Units=1/GPa)
#
#
# Indices 1 2 3 4 5 6 
#
# 1 0.007123 -0.001785 -0.001538 0.000000 0.000000 0.000000
# 2 -0.001785 0.007751 -0.002095 0.000000 0.000000 0.000000
# 3 -0.001538 -0.002095 0.009721 0.000000 0.000000 0.000000
# 4 0.000000 0.000000 0.000000 0.103518 0.000000 0.000000
# 5 0.000000 0.000000 0.000000 0.000000 0.034035 0.000000
# 6 0.000000 0.000000 0.000000 0.000000 0.000000 0.060573
#
#
# Mechanical properties :
#
#
# Convention : Reuss Voigt Hill
#
# Bulk Modulus (GPa) = 72.68839 74.39471 73.54155
# Shear Modulus (GPa) = 20.99587 31.49572 26.24579
#
# Velocity S-wave (km/s) = 3.26428 3.99803 3.64964
# Velocity P-wave (km/s) = 7.14823 7.68558 7.42177
#
# Compressibility (1/GPa) = 0.01375735
#
# Stress axis : x y z
#
# Youngs Moduli (GPa) = 140.39914 129.01370 102.87524
#
# Poissons Ratio (x) = 0.23031 0.15822
# Poissons Ratio (y) = 0.25064 0.21555
# Poissons Ratio (z) = 0.21593 0.27032
#
# Static dielectric constant tensor:
#      x y z
#    x 1.729230 0.000000 0.000000 
#    y 0.000000 1.706290 0.000000 
#    z 0.000000 0.000000 1.719920 
# 
# From -- ./inp_files/12580.got.cif
#   From: 2010.05.17/outbox.cif.g08.bks.cpg/sg57_7_cif.got.tgz:12580.got - 2010.06.03 13:58:18.
