data_PCOD9438981
_publ_section_title
;
Structure prediction by ZEFSAII (Michael W. Deem and Ramdas Pophale) SiO2 
 PCOD9438981
Probable space group: P B C M
;
_chemical_formula_sum "Si O2"
_cell_formula_units_Z 48
_cell_length_a 9.776227
_cell_length_b 16.824580
_cell_length_c 14.986510
_cell_angle_alpha 90.000000
_cell_angle_beta 90.000000
_cell_angle_gamma 90.000000
_cell_volume 2464.994851
_symmetry_space_group_name_H-M "P B C M"
_symmetry_group_IT_number 57
_symmetry_cell_setting 'orthorhombic'
loop_
_space_group_symop_operation_xyz
x,y,z
-x,-y,1/2+z
x,1/2-y,-z
-x,1/2+y,1/2-z
-x,-y,-z
x,y,1/2-z
-x,1/2+y,z
x,1/2-y,1/2+z
loop_
_atom_site_type_symbol
_atom_site_label
_atom_site_fract_x
_atom_site_fract_y
_atom_site_fract_z
Si Si1 0.498461 0.288167 0.596954
Si Si2 0.204805 0.346036 0.851083
Si Si3 0.627623 0.056348 0.479872
Si Si4 0.712513 0.156838 0.649765
Si Si5 0.026556 0.308090 0.145412
Si Si6 0.132994 0.052370 0.980253
O O1 0.466692 0.250000 0.500000
O O2 0.355121 0.307053 0.643042
O O3 0.578848 0.370236 0.580270
O O4 0.598199 0.225450 0.643745
O O5 0.181650 0.375124 0.750000
O O6 0.094871 0.277040 0.871974
O O7 0.190197 0.412056 0.926967
O O8 0.679752 0.093908 0.572987
O O9 0.500000 0.000000 0.500000
O O10 0.749582 0.003823 0.440258
O O11 0.712926 0.123014 0.750000
O O12 0.863283 0.192128 0.631373
O O13 0.051031 0.326222 0.250000
O O14 0.093571 0.375060 0.083810
O O15 0.000000 0.000000 0.000000
#
# Coordination Sequence:
#
# PCOD9438981 Si02
#       6
#     8   8   8   8   8   8
#     4  10  21  39  64  88 121 160 205 249 300 364
#     4  11  24  41  64  91 121 161 208 251 300 363
#     4  11  23  41  60  91 123 161 203 246 306 367
#     4  10  22  41  64  89 121 161 204 251 300 360
#     4  10  23  42  63  91 123 161 208 252 300 363
#     4  12  24  40  65  90 124 165 200 251 310 361
#
# _framework density 19.472657000000002
#
# number of rings (size 3 to 8) (size 9 to 14) (size 15 to 20)
#    0.000    1.333    3.333    2.000    4.667    2.667 
#    0.000    1.667    0.000    0.000    0.000    0.000 
#    0.000    0.000    0.000    0.000    0.000    0.000 
#
# Total GULP energy -268298.083007 kJ/mol
# GULP energy per Si atom -5589.543396 kJ/mol
# Density = 1.942834 g / cm^3
# Si number density = 19.472657 Si / 1000 Ang^3
#
#
#
# Elastic Constant Matrix: (Units=GPa)
#
#
# Indices 1 2 3 4 5 6 
#
# 1 105.3145 17.8921 11.3911 0.0000 0.0000 0.0000
# 2 17.8921 58.2251 16.7986 0.0000 0.0000 0.0000
# 3 11.3911 16.7986 50.8738 0.0000 0.0000 0.0000
# 4 0.0000 0.0000 0.0000 14.6680 0.0000 0.0000
# 5 0.0000 0.0000 0.0000 0.0000 14.4754 0.0000
# 6 0.0000 0.0000 0.0000 0.0000 0.0000 45.5296
#
#
#
# Elastic Compliance Matrix: (Units=1/GPa)
#
#
# Indices 1 2 3 4 5 6 
#
# 1 0.010104 -0.002710 -0.001367 0.000000 0.000000 0.000000
# 2 -0.002710 0.019710 -0.005901 0.000000 0.000000 0.000000
# 3 -0.001367 -0.005901 0.021911 0.000000 0.000000 0.000000
# 4 0.000000 0.000000 0.000000 0.068176 0.000000 0.000000
# 5 0.000000 0.000000 0.000000 0.000000 0.069083 0.000000
# 6 0.000000 0.000000 0.000000 0.000000 0.000000 0.021964
#
#
# Mechanical properties :
#
#
# Convention : Reuss Voigt Hill
#
# Bulk Modulus (GPa) = 31.47922 34.06411 32.77167
# Shear Modulus (GPa) = 20.70437 26.15669 23.43053
#
# Velocity S-wave (km/s) = 3.26429 3.66902 3.47256
# Velocity P-wave (km/s) = 5.51439 5.95652 5.73971
#
# Compressibility (1/GPa) = 0.03176699
#
# Stress axis : x y z
#
# Youngs Moduli (GPa) = 98.97336 50.73511 45.63848
#
# Poissons Ratio (x) = 0.13751 0.06241
# Poissons Ratio (y) = 0.26825 0.26933
# Poissons Ratio (z) = 0.13533 0.29941
#
# Static dielectric constant tensor:
#      x y z
#    x 1.671970 0.000000 0.000000 
#    y 0.000000 1.657490 0.000000 
#    z 0.000000 0.000000 1.692860 
# 
# From -- ./inp_files/16313.got.cif
#   From: 2010.05.17/outbox.cif.g08.bks.cpg/sg57_9_cif.got.tgz:16313.got - 2010.06.03 13:58:18.
