data_PCOD9438598
_publ_section_title
;
Structure prediction by ZEFSAII (Michael W. Deem and Ramdas Pophale) SiO2 
 PCOD9438598
Probable space group: P B C M
;
_chemical_formula_sum "Si O2"
_cell_formula_units_Z 64
_cell_length_a 32.116368
_cell_length_b 5.430853
_cell_length_c 17.849789
_cell_angle_alpha 90.000000
_cell_angle_beta 90.000000
_cell_angle_gamma 90.000000
_cell_volume 3113.347230
_symmetry_space_group_name_H-M "P B C M"
_symmetry_group_IT_number 57
_symmetry_cell_setting 'orthorhombic'
loop_
_space_group_symop_operation_xyz
x,y,z
-x,-y,1/2+z
x,1/2-y,-z
-x,1/2+y,1/2-z
-x,-y,-z
x,y,1/2-z
-x,1/2+y,z
x,1/2-y,1/2+z
loop_
_atom_site_type_symbol
_atom_site_label
_atom_site_fract_x
_atom_site_fract_y
_atom_site_fract_z
Si Si1 0.246507 0.707739 0.835592
Si Si2 0.475572 0.241326 0.659588
Si Si3 0.335935 0.749794 0.090296
Si Si4 0.383897 0.250119 0.590606
Si Si5 0.021289 0.086313 0.158995
Si Si6 0.183643 0.193110 0.331847
Si Si7 0.105928 0.827673 0.167018
Si Si8 0.831697 0.417565 0.572313
O O1 0.251228 0.788856 0.750000
O O2 0.289478 0.739154 0.877935
O O3 0.229007 0.429001 0.833726
O O4 0.208360 0.843690 0.876342
O O5 0.472048 0.241472 0.750000
O O6 0.500254 0.490506 0.637850
O O7 0.429957 0.243763 0.624132
O O8 0.358979 0.497176 0.113370
O O9 0.360693 0.997088 0.113498
O O10 0.333937 0.750000 0.000000
O O11 0.386324 0.250000 0.500000
O O12 0.019290 0.096632 0.250000
O O13 0.067477 0.991333 0.140315
O O14 0.008697 0.360561 0.133603
O O15 0.179771 0.329632 0.250000
O O16 0.146925 0.993720 0.325286
O O17 0.174632 0.294958 0.415081
O O18 0.094933 0.726674 0.250000
O O19 0.123208 0.625283 0.110676
O O20 0.829382 0.250000 0.500000
#
# Coordination Sequence:
#
# PCOD9438598 Si02
#       8
#     8   8   8   8   8   8   8   8
#     4  10  22  38  57  85 113 150 199 244 296 352
#     4  10  21  37  59  88 120 154 197 250 301 350
#     4  10  22  40  58  86 120 159 196 244 293 354
#     4  10  22  39  60  86 121 157 200 242 294 355
#     4   9  18  31  52  84 116 146 186 237 292 349
#     4   9  19  36  58  82 111 146 191 246 293 348
#     4   9  19  34  54  82 112 147 190 240 293 345
#     4  11  22  36  56  83 113 151 193 242 294 353
#
# _framework density 20.556654000000002
#
# number of rings (size 3 to 8) (size 9 to 14) (size 15 to 20)
#    0.000    2.250    0.000    3.000    3.500    3.500 
#    2.250    0.000    0.000    0.750    0.000    0.000 
#    0.000    0.000    0.000    0.000    0.000    0.000 
#
# Total GULP energy -356429.122596 kJ/mol
# GULP energy per Si atom -5569.205041 kJ/mol
# Density = 2.050987 g / cm^3
# Si number density = 20.556654 Si / 1000 Ang^3
#
#
#
# Elastic Constant Matrix: (Units=GPa)
#
#
# Indices 1 2 3 4 5 6 
#
# 1 93.9620 17.1421 12.0762 0.0000 0.0000 0.0000
# 2 17.1421 78.2886 5.9723 0.0000 0.0000 0.0000
# 3 12.0762 5.9723 15.0390 0.0000 0.0000 0.0000
# 4 0.0000 0.0000 0.0000 19.4654 0.0000 0.0000
# 5 0.0000 0.0000 0.0000 0.0000 33.6235 0.0000
# 6 0.0000 0.0000 0.0000 0.0000 0.0000 23.2416
#
#
#
# Elastic Compliance Matrix: (Units=1/GPa)
#
#
# Indices 1 2 3 4 5 6 
#
# 1 0.012157 -0.001977 -0.008977 0.000000 0.000000 0.000000
# 2 -0.001977 0.013494 -0.003771 0.000000 0.000000 0.000000
# 3 -0.008977 -0.003771 0.075200 0.000000 0.000000 0.000000
# 4 0.000000 0.000000 0.000000 0.051373 0.000000 0.000000
# 5 0.000000 0.000000 0.000000 0.000000 0.029741 0.000000
# 6 0.000000 0.000000 0.000000 0.000000 0.000000 0.043026
#
#
# Mechanical properties :
#
#
# Convention : Reuss Voigt Hill
#
# Bulk Modulus (GPa) = 14.00550 28.63008 21.31779
# Shear Modulus (GPa) = 17.96999 25.40602 21.68801
#
# Velocity S-wave (km/s) = 2.95984 3.51935 3.25166
# Velocity P-wave (km/s) = 4.30219 5.52016 4.94878
#
# Compressibility (1/GPa) = 0.07140053
#
# Stress axis : x y z
#
# Youngs Moduli (GPa) = 82.25697 74.10790 13.29791
#
# Poissons Ratio (x) = 0.14652 0.11937
# Poissons Ratio (y) = 0.16263 0.05015
# Poissons Ratio (z) = 0.73841 0.27947
#
# Static dielectric constant tensor:
#      x y z
#    x 1.672380 0.000000 0.000000 
#    y 0.000000 1.950510 0.000000 
#    z 0.000000 0.000000 1.813350 
# 
# From -- ./inp_files/23214.got.cif
#   From: 2010.05.17/outbox.cif.g08.bks.cpg/sg57_12_cif.got.tgz:23214.got - 2010.06.03 13:58:18.
