data_PCOD9438511
_publ_section_title
;
Structure prediction by ZEFSAII (Michael W. Deem and Ramdas Pophale) SiO2 
 PCOD9438511
Probable space group: P B C M
;
_chemical_formula_sum "Si O2"
_cell_formula_units_Z 48
_cell_length_a 31.607133
_cell_length_b 9.410847
_cell_length_c 8.656486
_cell_angle_alpha 90.000000
_cell_angle_beta 90.000000
_cell_angle_gamma 90.000000
_cell_volume 2574.870832
_symmetry_space_group_name_H-M "P B C M"
_symmetry_group_IT_number 57
_symmetry_cell_setting 'orthorhombic'
loop_
_space_group_symop_operation_xyz
x,y,z
-x,-y,1/2+z
x,1/2-y,-z
-x,1/2+y,1/2-z
-x,-y,-z
x,y,1/2-z
-x,1/2+y,z
x,1/2-y,1/2+z
loop_
_atom_site_type_symbol
_atom_site_label
_atom_site_fract_x
_atom_site_fract_y
_atom_site_fract_z
Si Si1 0.038396 0.590818 0.435001
Si Si2 0.381582 0.909959 0.564728
Si Si3 0.791784 0.592567 0.434242
Si Si4 0.867783 0.091326 0.434733
Si Si5 0.539660 0.910780 0.935813
Si Si6 0.695158 0.910079 0.564002
O O1 0.035449 0.750000 0.500000
O O2 0.035998 0.594855 0.250000
O O3 0.085358 0.534252 0.478283
O O4 0.000000 0.500000 0.500000
O O5 0.384958 0.750000 0.500000
O O6 0.384743 0.907725 0.750000
O O7 0.418664 0.007709 0.494623
O O8 0.337857 0.982499 0.511584
O O9 0.797097 0.750000 0.500000
O O10 0.794884 0.595567 0.250000
O O11 0.828657 0.496186 0.501067
O O12 0.743647 0.547730 0.473404
O O13 0.865379 0.250000 0.500000
O O14 0.865582 0.095059 0.250000
O O15 0.538730 0.907541 0.750000
O O16 0.538714 0.750000 0.000000
O O17 0.500000 0.000000 0.000000
O O18 0.688364 0.750000 0.500000
O O19 0.690077 0.908532 0.750000
#
# Coordination Sequence:
#
# PCOD9438511 Si02
#       6
#     8   8   8   8   8   8
#     4  10  21  37  57  81 109 144 184 230 280 336
#     4  12  25  42  63  90 122 159 200 245 294 347
#     4  10  21  37  59  85 115 150 191 236 285 339
#     4  10  21  37  57  81 111 146 186 230 282 338
#     4  12  25  44  67  94 126 162 202 246 295 349
#     4  10  21  39  61  87 117 153 194 239 289 343
#
# _framework density 18.641711999999998
#
# number of rings (size 3 to 8) (size 9 to 14) (size 15 to 20)
#    0.000    1.333    0.000    6.000    0.000    5.333 
#    0.000    0.000    0.000    0.000    0.000    0.000 
#    0.000    0.000    0.000    0.000    0.000    0.000 
#
# Total GULP energy -268324.615848 kJ/mol
# GULP energy per Si atom -5590.096163 kJ/mol
# Density = 1.859928 g / cm^3
# Si number density = 18.641712 Si / 1000 Ang^3
#
#
#
# Elastic Constant Matrix: (Units=GPa)
#
#
# Indices 1 2 3 4 5 6 
#
# 1 190.9512 113.2452 87.1183 0.0000 0.0000 0.0000
# 2 113.2452 130.1418 67.7621 0.0000 0.0000 0.0000
# 3 87.1183 67.7621 137.4920 0.0000 0.0000 0.0000
# 4 0.0000 0.0000 0.0000 40.2778 0.0000 0.0000
# 5 0.0000 0.0000 0.0000 0.0000 37.6672 0.0000
# 6 0.0000 0.0000 0.0000 0.0000 0.0000 43.8961
#
#
#
# Elastic Compliance Matrix: (Units=1/GPa)
#
#
# Indices 1 2 3 4 5 6 
#
# 1 0.011813 -0.008585 -0.003254 0.000000 0.000000 0.000000
# 2 -0.008585 0.016575 -0.002729 0.000000 0.000000 0.000000
# 3 -0.003254 -0.002729 0.010680 0.000000 0.000000 0.000000
# 4 0.000000 0.000000 0.000000 0.024828 0.000000 0.000000
# 5 0.000000 0.000000 0.000000 0.000000 0.026548 0.000000
# 6 0.000000 0.000000 0.000000 0.000000 0.000000 0.022781
#
#
# Mechanical properties :
#
#
# Convention : Reuss Voigt Hill
#
# Bulk Modulus (GPa) = 100.68671 110.53737 105.61204
# Shear Modulus (GPa) = 34.32360 37.06551 35.69455
#
# Velocity S-wave (km/s) = 4.29561 4.46389 4.38055
# Velocity P-wave (km/s) = 8.87309 9.27323 9.07537
#
# Compressibility (1/GPa) = 0.00993180
#
# Stress axis : x y z
#
# Youngs Moduli (GPa) = 84.65387 60.33031 93.63211
#
# Poissons Ratio (x) = 0.51793 0.30467
# Poissons Ratio (y) = 0.72675 0.25557
# Poissons Ratio (z) = 0.27545 0.16467
#
# Static dielectric constant tensor:
#      x y z
#    x 1.654880 0.000000 0.000000 
#    y 0.000000 1.594830 0.000000 
#    z 0.000000 0.000000 1.622190 
# 
# From -- ./inp_files/9946.got.cif
#   From: 2010.05.17/outbox.cif.g08.bks.cpg/sg57_5_cif.got.tgz:9946.got - 2010.06.03 13:58:18.
