data_PCOD9438360
_publ_section_title
;
Structure prediction by ZEFSAII (Michael W. Deem and Ramdas Pophale) SiO2 
 PCOD9438360
Probable space group: P B C M
;
_chemical_formula_sum "Si O2"
_cell_formula_units_Z 64
_cell_length_a 23.106911
_cell_length_b 8.193912
_cell_length_c 15.125400
_cell_angle_alpha 90.000000
_cell_angle_beta 90.000000
_cell_angle_gamma 90.000000
_cell_volume 2863.782664
_symmetry_space_group_name_H-M "P B C M"
_symmetry_group_IT_number 57
_symmetry_cell_setting 'orthorhombic'
loop_
_space_group_symop_operation_xyz
x,y,z
-x,-y,1/2+z
x,1/2-y,-z
-x,1/2+y,1/2-z
-x,-y,-z
x,y,1/2-z
-x,1/2+y,z
x,1/2-y,1/2+z
loop_
_atom_site_type_symbol
_atom_site_label
_atom_site_fract_x
_atom_site_fract_y
_atom_site_fract_z
Si Si1 0.306225 0.979209 0.846127
Si Si2 0.643281 0.653709 0.147953
Si Si3 0.583262 0.196093 0.097286
Si Si4 0.257494 0.440224 0.524410
Si Si5 0.522488 0.975543 0.647507
Si Si6 0.139398 0.559017 0.521783
Si Si7 0.041824 0.849442 0.149238
Si Si8 0.916973 0.971882 0.350954
O O1 0.277200 0.966256 0.750000
O O2 0.360044 0.857517 0.851664
O O3 0.334393 0.160458 0.853932
O O4 0.267263 0.962309 0.932937
O O5 0.645885 0.597661 0.250000
O O6 0.686091 0.550427 0.086182
O O7 0.576613 0.637977 0.119872
O O8 0.535738 0.052671 0.093417
O O9 0.548326 0.344632 0.139779
O O10 0.600482 0.250000 0.000000
O O11 0.251576 0.250000 0.500000
O O12 0.197857 0.497747 0.567146
O O13 0.507926 0.943042 0.750000
O O14 0.146991 0.750000 0.500000
O O15 0.082541 0.551790 0.582634
O O16 0.128530 0.461215 0.430436
O O17 0.049395 0.909210 0.250000
O O18 0.061163 0.660640 0.146343
O O19 0.974091 0.866466 0.129017
O O20 0.897224 0.938119 0.250000
#
# Coordination Sequence:
#
# PCOD9438360 Si02
#       8
#     8   8   8   8   8   8   8   8
#     4  10  21  40  61  80 109 149 187 230 283 336
#     4   9  20  39  61  82 110 147 186 232 284 333
#     4  12  24  37  57  86 115 144 181 227 279 336
#     4  10  22  38  56  80 108 141 188 235 273 322
#     4  11  22  37  57  83 112 143 179 221 275 339
#     4  10  21  35  52  76 109 145 179 222 273 323
#     4   9  18  33  53  79 108 140 176 218 268 323
#     4   9  18  33  53  78 109 141 177 219 267 322
#
# _framework density 22.348064999999998
#
# number of rings (size 3 to 8) (size 9 to 14) (size 15 to 20)
#    0.000    2.000    0.000    3.375    0.000    6.000 
#    0.000    0.000    0.000    0.000    0.000    0.000 
#    0.000    0.000    0.000    0.000    0.000    0.000 
#
# Total GULP energy -357767.498966 kJ/mol
# GULP energy per Si atom -5590.117171 kJ/mol
# Density = 2.229720 g / cm^3
# Si number density = 22.348065 Si / 1000 Ang^3
#
#
#
# Elastic Constant Matrix: (Units=GPa)
#
#
# Indices 1 2 3 4 5 6 
#
# 1 48.7866 2.4890 14.8633 0.0000 0.0000 0.0000
# 2 2.4890 23.6363 6.9649 0.0000 0.0000 0.0000
# 3 14.8633 6.9649 67.1637 0.0000 0.0000 0.0000
# 4 0.0000 0.0000 0.0000 16.2543 0.0000 0.0000
# 5 0.0000 0.0000 0.0000 0.0000 -371.9457 0.0000
# 6 0.0000 0.0000 0.0000 0.0000 0.0000 28.5778
#
#
#
# Elastic Compliance Matrix: (Units=1/GPa)
#
#
# Indices 1 2 3 4 5 6 
#
# 1 0.021998 -0.000910 -0.004774 0.000000 0.000000 0.000000
# 2 -0.000910 0.043679 -0.004328 0.000000 0.000000 0.000000
# 3 -0.004774 -0.004328 0.016394 0.000000 0.000000 0.000000
# 4 0.000000 0.000000 0.000000 0.061522 0.000000 0.000000
# 5 0.000000 0.000000 0.000000 0.000000 -0.002689 0.000000
# 6 0.000000 0.000000 0.000000 0.000000 0.000000 0.034992
#
#
# Mechanical properties :
#
#
# Convention : Reuss Voigt Hill
#
# Bulk Modulus (GPa) = 16.11661 20.91346 18.51504
# Shear Modulus (GPa) = 23.08363 -57.73810 -17.32723
#
# Velocity S-wave (km/s) = 3.21738 -5.08841 -2.78750
# Velocity P-wave (km/s) = 4.58578 5.01440 1.43437
#
# Compressibility (1/GPa) = 0.06204780
#
# Stress axis : x y z
#
# Youngs Moduli (GPa) = 45.45815 22.89428 60.99681
#
# Poissons Ratio (x) = 0.02083 0.29119
# Poissons Ratio (y) = 0.04136 0.26401
# Poissons Ratio (z) = 0.21701 0.09909
#
# Static dielectric constant tensor:
#      x y z
#    x 1.786070 0.000000 0.000000 
#    y 0.000000 1.852210 0.000000 
#    z 0.000000 0.000000 1.848570 
# 
# From -- ./inp_files/19484.got.cif
#   From: 2010.05.17/outbox.cif.g08.bks.cpg/sg57_10_cif.got.tgz:19484.got - 2010.06.03 13:58:18.
