data_PCOD9438353
_publ_section_title
;
Structure prediction by ZEFSAII (Michael W. Deem and Ramdas Pophale) SiO2 
 PCOD9438353
Probable space group: P B C M
;
_chemical_formula_sum "Si O2"
_cell_formula_units_Z 48
_cell_length_a 7.992844
_cell_length_b 9.358144
_cell_length_c 29.049214
_cell_angle_alpha 90.000000
_cell_angle_beta 90.000000
_cell_angle_gamma 90.000000
_cell_volume 2172.828486
_symmetry_space_group_name_H-M "P B C M"
_symmetry_group_IT_number 57
_symmetry_cell_setting 'orthorhombic'
loop_
_space_group_symop_operation_xyz
x,y,z
-x,-y,1/2+z
x,1/2-y,-z
-x,1/2+y,1/2-z
-x,-y,-z
x,y,1/2-z
-x,1/2+y,z
x,1/2-y,1/2+z
loop_
_atom_site_type_symbol
_atom_site_label
_atom_site_fract_x
_atom_site_fract_y
_atom_site_fract_z
Si Si1 0.728950 0.749783 0.303060
Si Si2 0.516155 0.010346 0.054941
Si Si3 0.226308 0.651067 0.117541
Si Si4 0.975141 0.626990 0.879159
Si Si5 0.717352 0.743182 0.444744
Si Si6 0.464942 0.532919 0.196385
O O1 0.784852 0.752987 0.250000
O O2 0.873790 0.804927 0.336161
O O3 0.649378 0.595075 0.313041
O O4 0.577238 0.865262 0.307887
O O5 0.668412 0.110756 0.072065
O O6 0.346791 0.088077 0.070352
O O7 0.574078 0.855502 0.071789
O O8 0.500000 0.000000 0.000000
O O9 0.069387 0.539910 0.119572
O O10 0.342110 0.608353 0.160397
O O11 0.160197 0.810991 0.120857
O O12 0.885986 0.698345 0.923452
O O13 0.725826 0.750000 0.500000
O O14 0.429669 0.570449 0.250000
#
# Coordination Sequence:
#
# PCOD9438353 Si02
#       6
#     8   8   8   8   8   8
#     4   9  18  33  53  76 102 133 170 212 253 296
#     4   9  18  34  54  75  97 127 170 212 252 299
#     4  10  21  35  51  75 106 138 170 208 254 306
#     4  10  21  35  50  73 106 136 166 205 254 305
#     4   9  18  34  53  74  99 128 165 210 252 297
#     4   9  18  33  53  77 103 134 175 217 253 295
#
# _framework density 22.09102
#
# number of rings (size 3 to 8) (size 9 to 14) (size 15 to 20)
#    0.000    2.667    0.000    1.000    0.000    3.333 
#    0.000   10.000    0.000    0.000    0.000    0.000 
#    0.000    0.000    0.000    0.000    0.000    0.000 
#
# Total GULP energy -267737.902967 kJ/mol
# GULP energy per Si atom -5577.872978 kJ/mol
# Density = 2.204074 g / cm^3
# Si number density = 22.091020 Si / 1000 Ang^3
#
#
#
# Elastic Constant Matrix: (Units=GPa)
#
#
# Indices 1 2 3 4 5 6 
#
# 1 14.6371 15.6374 16.7482 0.0000 0.0000 0.0000
# 2 15.6374 58.4706 15.6532 0.0000 0.0000 0.0000
# 3 16.7482 15.6532 77.3819 0.0000 0.0000 0.0000
# 4 0.0000 0.0000 0.0000 20.2453 0.0000 0.0000
# 5 0.0000 0.0000 0.0000 0.0000 5.7032 0.0000
# 6 0.0000 0.0000 0.0000 0.0000 0.0000 50.2426
#
#
#
# Elastic Compliance Matrix: (Units=1/GPa)
#
#
# Indices 1 2 3 4 5 6 
#
# 1 0.120496 -0.026689 -0.020681 0.000000 0.000000 0.000000
# 2 -0.026689 0.023993 0.000923 0.000000 0.000000 0.000000
# 3 -0.020681 0.000923 0.017212 0.000000 0.000000 0.000000
# 4 0.000000 0.000000 0.000000 0.049394 0.000000 0.000000
# 5 0.000000 0.000000 0.000000 0.000000 0.175339 0.000000
# 6 0.000000 0.000000 0.000000 0.000000 0.000000 0.019903
#
#
# Mechanical properties :
#
#
# Convention : Reuss Voigt Hill
#
# Bulk Modulus (GPa) = 14.53321 27.39636 20.96478
# Shear Modulus (GPa) = 9.57545 22.06827 15.82186
#
# Velocity S-wave (km/s) = 2.08422 3.16408 2.67912
# Velocity P-wave (km/s) = 3.51923 5.07711 4.36818
#
# Compressibility (1/GPa) = 0.06880792
#
# Stress axis : x y z
#
# Youngs Moduli (GPa) = 8.29900 41.67841 58.09801
#
# Poissons Ratio (x) = 1.11236 1.20152
# Poissons Ratio (y) = 0.22149 -0.05362
# Poissons Ratio (z) = 0.17163 -0.03847
#
# Static dielectric constant tensor:
#      x y z
#    x 1.826780 0.000000 0.000000 
#    y 0.000000 1.824260 0.000000 
#    z 0.000000 0.000000 1.801390 
# 
# From -- ./inp_files/29485.got.cif
#   From: 2010.05.17/outbox.cif.g08.bks.cpg/sg57_15_cif.got.tgz:29485.got - 2010.06.03 13:58:18.
