data_PCOD9438982
_publ_section_title
;
Structure prediction by ZEFSAII (Michael W. Deem and Ramdas Pophale) SiO2 
 PCOD9438982
Probable space group: P B C M
;
_chemical_formula_sum "Si O2"
_cell_formula_units_Z 56
_cell_length_a 31.934388
_cell_length_b 5.127903
_cell_length_c 15.951541
_cell_angle_alpha 90.000000
_cell_angle_beta 90.000000
_cell_angle_gamma 90.000000
_cell_volume 2612.167631
_symmetry_space_group_name_H-M "P B C M"
_symmetry_group_IT_number 57
_symmetry_cell_setting 'orthorhombic'
loop_
_space_group_symop_operation_xyz
x,y,z
-x,-y,1/2+z
x,1/2-y,-z
-x,1/2+y,1/2-z
-x,-y,-z
x,y,1/2-z
-x,1/2+y,z
x,1/2-y,1/2+z
loop_
_atom_site_type_symbol
_atom_site_label
_atom_site_fract_x
_atom_site_fract_y
_atom_site_fract_z
Si Si1 0.611396 0.500354 0.942449
Si Si2 0.749886 0.520973 0.148548
Si Si3 0.301660 0.982183 0.649087
Si Si4 0.525428 0.124321 0.351135
Si Si5 0.841754 0.361330 0.092662
Si Si6 0.112783 0.371569 0.346959
Si Si7 0.976003 0.408182 0.647590
O O1 0.653063 0.540246 0.888095
O O2 0.570514 0.443166 0.887315
O O3 0.618695 0.250000 0.000000
O O4 0.603890 0.750000 0.000000
O O5 0.754193 0.520299 0.250000
O O6 0.731830 0.799761 0.122197
O O7 0.794647 0.451152 0.111233
O O8 0.716142 0.300157 0.125277
O O9 0.304414 0.991808 0.750000
O O10 0.527744 0.120297 0.250000
O O11 0.508156 0.405459 0.377648
O O12 0.870471 0.615171 0.107125
O O13 0.855229 0.114554 0.149144
O O14 0.845725 0.250000 0.000000
O O15 0.106645 0.293032 0.250000
O O16 0.069001 0.486888 0.380247
O O17 0.974852 0.403679 0.750000
O O18 0.989096 0.119147 0.621350
#
# Coordination Sequence:
#
# PCOD9438982 Si02
#       7
#     8   8   8   8   8   8   8
#     4  12  25  39  60  91 125 159 195 243 299 355
#     4  10  21  39  64  89 114 152 201 246 291 350
#     4  10  22  41  63  86 116 154 196 243 292 351
#     4  10  22  41  64  88 118 160 206 249 295 350
#     4  12  25  40  60  90 126 160 196 249 310 364
#     4  11  22  39  64  89 119 160 204 249 297 362
#     4   9  17  31  55  87 115 144 194 254 299 339
#
# _framework density 21.438132
#
# number of rings (size 3 to 8) (size 9 to 14) (size 15 to 20)
#    0.000    1.429    0.000    5.571    0.000    6.857 
#    0.000    5.714    0.000    8.571    0.000    0.000 
#    0.000    0.000    0.000    0.000    0.000    0.000 
#
# Total GULP energy -313411.407360 kJ/mol
# GULP energy per Si atom -5596.632274 kJ/mol
# Density = 2.138934 g / cm^3
# Si number density = 21.438132 Si / 1000 Ang^3
#
#
#
# Elastic Constant Matrix: (Units=GPa)
#
#
# Indices 1 2 3 4 5 6 
#
# 1 69.3613 -17.4583 7.4807 0.0000 0.0000 0.0000
# 2 -17.4583 85.7468 4.3509 0.0000 0.0000 0.0000
# 3 7.4807 4.3509 16.5908 0.0000 0.0000 0.0000
# 4 0.0000 0.0000 0.0000 17.4422 0.0000 0.0000
# 5 0.0000 0.0000 0.0000 0.0000 -3.7657 0.0000
# 6 0.0000 0.0000 0.0000 0.0000 0.0000 37.6159
#
#
#
# Elastic Compliance Matrix: (Units=1/GPa)
#
#
# Indices 1 2 3 4 5 6 
#
# 1 0.016252 0.003730 -0.008306 0.000000 0.000000 0.000000
# 2 0.003730 0.012676 -0.005006 0.000000 0.000000 0.000000
# 3 -0.008306 -0.005006 0.065332 0.000000 0.000000 0.000000
# 4 0.000000 0.000000 0.000000 0.057332 0.000000 0.000000
# 5 0.000000 0.000000 0.000000 0.000000 -0.265557 0.000000
# 6 0.000000 0.000000 0.000000 0.000000 0.000000 0.026585
#
#
# Mechanical properties :
#
#
# Convention : Reuss Voigt Hill
#
# Bulk Modulus (GPa) = 13.31625 17.82728 15.57176
# Shear Modulus (GPa) = -115.78299 22.08019 -46.85140
#
# Velocity S-wave (km/s) = -7.35698 3.21276 -4.67992
# Velocity P-wave (km/s) = 8.12047 4.70066 4.68219
#
# Compressibility (1/GPa) = 0.07509622
#
# Stress axis : x y z
#
# Youngs Moduli (GPa) = 61.53068 78.89051 15.30632
#
# Poissons Ratio (x) = -0.29430 0.12714
# Poissons Ratio (y) = -0.22954 0.07663
# Poissons Ratio (z) = 0.51109 0.39494
#
# Static dielectric constant tensor:
#      x y z
#    x 1.739370 0.000000 0.000000 
#    y 0.000000 1.741800 0.000000 
#    z 0.000000 0.000000 1.790640 
# 
# From -- ./inp_files/19645.got.cif
#   From: 2010.05.17/outbox.cif.g08.bks.cpg/sg57_10_cif.got.tgz:19645.got - 2010.06.03 13:58:18.
