data_PCOD9438925
_publ_section_title
;
Structure prediction by ZEFSAII (Michael W. Deem and Ramdas Pophale) SiO2 
 PCOD9438925
Probable space group: P B C M
;
_chemical_formula_sum "Si O2"
_cell_formula_units_Z 64
_cell_length_a 9.034602
_cell_length_b 22.832830
_cell_length_c 14.325926
_cell_angle_alpha 90.000000
_cell_angle_beta 90.000000
_cell_angle_gamma 90.000000
_cell_volume 2955.231260
_symmetry_space_group_name_H-M "P B C M"
_symmetry_group_IT_number 57
_symmetry_cell_setting 'orthorhombic'
loop_
_space_group_symop_operation_xyz
x,y,z
-x,-y,1/2+z
x,1/2-y,-z
-x,1/2+y,1/2-z
-x,-y,-z
x,y,1/2-z
-x,1/2+y,z
x,1/2-y,1/2+z
loop_
_atom_site_type_symbol
_atom_site_label
_atom_site_fract_x
_atom_site_fract_y
_atom_site_fract_z
Si Si1 0.583230 0.832840 0.353874
Si Si2 0.640459 0.703082 0.360952
Si Si3 0.869649 0.603623 0.358275
Si Si4 0.617370 0.351925 0.970119
Si Si5 0.841191 0.926660 0.145732
Si Si6 0.101405 0.604083 0.514914
Si Si7 0.699431 0.480725 0.141559
Si Si8 0.623853 0.475407 0.862823
O O1 0.516736 0.826029 0.250000
O O2 0.665004 0.771720 0.377422
O O3 0.465385 0.849834 0.431196
O O4 0.703941 0.883135 0.349233
O O5 0.630922 0.692624 0.250000
O O6 0.767749 0.657918 0.394319
O O7 0.481711 0.690169 0.406737
O O8 0.908123 0.614637 0.250000
O O9 0.768782 0.545737 0.362259
O O10 0.015436 0.591531 0.418545
O O11 0.613656 0.413646 0.914413
O O12 0.790142 0.341947 0.991352
O O13 0.898680 0.938887 0.250000
O O14 0.964794 0.895392 0.085584
O O15 0.767217 0.986510 0.108616
O O16 0.210267 0.559198 0.569876
O O17 0.710203 0.460365 0.250000
O O18 0.526547 0.488576 0.117777
O O19 0.629441 0.467507 0.750000
#
# Coordination Sequence:
#
# PCOD9438925 Si02
#       8
#     8   8   8   8   8   8   8   8
#     4  10  23  44  70  93 120 164 222 278 318 373
#     4  10  21  45  73  93 117 161 223 280 323 365
#     4  10  22  40  62  90 125 165 215 263 309 375
#     4  12  24  38  64  95 131 162 209 264 325 379
#     4  10  23  42  62  92 129 173 218 254 310 387
#     4  12  26  37  58  93 136 175 198 248 320 390
#     4  10  21  39  61  90 126 166 211 258 310 371
#     4  10  22  40  65  93 126 167 218 267 306 368
#
# _framework density 21.656511999999999
#
# number of rings (size 3 to 8) (size 9 to 14) (size 15 to 20)
#    0.000    1.500    1.250    3.000    3.500    4.000 
#    0.000    2.500    0.000    3.000    0.000    0.000 
#    0.000    0.000    0.000    0.000    0.000    0.000 
#
# Total GULP energy -357515.953136 kJ/mol
# GULP energy per Si atom -5586.186768 kJ/mol
# Density = 2.160722 g / cm^3
# Si number density = 21.656512 Si / 1000 Ang^3
#
#
#
# Elastic Constant Matrix: (Units=GPa)
#
#
# Indices 1 2 3 4 5 6 
#
# 1 94.1588 -3.6602 37.5018 0.0000 0.0000 0.0000
# 2 -3.6602 62.8098 15.2533 0.0000 0.0000 0.0000
# 3 37.5018 15.2533 83.8345 0.0000 0.0000 0.0000
# 4 0.0000 0.0000 0.0000 66.2018 0.0000 0.0000
# 5 0.0000 0.0000 0.0000 0.0000 86.6190 0.0000
# 6 0.0000 0.0000 0.0000 0.0000 0.0000 9.5050
#
#
#
# Elastic Compliance Matrix: (Units=1/GPa)
#
#
# Indices 1 2 3 4 5 6 
#
# 1 0.013236 0.002311 -0.006341 0.000000 0.000000 0.000000
# 2 0.002311 0.017061 -0.004138 0.000000 0.000000 0.000000
# 3 -0.006341 -0.004138 0.015518 0.000000 0.000000 0.000000
# 4 0.000000 0.000000 0.000000 0.015105 0.000000 0.000000
# 5 0.000000 0.000000 0.000000 0.000000 0.011545 0.000000
# 6 0.000000 0.000000 0.000000 0.000000 0.000000 0.105208
#
#
# Mechanical properties :
#
#
# Convention : Reuss Voigt Hill
#
# Bulk Modulus (GPa) = 33.92335 37.66589 35.79462
# Shear Modulus (GPa) = 24.52973 45.24570 34.88771
#
# Velocity S-wave (km/s) = 3.36917 4.57578 4.01803
# Velocity P-wave (km/s) = 5.55278 6.73403 6.17173
#
# Compressibility (1/GPa) = 0.02947822
#
# Stress axis : x y z
#
# Youngs Moduli (GPa) = 75.55237 58.61427 64.44194
#
# Poissons Ratio (x) = -0.13547 0.40865
# Poissons Ratio (y) = -0.17462 0.26666
# Poissons Ratio (z) = 0.47910 0.24255
#
# Static dielectric constant tensor:
#      x y z
#    x 1.791420 0.000000 0.000000 
#    y 0.000000 1.823910 0.000000 
#    z 0.000000 0.000000 1.848740 
# 
# From -- ./inp_files/16929.got.cif
#   From: 2010.05.17/outbox.cif.g08.bks.cpg/sg57_9_cif.got.tgz:16929.got - 2010.06.03 13:58:18.
