data_PCOD9438357
_publ_section_title
;
Structure prediction by ZEFSAII (Michael W. Deem and Ramdas Pophale) SiO2 
 PCOD9438357
Probable space group: P B C M
;
_chemical_formula_sum "Si O2"
_cell_formula_units_Z 48
_cell_length_a 11.522737
_cell_length_b 9.404778
_cell_length_c 23.532216
_cell_angle_alpha 90.000000
_cell_angle_beta 90.000000
_cell_angle_gamma 90.000000
_cell_volume 2550.157620
_symmetry_space_group_name_H-M "P B C M"
_symmetry_group_IT_number 57
_symmetry_cell_setting 'orthorhombic'
loop_
_space_group_symop_operation_xyz
x,y,z
-x,-y,1/2+z
x,1/2-y,-z
-x,1/2+y,1/2-z
-x,-y,-z
x,y,1/2-z
-x,1/2+y,z
x,1/2-y,1/2+z
loop_
_atom_site_type_symbol
_atom_site_label
_atom_site_fract_x
_atom_site_fract_y
_atom_site_fract_z
Si Si1 0.291746 0.657957 0.393348
Si Si2 0.914039 0.671388 0.181297
Si Si3 0.858203 0.994363 0.182109
Si Si4 0.742402 0.016060 0.606756
Si Si5 0.466170 0.375343 0.957074
Si Si6 0.115541 0.589097 0.494709
O O1 0.263507 0.549240 0.342743
O O2 0.272296 0.820524 0.373332
O O3 0.416457 0.662511 0.423346
O O4 0.199733 0.598955 0.440233
O O5 0.902912 0.663059 0.250000
O O6 0.896301 0.835781 0.163516
O O7 0.819002 0.574245 0.150334
O O8 0.040308 0.606979 0.166146
O O9 0.852625 0.991375 0.250000
O O10 0.807162 0.037974 0.547002
O O11 0.626851 0.931459 0.588515
O O12 0.426038 0.250000 0.000000
O O13 0.500000 0.500000 0.000000
O O14 0.075270 0.750000 0.500000
O O15 0.000000 0.500000 0.500000
#
# Coordination Sequence:
#
# PCOD9438357 Si02
#       6
#     8   8   8   8   8   8
#     4  11  22  39  59  85 120 156 202 248 298 362
#     4  10  22  40  62  90 121 157 201 249 305 365
#     4  10  22  40  63  90 122 159 200 250 307 365
#     4  11  23  38  60  87 118 160 201 248 301 358
#     4  12  23  42  62  87 121 163 202 245 299 360
#     4  10  21  35  51  81 118 147 187 238 292 355
#
# _framework density 18.822365000000001
#
# number of rings (size 3 to 8) (size 9 to 14) (size 15 to 20)
#    0.000    1.333    3.333    2.500    2.333    6.667 
#    0.000    0.833    0.000    0.000    0.000    0.000 
#    0.000    0.000    0.000    0.000    0.000    0.000 
#
# Total GULP energy -267722.537694 kJ/mol
# GULP energy per Si atom -5577.552869 kJ/mol
# Density = 1.877952 g / cm^3
# Si number density = 18.822365 Si / 1000 Ang^3
#
#
#
# Elastic Constant Matrix: (Units=GPa)
#
#
# Indices 1 2 3 4 5 6 
#
# 1 66.8771 26.5840 16.2249 0.0000 0.0000 0.0000
# 2 26.5840 98.9249 31.1642 0.0000 0.0000 0.0000
# 3 16.2249 31.1642 35.0904 0.0000 0.0000 0.0000
# 4 0.0000 0.0000 0.0000 35.3290 0.0000 0.0000
# 5 0.0000 0.0000 0.0000 0.0000 34.3507 0.0000
# 6 0.0000 0.0000 0.0000 0.0000 0.0000 30.3673
#
#
#
# Elastic Compliance Matrix: (Units=1/GPa)
#
#
# Indices 1 2 3 4 5 6 
#
# 1 0.017454 -0.002982 -0.005421 0.000000 0.000000 0.000000
# 2 -0.002982 0.014545 -0.011539 0.000000 0.000000 0.000000
# 3 -0.005421 -0.011539 0.041252 0.000000 0.000000 0.000000
# 4 0.000000 0.000000 0.000000 0.028305 0.000000 0.000000
# 5 0.000000 0.000000 0.000000 0.000000 0.029112 0.000000
# 6 0.000000 0.000000 0.000000 0.000000 0.000000 0.032930
#
#
# Mechanical properties :
#
#
# Convention : Reuss Voigt Hill
#
# Bulk Modulus (GPa) = 29.97067 38.75983 34.36525
# Shear Modulus (GPa) = 23.29861 28.47068 25.88464
#
# Velocity S-wave (km/s) = 3.52208 3.89343 3.71240
# Velocity P-wave (km/s) = 5.70066 6.39131 6.05584
#
# Compressibility (1/GPa) = 0.03336595
#
# Stress axis : x y z
#
# Youngs Moduli (GPa) = 57.29478 68.75131 24.24111
#
# Poissons Ratio (x) = 0.20504 0.13142
# Poissons Ratio (y) = 0.17088 0.27971
# Poissons Ratio (z) = 0.31062 0.79330
#
# Static dielectric constant tensor:
#      x y z
#    x 1.746740 0.000000 0.000000 
#    y 0.000000 1.671860 0.000000 
#    z 0.000000 0.000000 1.677700 
# 
# From -- ./inp_files/27085.got.cif
#   From: 2010.05.17/outbox.cif.g08.bks.cpg/sg57_14_cif.got.tgz:27085.got - 2010.06.03 13:58:18.
