data_PCOD9438474
_publ_section_title
;
Structure prediction by ZEFSAII (Michael W. Deem and Ramdas Pophale) SiO2 
 PCOD9438474
Probable space group: P B C M
;
_chemical_formula_sum "Si O2"
_cell_formula_units_Z 40
_cell_length_a 17.527037
_cell_length_b 5.104678
_cell_length_c 22.001401
_cell_angle_alpha 90.000000
_cell_angle_beta 90.000000
_cell_angle_gamma 90.000000
_cell_volume 1968.462711
_symmetry_space_group_name_H-M "P B C M"
_symmetry_group_IT_number 57
_symmetry_cell_setting 'orthorhombic'
loop_
_space_group_symop_operation_xyz
x,y,z
-x,-y,1/2+z
x,1/2-y,-z
-x,1/2+y,1/2-z
-x,-y,-z
x,y,1/2-z
-x,1/2+y,z
x,1/2-y,1/2+z
loop_
_atom_site_type_symbol
_atom_site_label
_atom_site_fract_x
_atom_site_fract_y
_atom_site_fract_z
Si Si1 0.285282 0.840118 0.872387
Si Si2 0.093317 0.289393 0.250000
Si Si3 0.216962 0.345921 0.931195
Si Si4 0.805626 0.290395 0.250000
Si Si5 0.954867 0.727923 0.386000
Si Si6 0.550417 0.247009 0.822008
O O1 0.252676 0.631107 0.920544
O O2 0.242855 0.766937 0.809786
O O3 0.374816 0.805017 0.860949
O O4 0.262342 0.132840 0.890910
O O5 0.124359 0.585379 0.250000
O O6 0.049932 0.232990 0.187484
O O7 0.164061 0.086085 0.250000
O O8 0.128900 0.339978 0.909968
O O9 0.221456 0.250000 0.000000
O O10 0.015846 0.511393 0.405809
O O11 0.570305 0.265297 0.750000
O O12 0.485253 0.462794 0.833374
#
# Coordination Sequence:
#
# PCOD9438474 Si02
#       6
#     8   4   8   4   8   8
#     4  12  22  43  68  94 131 163 211 262 313 373
#     4  12  22  39  60  95 134 152 206 252 332 401
#     4  12  27  45  66  89 121 174 227 262 302 365
#     4  12  20  37  66  97 120 166 198 264 320 377
#     4  12  24  40  62  91 124 165 204 264 326 376
#     4  10  21  36  62 102 137 163 193 245 321 387
#
# _framework density 20.320423999999999
#
# number of rings (size 3 to 8) (size 9 to 14) (size 15 to 20)
#    0.000    0.400    5.000    4.800    0.000    0.800 
#    0.000    0.000    0.000   12.000    0.000    0.000 
#    0.000    0.000    0.000    0.000    0.000    0.000 
#
# Total GULP energy -223955.465453 kJ/mol
# GULP energy per Si atom -5598.886636 kJ/mol
# Density = 2.027417 g / cm^3
# Si number density = 20.320424 Si / 1000 Ang^3
#
#
#
# Elastic Constant Matrix: (Units=GPa)
#
#
# Indices 1 2 3 4 5 6 
#
# 1 79.5548 -13.6021 5.7306 0.0000 0.0000 0.0000
# 2 -13.6021 43.1048 -11.4481 0.0000 0.0000 0.0000
# 3 5.7306 -11.4481 41.9484 0.0000 0.0000 0.0000
# 4 0.0000 0.0000 0.0000 12.7095 0.0000 0.0000
# 5 0.0000 0.0000 0.0000 0.0000 -0.6925 0.0000
# 6 0.0000 0.0000 0.0000 0.0000 0.0000 22.7978
#
#
#
# Elastic Compliance Matrix: (Units=1/GPa)
#
#
# Indices 1 2 3 4 5 6 
#
# 1 0.013307 0.004007 -0.000724 0.000000 0.000000 0.000000
# 2 0.004007 0.026219 0.006608 0.000000 0.000000 0.000000
# 3 -0.000724 0.006608 0.025741 0.000000 0.000000 0.000000
# 4 0.000000 0.000000 0.000000 0.078681 0.000000 0.000000
# 5 0.000000 0.000000 0.000000 0.000000 -1.443963 0.000000
# 6 0.000000 0.000000 0.000000 0.000000 0.000000 0.043864
#
#
# Mechanical properties :
#
#
# Convention : Reuss Voigt Hill
#
# Bulk Modulus (GPa) = 11.75811 13.99654 12.87733
# Shear Modulus (GPa) = -4.00775 19.22479 7.60852
#
# Velocity S-wave (km/s) = -1.40590 3.07918 1.93711
# Velocity P-wave (km/s) = 1.77862 4.42094 3.36958
#
# Compressibility (1/GPa) = 0.08504766
#
# Stress axis : x y z
#
# Youngs Moduli (GPa) = 75.14723 38.14076 38.84832
#
# Poissons Ratio (x) = -0.15282 0.02814
# Poissons Ratio (y) = -0.30110 -0.25671
# Poissons Ratio (z) = 0.05444 -0.25203
#
# Static dielectric constant tensor:
#      x y z
#    x 1.687270 0.000000 0.000000 
#    y 0.000000 1.697290 0.000000 
#    z 0.000000 0.000000 1.711540 
# 
# From -- ./inp_files/27355.got.cif
#   From: 2010.05.17/outbox.cif.g08.bks.cpg/sg57_14_cif.got.tgz:27355.got - 2010.06.03 13:58:18.
