data_PCOD9438442
_publ_section_title
;
Structure prediction by ZEFSAII (Michael W. Deem and Ramdas Pophale) SiO2 
 PCOD9438442
Probable space group: P B C M
;
_chemical_formula_sum "Si O2"
_cell_formula_units_Z 48
_cell_length_a 14.637180
_cell_length_b 8.363269
_cell_length_c 16.946602
_cell_angle_alpha 90.000000
_cell_angle_beta 90.000000
_cell_angle_gamma 90.000000
_cell_volume 2074.512755
_symmetry_space_group_name_H-M "P B C M"
_symmetry_group_IT_number 57
_symmetry_cell_setting 'orthorhombic'
loop_
_space_group_symop_operation_xyz
x,y,z
-x,-y,1/2+z
x,1/2-y,-z
-x,1/2+y,1/2-z
-x,-y,-z
x,y,1/2-z
-x,1/2+y,z
x,1/2-y,1/2+z
loop_
_atom_site_type_symbol
_atom_site_label
_atom_site_fract_x
_atom_site_fract_y
_atom_site_fract_z
Si Si1 0.691694 0.775100 0.409479
Si Si2 0.537452 0.588260 0.158761
Si Si3 0.024100 0.031145 0.840967
Si Si4 0.114791 0.331279 0.586112
Si Si5 0.218579 0.909581 0.657410
Si Si6 0.629861 0.275772 0.407710
O O1 0.661576 0.750000 0.500000
O O2 0.607883 0.734959 0.353351
O O3 0.777936 0.657192 0.396183
O O4 0.735317 0.948328 0.393480
O O5 0.530251 0.543963 0.250000
O O6 0.440666 0.643724 0.125648
O O7 0.583004 0.443999 0.111022
O O8 0.994779 0.016933 0.750000
O O9 0.110278 0.913053 0.856787
O O10 0.942612 0.990571 0.900417
O O11 0.067972 0.204379 0.855027
O O12 0.107735 0.250000 0.500000
O O13 0.231025 0.946064 0.750000
O O14 0.273668 0.751572 0.635035
O O15 0.641447 0.250000 0.500000
#
# Coordination Sequence:
#
# PCOD9438442 Si02
#       6
#     8   8   8   8   8   8
#     4  10  21  39  61  87 117 153 194 239 289 343
#     4  12  24  39  61  89 118 152 193 238 286 342
#     4  10  21  36  57  84 117 154 194 239 290 342
#     4  10  21  37  59  85 117 154 195 240 289 343
#     4  10  21  39  59  83 117 156 193 237 290 342
#     4  12  25  42  63  88 118 153 192 237 286 342
#
# _framework density 23.137962999999999
#
# number of rings (size 3 to 8) (size 9 to 14) (size 15 to 20)
#    0.000    1.333    0.000    6.000    0.000    4.000 
#    0.000    0.000    0.000    0.000    0.000    0.000 
#    0.000    0.000    0.000    0.000    0.000    0.000 
#
# Total GULP energy -268699.054218 kJ/mol
# GULP energy per Si atom -5597.896963 kJ/mol
# Density = 2.308530 g / cm^3
# Si number density = 23.137963 Si / 1000 Ang^3
#
#
#
# Elastic Constant Matrix: (Units=GPa)
#
#
# Indices 1 2 3 4 5 6 
#
# 1 63.9851 -4.0666 20.3777 0.0000 0.0000 0.0000
# 2 -4.0666 36.6408 -11.9117 0.0000 0.0000 0.0000
# 3 20.3777 -11.9117 85.9155 0.0000 0.0000 0.0000
# 4 0.0000 0.0000 0.0000 19.7557 0.0000 0.0000
# 5 0.0000 0.0000 0.0000 0.0000 11.2666 0.0000
# 6 0.0000 0.0000 0.0000 0.0000 0.0000 -82.9234
#
#
#
# Elastic Compliance Matrix: (Units=1/GPa)
#
#
# Indices 1 2 3 4 5 6 
#
# 1 0.016918 0.000600 -0.003929 0.000000 0.000000 0.000000
# 2 0.000600 0.028601 0.003823 0.000000 0.000000 0.000000
# 3 -0.003929 0.003823 0.013101 0.000000 0.000000 0.000000
# 4 0.000000 0.000000 0.000000 0.050618 0.000000 0.000000
# 5 0.000000 0.000000 0.000000 0.000000 0.088758 0.000000
# 6 0.000000 0.000000 0.000000 0.000000 0.000000 -0.012059
#
#
# Mechanical properties :
#
#
# Convention : Reuss Voigt Hill
#
# Bulk Modulus (GPa) = 16.77609 21.70447 19.24028
# Shear Modulus (GPa) = 24.41167 1.76258 13.08713
#
# Velocity S-wave (km/s) = 3.25167 0.87374 2.38084
# Velocity P-wave (km/s) = 4.62213 3.22780 3.98640
#
# Compressibility (1/GPa) = 0.05960863
#
# Stress axis : x y z
#
# Youngs Moduli (GPa) = 59.10784 34.96329 76.32780
#
# Poissons Ratio (x) = -0.02099 0.29993
# Poissons Ratio (y) = -0.03548 -0.29180
# Poissons Ratio (z) = 0.23226 -0.13367
#
# Static dielectric constant tensor:
#      x y z
#    x 1.851910 0.000000 0.000000 
#    y 0.000000 1.928030 0.000000 
#    z 0.000000 0.000000 1.804510 
# 
# From -- ./inp_files/22391.got.cif
#   From: 2010.05.17/outbox.cif.g08.bks.cpg/sg57_12_cif.got.tgz:22391.got - 2010.06.03 13:58:18.
