data_PCOD9438593
_publ_section_title
;
Structure prediction by ZEFSAII (Michael W. Deem and Ramdas Pophale) SiO2 
 PCOD9438593
Probable space group: P B C M
;
_chemical_formula_sum "Si O2"
_cell_formula_units_Z 48
_cell_length_a 10.133983
_cell_length_b 29.854711
_cell_length_c 8.610308
_cell_angle_alpha 90.000000
_cell_angle_beta 90.000000
_cell_angle_gamma 90.000000
_cell_volume 2605.024006
_symmetry_space_group_name_H-M "P B C M"
_symmetry_group_IT_number 57
_symmetry_cell_setting 'orthorhombic'
loop_
_space_group_symop_operation_xyz
x,y,z
-x,-y,1/2+z
x,1/2-y,-z
-x,1/2+y,1/2-z
-x,-y,-z
x,y,1/2-z
-x,1/2+y,z
x,1/2-y,1/2+z
loop_
_atom_site_type_symbol
_atom_site_label
_atom_site_fract_x
_atom_site_fract_y
_atom_site_fract_z
Si Si1 0.220038 0.200777 0.436947
Si Si2 0.713074 0.119369 0.062041
Si Si3 0.021159 0.376774 0.561783
Si Si4 0.118832 0.470275 0.064781
Si Si5 0.521815 0.299802 0.562347
Si Si6 0.368091 0.522329 0.935067
O O1 0.191875 0.250000 0.500000
O O2 0.219622 0.201957 0.250000
O O3 0.108434 0.165823 0.485964
O O4 0.370551 0.188866 0.485031
O O5 0.708386 0.117264 0.250000
O O6 0.623388 0.161570 0.012005
O O7 0.866828 0.125336 0.016988
O O8 0.658401 0.072414 0.998176
O O9 0.025669 0.380490 0.750000
O O10 0.088601 0.420134 0.488438
O O11 0.125048 0.473543 0.250000
O O12 0.249800 0.490685 0.991400
O O13 0.000000 0.500000 0.000000
O O14 0.552429 0.250000 0.500000
O O15 0.525530 0.297993 0.750000
O O16 0.372283 0.523960 0.750000
O O17 0.500000 0.500000 0.000000
#
# Coordination Sequence:
#
# PCOD9438593 Si02
#       6
#     8   8   8   8   8   8
#     4   9  19  36  57  83 114 152 195 244 299 354
#     4  10  21  38  59  85 119 156 199 247 299 355
#     4  10  21  37  59  86 118 157 199 246 299 354
#     4  12  24  41  63  90 123 162 203 247 300 358
#     4   9  19  36  57  82 113 153 195 244 300 355
#     4  12  26  43  63  90 123 160 203 252 303 360
#
# _framework density 18.425934000000002
#
# number of rings (size 3 to 8) (size 9 to 14) (size 15 to 20)
#    0.000    1.667    1.667    3.000    2.333    2.000 
#    0.000    0.000    0.000    0.000    0.000    0.000 
#    0.000    0.000    0.000    0.000    0.000    0.000 
#
# Total GULP energy -268119.949778 kJ/mol
# GULP energy per Si atom -5585.832287 kJ/mol
# Density = 1.838400 g / cm^3
# Si number density = 18.425934 Si / 1000 Ang^3
#
#
#
# Elastic Constant Matrix: (Units=GPa)
#
#
# Indices 1 2 3 4 5 6 
#
# 1 187.1283 131.1290 47.2831 0.0000 0.0000 0.0000
# 2 131.1290 180.1213 44.1979 0.0000 0.0000 0.0000
# 3 47.2831 44.1979 42.7472 0.0000 0.0000 0.0000
# 4 0.0000 0.0000 0.0000 37.2179 0.0000 0.0000
# 5 0.0000 0.0000 0.0000 0.0000 19.4673 0.0000
# 6 0.0000 0.0000 0.0000 0.0000 0.0000 43.8760
#
#
#
# Elastic Compliance Matrix: (Units=1/GPa)
#
#
# Indices 1 2 3 4 5 6 
#
# 1 0.011833 -0.007239 -0.005603 0.000000 0.000000 0.000000
# 2 -0.007239 0.011868 -0.004264 0.000000 0.000000 0.000000
# 3 -0.005603 -0.004264 0.033999 0.000000 0.000000 0.000000
# 4 0.000000 0.000000 0.000000 0.026869 0.000000 0.000000
# 5 0.000000 0.000000 0.000000 0.000000 0.051368 0.000000
# 6 0.000000 0.000000 0.000000 0.000000 0.000000 0.022792
#
#
# Mechanical properties :
#
#
# Convention : Reuss Voigt Hill
#
# Bulk Modulus (GPa) = 42.57473 95.02411 68.79942
# Shear Modulus (GPa) = 24.90410 32.60470 28.75440
#
# Velocity S-wave (km/s) = 3.68037 4.21111 3.95465
# Velocity P-wave (km/s) = 6.41998 8.67913 7.63360
#
# Compressibility (1/GPa) = 0.02348811
#
# Stress axis : x y z
#
# Youngs Moduli (GPa) = 84.51218 84.25857 29.41230
#
# Poissons Ratio (x) = 0.60997 0.16480
# Poissons Ratio (y) = 0.61181 0.12540
# Poissons Ratio (z) = 0.47354 0.35924
#
# Static dielectric constant tensor:
#      x y z
#    x 1.619980 0.000000 0.000000 
#    y 0.000000 1.601600 0.000000 
#    z 0.000000 0.000000 1.629610 
# 
# From -- ./inp_files/2071.got.cif
#   From: 2010.05.17/outbox.cif.g08.bks.cpg/sg57_2_cif.got.tgz:2071.got - 2010.06.03 13:58:18.
