data_PCOD9438812
_publ_section_title
;
Structure prediction by ZEFSAII (Michael W. Deem and Ramdas Pophale) SiO2 
 PCOD9438812
Probable space group: P B C M
;
_chemical_formula_sum "Si O2"
_cell_formula_units_Z 40
_cell_length_a 12.709422
_cell_length_b 17.993522
_cell_length_c 8.690326
_cell_angle_alpha 90.000000
_cell_angle_beta 90.000000
_cell_angle_gamma 90.000000
_cell_volume 1987.366879
_symmetry_space_group_name_H-M "P B C M"
_symmetry_group_IT_number 57
_symmetry_cell_setting 'orthorhombic'
loop_
_space_group_symop_operation_xyz
x,y,z
-x,-y,1/2+z
x,1/2-y,-z
-x,1/2+y,1/2-z
-x,-y,-z
x,y,1/2-z
-x,1/2+y,z
x,1/2-y,1/2+z
loop_
_atom_site_type_symbol
_atom_site_label
_atom_site_fract_x
_atom_site_fract_y
_atom_site_fract_z
Si Si1 0.658134 0.439318 0.567392
Si Si2 0.512785 0.829008 0.066569
Si Si3 0.856000 0.168919 0.432242
Si Si4 0.713220 0.901333 0.933065
Si Si5 0.080203 0.166717 0.566252
O O1 0.643385 0.451949 0.750000
O O2 0.559939 0.394257 0.500187
O O3 0.760801 0.387755 0.545236
O O4 0.676478 0.516919 0.483300
O O5 0.507959 0.828255 0.250000
O O6 0.476170 0.750000 0.000000
O O7 0.630887 0.844518 0.009420
O O8 0.829219 0.250000 0.500000
O O9 0.875756 0.176879 0.250000
O O10 0.963576 0.143254 0.513110
O O11 0.710742 0.893255 0.750000
O O12 0.829018 0.884503 0.996892
O O13 0.095054 0.250000 0.500000
O O14 0.086836 0.168119 0.750000
#
# Coordination Sequence:
#
# PCOD9438812 Si02
#       5
#     8   8   8   8   8
#     4  11  24  42  63  91 125 161 202 248 302 360
#     4  12  25  43  66  92 122 158 202 249 300 358
#     4  10  21  38  62  90 122 159 202 249 297 354
#     4  12  25  42  63  89 123 161 202 249 304 361
#     4  11  22  39  63  90 122 159 203 251 300 357
#
# _framework density 20.127134999999999
#
# number of rings (size 3 to 8) (size 9 to 14) (size 15 to 20)
#    0.000    0.800    0.000    9.600    0.000    5.600 
#    0.000    0.000    0.000    0.000    0.000    0.000 
#    0.000    0.000    0.000    0.000    0.000    0.000 
#
# Total GULP energy -224006.973080 kJ/mol
# GULP energy per Si atom -5600.174327 kJ/mol
# Density = 2.008133 g / cm^3
# Si number density = 20.127135 Si / 1000 Ang^3
#
#
#
# Elastic Constant Matrix: (Units=GPa)
#
#
# Indices 1 2 3 4 5 6 
#
# 1 62.0290 7.6419 32.0158 0.0000 0.0000 0.0000
# 2 7.6419 41.1677 11.3558 0.0000 0.0000 0.0000
# 3 32.0158 11.3558 117.6258 0.0000 0.0000 0.0000
# 4 0.0000 0.0000 0.0000 37.0279 0.0000 0.0000
# 5 0.0000 0.0000 0.0000 0.0000 37.0174 0.0000
# 6 0.0000 0.0000 0.0000 0.0000 0.0000 39.8829
#
#
#
# Elastic Compliance Matrix: (Units=1/GPa)
#
#
# Indices 1 2 3 4 5 6 
#
# 1 0.018940 -0.002151 -0.004948 0.000000 0.000000 0.000000
# 2 -0.002151 0.025200 -0.001847 0.000000 0.000000 0.000000
# 3 -0.004948 -0.001847 0.010027 0.000000 0.000000 0.000000
# 4 0.000000 0.000000 0.000000 0.027007 0.000000 0.000000
# 5 0.000000 0.000000 0.000000 0.000000 0.027014 0.000000
# 6 0.000000 0.000000 0.000000 0.000000 0.000000 0.025073
#
#
# Mechanical properties :
#
#
# Convention : Reuss Voigt Hill
#
# Bulk Modulus (GPa) = 27.56759 35.87217 31.71988
# Shear Modulus (GPa) = 30.62896 34.10624 32.36760
#
# Velocity S-wave (km/s) = 3.90522 4.12094 4.01453
# Velocity P-wave (km/s) = 5.83617 6.36431 6.10595
#
# Compressibility (1/GPa) = 0.03627448
#
# Stress axis : x y z
#
# Youngs Moduli (GPa) = 52.79801 39.68290 99.73555
#
# Poissons Ratio (x) = 0.08536 0.49344
# Poissons Ratio (y) = 0.11357 0.18425
# Poissons Ratio (z) = 0.26122 0.07331
#
# Static dielectric constant tensor:
#      x y z
#    x 1.705120 0.000000 0.000000 
#    y 0.000000 1.702440 0.000000 
#    z 0.000000 0.000000 1.662820 
# 
# From -- ./inp_files/2663.got.cif
#   From: 2010.05.17/outbox.cif.g08.bks.cpg/sg57_2_cif.got.tgz:2663.got - 2010.06.03 13:58:18.
