data_PCOD9438527
_publ_section_title
;
Structure prediction by ZEFSAII (Michael W. Deem and Ramdas Pophale) SiO2 
 PCOD9438527
Probable space group: P B C M
;
_chemical_formula_sum "Si O2"
_cell_formula_units_Z 64
_cell_length_a 17.025222
_cell_length_b 9.377330
_cell_length_c 21.418081
_cell_angle_alpha 90.000000
_cell_angle_beta 90.000000
_cell_angle_gamma 90.000000
_cell_volume 3419.420727
_symmetry_space_group_name_H-M "P B C M"
_symmetry_group_IT_number 57
_symmetry_cell_setting 'orthorhombic'
loop_
_space_group_symop_operation_xyz
x,y,z
-x,-y,1/2+z
x,1/2-y,-z
-x,1/2+y,1/2-z
-x,-y,-z
x,y,1/2-z
-x,1/2+y,z
x,1/2-y,1/2+z
loop_
_atom_site_type_symbol
_atom_site_label
_atom_site_fract_x
_atom_site_fract_y
_atom_site_fract_z
Si Si1 0.413339 0.446444 0.321073
Si Si2 0.674134 0.340888 0.056795
Si Si3 0.089802 0.228201 0.673326
Si Si4 0.939133 0.050652 0.675387
Si Si5 0.571433 0.906771 0.529685
Si Si6 0.471386 0.778950 0.627355
Si Si7 0.777735 0.219709 0.823948
Si Si8 0.759055 0.943851 0.174675
O O1 0.408645 0.401321 0.250000
O O2 0.427529 0.615802 0.325539
O O3 0.485993 0.360270 0.348237
O O4 0.328412 0.416422 0.351562
O O5 0.648173 0.495511 0.031898
O O6 0.592343 0.262145 0.075304
O O7 0.721810 0.342982 0.121791
O O8 0.710994 0.250000 0.000000
O O9 0.090470 0.228513 0.750000
O O10 0.076282 0.390509 0.652092
O O11 0.172323 0.160298 0.652503
O O12 0.017699 0.128319 0.652388
O O13 0.950105 0.036257 0.750000
O O14 0.862978 0.149431 0.667049
O O15 0.580636 0.750000 0.500000
O O16 0.541364 0.871554 0.598573
O O17 0.500000 0.000000 0.500000
O O18 0.754948 0.196160 0.750000
O O19 0.779803 0.389990 0.834655
O O20 0.754802 0.926631 0.250000
#
# Coordination Sequence:
#
# PCOD9438527 Si02
#       8
#     8   8   8   8   8   8   8   8
#     4  11  23  36  52  81 120 161 197 239 301 366
#     4  12  24  39  61  85 112 153 204 251 300 353
#     4   9  16  29  51  82 118 155 196 237 284 347
#     4   9  17  30  51  80 116 152 189 233 289 354
#     4  12  21  38  59  78 103 141 198 257 304 340
#     4  12  21  37  57  77 109 151 201 249 292 352
#     4  10  21  37  57  84 121 156 190 240 301 359
#     4   9  18  32  51  76 113 155 191 236 290 343
#
# _framework density 18.716621
#
# number of rings (size 3 to 8) (size 9 to 14) (size 15 to 20)
#    0.000    1.500    5.000    1.125    0.000    4.500 
#    0.000    1.250    0.000    0.000    0.000    3.500 
#    0.000    0.000    0.000    0.000    0.000    0.000 
#
# Total GULP energy -356648.379787 kJ/mol
# GULP energy per Si atom -5572.630934 kJ/mol
# Density = 1.867402 g / cm^3
# Si number density = 18.716621 Si / 1000 Ang^3
#
#
#
# Elastic Constant Matrix: (Units=GPa)
#
#
# Indices 1 2 3 4 5 6 
#
# 1 81.8331 26.7992 14.7936 0.0000 0.0000 0.0000
# 2 26.7992 70.7627 10.8246 0.0000 0.0000 0.0000
# 3 14.7936 10.8246 42.0232 0.0000 0.0000 0.0000
# 4 0.0000 0.0000 0.0000 16.1790 0.0000 0.0000
# 5 0.0000 0.0000 0.0000 0.0000 10.8995 0.0000
# 6 0.0000 0.0000 0.0000 0.0000 0.0000 25.5809
#
#
#
# Elastic Compliance Matrix: (Units=1/GPa)
#
#
# Indices 1 2 3 4 5 6 
#
# 1 0.014524 -0.004912 -0.003848 0.000000 0.000000 0.000000
# 2 -0.004912 0.016373 -0.002488 0.000000 0.000000 0.000000
# 3 -0.003848 -0.002488 0.025792 0.000000 0.000000 0.000000
# 4 0.000000 0.000000 0.000000 0.061809 0.000000 0.000000
# 5 0.000000 0.000000 0.000000 0.000000 0.091747 0.000000
# 6 0.000000 0.000000 0.000000 0.000000 0.000000 0.039092
#
#
# Mechanical properties :
#
#
# Convention : Reuss Voigt Hill
#
# Bulk Modulus (GPa) = 29.24593 33.27267 31.25930
# Shear Modulus (GPa) = 17.65354 20.01199 18.83277
#
# Velocity S-wave (km/s) = 3.07449 3.27342 3.17552
# Velocity P-wave (km/s) = 5.31628 5.66593 5.49389
#
# Compressibility (1/GPa) = 0.03419279
#
# Stress axis : x y z
#
# Youngs Moduli (GPa) = 68.85067 61.07756 38.77198
#
# Poissons Ratio (x) = 0.30001 0.14918
# Poissons Ratio (y) = 0.33819 0.09647
# Poissons Ratio (z) = 0.26492 0.15197
#
# Static dielectric constant tensor:
#      x y z
#    x 1.671770 0.000000 0.000000 
#    y 0.000000 1.698990 0.000000 
#    z 0.000000 0.000000 1.668080 
# 
# From -- ./inp_files/25645.got.cif
#   From: 2010.05.17/outbox.cif.g08.bks.cpg/sg57_13_cif.got.tgz:25645.got - 2010.06.03 13:58:18.
