data_PCOD9438743
_publ_section_title
;
Structure prediction by ZEFSAII (Michael W. Deem and Ramdas Pophale) SiO2 
 PCOD9438743
Probable space group: P B C M
;
_chemical_formula_sum "Si O2"
_cell_formula_units_Z 64
_cell_length_a 24.977478
_cell_length_b 9.060261
_cell_length_c 14.733040
_cell_angle_alpha 90.000000
_cell_angle_beta 90.000000
_cell_angle_gamma 90.000000
_cell_volume 3334.123340
_symmetry_space_group_name_H-M "P B C M"
_symmetry_group_IT_number 57
_symmetry_cell_setting 'orthorhombic'
loop_
_space_group_symop_operation_xyz
x,y,z
-x,-y,1/2+z
x,1/2-y,-z
-x,1/2+y,1/2-z
-x,-y,-z
x,y,1/2-z
-x,1/2+y,z
x,1/2-y,1/2+z
loop_
_atom_site_type_symbol
_atom_site_label
_atom_site_fract_x
_atom_site_fract_y
_atom_site_fract_z
Si Si1 0.132794 0.573511 0.000000
Si Si2 0.335142 0.424557 0.641680
Si Si3 0.554182 0.419841 0.860540
Si Si4 0.664858 0.924557 0.358320
Si Si5 0.445818 0.919841 0.139460
Si Si6 0.741097 0.426222 1.000000
Si Si7 0.943427 0.924166 0.141916
Si Si8 0.943427 0.575834 0.141916
O O1 0.103284 0.502619 0.913638
O O2 0.125596 0.750000 0.000000
O O3 0.195857 0.541090 0.000000
O O4 0.103284 0.502619 0.086362
O O5 0.329148 0.446040 0.750000
O O6 0.335090 0.250000 0.623457
O O7 0.392128 0.494042 0.613523
O O8 0.288431 0.503997 0.586677
O O9 0.553085 0.420042 0.750000
O O10 0.607872 0.505958 0.886477
O O11 0.500000 0.500000 0.890805
O O12 0.555909 0.250000 0.889863
O O13 0.670852 0.946040 0.250000
O O14 0.711569 0.003997 0.413323
O O15 0.446915 0.920042 0.250000
O O16 0.733978 0.250000 0.000000
O O17 0.935690 0.940949 0.250000
O O18 0.945493 0.750000 0.120983
O O19 0.000000 1.000000 0.118229
O O20 0.935690 0.559051 0.250000
#
# Coordination Sequence:
#
# PCOD9438743 Si02
#       8
#     8   8   8   8   8   8   8   8
#     4  11  24  40  59  84 117 156 195 238 285 335
#     4  10  21  38  60  84 112 148 189 236 290 344
#     4   9  16  28  50  80 112 145 183 228 281 343
#     4  10  21  38  60  84 112 148 189 236 290 344
#     4   9  16  28  50  80 112 145 183 228 281 343
#     4  11  25  42  59  82 113 152 197 240 284 337
#     4  10  21  38  62  91 122 155 191 233 282 336
#     4  10  21  38  62  91 122 155 191 233 282 336
#
# _framework density 19.195450999999998
#
# number of rings (size 3 to 8) (size 9 to 14) (size 15 to 20)
#    0.000    2.000    0.000    3.375    0.000    9.000 
#    0.000    5.625    0.000    0.000    0.000    0.000 
#    0.000    0.000    0.000    0.000    0.000    0.000 
#
# Total GULP energy -357823.542624 kJ/mol
# GULP energy per Si atom -5590.992853 kJ/mol
# Density = 1.915176 g / cm^3
# Si number density = 19.195451 Si / 1000 Ang^3
#
#
#
# Elastic Constant Matrix: (Units=GPa)
#
#
# Indices 1 2 3 4 5 6 
#
# 1 209.0621 133.3049 75.5391 0.0000 0.0000 0.0000
# 2 133.3049 168.2025 65.4797 0.0000 0.0000 0.0000
# 3 75.5391 65.4797 87.6701 0.0000 0.0000 0.0000
# 4 0.0000 0.0000 0.0000 23.1825 0.0000 0.0000
# 5 0.0000 0.0000 0.0000 0.0000 67.8691 0.0000
# 6 0.0000 0.0000 0.0000 0.0000 0.0000 38.4800
#
#
#
# Elastic Compliance Matrix: (Units=1/GPa)
#
#
# Indices 1 2 3 4 5 6 
#
# 1 0.010591 -0.006826 -0.004027 0.000000 0.000000 0.000000
# 2 -0.006826 0.012782 -0.003665 0.000000 0.000000 0.000000
# 3 -0.004027 -0.003665 0.017614 0.000000 0.000000 0.000000
# 4 0.000000 0.000000 0.000000 0.043136 0.000000 0.000000
# 5 0.000000 0.000000 0.000000 0.000000 0.014734 0.000000
# 6 0.000000 0.000000 0.000000 0.000000 0.000000 0.025988
#
#
# Mechanical properties :
#
#
# Convention : Reuss Voigt Hill
#
# Bulk Modulus (GPa) = 83.68261 112.62024 98.15142
# Shear Modulus (GPa) = 31.67300 38.61371 35.14336
#
# Velocity S-wave (km/s) = 4.06646 4.48996 4.28345
# Velocity P-wave (km/s) = 8.10788 9.25620 8.70101
#
# Compressibility (1/GPa) = 0.01194991
#
# Stress axis : x y z
#
# Youngs Moduli (GPa) = 94.42328 78.23807 56.77333
#
# Poissons Ratio (x) = 0.53402 0.22864
# Poissons Ratio (y) = 0.64449 0.20809
# Poissons Ratio (z) = 0.38027 0.28676
#
# Static dielectric constant tensor:
#      x y z
#    x 1.615750 0.000000 0.000000 
#    y 0.000000 1.636080 0.000000 
#    z 0.000000 0.000000 1.703440 
# 
# From -- ./inp_files/19521.got.cif
#   From: 2010.05.17/outbox.cif.g08.bks.cpg/sg57_10_cif.got.tgz:19521.got - 2010.06.03 13:58:18.
