data_PCOD9438044
_publ_section_title
;
Structure prediction by ZEFSAII (Michael W. Deem and Ramdas Pophale) SiO2 
 PCOD9438044
Probable space group: P B C M
;
_chemical_formula_sum "Si O2"
_cell_formula_units_Z 64
_cell_length_a 12.190233
_cell_length_b 31.547896
_cell_length_c 8.748564
_cell_angle_alpha 90.000000
_cell_angle_beta 90.000000
_cell_angle_gamma 90.000000
_cell_volume 3364.489524
_symmetry_space_group_name_H-M "P B C M"
_symmetry_group_IT_number 57
_symmetry_cell_setting 'orthorhombic'
loop_
_space_group_symop_operation_xyz
x,y,z
-x,-y,1/2+z
x,1/2-y,-z
-x,1/2+y,1/2-z
-x,-y,-z
x,y,1/2-z
-x,1/2+y,z
x,1/2-y,1/2+z
loop_
_atom_site_type_symbol
_atom_site_label
_atom_site_fract_x
_atom_site_fract_y
_atom_site_fract_z
Si Si1 0.009648 0.794233 0.067825
Si Si2 0.018678 0.953933 0.431478
Si Si3 0.479449 0.953493 0.933588
Si Si4 0.512639 0.294725 0.934017
Si Si5 0.128987 0.375889 0.063821
Si Si6 0.240910 0.817683 0.930614
Si Si7 0.616111 0.624487 0.934185
Si Si8 0.238587 0.581125 0.429947
O O1 0.003091 0.792638 0.250000
O O2 0.939476 0.834693 0.012734
O O3 0.968729 0.750000 0.000000
O O4 0.136004 0.800425 0.019119
O O5 0.007243 0.956579 0.250000
O O6 0.139054 0.937518 0.474536
O O7 0.932102 0.918581 0.488622
O O8 0.000000 0.000000 0.500000
O O9 0.491356 0.953637 0.750000
O O10 0.355181 0.939213 0.969783
O O11 0.559696 0.918206 0.003937
O O12 0.500000 0.000000 0.000000
O O13 0.506823 0.295149 0.750000
O O14 0.640937 0.299952 0.978680
O O15 0.472037 0.250000 0.000000
O O16 0.446590 0.334711 0.999155
O O17 0.125543 0.375929 0.250000
O O18 0.256002 0.374337 0.019695
O O19 0.226130 0.808694 0.750000
O O20 0.245095 0.868386 0.950723
O O21 0.609504 0.625135 0.750000
O O22 0.217705 0.572934 0.250000
#
# Coordination Sequence:
#
# PCOD9438044 Si02
#       8
#     8   8   8   8   8   8   8   8
#     4  11  22  39  61  89 121 157 200 247 298 358
#     4  11  23  41  63  92 124 160 204 251 303 363
#     4  11  24  43  64  93 127 162 205 255 307 365
#     4  11  23  41  62  91 125 161 203 253 306 364
#     4   9  22  42  61  84 121 160 199 248 301 354
#     4  10  20  38  62  90 123 157 196 246 304 356
#     4  11  23  42  65  89 121 164 206 252 308 364
#     4  10  21  40  64  90 125 161 198 252 306 355
#
# _framework density 19.022202
#
# number of rings (size 3 to 8) (size 9 to 14) (size 15 to 20)
#    0.000    1.500    2.500    2.250    1.750    3.500 
#    0.000    5.625    0.000    0.000    0.000    0.000 
#    0.000    0.000    0.000    0.000    0.000    0.000 
#
# Total GULP energy -357736.573811 kJ/mol
# GULP energy per Si atom -5589.633966 kJ/mol
# Density = 1.897891 g / cm^3
# Si number density = 19.022202 Si / 1000 Ang^3
#
#
#
# Elastic Constant Matrix: (Units=GPa)
#
#
# Indices 1 2 3 4 5 6 
#
# 1 136.9043 83.8991 46.4996 0.0000 0.0000 0.0000
# 2 83.8991 173.2010 51.7101 0.0000 0.0000 0.0000
# 3 46.4996 51.7101 48.4025 0.0000 0.0000 0.0000
# 4 0.0000 0.0000 0.0000 36.1121 0.0000 0.0000
# 5 0.0000 0.0000 0.0000 0.0000 22.2826 0.0000
# 6 0.0000 0.0000 0.0000 0.0000 0.0000 79.1120
#
#
#
# Elastic Compliance Matrix: (Units=1/GPa)
#
#
# Indices 1 2 3 4 5 6 
#
# 1 0.012150 -0.003525 -0.007907 0.000000 0.000000 0.000000
# 2 -0.003525 0.009500 -0.006763 0.000000 0.000000 0.000000
# 3 -0.007907 -0.006763 0.035481 0.000000 0.000000 0.000000
# 4 0.000000 0.000000 0.000000 0.027692 0.000000 0.000000
# 5 0.000000 0.000000 0.000000 0.000000 0.044878 0.000000
# 6 0.000000 0.000000 0.000000 0.000000 0.000000 0.012640
#
#
# Mechanical properties :
#
#
# Convention : Reuss Voigt Hill
#
# Bulk Modulus (GPa) = 48.21091 80.30282 64.25687
# Shear Modulus (GPa) = 26.93316 39.26128 33.09722
#
# Velocity S-wave (km/s) = 3.76690 4.54802 4.17577
# Velocity P-wave (km/s) = 6.65725 8.35980 7.55663
#
# Compressibility (1/GPa) = 0.02074219
#
# Stress axis : x y z
#
# Youngs Moduli (GPa) = 82.30434 105.25958 28.18401
#
# Poissons Ratio (x) = 0.37104 0.22284
# Poissons Ratio (y) = 0.29012 0.19061
# Poissons Ratio (z) = 0.65074 0.71189
#
# Static dielectric constant tensor:
#      x y z
#    x 1.637210 0.000000 0.000000 
#    y 0.000000 1.643650 0.000000 
#    z 0.000000 0.000000 1.648730 
# 
# From -- ./inp_files/3820.got.cif
#   From: 2010.05.17/outbox.cif.g08.bks.cpg/sg57_2_cif.got.tgz:3820.got - 2010.06.03 13:58:18.
