data_PCOD9438336
_publ_section_title
;
Structure prediction by ZEFSAII (Michael W. Deem and Ramdas Pophale) SiO2 
 PCOD9438336
Probable space group: P B C M
;
_chemical_formula_sum "Si O2"
_cell_formula_units_Z 48
_cell_length_a 11.953646
_cell_length_b 8.999551
_cell_length_c 23.435948
_cell_angle_alpha 90.000000
_cell_angle_beta 90.000000
_cell_angle_gamma 90.000000
_cell_volume 2521.179449
_symmetry_space_group_name_H-M "P B C M"
_symmetry_group_IT_number 57
_symmetry_cell_setting 'orthorhombic'
loop_
_space_group_symop_operation_xyz
x,y,z
-x,-y,1/2+z
x,1/2-y,-z
-x,1/2+y,1/2-z
-x,-y,-z
x,y,1/2-z
-x,1/2+y,z
x,1/2-y,1/2+z
loop_
_atom_site_type_symbol
_atom_site_label
_atom_site_fract_x
_atom_site_fract_y
_atom_site_fract_z
Si Si1 0.640867 0.478978 0.111732
Si Si2 0.972746 0.754945 0.131008
Si Si3 0.647427 0.030011 0.474568
Si Si4 0.525319 0.759767 0.412723
Si Si5 0.855871 0.478745 0.184264
Si Si6 0.908135 0.483696 0.948531
O O1 0.544677 0.365003 0.129104
O O2 0.605330 0.648168 0.120795
O O3 0.755711 0.441929 0.141373
O O4 0.641107 0.465235 0.042891
O O5 0.897697 0.643105 0.167416
O O6 0.909166 0.863450 0.087312
O O7 0.046128 0.861811 0.170736
O O8 0.048690 0.648345 0.091722
O O9 0.599429 0.871921 0.451609
O O10 0.779369 0.048276 0.463573
O O11 0.566589 0.154285 0.445543
O O12 0.822748 0.471298 0.250000
O O13 0.000000 0.500000 0.000000
#
# Coordination Sequence:
#
# PCOD9438336 Si02
#       6
#     8   8   8   8   8   8
#     4  11  20  34  54  78 108 143 183 225 276 332
#     4  10  22  38  56  82 114 150 186 230 290 348
#     4  11  19  33  54  83 117 146 180 220 274 355
#     4  10  21  34  55  84 113 148 180 220 283 358
#     4  11  23  40  59  78 104 148 201 248 284 325
#     4  11  22  35  57  91 124 151 179 225 292 360
#
# _framework density 19.038708
#
# number of rings (size 3 to 8) (size 9 to 14) (size 15 to 20)
#    0.000    1.333    0.000    9.000    0.000    2.667 
#    0.000    0.833    0.000    0.000    0.000    0.000 
#    0.000    0.000    0.000    0.000    0.000    0.000 
#
# Total GULP energy -267930.022243 kJ/mol
# GULP energy per Si atom -5581.875463 kJ/mol
# Density = 1.899538 g / cm^3
# Si number density = 19.038708 Si / 1000 Ang^3
#
#
#
# Elastic Constant Matrix: (Units=GPa)
#
#
# Indices 1 2 3 4 5 6 
#
# 1 69.7458 -12.0134 11.9096 0.0000 0.0000 0.0000
# 2 -12.0134 81.3872 7.1234 0.0000 0.0000 0.0000
# 3 11.9096 7.1234 40.8691 0.0000 0.0000 0.0000
# 4 0.0000 0.0000 0.0000 11.0542 0.0000 0.0000
# 5 0.0000 0.0000 0.0000 0.0000 2.7978 0.0000
# 6 0.0000 0.0000 0.0000 0.0000 0.0000 20.9634
#
#
#
# Elastic Compliance Matrix: (Units=1/GPa)
#
#
# Indices 1 2 3 4 5 6 
#
# 1 0.015674 0.002755 -0.005048 0.000000 0.000000 0.000000
# 2 0.002755 0.012962 -0.003062 0.000000 0.000000 0.000000
# 3 -0.005048 -0.003062 0.026473 0.000000 0.000000 0.000000
# 4 0.000000 0.000000 0.000000 0.090463 0.000000 0.000000
# 5 0.000000 0.000000 0.000000 0.000000 0.357430 0.000000
# 6 0.000000 0.000000 0.000000 0.000000 0.000000 0.047702
#
#
# Mechanical properties :
#
#
# Convention : Reuss Voigt Hill
#
# Bulk Modulus (GPa) = 22.52255 22.89348 22.70801
# Shear Modulus (GPa) = 8.67733 19.29523 13.98628
#
# Velocity S-wave (km/s) = 2.13720 3.18696 2.71333
# Velocity P-wave (km/s) = 4.23624 5.05896 4.66577
#
# Compressibility (1/GPa) = 0.04439995
#
# Stress axis : x y z
#
# Youngs Moduli (GPa) = 63.79840 77.15043 37.77421
#
# Poissons Ratio (x) = -0.21259 0.19068
# Poissons Ratio (y) = -0.17580 0.11567
# Poissons Ratio (z) = 0.32205 0.23625
#
# Static dielectric constant tensor:
#      x y z
#    x 1.688420 0.000000 0.000000 
#    y 0.000000 1.713630 0.000000 
#    z 0.000000 0.000000 1.641350 
# 
# From -- ./inp_files/27111.got.cif
#   From: 2010.05.17/outbox.cif.g08.bks.cpg/sg57_14_cif.got.tgz:27111.got - 2010.06.03 13:58:18.
