data_PCOD9438266
_publ_section_title
;
Structure prediction by ZEFSAII (Michael W. Deem and Ramdas Pophale) SiO2 
 PCOD9438266
Probable space group: P B C M
;
_chemical_formula_sum "Si O2"
_cell_formula_units_Z 40
_cell_length_a 12.032753
_cell_length_b 11.606091
_cell_length_c 14.263757
_cell_angle_alpha 90.000000
_cell_angle_beta 90.000000
_cell_angle_gamma 90.000000
_cell_volume 1991.979684
_symmetry_space_group_name_H-M "P B C M"
_symmetry_group_IT_number 57
_symmetry_cell_setting 'orthorhombic'
loop_
_space_group_symop_operation_xyz
x,y,z
-x,-y,1/2+z
x,1/2-y,-z
-x,1/2+y,1/2-z
-x,-y,-z
x,y,1/2-z
-x,1/2+y,z
x,1/2-y,1/2+z
loop_
_atom_site_type_symbol
_atom_site_label
_atom_site_fract_x
_atom_site_fract_y
_atom_site_fract_z
Si Si1 0.710425 0.339012 0.421511
Si Si2 0.108340 0.371818 0.030261
Si Si3 0.524693 0.734437 0.641450
Si Si4 0.639245 0.913709 0.003631
Si Si5 0.076778 0.962095 0.146882
O O1 0.750892 0.250000 0.500000
O O2 0.608534 0.273727 0.370818
O O3 0.660638 0.456126 0.469264
O O4 0.816835 0.377623 0.361468
O O5 0.042482 0.407046 0.123082
O O6 0.061577 0.250000 0.000000
O O7 0.240554 0.368592 0.037276
O O8 0.090455 0.453253 0.940692
O O9 0.554146 0.746010 0.750000
O O10 0.582315 0.835941 0.578984
O O11 0.565523 0.614328 0.594602
O O12 0.077887 0.015213 0.250000
#
# Coordination Sequence:
#
# PCOD9438266 Si02
#       5
#     8   8   8   8   8
#     4  11  22  41  63  87 130 170 201 255 319 373
#     4  10  20  41  63  86 124 167 202 254 318 364
#     4  11  22  37  62  91 120 163 210 254 305 362
#     4  10  22  42  60  89 127 163 207 260 306 363
#     4  10  23  39  62  95 124 159 210 258 309 376
#
# _framework density 20.080527
#
# number of rings (size 3 to 8) (size 9 to 14) (size 15 to 20)
#    0.000    1.600    4.000    1.800    0.000    5.600 
#    0.000    1.000    0.000    1.200    0.000    0.000 
#    0.000    0.000    0.000    0.000    0.000    0.000 
#
# Total GULP energy -222779.067188 kJ/mol
# GULP energy per Si atom -5569.476680 kJ/mol
# Density = 2.003482 g / cm^3
# Si number density = 20.080527 Si / 1000 Ang^3
#
#
#
# Elastic Constant Matrix: (Units=GPa)
#
#
# Indices 1 2 3 4 5 6 
#
# 1 118.4262 11.5109 32.1343 0.0000 0.0000 0.0000
# 2 11.5109 53.9713 3.6300 0.0000 0.0000 0.0000
# 3 32.1343 3.6300 109.7238 0.0000 0.0000 0.0000
# 4 0.0000 0.0000 0.0000 8.7324 0.0000 0.0000
# 5 0.0000 0.0000 0.0000 0.0000 -2.0553 0.0000
# 6 0.0000 0.0000 0.0000 0.0000 0.0000 -0.5670
#
#
#
# Elastic Compliance Matrix: (Units=1/GPa)
#
#
# Indices 1 2 3 4 5 6 
#
# 1 0.009347 -0.001813 -0.002677 0.000000 0.000000 0.000000
# 2 -0.001813 0.018922 -0.000095 0.000000 0.000000 0.000000
# 3 -0.002677 -0.000095 0.009901 0.000000 0.000000 0.000000
# 4 0.000000 0.000000 0.000000 0.114517 0.000000 0.000000
# 5 0.000000 0.000000 0.000000 0.000000 -0.486539 0.000000
# 6 0.000000 0.000000 0.000000 0.000000 0.000000 -1.763790
#
#
# Mechanical properties :
#
#
# Convention : Reuss Voigt Hill
#
# Bulk Modulus (GPa) = 34.48509 41.85241 38.16875
# Shear Modulus (GPa) = -2.40523 16.87842 7.23659
#
# Velocity S-wave (km/s) = -1.09562 2.90235 1.90042
# Velocity P-wave (km/s) = 3.95097 5.66736 4.88514
#
# Compressibility (1/GPa) = 0.02899804
#
# Stress axis : x y z
#
# Youngs Moduli (GPa) = 106.98817 52.84991 100.99945
#
# Poissons Ratio (x) = 0.09584 0.27041
# Poissons Ratio (y) = 0.19401 0.00958
# Poissons Ratio (z) = 0.28645 0.00501
#
# Static dielectric constant tensor:
#      x y z
#    x 1.787340 0.000000 0.000000 
#    y 0.000000 1.753410 0.000000 
#    z 0.000000 0.000000 1.669520 
# 
# From -- ./inp_files/17422.got.cif
#   From: 2010.05.17/outbox.cif.g08.bks.cpg/sg57_9_cif.got.tgz:17422.got - 2010.06.03 13:58:18.
