data_PCOD9438031
_publ_section_title
;
Structure prediction by ZEFSAII (Michael W. Deem and Ramdas Pophale) SiO2 
 PCOD9438031
Probable space group: P B C M
;
_chemical_formula_sum "Si O2"
_cell_formula_units_Z 40
_cell_length_a 12.646127
_cell_length_b 9.281141
_cell_length_c 16.456200
_cell_angle_alpha 90.000000
_cell_angle_beta 90.000000
_cell_angle_gamma 90.000000
_cell_volume 1931.472221
_symmetry_space_group_name_H-M "P B C M"
_symmetry_group_IT_number 57
_symmetry_cell_setting 'orthorhombic'
loop_
_space_group_symop_operation_xyz
x,y,z
-x,-y,1/2+z
x,1/2-y,-z
-x,1/2+y,1/2-z
-x,-y,-z
x,y,1/2-z
-x,1/2+y,z
x,1/2-y,1/2+z
loop_
_atom_site_type_symbol
_atom_site_label
_atom_site_fract_x
_atom_site_fract_y
_atom_site_fract_z
Si Si1 0.362646 0.007681 0.151154
Si Si2 0.239082 0.999720 0.655526
Si Si3 0.563851 0.312328 0.848922
Si Si4 0.957670 0.123969 0.440822
Si Si5 0.814390 0.801551 0.593390
O O1 0.352148 0.008783 0.250000
O O2 0.404233 0.849350 0.126924
O O3 0.450417 0.125845 0.125905
O O4 0.252287 0.055504 0.111617
O O5 0.232389 0.964480 0.750000
O O6 0.235145 0.171186 0.644471
O O7 0.345912 0.924900 0.624327
O O8 0.137339 0.935297 0.611617
O O9 0.560983 0.312378 0.750000
O O10 0.920164 0.250000 0.500000
O O11 0.060789 0.176688 0.391034
O O12 0.000000 0.000000 0.500000
O O13 0.806730 0.750000 0.500000
#
# Coordination Sequence:
#
# PCOD9438031 Si02
#       5
#     8   8   8   8   8
#     4  10  20  38  62  88 120 159 202 252 306 365
#     4  11  23  40  64  93 121 159 210 257 300 365
#     4   9  20  37  61  91 121 154 197 255 313 355
#     4  11  23  44  63  85 123 166 199 248 316 367
#     4  11  23  40  61  87 125 163 203 245 311 363
#
# _framework density 20.709589999999999
#
# number of rings (size 3 to 8) (size 9 to 14) (size 15 to 20)
#    0.000    1.600    4.000    1.800    2.800    4.800 
#    0.000    5.000    0.000    0.000    0.000    0.000 
#    0.000    0.000    0.000    0.000    0.000    0.000 
#
# Total GULP energy -223521.626583 kJ/mol
# GULP energy per Si atom -5588.040665 kJ/mol
# Density = 2.066245 g / cm^3
# Si number density = 20.709590 Si / 1000 Ang^3
#
#
#
# Elastic Constant Matrix: (Units=GPa)
#
#
# Indices 1 2 3 4 5 6 
#
# 1 83.6569 -4.9113 5.2422 0.0000 0.0000 0.0000
# 2 -4.9113 67.9141 -13.4280 0.0000 0.0000 0.0000
# 3 5.2422 -13.4280 16.6715 0.0000 0.0000 0.0000
# 4 0.0000 0.0000 0.0000 30.3138 0.0000 0.0000
# 5 0.0000 0.0000 0.0000 0.0000 265.8917 0.0000
# 6 0.0000 0.0000 0.0000 0.0000 0.0000 42.0470
#
#
#
# Elastic Compliance Matrix: (Units=1/GPa)
#
#
# Indices 1 2 3 4 5 6 
#
# 1 0.012195 0.000147 -0.003716 0.000000 0.000000 0.000000
# 2 0.000147 0.017515 0.014061 0.000000 0.000000 0.000000
# 3 -0.003716 0.014061 0.072477 0.000000 0.000000 0.000000
# 4 0.000000 0.000000 0.000000 0.032988 0.000000 0.000000
# 5 0.000000 0.000000 0.000000 0.000000 0.003761 0.000000
# 6 0.000000 0.000000 0.000000 0.000000 0.000000 0.023783
#
#
# Mechanical properties :
#
#
# Convention : Reuss Voigt Hill
#
# Bulk Modulus (GPa) = 8.11870 15.78315 11.95093
# Shear Modulus (GPa) = 27.35347 79.73982 53.54665
#
# Velocity S-wave (km/s) = 3.63824 6.21188 5.09039
# Velocity P-wave (km/s) = 4.64519 7.68685 6.35080
#
# Compressibility (1/GPa) = 0.12317245
#
# Stress axis : x y z
#
# Youngs Moduli (GPa) = 82.00024 57.09276 13.79747
#
# Poissons Ratio (x) = -0.00840 0.05127
# Poissons Ratio (y) = -0.01207 -0.19401
# Poissons Ratio (z) = 0.30472 -0.80281
#
# Static dielectric constant tensor:
#      x y z
#    x 1.736020 0.000000 0.000000 
#    y 0.000000 1.745590 0.000000 
#    z 0.000000 0.000000 1.730290 
# 
# From -- ./inp_files/18244.got.cif
#   From: 2010.05.17/outbox.cif.g08.bks.cpg/sg57_10_cif.got.tgz:18244.got - 2010.06.03 13:58:18.
