data_PCOD9438854
_publ_section_title
;
Structure prediction by ZEFSAII (Michael W. Deem and Ramdas Pophale) SiO2 
 PCOD9438854
Probable space group: P B C M
;
_chemical_formula_sum "Si O2"
_cell_formula_units_Z 32
_cell_length_a 7.627977
_cell_length_b 15.281455
_cell_length_c 10.830101
_cell_angle_alpha 90.000000
_cell_angle_beta 90.000000
_cell_angle_gamma 90.000000
_cell_volume 1262.427913
_symmetry_space_group_name_H-M "P B C M"
_symmetry_group_IT_number 57
_symmetry_cell_setting 'orthorhombic'
loop_
_space_group_symop_operation_xyz
x,y,z
-x,-y,1/2+z
x,1/2-y,-z
-x,1/2+y,1/2-z
-x,-y,-z
x,y,1/2-z
-x,1/2+y,z
x,1/2-y,1/2+z
loop_
_atom_site_type_symbol
_atom_site_label
_atom_site_fract_x
_atom_site_fract_y
_atom_site_fract_z
Si Si1 0.349740 0.383627 0.507025
Si Si2 0.823301 0.195798 0.750000
Si Si3 0.503915 0.668467 0.250000
Si Si4 0.809422 0.055832 0.250000
Si Si5 0.820655 0.848866 0.250000
Si Si6 0.760062 0.073391 0.980291
O O1 0.376936 0.171968 0.370126
O O2 0.280532 0.345420 0.379410
O O3 0.232814 0.469184 0.537496
O O4 0.551899 0.409069 0.482449
O O5 0.658478 0.262195 0.750000
O O6 0.820771 0.135071 0.871310
O O7 0.025814 0.223309 0.750000
O O8 0.404145 0.572804 0.250000
O O9 0.847802 0.093973 0.386304
O O10 0.866340 0.954876 0.250000
#
# Coordination Sequence:
#
# PCOD9438854 Si02
#       6
#     8   4   4   4   4   8
#     4   9  18  38  68  92 120 170 229 270 309 385
#     4  12  24  35  60 101 143 171 205 274 355 397
#     4  10  21  38  64  97 129 173 224 268 323 400
#     4   8  18  35  60  93 127 165 218 264 311 381
#     4  10  21  38  64  99 133 169 219 280 331 386
#     4   9  18  36  64  95 124 167 219 263 315 392
#
# _framework density 25.347981999999998
#
# number of rings (size 3 to 8) (size 9 to 14) (size 15 to 20)
#    0.000    2.500    0.000    3.000    0.000   10.000 
#    0.000    2.500    0.000   36.000    0.000    0.000 
#    0.000    0.000    0.000    0.000    0.000    0.000 
#
# Total GULP energy -178474.031809 kJ/mol
# GULP energy per Si atom -5577.313494 kJ/mol
# Density = 2.529029 g / cm^3
# Si number density = 25.347982 Si / 1000 Ang^3
#
#
#
# Elastic Constant Matrix: (Units=GPa)
#
#
# Indices 1 2 3 4 5 6 
#
# 1 81.0159 27.1081 84.4067 0.0000 0.0000 0.0000
# 2 27.1081 97.1983 65.7318 0.0000 0.0000 0.0000
# 3 84.4067 65.7318 261.8255 0.0000 0.0000 0.0000
# 4 0.0000 0.0000 0.0000 90.2620 0.0000 0.0000
# 5 0.0000 0.0000 0.0000 0.0000 -6.0825 0.0000
# 6 0.0000 0.0000 0.0000 0.0000 0.0000 35.2936
#
#
#
# Elastic Compliance Matrix: (Units=1/GPa)
#
#
# Indices 1 2 3 4 5 6 
#
# 1 0.018737 -0.001374 -0.005695 0.000000 0.000000 0.000000
# 2 -0.001374 0.012493 -0.002693 0.000000 0.000000 0.000000
# 3 -0.005695 -0.002693 0.006332 0.000000 0.000000 0.000000
# 4 0.000000 0.000000 0.000000 0.011079 0.000000 0.000000
# 5 0.000000 0.000000 0.000000 0.000000 -0.164407 0.000000
# 6 0.000000 0.000000 0.000000 0.000000 0.000000 0.028334
#
#
# Mechanical properties :
#
#
# Convention : Reuss Voigt Hill
#
# Bulk Modulus (GPa) = 55.44571 88.28144 71.86357
# Shear Modulus (GPa) = -80.78071 41.41417 -19.68327
#
# Velocity S-wave (km/s) = -5.65136 4.04645 -2.78964
# Velocity P-wave (km/s) = 4.54561 7.53227 4.24691
#
# Compressibility (1/GPa) = 0.01803566
#
# Stress axis : x y z
#
# Youngs Moduli (GPa) = 53.37113 80.04539 157.93840
#
# Poissons Ratio (x) = 0.10998 0.89952
# Poissons Ratio (y) = 0.07333 0.42539
# Poissons Ratio (z) = 0.30397 0.21560
#
# Static dielectric constant tensor:
#      x y z
#    x 2.020650 0.000000 0.000000 
#    y 0.000000 2.098640 0.000000 
#    z 0.000000 0.000000 2.140390 
# 
# From -- ./inp_files/11339.got.cif
#   From: 2010.05.17/outbox.cif.g08.bks.cpg/sg57_6_cif.got.tgz:11339.got - 2010.06.03 13:58:18.
