data_PCOD9438263
_publ_section_title
;
Structure prediction by ZEFSAII (Michael W. Deem and Ramdas Pophale) SiO2 
 PCOD9438263
Probable space group: P B C M
;
_chemical_formula_sum "Si O2"
_cell_formula_units_Z 40
_cell_length_a 23.226902
_cell_length_b 8.779700
_cell_length_c 10.046617
_cell_angle_alpha 90.000000
_cell_angle_beta 90.000000
_cell_angle_gamma 90.000000
_cell_volume 2048.758697
_symmetry_space_group_name_H-M "P B C M"
_symmetry_group_IT_number 57
_symmetry_cell_setting 'orthorhombic'
loop_
_space_group_symop_operation_xyz
x,y,z
-x,-y,1/2+z
x,1/2-y,-z
-x,1/2+y,1/2-z
-x,-y,-z
x,y,1/2-z
-x,1/2+y,z
x,1/2-y,1/2+z
loop_
_atom_site_type_symbol
_atom_site_label
_atom_site_fract_x
_atom_site_fract_y
_atom_site_fract_z
Si Si1 0.664662 0.429999 0.987007
Si Si2 0.064274 0.567066 0.996292
Si Si3 0.750731 0.094659 0.250000
Si Si4 0.865076 0.929892 0.750000
Si Si5 0.735371 0.456561 0.250000
Si Si6 0.546701 0.595291 0.586150
Si Si7 0.127394 0.433412 0.250000
O O1 0.714032 0.446666 0.878327
O O2 0.608116 0.514593 0.936424
O O3 0.650743 0.250000 0.000000
O O4 0.693978 0.483714 0.123833
O O5 0.095420 0.500535 0.123902
O O6 0.062326 0.750000 0.000000
O O7 0.102716 0.507200 0.874261
O O8 0.000000 0.500000 0.000000
O O9 0.755149 0.278547 0.250000
O O10 0.809158 0.003090 0.250000
O O11 0.874348 0.748767 0.750000
O O12 0.796062 0.956148 0.750000
O O13 0.549084 0.750000 0.500000
O O14 0.500000 0.500000 0.500000
O O15 0.535782 0.608532 0.750000
#
# Coordination Sequence:
#
# PCOD9438263 Si02
#       7
#     8   8   4   4   4   8   4
#     4  10  22  41  68  97 133 174 223 269 334 403
#     4  12  25  44  67  94 130 174 223 279 343 416
#     4  10  20  41  62  95 130 176 221 266 331 402
#     4  12  25  43  64 101 134 172 229 278 348 404
#     4  10  22  37  66  97 132 176 219 274 327 412
#     4  12  27  46  71 101 139 182 232 288 349 415
#     4  12  25  41  68  95 134 174 219 284 338 408
#
# _framework density 19.524018000000002
#
# number of rings (size 3 to 8) (size 9 to 14) (size 15 to 20)
#    0.000    0.800    1.000    6.600    2.800    3.200 
#    0.000    0.000    0.000    0.000    0.000    0.000 
#    0.000    0.000    0.000    0.000    0.000    0.000 
#
# Total GULP energy -223448.233539 kJ/mol
# GULP energy per Si atom -5586.205838 kJ/mol
# Density = 1.947958 g / cm^3
# Si number density = 19.524018 Si / 1000 Ang^3
#
#
#
# Elastic Constant Matrix: (Units=GPa)
#
#
# Indices 1 2 3 4 5 6 
#
# 1 131.8390 89.1872 67.6798 0.0000 0.0000 0.0000
# 2 89.1872 132.9651 72.4072 0.0000 0.0000 0.0000
# 3 67.6798 72.4072 212.6163 0.0000 0.0000 0.0000
# 4 0.0000 0.0000 0.0000 21.1955 0.0000 0.0000
# 5 0.0000 0.0000 0.0000 0.0000 174.2007 0.0000
# 6 0.0000 0.0000 0.0000 0.0000 0.0000 40.1140
#
#
#
# Elastic Compliance Matrix: (Units=1/GPa)
#
#
# Indices 1 2 3 4 5 6 
#
# 1 0.014305 -0.008735 -0.001579 0.000000 0.000000 0.000000
# 2 -0.008735 0.014567 -0.002180 0.000000 0.000000 0.000000
# 3 -0.001579 -0.002180 0.005948 0.000000 0.000000 0.000000
# 4 0.000000 0.000000 0.000000 0.047180 0.000000 0.000000
# 5 0.000000 0.000000 0.000000 0.000000 0.005741 0.000000
# 6 0.000000 0.000000 0.000000 0.000000 0.000000 0.024929
#
#
# Mechanical properties :
#
#
# Convention : Reuss Voigt Hill
#
# Bulk Modulus (GPa) = 101.71038 103.99654 102.85346
# Shear Modulus (GPa) = 35.47717 63.64510 49.56114
#
# Velocity S-wave (km/s) = 4.26737 5.71569 5.04379
# Velocity P-wave (km/s) = 8.74578 9.84583 9.31207
#
# Compressibility (1/GPa) = 0.00983184
#
# Stress axis : x y z
#
# Youngs Moduli (GPa) = 69.90696 68.64650 168.11421
#
# Poissons Ratio (x) = 0.59965 0.26539
# Poissons Ratio (y) = 0.61066 0.36655
# Poissons Ratio (z) = 0.11036 0.14967
#
# Static dielectric constant tensor:
#      x y z
#    x 1.598680 0.000000 0.000000 
#    y 0.000000 1.688240 0.000000 
#    z 0.000000 0.000000 2.238650 
# 
# From -- ./inp_files/9035.got.cif
#   From: 2010.05.17/outbox.cif.g08.bks.cpg/sg57_5_cif.got.tgz:9035.got - 2010.06.03 13:58:18.
