data_PCOD9438370
_publ_section_title
;
Structure prediction by ZEFSAII (Michael W. Deem and Ramdas Pophale) SiO2 
 PCOD9438370
Probable space group: P B C M
;
_chemical_formula_sum "Si O2"
_cell_formula_units_Z 56
_cell_length_a 17.981526
_cell_length_b 12.795152
_cell_length_c 11.111187
_cell_angle_alpha 90.000000
_cell_angle_beta 90.000000
_cell_angle_gamma 90.000000
_cell_volume 2556.421442
_symmetry_space_group_name_H-M "P B C M"
_symmetry_group_IT_number 57
_symmetry_cell_setting 'orthorhombic'
loop_
_space_group_symop_operation_xyz
x,y,z
-x,-y,1/2+z
x,1/2-y,-z
-x,1/2+y,1/2-z
-x,-y,-z
x,y,1/2-z
-x,1/2+y,z
x,1/2-y,1/2+z
loop_
_atom_site_type_symbol
_atom_site_label
_atom_site_fract_x
_atom_site_fract_y
_atom_site_fract_z
Si Si1 0.745022 0.132459 0.877219
Si Si2 0.107711 0.525915 0.882383
Si Si3 0.843336 0.603377 0.615781
Si Si4 0.685485 0.369074 0.620763
Si Si5 0.550736 0.008200 0.383442
Si Si6 0.327317 0.177248 0.885653
Si Si7 0.995235 0.804254 0.120054
O O1 0.720443 0.083565 0.750000
O O2 0.833640 0.122647 0.880316
O O3 0.714591 0.250439 0.877122
O O4 0.716859 0.081448 0.999504
O O5 0.019799 0.739323 0.750000
O O6 0.026889 0.577685 0.886797
O O7 0.131667 0.461301 0.998322
O O8 0.850367 0.552295 0.750000
O O9 0.759002 0.642406 0.604038
O O10 0.906045 0.693502 0.619411
O O11 0.707903 0.415897 0.750000
O O12 0.597123 0.383206 0.613249
O O13 0.514866 0.999569 0.250000
O O14 0.614822 0.919348 0.389146
O O15 0.500000 0.000000 0.500000
O O16 0.335348 0.224309 0.750000
O O17 0.343806 0.250000 0.000000
O O18 0.115605 0.026872 0.250000
O O19 0.022745 0.750000 0.000000
#
# Coordination Sequence:
#
# PCOD9438370 Si02
#       7
#     8   8   8   8   8   8   8
#     4   9  18  32  52  82 118 153 190 232 282 342
#     4  10  21  35  53  85 124 159 202 249 297 358
#     4  10  21  39  62  85 114 156 207 255 299 351
#     4   9  18  34  56  81 113 153 190 227 279 343
#     4  10  22  41  63  89 120 152 193 239 291 359
#     4  10  22  41  64  91 118 153 203 249 293 353
#     4  10  22  37  54  83 120 158 205 255 303 355
#
# _framework density 21.905621
#
# number of rings (size 3 to 8) (size 9 to 14) (size 15 to 20)
#    0.000    2.286    0.000    1.714    2.000    4.571 
#    2.571    0.000    0.000    0.000    0.000    0.000 
#    0.000    0.000    0.000    0.000    0.000    0.000 
#
# Total GULP energy -311843.608829 kJ/mol
# GULP energy per Si atom -5568.635872 kJ/mol
# Density = 2.185576 g / cm^3
# Si number density = 21.905621 Si / 1000 Ang^3
#
#
#
# Elastic Constant Matrix: (Units=GPa)
#
#
# Indices 1 2 3 4 5 6 
#
# 1 60.8698 -0.2829 51.3391 0.0000 0.0000 0.0000
# 2 -0.2829 32.1686 38.0138 0.0000 0.0000 0.0000
# 3 51.3391 38.0138 259.5002 0.0000 0.0000 0.0000
# 4 0.0000 0.0000 0.0000 26.1698 0.0000 0.0000
# 5 0.0000 0.0000 0.0000 0.0000 34.8872 0.0000
# 6 0.0000 0.0000 0.0000 0.0000 0.0000 17.4179
#
#
#
# Elastic Compliance Matrix: (Units=1/GPa)
#
#
# Indices 1 2 3 4 5 6 
#
# 1 0.020651 0.006058 -0.004973 0.000000 0.000000 0.000000
# 2 0.006058 0.039371 -0.006966 0.000000 0.000000 0.000000
# 3 -0.004973 -0.006966 0.005858 0.000000 0.000000 0.000000
# 4 0.000000 0.000000 0.000000 0.038212 0.000000 0.000000
# 5 0.000000 0.000000 0.000000 0.000000 0.028664 0.000000
# 6 0.000000 0.000000 0.000000 0.000000 0.000000 0.057412
#
#
# Mechanical properties :
#
#
# Convention : Reuss Voigt Hill
#
# Bulk Modulus (GPa) = 18.47795 58.96431 38.72113
# Shear Modulus (GPa) = 22.73045 33.25954 27.99500
#
# Velocity S-wave (km/s) = 3.22476 3.90078 3.57877
# Velocity P-wave (km/s) = 4.72430 6.87488 5.89843
#
# Compressibility (1/GPa) = 0.05411856
#
# Stress axis : x y z
#
# Youngs Moduli (GPa) = 48.42365 25.39929 170.71082
#
# Poissons Ratio (x) = -0.15388 0.84895
# Poissons Ratio (y) = -0.29336 1.18917
# Poissons Ratio (z) = 0.24081 0.17693
#
# Static dielectric constant tensor:
#      x y z
#    x 1.821690 0.000000 0.000000 
#    y 0.000000 1.866080 0.000000 
#    z 0.000000 0.000000 1.903060 
# 
# From -- ./inp_files/13777.got.cif
#   From: 2010.05.17/outbox.cif.g08.bks.cpg/sg57_7_cif.got.tgz:13777.got - 2010.06.03 13:58:18.
