data_PCOD9438047
_publ_section_title
;
Structure prediction by ZEFSAII (Michael W. Deem and Ramdas Pophale) SiO2 
 PCOD9438047
Probable space group: P B C M
;
_chemical_formula_sum "Si O2"
_cell_formula_units_Z 40
_cell_length_a 7.492244
_cell_length_b 15.746285
_cell_length_c 15.873987
_cell_angle_alpha 90.000000
_cell_angle_beta 90.000000
_cell_angle_gamma 90.000000
_cell_volume 1872.733764
_symmetry_space_group_name_H-M "P B C M"
_symmetry_group_IT_number 57
_symmetry_cell_setting 'orthorhombic'
loop_
_space_group_symop_operation_xyz
x,y,z
-x,-y,1/2+z
x,1/2-y,-z
-x,1/2+y,1/2-z
-x,-y,-z
x,y,1/2-z
-x,1/2+y,z
x,1/2-y,1/2+z
loop_
_atom_site_type_symbol
_atom_site_label
_atom_site_fract_x
_atom_site_fract_y
_atom_site_fract_z
Si Si1 0.157651 0.394028 0.250000
Si Si2 0.857021 0.217268 0.915523
Si Si3 0.209939 0.250000 0.000000
Si Si4 0.889792 0.550614 0.250000
Si Si5 0.252780 0.974165 0.079732
Si Si6 0.661951 0.918108 0.070229
Si Si7 0.095480 0.727397 0.250000
O O1 0.268118 0.398773 0.336445
O O2 0.039837 0.478399 0.250000
O O3 0.031903 0.310880 0.250000
O O4 0.849711 0.115765 0.912577
O O5 0.784745 0.260953 0.832599
O O6 0.764990 0.250000 0.000000
O O7 0.061673 0.251371 0.925100
O O8 0.326131 0.332208 0.015713
O O9 0.787622 0.532109 0.338432
O O10 0.982420 0.642055 0.250000
O O11 0.462060 0.951450 0.079785
O O12 0.223203 0.017171 0.988153
#
# Coordination Sequence:
#
# PCOD9438047 Si02
#       7
#     4   8   4   4   8   8   4
#     4  12  23  44  65  99 131 173 223 275 330 390
#     4  10  22  40  64  95 129 164 223 272 324 395
#     4  10  20  38  62  96 120 164 220 266 322 380
#     4  12  25  41  73  94 137 170 226 280 327 398
#     4  11  24  44  65  95 136 176 217 272 339 403
#     4  11  25  41  67  96 136 175 218 273 339 401
#     4  12  22  41  64  99 122 171 221 271 335 380
#
# _framework density 21.359151000000001
#
# number of rings (size 3 to 8) (size 9 to 14) (size 15 to 20)
#    0.600    0.400    4.000    1.800    4.200    1.600 
#    0.000    0.000    4.400    0.000    0.000    0.000 
#    0.000    0.000    0.000    0.000    0.000    0.000 
#
# Total GULP energy -223140.887849 kJ/mol
# GULP energy per Si atom -5578.522196 kJ/mol
# Density = 2.131054 g / cm^3
# Si number density = 21.359151 Si / 1000 Ang^3
#
#
#
# Elastic Constant Matrix: (Units=GPa)
#
#
# Indices 1 2 3 4 5 6 
#
# 1 34.6317 22.7762 19.0403 0.0000 0.0000 0.0000
# 2 22.7762 137.6790 58.4564 0.0000 0.0000 0.0000
# 3 19.0403 58.4564 180.9576 0.0000 0.0000 0.0000
# 4 0.0000 0.0000 0.0000 33.8235 0.0000 0.0000
# 5 0.0000 0.0000 0.0000 0.0000 15.8372 0.0000
# 6 0.0000 0.0000 0.0000 0.0000 0.0000 20.5739
#
#
#
# Elastic Compliance Matrix: (Units=1/GPa)
#
#
# Indices 1 2 3 4 5 6 
#
# 1 0.033002 -0.004619 -0.001980 0.000000 0.000000 0.000000
# 2 -0.004619 0.009064 -0.002442 0.000000 0.000000 0.000000
# 3 -0.001980 -0.002442 0.006523 0.000000 0.000000 0.000000
# 4 0.000000 0.000000 0.000000 0.029565 0.000000 0.000000
# 5 0.000000 0.000000 0.000000 0.000000 0.063142 0.000000
# 6 0.000000 0.000000 0.000000 0.000000 0.000000 0.048605
#
#
# Mechanical properties :
#
#
# Convention : Reuss Voigt Hill
#
# Bulk Modulus (GPa) = 32.77941 61.53492 47.15716
# Shear Modulus (GPa) = 22.91962 30.91327 26.91644
#
# Velocity S-wave (km/s) = 3.27931 3.80848 3.55376
# Velocity P-wave (km/s) = 5.45148 6.94345 6.24220
#
# Compressibility (1/GPa) = 0.03050696
#
# Stress axis : x y z
#
# Youngs Moduli (GPa) = 30.30154 110.32393 153.29334
#
# Poissons Ratio (x) = 0.50954 0.30359
# Poissons Ratio (y) = 0.13995 0.37436
# Poissons Ratio (z) = 0.06001 0.26943
#
# Static dielectric constant tensor:
#      x y z
#    x 1.759250 0.000000 0.000000 
#    y 0.000000 1.756530 0.000000 
#    z 0.000000 0.000000 1.911130 
# 
# From -- ./inp_files/16002.got.cif
#   From: 2010.05.17/outbox.cif.g08.bks.cpg/sg57_9_cif.got.tgz:16002.got - 2010.06.03 13:58:18.
