data_PCOD9438194
_publ_section_title
;
Structure prediction by ZEFSAII (Michael W. Deem and Ramdas Pophale) SiO2 
 PCOD9438194
Probable space group: P B C M
;
_chemical_formula_sum "Si O2"
_cell_formula_units_Z 56
_cell_length_a 7.244058
_cell_length_b 12.329443
_cell_length_c 29.955017
_cell_angle_alpha 90.000000
_cell_angle_beta 90.000000
_cell_angle_gamma 90.000000
_cell_volume 2675.438340
_symmetry_space_group_name_H-M "P B C M"
_symmetry_group_IT_number 57
_symmetry_cell_setting 'orthorhombic'
loop_
_space_group_symop_operation_xyz
x,y,z
-x,-y,1/2+z
x,1/2-y,-z
-x,1/2+y,1/2-z
-x,-y,-z
x,y,1/2-z
-x,1/2+y,z
x,1/2-y,1/2+z
loop_
_atom_site_type_symbol
_atom_site_label
_atom_site_fract_x
_atom_site_fract_y
_atom_site_fract_z
Si Si1 0.502029 0.949135 0.951108
Si Si2 0.042696 0.476031 0.846989
Si Si3 0.784711 0.211898 0.048911
Si Si4 0.912911 0.815520 0.250000
Si Si5 0.958914 0.574191 0.250000
Si Si6 0.823641 0.800052 0.581766
Si Si7 0.274671 0.367342 0.158798
Si Si8 0.649338 0.121520 0.620480
O O1 0.293755 0.908081 0.944518
O O2 0.649626 0.850703 0.944592
O O3 0.566961 0.033642 0.914011
O O4 0.500000 0.000000 0.000000
O O5 0.116727 0.429236 0.800250
O O6 0.090016 0.391281 0.885395
O O7 0.159874 0.582545 0.858482
O O8 0.831141 0.516535 0.843803
O O9 0.694910 0.276764 0.089776
O O10 0.003261 0.228264 0.050975
O O11 0.718639 0.250000 0.000000
O O12 0.035036 0.702661 0.250000
O O13 0.798106 0.812423 0.296037
O O14 0.975782 0.943855 0.250000
O O15 0.769426 0.701266 0.614031
O O16 0.495506 0.370000 0.158375
#
# Coordination Sequence:
#
# PCOD9438194 Si02
#       8
#     8   8   8   4   4   8   8   8
#     4  11  24  42  61  89 128 168 212 272 330 390
#     4  10  22  41  63  93 126 166 215 262 329 395
#     4  12  24  40  61  91 125 161 217 266 322 392
#     4  10  22  39  66 104 137 175 226 279 337 404
#     4  10  20  39  70  96 139 175 214 279 335 396
#     4  11  23  39  65  91 122 167 214 265 325 395
#     4  11  21  40  66  91 129 168 216 265 327 397
#     4  11  23  40  63  89 125 168 212 264 329 391
#
# _framework density 20.931149000000001
#
# number of rings (size 3 to 8) (size 9 to 14) (size 15 to 20)
#    0.000    1.143    5.714    0.857    0.000    2.857 
#    0.000    0.000    0.000    1.714    0.000    0.000 
#    0.000    0.000    0.000    0.000    0.000    0.000 
#
# Total GULP energy -311745.559442 kJ/mol
# GULP energy per Si atom -5566.884990 kJ/mol
# Density = 2.088351 g / cm^3
# Si number density = 20.931149 Si / 1000 Ang^3
#
#
#
# Elastic Constant Matrix: (Units=GPa)
#
#
# Indices 1 2 3 4 5 6 
#
# 1 40.0546 -6.3183 2.5074 0.0000 0.0000 0.0000
# 2 -6.3183 59.7422 4.4730 0.0000 0.0000 0.0000
# 3 2.5074 4.4730 96.2965 0.0000 0.0000 0.0000
# 4 0.0000 0.0000 0.0000 26.2178 0.0000 0.0000
# 5 0.0000 0.0000 0.0000 0.0000 10.7648 0.0000
# 6 0.0000 0.0000 0.0000 0.0000 0.0000 26.1397
#
#
#
# Elastic Compliance Matrix: (Units=1/GPa)
#
#
# Indices 1 2 3 4 5 6 
#
# 1 0.025449 0.002751 -0.000790 0.000000 0.000000 0.000000
# 2 0.002751 0.017094 -0.000866 0.000000 0.000000 0.000000
# 3 -0.000790 -0.000866 0.010445 0.000000 0.000000 0.000000
# 4 0.000000 0.000000 0.000000 0.038142 0.000000 0.000000
# 5 0.000000 0.000000 0.000000 0.000000 0.092895 0.000000
# 6 0.000000 0.000000 0.000000 0.000000 0.000000 0.038256
#
#
# Mechanical properties :
#
#
# Convention : Reuss Voigt Hill
#
# Bulk Modulus (GPa) = 18.12309 21.93527 20.02918
# Shear Modulus (GPa) = 20.96563 25.65322 23.30943
#
# Velocity S-wave (km/s) = 3.16831 3.50466 3.34072
# Velocity P-wave (km/s) = 4.69697 5.18452 4.94676
#
# Compressibility (1/GPa) = 0.05517823
#
# Stress axis : x y z
#
# Youngs Moduli (GPa) = 39.29377 58.49902 95.73611
#
# Poissons Ratio (x) = -0.16091 0.07567
# Poissons Ratio (y) = -0.10808 0.08287
# Poissons Ratio (z) = 0.03106 0.05064
#
# Static dielectric constant tensor:
#      x y z
#    x 1.765550 0.000000 0.000000 
#    y 0.000000 1.818330 0.000000 
#    z 0.000000 0.000000 1.710770 
# 
# From -- ./inp_files/29205.got.cif
#   From: 2010.05.17/outbox.cif.g08.bks.cpg/sg57_15_cif.got.tgz:29205.got - 2010.06.03 13:58:18.
