data_PCOD9438921
_publ_section_title
;
Structure prediction by ZEFSAII (Michael W. Deem and Ramdas Pophale) SiO2 
 PCOD9438921
Probable space group: P B C M
;
_chemical_formula_sum "Si O2"
_cell_formula_units_Z 56
_cell_length_a 12.684968
_cell_length_b 14.570015
_cell_length_c 15.156446
_cell_angle_alpha 90.000000
_cell_angle_beta 90.000000
_cell_angle_gamma 90.000000
_cell_volume 2801.216987
_symmetry_space_group_name_H-M "P B C M"
_symmetry_group_IT_number 57
_symmetry_cell_setting 'orthorhombic'
loop_
_space_group_symop_operation_xyz
x,y,z
-x,-y,1/2+z
x,1/2-y,-z
-x,1/2+y,1/2-z
-x,-y,-z
x,y,1/2-z
-x,1/2+y,z
x,1/2-y,1/2+z
loop_
_atom_site_type_symbol
_atom_site_label
_atom_site_fract_x
_atom_site_fract_y
_atom_site_fract_z
Si Si1 0.751644 0.327727 0.144798
Si Si2 0.869985 0.676290 0.078041
Si Si3 0.903566 0.152612 0.147945
Si Si4 0.817281 0.023961 0.498674
Si Si5 0.496341 0.688307 0.849957
Si Si6 0.393705 0.450043 0.477858
Si Si7 0.346146 0.352855 0.655093
O O1 0.759260 0.350014 0.250000
O O2 0.820781 0.235606 0.130634
O O3 0.626936 0.311276 0.124110
O O4 0.795218 0.407450 0.080924
O O5 0.766412 0.694617 0.137809
O O6 0.976752 0.685502 0.133143
O O7 0.869630 0.750000 0.000000
O O8 0.860633 0.573612 0.034943
O O9 0.889497 0.123150 0.250000
O O10 0.887381 0.074434 0.074381
O O11 0.705927 0.007870 0.447326
O O12 0.500841 0.651237 0.750000
O O13 0.552644 0.786925 0.848455
O O14 0.571222 0.630189 0.913376
O O15 0.500000 0.500000 0.500000
O O16 0.355877 0.418016 0.573171
O O17 0.344005 0.399671 0.750000
#
# Coordination Sequence:
#
# PCOD9438921 Si02
#       7
#     8   8   8   8   8   8   8
#     4  10  22  40  64  94 126 164 210 262 322 382
#     4  11  23  44  66  93 126 165 219 266 321 377
#     4  11  25  43  65  95 128 168 211 259 319 379
#     4  11  23  40  66  94 127 166 210 264 316 379
#     4  10  21  39  61  89 124 162 208 262 318 381
#     4  11  22  35  56  89 122 161 202 250 314 377
#     4  10  22  38  60  86 119 164 207 257 314 374
#
# _framework density 19.991311
#
# number of rings (size 3 to 8) (size 9 to 14) (size 15 to 20)
#    0.000    1.429    1.429    4.286    2.000    5.143 
#    0.000    2.857    0.000    0.000    0.000    0.000 
#    0.000    0.000    0.000    0.000    0.000    0.000 
#
# Total GULP energy -312387.993299 kJ/mol
# GULP energy per Si atom -5578.357023 kJ/mol
# Density = 1.994581 g / cm^3
# Si number density = 19.991311 Si / 1000 Ang^3
#
#
#
# Elastic Constant Matrix: (Units=GPa)
#
#
# Indices 1 2 3 4 5 6 
#
# 1 112.0345 18.4921 29.3059 0.0000 0.0000 0.0000
# 2 18.4921 64.3475 33.4226 0.0000 0.0000 0.0000
# 3 29.3059 33.4226 90.7794 0.0000 0.0000 0.0000
# 4 0.0000 0.0000 0.0000 50.7674 0.0000 0.0000
# 5 0.0000 0.0000 0.0000 0.0000 34.6448 0.0000
# 6 0.0000 0.0000 0.0000 0.0000 0.0000 22.2685
#
#
#
# Elastic Compliance Matrix: (Units=1/GPa)
#
#
# Indices 1 2 3 4 5 6 
#
# 1 0.009859 -0.001459 -0.002645 0.000000 0.000000 0.000000
# 2 -0.001459 0.019431 -0.006683 0.000000 0.000000 0.000000
# 3 -0.002645 -0.006683 0.014330 0.000000 0.000000 0.000000
# 4 0.000000 0.000000 0.000000 0.019698 0.000000 0.000000
# 5 0.000000 0.000000 0.000000 0.000000 0.028864 0.000000
# 6 0.000000 0.000000 0.000000 0.000000 0.000000 0.044906
#
#
# Mechanical properties :
#
#
# Convention : Reuss Voigt Hill
#
# Bulk Modulus (GPa) = 45.36184 47.73363 46.54774
# Shear Modulus (GPa) = 30.11834 33.93220 32.02527
#
# Velocity S-wave (km/s) = 3.88567 4.12436 4.00679
# Velocity P-wave (km/s) = 6.54762 6.82711 6.68882
#
# Compressibility (1/GPa) = 0.02204496
#
# Stress axis : x y z
#
# Youngs Moduli (GPa) = 101.43379 51.46376 69.78258
#
# Poissons Ratio (x) = 0.07509 0.18460
# Poissons Ratio (y) = 0.14800 0.46636
# Poissons Ratio (z) = 0.26833 0.34393
#
# Static dielectric constant tensor:
#      x y z
#    x 1.798650 0.000000 0.000000 
#    y 0.000000 1.738570 0.000000 
#    z 0.000000 0.000000 1.693450 
# 
# From -- ./inp_files/17737.got.cif
#   From: 2010.05.17/outbox.cif.g08.bks.cpg/sg57_9_cif.got.tgz:17737.got - 2010.06.03 13:58:18.
