data_PCOD9438730
_publ_section_title
;
Structure prediction by ZEFSAII (Michael W. Deem and Ramdas Pophale) SiO2 
 PCOD9438730
Probable space group: P B C M
;
_chemical_formula_sum "Si O2"
_cell_formula_units_Z 28
_cell_length_a 6.974102
_cell_length_b 16.310072
_cell_length_c 10.792361
_cell_angle_alpha 90.000000
_cell_angle_beta 90.000000
_cell_angle_gamma 90.000000
_cell_volume 1227.610620
_symmetry_space_group_name_H-M "P B C M"
_symmetry_group_IT_number 57
_symmetry_cell_setting 'orthorhombic'
loop_
_space_group_symop_operation_xyz
x,y,z
-x,-y,1/2+z
x,1/2-y,-z
-x,1/2+y,1/2-z
-x,-y,-z
x,y,1/2-z
-x,1/2+y,z
x,1/2-y,1/2+z
loop_
_atom_site_type_symbol
_atom_site_label
_atom_site_fract_x
_atom_site_fract_y
_atom_site_fract_z
Si Si1 0.811052 0.418142 0.106770
Si Si2 0.679390 0.250000 0.500000
Si Si3 0.315483 0.219958 0.619044
Si Si4 0.261010 0.033546 0.612569
O O1 0.742808 0.420512 0.250000
O O2 0.033689 0.444679 0.111559
O O3 0.792721 0.328025 0.047870
O O4 0.708971 0.478690 0.008689
O O5 0.518946 0.266790 0.607332
O O6 0.201443 0.250000 0.500000
O O7 0.219793 0.234923 0.750000
O O8 0.356377 0.123432 0.606473
O O9 0.303835 0.997535 0.750000
#
# Coordination Sequence:
#
# PCOD9438730 Si02
#       4
#     8   4   8   8
#     4  10  21  38  59  86 114 147 190 234 280 334
#     4  10  22  34  58  80 118 146 186 230 278 332
#     4   9  20  37  56  81 112 148 186 228 277 334
#     4   9  20  39  60  83 114 148 188 234 282 333
#
# _framework density 22.808534000000002
#
# number of rings (size 3 to 8) (size 9 to 14) (size 15 to 20)
#    0.857    1.714    0.000    0.857    2.000    4.571 
#    0.000    0.000    0.000    0.000    0.000    0.000 
#    0.000    0.000    0.000    0.000    0.000    0.000 
#
# Total GULP energy -155976.326025 kJ/mol
# GULP energy per Si atom -5570.583072 kJ/mol
# Density = 2.275662 g / cm^3
# Si number density = 22.808534 Si / 1000 Ang^3
#
#
#
# Elastic Constant Matrix: (Units=GPa)
#
#
# Indices 1 2 3 4 5 6 
#
# 1 60.9723 14.2643 18.0873 0.0000 0.0000 0.0000
# 2 14.2643 76.3808 113.6778 0.0000 0.0000 0.0000
# 3 18.0873 113.6778 259.7204 0.0000 0.0000 0.0000
# 4 0.0000 0.0000 0.0000 32.2384 0.0000 0.0000
# 5 0.0000 0.0000 0.0000 0.0000 2.8390 0.0000
# 6 0.0000 0.0000 0.0000 0.0000 0.0000 24.0520
#
#
#
# Elastic Compliance Matrix: (Units=1/GPa)
#
#
# Indices 1 2 3 4 5 6 
#
# 1 0.017182 -0.004096 0.000596 0.000000 0.000000 0.000000
# 2 -0.004096 0.038536 -0.016581 0.000000 0.000000 0.000000
# 3 0.000596 -0.016581 0.011066 0.000000 0.000000 0.000000
# 4 0.000000 0.000000 0.000000 0.031019 0.000000 0.000000
# 5 0.000000 0.000000 0.000000 0.000000 0.352231 0.000000
# 6 0.000000 0.000000 0.000000 0.000000 0.000000 0.041577
#
#
# Mechanical properties :
#
#
# Convention : Reuss Voigt Hill
#
# Bulk Modulus (GPa) = 37.56398 76.57024 57.06711
# Shear Modulus (GPa) = 9.24816 28.56214 18.90515
#
# Velocity S-wave (km/s) = 2.01581 3.54256 2.88212
# Velocity P-wave (km/s) = 4.68220 7.09766 6.01248
#
# Compressibility (1/GPa) = 0.02662125
#
# Stress axis : x y z
#
# Youngs Moduli (GPa) = 58.19932 25.95002 90.36388
#
# Poissons Ratio (x) = 0.10630 -0.05389
# Poissons Ratio (y) = 0.23841 1.49837
# Poissons Ratio (z) = -0.03471 0.43029
#
# Static dielectric constant tensor:
#      x y z
#    x 1.939150 0.000000 0.000000 
#    y 0.000000 1.817870 0.000000 
#    z 0.000000 0.000000 1.927370 
# 
# From -- ./inp_files/11254.got.cif
#   From: 2010.05.17/outbox.cif.g08.bks.cpg/sg57_6_cif.got.tgz:11254.got - 2010.06.03 13:58:18.
