data_PCOD9438412
_publ_section_title
;
Structure prediction by ZEFSAII (Michael W. Deem and Ramdas Pophale) SiO2 
 PCOD9438412
Probable space group: P B C M
;
_chemical_formula_sum "Si O2"
_cell_formula_units_Z 64
_cell_length_a 6.702680
_cell_length_b 28.314515
_cell_length_c 17.474341
_cell_angle_alpha 90.000000
_cell_angle_beta 90.000000
_cell_angle_gamma 90.000000
_cell_volume 3316.335189
_symmetry_space_group_name_H-M "P B C M"
_symmetry_group_IT_number 57
_symmetry_cell_setting 'orthorhombic'
loop_
_space_group_symop_operation_xyz
x,y,z
-x,-y,1/2+z
x,1/2-y,-z
-x,1/2+y,1/2-z
-x,-y,-z
x,y,1/2-z
-x,1/2+y,z
x,1/2-y,1/2+z
loop_
_atom_site_type_symbol
_atom_site_label
_atom_site_fract_x
_atom_site_fract_y
_atom_site_fract_z
Si Si1 0.875589 0.913438 0.164330
Si Si2 0.261325 0.578942 0.935759
Si Si3 0.383705 0.589915 0.393385
Si Si4 0.552322 0.261456 0.661484
Si Si5 0.478856 0.487420 0.163152
Si Si6 0.575197 0.660470 0.606242
Si Si7 0.094667 0.829507 0.662737
Si Si8 0.295319 0.333918 0.564600
O O1 0.962910 0.915493 0.250000
O O2 0.724209 0.957250 0.154198
O O3 0.738081 0.867055 0.156375
O O4 0.044046 0.914643 0.100032
O O5 0.364433 0.533251 0.897475
O O6 0.398720 0.623353 0.911251
O O7 0.272972 0.577058 0.027180
O O8 0.434177 0.542114 0.349881
O O9 0.246979 0.626792 0.347351
O O10 0.585639 0.618116 0.414643
O O11 0.501405 0.271067 0.750000
O O12 0.518001 0.206883 0.643380
O O13 0.775155 0.282032 0.650290
O O14 0.412272 0.291784 0.606407
O O15 0.550839 0.479109 0.250000
O O16 0.682794 0.672459 0.525969
O O17 0.015969 0.829232 0.750000
O O18 0.923928 0.834532 0.599828
#
# Coordination Sequence:
#
# PCOD9438412 Si02
#       8
#     8   8   8   8   8   8   8   8
#     4  10  21  36  55  81 112 146 187 233 280 334
#     4  10  21  37  57  81 111 146 187 235 284 332
#     4  10  21  37  58  83 112 149 189 230 281 339
#     4  10  21  37  57  82 112 146 184 227 276 329
#     4  10  21  36  54  80 113 147 187 235 284 336
#     4  10  21  38  58  81 111 148 186 229 279 332
#     4  10  21  37  58  85 116 148 186 232 278 331
#     4  10  21  38  58  83 114 146 184 231 279 329
#
# _framework density 19.298410000000001
#
# number of rings (size 3 to 8) (size 9 to 14) (size 15 to 20)
#    0.000    2.000    0.000    3.000    0.000    5.500 
#    0.000    5.000    0.000    0.000    0.000    0.000 
#    0.000    0.000    0.000    0.000    0.000    0.000 
#
# Total GULP energy -357465.353868 kJ/mol
# GULP energy per Si atom -5585.396154 kJ/mol
# Density = 1.925449 g / cm^3
# Si number density = 19.298410 Si / 1000 Ang^3
#
#
#
# Elastic Constant Matrix: (Units=GPa)
#
#
# Indices 1 2 3 4 5 6 
#
# 1 46.6364 14.0258 17.2669 0.0000 0.0000 0.0000
# 2 14.0258 71.0631 2.7850 0.0000 0.0000 0.0000
# 3 17.2669 2.7850 52.4727 0.0000 0.0000 0.0000
# 4 0.0000 0.0000 0.0000 14.3725 0.0000 0.0000
# 5 0.0000 0.0000 0.0000 0.0000 62.4303 0.0000
# 6 0.0000 0.0000 0.0000 0.0000 0.0000 7.1357
#
#
#
# Elastic Compliance Matrix: (Units=1/GPa)
#
#
# Indices 1 2 3 4 5 6 
#
# 1 0.025953 -0.004798 -0.008286 0.000000 0.000000 0.000000
# 2 -0.004798 0.014988 0.000783 0.000000 0.000000 0.000000
# 3 -0.008286 0.000783 0.021742 0.000000 0.000000 0.000000
# 4 0.000000 0.000000 0.000000 0.069578 0.000000 0.000000
# 5 0.000000 0.000000 0.000000 0.000000 0.016018 0.000000
# 6 0.000000 0.000000 0.000000 0.000000 0.000000 0.140140
#
#
# Mechanical properties :
#
#
# Convention : Reuss Voigt Hill
#
# Bulk Modulus (GPa) = 26.25794 26.48083 26.36939
# Shear Modulus (GPa) = 15.35090 25.86066 20.60578
#
# Velocity S-wave (km/s) = 2.82343 3.66463 3.27118
# Velocity P-wave (km/s) = 4.92593 5.62651 5.28783
#
# Compressibility (1/GPa) = 0.03808371
#
# Stress axis : x y z
#
# Youngs Moduli (GPa) = 38.53114 66.71903 45.99295
#
# Poissons Ratio (x) = 0.32010 0.38108
# Poissons Ratio (y) = 0.18486 -0.03602
# Poissons Ratio (z) = 0.31925 -0.05226
#
# Static dielectric constant tensor:
#      x y z
#    x 1.651180 0.000000 0.000000 
#    y 0.000000 1.647350 0.000000 
#    z 0.000000 0.000000 1.670450 
# 
# From -- ./inp_files/20344.got.cif
#   From: 2010.05.17/outbox.cif.g08.bks.cpg/sg57_11_cif.got.tgz:20344.got - 2010.06.03 13:58:18.
