data_PCOD9438419
_publ_section_title
;
Structure prediction by ZEFSAII (Michael W. Deem and Ramdas Pophale) SiO2 
 PCOD9438419
Probable space group: P B C M
;
_chemical_formula_sum "Si O2"
_cell_formula_units_Z 48
_cell_length_a 14.343243
_cell_length_b 8.047507
_cell_length_c 17.459543
_cell_angle_alpha 90.000000
_cell_angle_beta 90.000000
_cell_angle_gamma 90.000000
_cell_volume 2015.308754
_symmetry_space_group_name_H-M "P B C M"
_symmetry_group_IT_number 57
_symmetry_cell_setting 'orthorhombic'
loop_
_space_group_symop_operation_xyz
x,y,z
-x,-y,1/2+z
x,1/2-y,-z
-x,1/2+y,1/2-z
-x,-y,-z
x,y,1/2-z
-x,1/2+y,z
x,1/2-y,1/2+z
loop_
_atom_site_type_symbol
_atom_site_label
_atom_site_fract_x
_atom_site_fract_y
_atom_site_fract_z
Si Si1 0.645544 0.138669 0.661073
Si Si2 0.868310 0.679085 0.340714
Si Si3 0.695996 0.668468 0.917936
Si Si4 0.810049 0.178120 0.082196
Si Si5 0.017370 0.482299 0.408781
Si Si6 0.469009 0.518601 0.159580
O O1 0.667147 0.106484 0.750000
O O2 0.740476 0.191867 0.621209
O O3 0.579686 0.302888 0.654192
O O4 0.575116 0.998199 0.629868
O O5 0.875009 0.703864 0.250000
O O6 0.762513 0.711983 0.367205
O O7 0.919856 0.510528 0.365867
O O8 0.929687 0.813422 0.387839
O O9 0.752503 0.494203 0.926671
O O10 0.600030 0.611513 0.879830
O O11 0.683568 0.750000 0.000000
O O12 0.906425 0.119008 0.119548
O O13 0.834379 0.250000 0.000000
O O14 0.000000 0.500000 0.500000
O O15 0.473538 0.478437 0.250000
#
# Coordination Sequence:
#
# PCOD9438419 Si02
#       6
#     8   8   8   8   8   8
#     4   9  19  35  56  79 107 142 181 225 277 330
#     4  11  22  37  58  85 113 146 188 235 283 339
#     4  10  21  36  56  79 108 145 183 226 277 333
#     4  10  21  36  55  79 108 142 181 225 273 333
#     4  11  22  39  60  83 114 152 190 234 287 344
#     4   9  18  35  55  77 104 139 180 223 270 325
#
# _framework density 23.817689999999999
#
# number of rings (size 3 to 8) (size 9 to 14) (size 15 to 20)
#    0.000    2.000    0.000    4.500    0.000    6.667 
#    0.000    3.333    0.000    5.000    0.000    0.000 
#    0.000    0.000    0.000    0.000    0.000    0.000 
#
# Total GULP energy -268515.176883 kJ/mol
# GULP energy per Si atom -5594.066185 kJ/mol
# Density = 2.376348 g / cm^3
# Si number density = 23.817690 Si / 1000 Ang^3
#
#
#
# Elastic Constant Matrix: (Units=GPa)
#
#
# Indices 1 2 3 4 5 6 
#
# 1 136.0021 25.4397 12.3388 0.0000 0.0000 0.0000
# 2 25.4397 56.3732 0.8870 0.0000 0.0000 0.0000
# 3 12.3388 0.8870 77.1684 0.0000 0.0000 0.0000
# 4 0.0000 0.0000 0.0000 25.0040 0.0000 0.0000
# 5 0.0000 0.0000 0.0000 0.0000 54.5397 0.0000
# 6 0.0000 0.0000 0.0000 0.0000 0.0000 54.4313
#
#
#
# Elastic Compliance Matrix: (Units=1/GPa)
#
#
# Indices 1 2 3 4 5 6 
#
# 1 0.008152 -0.003659 -0.001261 0.000000 0.000000 0.000000
# 2 -0.003659 0.019384 0.000362 0.000000 0.000000 0.000000
# 3 -0.001261 0.000362 0.013156 0.000000 0.000000 0.000000
# 4 0.000000 0.000000 0.000000 0.039994 0.000000 0.000000
# 5 0.000000 0.000000 0.000000 0.000000 0.018335 0.000000
# 6 0.000000 0.000000 0.000000 0.000000 0.000000 0.018372
#
#
# Mechanical properties :
#
#
# Convention : Reuss Voigt Hill
#
# Bulk Modulus (GPa) = 31.66928 38.54164 35.10546
# Shear Modulus (GPa) = 36.48728 42.18690 39.33709
#
# Velocity S-wave (km/s) = 3.91825 4.21318 4.06839
# Velocity P-wave (km/s) = 5.81340 6.31545 6.06962
#
# Compressibility (1/GPa) = 0.03157634
#
# Stress axis : x y z
#
# Youngs Moduli (GPa) = 122.67453 51.58805 76.00984
#
# Poissons Ratio (x) = 0.18875 0.09587
# Poissons Ratio (y) = 0.44884 -0.02753
# Poissons Ratio (z) = 0.15474 -0.01869
#
# Static dielectric constant tensor:
#      x y z
#    x 1.895560 0.000000 0.000000 
#    y 0.000000 2.020470 0.000000 
#    z 0.000000 0.000000 1.813620 
# 
# From -- ./inp_files/22469.got.cif
#   From: 2010.05.17/outbox.cif.g08.bks.cpg/sg57_12_cif.got.tgz:22469.got - 2010.06.03 13:58:18.
