data_PCOD9438543
_publ_section_title
;
Structure prediction by ZEFSAII (Michael W. Deem and Ramdas Pophale) SiO2 
 PCOD9438543
Probable space group: P B C M
;
_chemical_formula_sum "Si O2"
_cell_formula_units_Z 48
_cell_length_a 31.695330
_cell_length_b 9.254827
_cell_length_c 8.748248
_cell_angle_alpha 90.000000
_cell_angle_beta 90.000000
_cell_angle_gamma 90.000000
_cell_volume 2566.165541
_symmetry_space_group_name_H-M "P B C M"
_symmetry_group_IT_number 57
_symmetry_cell_setting 'orthorhombic'
loop_
_space_group_symop_operation_xyz
x,y,z
-x,-y,1/2+z
x,1/2-y,-z
-x,1/2+y,1/2-z
-x,-y,-z
x,y,1/2-z
-x,1/2+y,z
x,1/2-y,1/2+z
loop_
_atom_site_type_symbol
_atom_site_label
_atom_site_fract_x
_atom_site_fract_y
_atom_site_fract_z
Si Si1 0.789341 0.089802 0.566355
Si Si2 0.460558 0.411586 0.934012
Si Si3 0.623483 0.089107 0.934194
Si Si4 0.961701 0.909948 0.067458
Si Si5 0.293949 0.410815 0.565576
Si Si6 0.133269 0.088101 0.566555
O O1 0.785021 0.250000 0.500000
O O2 0.790931 0.096189 0.750000
O O3 0.748917 0.993162 0.521193
O O4 0.831322 0.014152 0.503309
O O5 0.463302 0.405585 0.750000
O O6 0.417756 0.496557 0.976628
O O7 0.460091 0.250000 0.000000
O O8 0.500000 0.500000 0.000000
O O9 0.624414 0.099152 0.750000
O O10 0.665535 0.004218 0.984252
O O11 0.621793 0.250000 0.000000
O O12 0.965094 0.905326 0.250000
O O13 0.914366 0.964075 0.029368
O O14 0.964335 0.750000 0.000000
O O15 0.000000 0.000000 0.000000
O O16 0.295277 0.250000 0.500000
O O17 0.294900 0.401978 0.750000
O O18 0.138012 0.250000 0.500000
O O19 0.137442 0.094191 0.750000
#
# Coordination Sequence:
#
# PCOD9438543 Si02
#       6
#     8   8   8   8   8   8
#     4  11  23  38  58  84 114 148 187 232 281 333
#     4  11  23  39  60  86 117 153 194 239 288 342
#     4  10  22  39  59  85 116 150 189 234 284 337
#     4  10  21  37  58  83 112 147 186 230 279 332
#     4  10  22  39  59  85 114 147 188 231 279 335
#     4  10  21  38  59  83 112 147 187 230 278 333
#
# _framework density 18.704951000000001
#
# number of rings (size 3 to 8) (size 9 to 14) (size 15 to 20)
#    0.000    1.667    0.000    4.000    0.000    8.667 
#    0.000    0.000    0.000    0.000    0.000    0.000 
#    0.000    0.000    0.000    0.000    0.000    0.000 
#
# Total GULP energy -268292.828516 kJ/mol
# GULP energy per Si atom -5589.433927 kJ/mol
# Density = 1.866238 g / cm^3
# Si number density = 18.704951 Si / 1000 Ang^3
#
#
#
# Elastic Constant Matrix: (Units=GPa)
#
#
# Indices 1 2 3 4 5 6 
#
# 1 211.9714 124.5574 67.9218 0.0000 0.0000 0.0000
# 2 124.5574 178.8663 52.3784 0.0000 0.0000 0.0000
# 3 67.9218 52.3784 51.8409 0.0000 0.0000 0.0000
# 4 0.0000 0.0000 0.0000 42.2328 0.0000 0.0000
# 5 0.0000 0.0000 0.0000 0.0000 27.4514 0.0000
# 6 0.0000 0.0000 0.0000 0.0000 0.0000 42.6244
#
#
#
# Elastic Compliance Matrix: (Units=1/GPa)
#
#
# Indices 1 2 3 4 5 6 
#
# 1 0.010189 -0.004525 -0.008778 0.000000 0.000000 0.000000
# 2 -0.004525 0.009950 -0.004124 0.000000 0.000000 0.000000
# 3 -0.008778 -0.004124 0.034958 0.000000 0.000000 0.000000
# 4 0.000000 0.000000 0.000000 0.023678 0.000000 0.000000
# 5 0.000000 0.000000 0.000000 0.000000 0.036428 0.000000
# 6 0.000000 0.000000 0.000000 0.000000 0.000000 0.023461
#
#
# Mechanical properties :
#
#
# Convention : Reuss Voigt Hill
#
# Bulk Modulus (GPa) = 49.40171 103.59930 76.50050
# Shear Modulus (GPa) = 27.73691 35.64980 31.69335
#
# Velocity S-wave (km/s) = 3.85498 4.37040 4.12075
# Velocity P-wave (km/s) = 6.80315 8.99853 7.97672
#
# Compressibility (1/GPa) = 0.02024222
#
# Stress axis : x y z
#
# Youngs Moduli (GPa) = 98.14160 100.50732 28.60603
#
# Poissons Ratio (x) = 0.45480 0.25111
# Poissons Ratio (y) = 0.44409 0.11797
# Poissons Ratio (z) = 0.86150 0.41449
#
# Static dielectric constant tensor:
#      x y z
#    x 1.645440 0.000000 0.000000 
#    y 0.000000 1.593500 0.000000 
#    z 0.000000 0.000000 1.630270 
# 
# From -- ./inp_files/9883.got.cif
#   From: 2010.05.17/outbox.cif.g08.bks.cpg/sg57_5_cif.got.tgz:9883.got - 2010.06.03 13:58:18.
