data_PCOD9438161
_publ_section_title
;
Structure prediction by ZEFSAII (Michael W. Deem and Ramdas Pophale) SiO2 
 PCOD9438161
Probable space group: P B C M
;
_chemical_formula_sum "Si O2"
_cell_formula_units_Z 40
_cell_length_a 8.177095
_cell_length_b 29.235498
_cell_length_c 7.852348
_cell_angle_alpha 90.000000
_cell_angle_beta 90.000000
_cell_angle_gamma 90.000000
_cell_volume 1877.193656
_symmetry_space_group_name_H-M "P B C M"
_symmetry_group_IT_number 57
_symmetry_cell_setting 'orthorhombic'
loop_
_space_group_symop_operation_xyz
x,y,z
-x,-y,1/2+z
x,1/2-y,-z
-x,1/2+y,1/2-z
-x,-y,-z
x,y,1/2-z
-x,1/2+y,z
x,1/2-y,1/2+z
loop_
_atom_site_type_symbol
_atom_site_label
_atom_site_fract_x
_atom_site_fract_y
_atom_site_fract_z
Si Si1 0.582624 0.142737 0.041432
Si Si2 0.059495 0.646720 0.447281
Si Si3 0.737314 0.696953 0.044541
Si Si4 0.424426 0.048647 0.046407
Si Si5 0.948746 0.949296 0.445055
O O1 0.587450 0.144034 0.250000
O O2 0.761848 0.156834 0.977926
O O3 0.431010 0.173756 0.983729
O O4 0.540131 0.090567 0.993835
O O5 0.065614 0.661132 0.250000
O O6 0.899202 0.671051 0.522668
O O7 0.030554 0.592194 0.453633
O O8 0.736206 0.691738 0.250000
O O9 0.743370 0.750000 0.000000
O O10 0.402940 0.051194 0.250000
O O11 0.246124 0.054322 0.966178
O O12 0.500000 0.000000 0.000000
O O13 0.996069 0.942851 0.250000
O O14 0.000000 0.000000 0.500000
#
# Coordination Sequence:
#
# PCOD9438161 Si02
#       5
#     8   8   8   8   8
#     4   9  19  37  61  86 116 157 199 243 302 365
#     4  10  20  39  64  87 119 159 202 253 309 367
#     4  10  21  39  61  88 120 159 202 251 307 365
#     4  11  21  37  59  88 124 162 207 253 305 367
#     4  12  24  38  58  87 123 163 207 254 309 370
#
# _framework density 21.308403999999999
#
# number of rings (size 3 to 8) (size 9 to 14) (size 15 to 20)
#    0.000    1.600    2.000    3.600    0.000    3.200 
#    0.000    2.000    0.000    0.000    0.000    0.000 
#    0.000    0.000    0.000    0.000    0.000    0.000 
#
# Total GULP energy -223555.525264 kJ/mol
# GULP energy per Si atom -5588.888132 kJ/mol
# Density = 2.125990 g / cm^3
# Si number density = 21.308404 Si / 1000 Ang^3
#
#
#
# Elastic Constant Matrix: (Units=GPa)
#
#
# Indices 1 2 3 4 5 6 
#
# 1 206.5007 77.5741 -1.1202 0.0000 0.0000 0.0000
# 2 77.5741 127.3058 -11.4528 0.0000 0.0000 0.0000
# 3 -1.1202 -11.4528 32.8772 0.0000 0.0000 0.0000
# 4 0.0000 0.0000 0.0000 28.7994 0.0000 0.0000
# 5 0.0000 0.0000 0.0000 0.0000 12.3190 0.0000
# 6 0.0000 0.0000 0.0000 0.0000 0.0000 29.7709
#
#
#
# Elastic Compliance Matrix: (Units=1/GPa)
#
#
# Indices 1 2 3 4 5 6 
#
# 1 0.006323 -0.003958 -0.001163 0.000000 0.000000 0.000000
# 2 -0.003958 0.010586 0.003553 0.000000 0.000000 0.000000
# 3 -0.001163 0.003553 0.031614 0.000000 0.000000 0.000000
# 4 0.000000 0.000000 0.000000 0.034723 0.000000 0.000000
# 5 0.000000 0.000000 0.000000 0.000000 0.081175 0.000000
# 6 0.000000 0.000000 0.000000 0.000000 0.000000 0.033590
#
#
# Mechanical properties :
#
#
# Convention : Reuss Voigt Hill
#
# Bulk Modulus (GPa) = 22.03237 55.18733 38.60985
# Shear Modulus (GPa) = 23.11857 34.29004 28.70431
#
# Velocity S-wave (km/s) = 3.29743 4.01587 3.67425
# Velocity P-wave (km/s) = 4.98594 6.88901 6.01324
#
# Compressibility (1/GPa) = 0.04538776
#
# Stress axis : x y z
#
# Youngs Moduli (GPa) = 158.15292 94.46184 31.63135
#
# Poissons Ratio (x) = 0.37384 0.03679
# Poissons Ratio (y) = 0.62590 -0.11238
# Poissons Ratio (z) = 0.18396 -0.33561
#
# Static dielectric constant tensor:
#      x y z
#    x 1.777230 0.000000 0.000000 
#    y 0.000000 1.726970 0.000000 
#    z 0.000000 0.000000 1.770160 
# 
# From -- ./inp_files/1480.got.cif
#   From: 2010.05.17/outbox.cif.g08.bks.cpg/sg57_1_cif.got.tgz:1480.got - 2010.06.03 13:58:18.
