data_PCOD9438592
_publ_section_title
;
Structure prediction by ZEFSAII (Michael W. Deem and Ramdas Pophale) SiO2 
 PCOD9438592
Probable space group: P B C M
;
_chemical_formula_sum "Si O2"
_cell_formula_units_Z 64
_cell_length_a 14.834654
_cell_length_b 26.247740
_cell_length_c 8.480656
_cell_angle_alpha 90.000000
_cell_angle_beta 90.000000
_cell_angle_gamma 90.000000
_cell_volume 3302.165108
_symmetry_space_group_name_H-M "P B C M"
_symmetry_group_IT_number 57
_symmetry_cell_setting 'orthorhombic'
loop_
_space_group_symop_operation_xyz
x,y,z
-x,-y,1/2+z
x,1/2-y,-z
-x,1/2+y,1/2-z
-x,-y,-z
x,y,1/2-z
-x,1/2+y,z
x,1/2-y,1/2+z
loop_
_atom_site_type_symbol
_atom_site_label
_atom_site_fract_x
_atom_site_fract_y
_atom_site_fract_z
Si Si1 0.413494 0.098492 0.441318
Si Si2 0.087210 0.634490 0.059100
Si Si3 0.905627 0.020756 0.937877
Si Si4 0.266023 0.806635 0.938351
Si Si5 0.706398 0.806644 0.559708
Si Si6 0.089168 0.306843 0.559679
Si Si7 0.288610 0.004457 0.057643
Si Si8 0.616728 0.100394 0.938804
O O1 0.417210 0.098005 0.250000
O O2 0.363576 0.150400 0.491765
O O3 0.513994 0.095844 0.506140
O O4 0.352754 0.050504 0.492939
O O5 0.087342 0.630502 0.250000
O O6 0.166877 0.673117 0.012416
O O7 0.989894 0.655562 0.007593
O O8 0.104966 0.579298 0.988249
O O9 0.907541 0.017185 0.750000
O O10 0.815434 0.991525 0.993867
O O11 0.000000 0.000000 0.000000
O O12 0.268395 0.805583 0.750000
O O13 0.283059 0.750000 0.000000
O O14 0.337007 0.848541 0.997141
O O15 0.685469 0.750000 0.500000
O O16 0.706060 0.805706 0.750000
O O17 0.808928 0.819923 0.508817
O O18 0.069694 0.250000 0.500000
O O19 0.088303 0.306430 0.750000
O O20 0.288693 0.004951 0.250000
O O21 0.328822 0.949949 0.007213
O O22 0.620343 0.101597 0.750000
#
# Coordination Sequence:
#
# PCOD9438592 Si02
#       8
#     8   8   8   8   8   8   8   8
#     4  10  21  38  61  87 111 151 200 243 298 358
#     4  10  21  37  59  86 118 154 196 241 292 352
#     4  11  23  39  60  88 122 159 195 239 293 352
#     4  11  23  39  61  90 122 160 203 250 300 360
#     4   9  19  35  57  81 113 150 187 232 286 345
#     4   9  18  33  54  81 111 148 188 230 279 338
#     4   9  20  39  63  86 115 154 196 242 297 357
#     4  11  22  40  61  87 118 152 194 247 305 357
#
# _framework density 19.381222999999999
#
# number of rings (size 3 to 8) (size 9 to 14) (size 15 to 20)
#    0.000    2.000    1.250    1.875    1.750    2.000 
#    0.000    3.125    0.000    0.000    0.000    0.000 
#    0.000    0.000    0.000    0.000    0.000    0.000 
#
# Total GULP energy -357445.230103 kJ/mol
# GULP energy per Si atom -5585.081720 kJ/mol
# Density = 1.933711 g / cm^3
# Si number density = 19.381223 Si / 1000 Ang^3
#
#
#
# Elastic Constant Matrix: (Units=GPa)
#
#
# Indices 1 2 3 4 5 6 
#
# 1 158.3972 83.2956 26.8551 0.0000 0.0000 0.0000
# 2 83.2956 121.1589 23.0225 0.0000 0.0000 0.0000
# 3 26.8551 23.0225 16.8313 0.0000 0.0000 0.0000
# 4 0.0000 0.0000 0.0000 28.7036 0.0000 0.0000
# 5 0.0000 0.0000 0.0000 0.0000 18.2127 0.0000
# 6 0.0000 0.0000 0.0000 0.0000 0.0000 20.3015
#
#
#
# Elastic Compliance Matrix: (Units=1/GPa)
#
#
# Indices 1 2 3 4 5 6 
#
# 1 0.010945 -0.005683 -0.009689 0.000000 0.000000 0.000000
# 2 -0.005683 0.014103 -0.010223 0.000000 0.000000 0.000000
# 3 -0.009689 -0.010223 0.088856 0.000000 0.000000 0.000000
# 4 0.000000 0.000000 0.000000 0.034839 0.000000 0.000000
# 5 0.000000 0.000000 0.000000 0.000000 0.054907 0.000000
# 6 0.000000 0.000000 0.000000 0.000000 0.000000 0.049257
#
#
# Mechanical properties :
#
#
# Convention : Reuss Voigt Hill
#
# Bulk Modulus (GPa) = 15.94557 62.52599 39.23578
# Shear Modulus (GPa) = 15.38450 24.32451 19.85450
#
# Velocity S-wave (km/s) = 2.82047 3.54652 3.20413
# Velocity P-wave (km/s) = 4.34188 7.00725 5.82896
#
# Compressibility (1/GPa) = 0.06271335
#
# Stress axis : x y z
#
# Youngs Moduli (GPa) = 91.37007 70.90477 11.25412
#
# Poissons Ratio (x) = 0.40296 0.10904
# Poissons Ratio (y) = 0.51927 0.11506
# Poissons Ratio (z) = 0.88527 0.72489
#
# Static dielectric constant tensor:
#      x y z
#    x 1.677700 0.000000 0.000000 
#    y 0.000000 1.646350 0.000000 
#    z 0.000000 0.000000 1.666050 
# 
# From -- ./inp_files/5698.got.cif
#   From: 2010.05.17/outbox.cif.g08.bks.cpg/sg57_3_cif.got.tgz:5698.got - 2010.06.03 13:58:18.
