data_PCOD9438261
_publ_section_title
;
Structure prediction by ZEFSAII (Michael W. Deem and Ramdas Pophale) SiO2 
 PCOD9438261
Probable space group: P B C M
;
_chemical_formula_sum "Si O2"
_cell_formula_units_Z 32
_cell_length_a 5.142107
_cell_length_b 15.640759
_cell_length_c 14.555652
_cell_angle_alpha 90.000000
_cell_angle_beta 90.000000
_cell_angle_gamma 90.000000
_cell_volume 1170.659510
_symmetry_space_group_name_H-M "P B C M"
_symmetry_group_IT_number 57
_symmetry_cell_setting 'orthorhombic'
loop_
_space_group_symop_operation_xyz
x,y,z
-x,-y,1/2+z
x,1/2-y,-z
-x,1/2+y,1/2-z
-x,-y,-z
x,y,1/2-z
-x,1/2+y,z
x,1/2-y,1/2+z
loop_
_atom_site_type_symbol
_atom_site_label
_atom_site_fract_x
_atom_site_fract_y
_atom_site_fract_z
Si Si1 0.467737 0.856777 0.092177
Si Si2 0.081959 0.692642 0.750000
Si Si3 0.043455 0.389798 0.750000
Si Si4 0.321556 0.035091 0.750000
Si Si5 0.864576 0.750000 0.500000
Si Si6 0.841801 0.576123 0.048416
O O1 0.239847 0.815182 0.153417
O O2 0.534618 0.935261 0.159076
O O3 0.674784 0.778593 0.083159
O O4 0.561070 0.901138 0.995739
O O5 0.911340 0.606281 0.750000
O O6 0.966991 0.787909 0.750000
O O7 0.765069 0.437895 0.750000
O O8 0.166642 0.425676 0.656929
O O9 0.009188 0.663048 0.475819
O O10 0.000000 0.500000 0.000000
#
# Coordination Sequence:
#
# PCOD9438261 Si02
#       6
#     8   4   4   4   4   8
#     4   9  21  45  65 100 150 187 238 321 369 427
#     4  11  25  43  75 104 143 199 243 318 378 438
#     4  12  22  40  76 114 131 207 263 283 380 465
#     4  11  21  43  71 100 152 184 248 307 372 437
#     4   8  18  38  62  94 142 180 240 300 362 432
#     4  10  20  40  73 100 145 197 235 308 373 436
#
# _framework density 27.33502
#
# number of rings (size 3 to 8) (size 9 to 14) (size 15 to 20)
#    1.500    0.500    2.500    1.500    0.000    1.000 
#    4.500   11.250    0.000    0.000    0.000    0.000 
#    0.000    0.000    0.000    0.000    0.000    0.000 
#
# Total GULP energy -178361.266561 kJ/mol
# GULP energy per Si atom -5573.789580 kJ/mol
# Density = 2.727280 g / cm^3
# Si number density = 27.335020 Si / 1000 Ang^3
#
#
#
# Elastic Constant Matrix: (Units=GPa)
#
#
# Indices 1 2 3 4 5 6 
#
# 1 82.8121 50.9901 37.4267 0.0000 0.0000 0.0000
# 2 50.9901 211.5034 42.1878 0.0000 0.0000 0.0000
# 3 37.4267 42.1878 232.7076 0.0000 0.0000 0.0000
# 4 0.0000 0.0000 0.0000 31.2373 0.0000 0.0000
# 5 0.0000 0.0000 0.0000 0.0000 -23.8029 0.0000
# 6 0.0000 0.0000 0.0000 0.0000 0.0000 49.2002
#
#
#
# Elastic Compliance Matrix: (Units=1/GPa)
#
#
# Indices 1 2 3 4 5 6 
#
# 1 0.014879 -0.003227 -0.001808 0.000000 0.000000 0.000000
# 2 -0.003227 0.005605 -0.000497 0.000000 0.000000 0.000000
# 3 -0.001808 -0.000497 0.004678 0.000000 0.000000 0.000000
# 4 0.000000 0.000000 0.000000 0.032013 0.000000 0.000000
# 5 0.000000 0.000000 0.000000 0.000000 -0.042012 0.000000
# 6 0.000000 0.000000 0.000000 0.000000 0.000000 0.020325
#
#
# Mechanical properties :
#
#
# Convention : Reuss Voigt Hill
#
# Bulk Modulus (GPa) = 70.92750 87.58137 79.25443
# Shear Modulus (GPa) = 97.55603 37.75480 67.65542
#
# Velocity S-wave (km/s) = 5.98051 3.72047 4.98038
# Velocity P-wave (km/s) = 8.58443 7.11093 7.88219
#
# Compressibility (1/GPa) = 0.01409890
#
# Stress axis : x y z
#
# Youngs Moduli (GPa) = 67.20708 178.40896 213.75804
#
# Poissons Ratio (x) = 0.57564 0.38650
# Poissons Ratio (y) = 0.21684 0.10629
# Poissons Ratio (z) = 0.12152 0.08871
#
# Static dielectric constant tensor:
#      x y z
#    x 2.441090 0.000000 0.000000 
#    y 0.000000 2.155160 0.000000 
#    z 0.000000 0.000000 2.155570 
# 
# From -- ./inp_files/19924.got.cif
#   From: 2010.05.17/outbox.cif.g08.bks.cpg/sg57_10_cif.got.tgz:19924.got - 2010.06.03 13:58:18.
