data_PCOD9438704
_publ_section_title
;
Structure prediction by ZEFSAII (Michael W. Deem and Ramdas Pophale) SiO2 
 PCOD9438704
Probable space group: P B C M
;
_chemical_formula_sum "Si O2"
_cell_formula_units_Z 48
_cell_length_a 12.823766
_cell_length_b 24.192944
_cell_length_c 8.686805
_cell_angle_alpha 90.000000
_cell_angle_beta 90.000000
_cell_angle_gamma 90.000000
_cell_volume 2695.034800
_symmetry_space_group_name_H-M "P B C M"
_symmetry_group_IT_number 57
_symmetry_cell_setting 'orthorhombic'
loop_
_space_group_symop_operation_xyz
x,y,z
-x,-y,1/2+z
x,1/2-y,-z
-x,1/2+y,1/2-z
-x,-y,-z
x,y,1/2-z
-x,1/2+y,z
x,1/2-y,1/2+z
loop_
_atom_site_type_symbol
_atom_site_label
_atom_site_fract_x
_atom_site_fract_y
_atom_site_fract_z
Si Si1 0.300769 0.379218 0.934788
Si Si2 0.116041 0.809750 0.566694
Si Si3 0.702693 0.382916 0.065208
Si Si4 0.504379 0.811415 0.065799
Si Si5 0.382953 0.498965 0.564369
Si Si6 0.885968 0.689842 0.566188
O O1 0.292918 0.376548 0.750000
O O2 0.326185 0.442261 0.980944
O O3 0.397172 0.341854 0.990719
O O4 0.196276 0.355085 0.008679
O O5 0.149681 0.750000 0.500000
O O6 0.108345 0.805750 0.750000
O O7 0.199229 0.855361 0.516757
O O8 0.001931 0.821362 0.496991
O O9 0.719572 0.381829 0.250000
O O10 0.599672 0.346575 0.032712
O O11 0.677879 0.445655 0.016978
O O12 0.518466 0.809470 0.250000
O O13 0.494175 0.750000 0.000000
O O14 0.500000 0.500000 0.500000
O O15 0.390000 0.499880 0.750000
O O16 0.854389 0.750000 0.500000
O O17 0.887963 0.692616 0.750000
#
# Coordination Sequence:
#
# PCOD9438704 Si02
#       6
#     8   8   8   8   8   8
#     4  11  22  37  58  85 116 150 192 237 286 341
#     4  11  22  38  61  88 117 151 191 236 289 346
#     4  10  21  38  58  84 116 151 193 237 285 339
#     4  11  22  35  54  81 116 150 188 235 287 343
#     4  10  21  38  60  84 115 154 194 238 285 340
#     4  11  22  39  62  86 116 152 191 237 289 345
#
# _framework density 17.810531000000001
#
# number of rings (size 3 to 8) (size 9 to 14) (size 15 to 20)
#    0.000    1.333    1.667    6.000    0.000    4.000 
#    0.000    0.833    0.000    0.000    0.000    0.000 
#    0.000    0.000    0.000    0.000    0.000    0.000 
#
# Total GULP energy -268348.891578 kJ/mol
# GULP energy per Si atom -5590.601908 kJ/mol
# Density = 1.776999 g / cm^3
# Si number density = 17.810531 Si / 1000 Ang^3
#
#
#
# Elastic Constant Matrix: (Units=GPa)
#
#
# Indices 1 2 3 4 5 6 
#
# 1 99.3009 83.5919 53.1524 0.0000 0.0000 0.0000
# 2 83.5919 162.0762 59.3804 0.0000 0.0000 0.0000
# 3 53.1524 59.3804 93.5679 0.0000 0.0000 0.0000
# 4 0.0000 0.0000 0.0000 9.6465 0.0000 0.0000
# 5 0.0000 0.0000 0.0000 0.0000 26.9531 0.0000
# 6 0.0000 0.0000 0.0000 0.0000 0.0000 17.1862
#
#
#
# Elastic Compliance Matrix: (Units=1/GPa)
#
#
# Indices 1 2 3 4 5 6 
#
# 1 0.020358 -0.008160 -0.006386 0.000000 0.000000 0.000000
# 2 -0.008160 0.011310 -0.002542 0.000000 0.000000 0.000000
# 3 -0.006386 -0.002542 0.015928 0.000000 0.000000 0.000000
# 4 0.000000 0.000000 0.000000 0.103664 0.000000 0.000000
# 5 0.000000 0.000000 0.000000 0.000000 0.037101 0.000000
# 6 0.000000 0.000000 0.000000 0.000000 0.000000 0.058186
#
#
# Mechanical properties :
#
#
# Convention : Reuss Voigt Hill
#
# Bulk Modulus (GPa) = 74.51669 83.02162 78.76916
# Shear Modulus (GPa) = 17.53174 21.34518 19.43846
#
# Velocity S-wave (km/s) = 3.14083 3.46563 3.30722
# Velocity P-wave (km/s) = 7.42176 7.92017 7.67501
#
# Compressibility (1/GPa) = 0.01341981
#
# Stress axis : x y z
#
# Youngs Moduli (GPa) = 49.12150 88.41832 62.78126
#
# Poissons Ratio (x) = 0.72149 0.40092
# Poissons Ratio (y) = 0.40083 0.15960
# Poissons Ratio (z) = 0.31369 0.22477
#
# Static dielectric constant tensor:
#      x y z
#    x 1.574590 0.000000 0.000000 
#    y 0.000000 1.600100 0.000000 
#    z 0.000000 0.000000 1.596740 
# 
# From -- ./inp_files/3136.got.cif
#   From: 2010.05.17/outbox.cif.g08.bks.cpg/sg57_2_cif.got.tgz:3136.got - 2010.06.03 13:58:18.
