data_PCOD9438915
_publ_section_title
;
Structure prediction by ZEFSAII (Michael W. Deem and Ramdas Pophale) SiO2 
 PCOD9438915
Probable space group: P B C M
;
_chemical_formula_sum "Si O2"
_cell_formula_units_Z 48
_cell_length_a 15.308787
_cell_length_b 19.556118
_cell_length_c 8.736474
_cell_angle_alpha 90.000000
_cell_angle_beta 90.000000
_cell_angle_gamma 90.000000
_cell_volume 2615.529474
_symmetry_space_group_name_H-M "P B C M"
_symmetry_group_IT_number 57
_symmetry_cell_setting 'orthorhombic'
loop_
_space_group_symop_operation_xyz
x,y,z
-x,-y,1/2+z
x,1/2-y,-z
-x,1/2+y,1/2-z
-x,-y,-z
x,y,1/2-z
-x,1/2+y,z
x,1/2-y,1/2+z
loop_
_atom_site_type_symbol
_atom_site_label
_atom_site_fract_x
_atom_site_fract_y
_atom_site_fract_z
Si Si1 0.626138 0.324769 0.932455
Si Si2 0.279686 0.089661 0.066154
Si Si3 0.035524 0.571377 0.566262
Si Si4 0.238969 0.567658 0.565944
Si Si5 0.436394 0.324920 0.067499
Si Si6 0.895347 0.825973 0.933629
O O1 0.620248 0.320409 0.750000
O O2 0.647664 0.250000 0.000000
O O3 0.697763 0.379300 0.983893
O O4 0.531164 0.343718 0.000215
O O5 0.291616 0.094635 0.250000
O O6 0.192967 0.132687 0.026347
O O7 0.264223 0.010408 0.027694
O O8 0.362796 0.122118 0.984008
O O9 0.028886 0.569477 0.750000
O O10 0.137510 0.578973 0.525982
O O11 0.000000 0.500000 0.500000
O O12 0.976731 0.632103 0.500477
O O13 0.247628 0.575536 0.750000
O O14 0.441586 0.320366 0.250000
O O15 0.414122 0.250000 0.000000
O O16 0.901675 0.823766 0.750000
O O17 0.891695 0.750000 0.000000
#
# Coordination Sequence:
#
# PCOD9438915 Si02
#       6
#     8   8   8   8   8   8
#     4  11  23  41  64  89 118 157 201 250 301 358
#     4  10  21  39  61  88 123 159 199 247 300 358
#     4  11  22  40  64  89 120 161 202 249 303 361
#     4  10  22  41  63  89 121 158 198 248 302 356
#     4  11  22  38  61  88 120 160 201 247 301 358
#     4  11  23  40  61  91 124 162 204 253 304 357
#
# _framework density 18.351925000000001
#
# number of rings (size 3 to 8) (size 9 to 14) (size 15 to 20)
#    0.000    1.333    1.667    5.500    0.000    6.000 
#    0.000    0.000    0.000    0.000    0.000    0.000 
#    0.000    0.000    0.000    0.000    0.000    0.000 
#
# Total GULP energy -268413.691635 kJ/mol
# GULP energy per Si atom -5591.951909 kJ/mol
# Density = 1.831015 g / cm^3
# Si number density = 18.351925 Si / 1000 Ang^3
#
#
#
# Elastic Constant Matrix: (Units=GPa)
#
#
# Indices 1 2 3 4 5 6 
#
# 1 165.5575 123.2005 92.4114 0.0000 0.0000 0.0000
# 2 123.2005 152.3381 83.3029 0.0000 0.0000 0.0000
# 3 92.4114 83.3029 107.3373 0.0000 0.0000 0.0000
# 4 0.0000 0.0000 0.0000 34.6250 0.0000 0.0000
# 5 0.0000 0.0000 0.0000 0.0000 29.0782 0.0000
# 6 0.0000 0.0000 0.0000 0.0000 0.0000 40.9437
#
#
#
# Elastic Compliance Matrix: (Units=1/GPa)
#
#
# Indices 1 2 3 4 5 6 
#
# 1 0.017930 -0.010527 -0.007267 0.000000 0.000000 0.000000
# 2 -0.010527 0.017584 -0.004584 0.000000 0.000000 0.000000
# 3 -0.007267 -0.004584 0.019131 0.000000 0.000000 0.000000
# 4 0.000000 0.000000 0.000000 0.028881 0.000000 0.000000
# 5 0.000000 0.000000 0.000000 0.000000 0.034390 0.000000
# 6 0.000000 0.000000 0.000000 0.000000 0.000000 0.024424
#
#
# Mechanical properties :
#
#
# Convention : Reuss Voigt Hill
#
# Bulk Modulus (GPa) = 101.12003 113.67361 107.39682
# Shear Modulus (GPa) = 26.26159 29.35059 27.80609
#
# Velocity S-wave (km/s) = 3.78696 4.00349 3.89673
# Velocity P-wave (km/s) = 8.62215 9.13488 8.88222
#
# Compressibility (1/GPa) = 0.00988924
#
# Stress axis : x y z
#
# Youngs Moduli (GPa) = 55.77188 56.86892 52.27214
#
# Poissons Ratio (x) = 0.59865 0.37987
# Poissons Ratio (y) = 0.58710 0.23961
# Poissons Ratio (z) = 0.40531 0.26068
#
# Static dielectric constant tensor:
#      x y z
#    x 1.607140 0.000000 0.000000 
#    y 0.000000 1.599560 0.000000 
#    z 0.000000 0.000000 1.621340 
# 
# From -- ./inp_files/4596.got.cif
#   From: 2010.05.17/outbox.cif.g08.bks.cpg/sg57_3_cif.got.tgz:4596.got - 2010.06.03 13:58:18.
