data_PCOD9438215
_publ_section_title
;
Structure prediction by ZEFSAII (Michael W. Deem and Ramdas Pophale) SiO2 
 PCOD9438215
Probable space group: P B C M
;
_chemical_formula_sum "Si O2"
_cell_formula_units_Z 48
_cell_length_a 6.130149
_cell_length_b 14.769669
_cell_length_c 25.236631
_cell_angle_alpha 90.000000
_cell_angle_beta 90.000000
_cell_angle_gamma 90.000000
_cell_volume 2284.931426
_symmetry_space_group_name_H-M "P B C M"
_symmetry_group_IT_number 57
_symmetry_cell_setting 'orthorhombic'
loop_
_space_group_symop_operation_xyz
x,y,z
-x,-y,1/2+z
x,1/2-y,-z
-x,1/2+y,1/2-z
-x,-y,-z
x,y,1/2-z
-x,1/2+y,z
x,1/2-y,1/2+z
loop_
_atom_site_type_symbol
_atom_site_label
_atom_site_fract_x
_atom_site_fract_y
_atom_site_fract_z
Si Si1 0.051767 0.237336 0.850656
Si Si2 0.662880 0.358467 0.092162
Si Si3 0.188381 0.588679 0.138420
Si Si4 0.643596 0.591888 0.809017
Si Si5 0.849268 0.533055 0.452995
Si Si6 0.572061 0.686393 0.074105
O O1 0.160665 0.165172 0.811818
O O2 0.251011 0.281529 0.882620
O O3 0.897046 0.180978 0.890455
O O4 0.908102 0.322866 0.831612
O O5 0.528887 0.379125 0.145917
O O6 0.689602 0.451109 0.061220
O O7 0.546508 0.279340 0.058998
O O8 0.265030 0.506617 0.175026
O O9 0.389590 0.625201 0.103072
O O10 0.003814 0.552627 0.097789
O O11 0.549349 0.590783 0.750000
O O12 0.710560 0.623122 0.464797
O O13 0.000000 0.500000 0.500000
#
# Coordination Sequence:
#
# PCOD9438215 Si02
#       6
#     8   8   8   8   8   8
#     4   9  20  39  63  87 126 166 202 266 322 366
#     4  10  20  41  63  87 134 166 206 275 318 378
#     4  10  20  40  63  92 133 162 206 273 314 375
#     4  11  22  37  64  94 124 172 216 256 322 384
#     4  11  22  39  67  96 124 172 219 258 320 394
#     4   9  20  40  64  88 127 167 202 266 329 372
#
# _framework density 21.007196
#
# number of rings (size 3 to 8) (size 9 to 14) (size 15 to 20)
#    0.000    2.000    3.333    0.000    0.000    2.000 
#    0.000   15.833    0.000    0.000    0.000    0.000 
#    0.000    0.000    0.000    0.000    0.000    0.000 
#
# Total GULP energy -267954.719169 kJ/mol
# GULP energy per Si atom -5582.389983 kJ/mol
# Density = 2.095938 g / cm^3
# Si number density = 21.007196 Si / 1000 Ang^3
#
#
#
# Elastic Constant Matrix: (Units=GPa)
#
#
# Indices 1 2 3 4 5 6 
#
# 1 69.4551 25.1477 6.4497 0.0000 0.0000 0.0000
# 2 25.1477 113.4432 18.5633 0.0000 0.0000 0.0000
# 3 6.4497 18.5633 59.6833 0.0000 0.0000 0.0000
# 4 0.0000 0.0000 0.0000 8.5105 0.0000 0.0000
# 5 0.0000 0.0000 0.0000 0.0000 21.0299 0.0000
# 6 0.0000 0.0000 0.0000 0.0000 0.0000 44.4537
#
#
#
# Elastic Compliance Matrix: (Units=1/GPa)
#
#
# Indices 1 2 3 4 5 6 
#
# 1 0.015678 -0.003370 -0.000646 0.000000 0.000000 0.000000
# 2 -0.003370 0.010012 -0.002750 0.000000 0.000000 0.000000
# 3 -0.000646 -0.002750 0.017680 0.000000 0.000000 0.000000
# 4 0.000000 0.000000 0.000000 0.117502 0.000000 0.000000
# 5 0.000000 0.000000 0.000000 0.000000 0.047551 0.000000
# 6 0.000000 0.000000 0.000000 0.000000 0.000000 0.022495
#
#
# Mechanical properties :
#
#
# Convention : Reuss Voigt Hill
#
# Bulk Modulus (GPa) = 33.51362 38.10033 35.80697
# Shear Modulus (GPa) = 19.65439 27.62687 23.64063
#
# Velocity S-wave (km/s) = 3.06208 3.63039 3.35828
# Velocity P-wave (km/s) = 5.33759 5.97906 5.66740
#
# Compressibility (1/GPa) = 0.02983861
#
# Stress axis : x y z
#
# Youngs Moduli (GPa) = 63.78424 99.88075 56.56034
#
# Poissons Ratio (x) = 0.33657 0.03655
# Poissons Ratio (y) = 0.21493 0.15553
# Poissons Ratio (z) = 0.04121 0.27466
#
# Static dielectric constant tensor:
#      x y z
#    x 1.752320 0.000000 0.000000 
#    y 0.000000 1.767520 0.000000 
#    z 0.000000 0.000000 1.791420 
# 
# From -- ./inp_files/27936.got.cif
#   From: 2010.05.17/outbox.cif.g08.bks.cpg/sg57_14_cif.got.tgz:27936.got - 2010.06.03 13:58:18.
