data_PCOD9438070
_publ_section_title
;
Structure prediction by ZEFSAII (Michael W. Deem and Ramdas Pophale) SiO2 
 PCOD9438070
Probable space group: P B C M
;
_chemical_formula_sum "Si O2"
_cell_formula_units_Z 36
_cell_length_a 20.455313
_cell_length_b 4.983753
_cell_length_c 18.461090
_cell_angle_alpha 90.000000
_cell_angle_beta 90.000000
_cell_angle_gamma 90.000000
_cell_volume 1882.001559
_symmetry_space_group_name_H-M "P B C M"
_symmetry_group_IT_number 57
_symmetry_cell_setting 'orthorhombic'
loop_
_space_group_symop_operation_xyz
x,y,z
-x,-y,1/2+z
x,1/2-y,-z
-x,1/2+y,1/2-z
-x,-y,-z
x,y,1/2-z
-x,1/2+y,z
x,1/2-y,1/2+z
loop_
_atom_site_type_symbol
_atom_site_label
_atom_site_fract_x
_atom_site_fract_y
_atom_site_fract_z
Si Si1 0.792275 0.274687 0.083978
Si Si2 0.161800 0.229570 0.668054
Si Si3 0.957596 0.962720 0.250000
Si Si4 0.456199 0.334927 0.665972
Si Si5 0.349402 0.507391 0.550154
O O1 0.835357 0.491093 0.126661
O O2 0.718018 0.382100 0.083421
O O3 0.798527 0.990527 0.123283
O O4 0.811818 0.250000 0.000000
O O5 0.188613 0.264004 0.750000
O O6 0.088933 0.115484 0.682517
O O7 0.020248 0.769115 0.250000
O O8 0.435692 0.365216 0.750000
O O9 0.482487 0.034948 0.654795
O O10 0.399890 0.417371 0.611145
O O11 0.375946 0.750000 0.500000
O O12 0.334862 0.250000 0.500000
#
# Coordination Sequence:
#
# PCOD9438070 Si02
#       5
#     8   8   4   8   8
#     4  11  21  39  58  86 126 155 191 245 306 349
#     4  10  22  36  62  91 112 158 201 236 284 354
#     4  10  20  38  64  90 120 154 198 246 280 336
#     4  10  22  39  57  81 113 150 192 244 301 344
#     4  11  23  38  58  84 113 154 195 239 295 355
#
# _framework density 19.128571999999998
#
# number of rings (size 3 to 8) (size 9 to 14) (size 15 to 20)
#    0.667    0.889    0.000    6.667    0.000    4.444 
#    0.000    2.222    0.000   13.333    0.000    0.000 
#    0.000    0.000    0.000    0.000    0.000    0.000 
#
# Total GULP energy -201021.824805 kJ/mol
# GULP energy per Si atom -5583.939578 kJ/mol
# Density = 1.908503 g / cm^3
# Si number density = 19.128572 Si / 1000 Ang^3
#
#
#
# Elastic Constant Matrix: (Units=GPa)
#
#
# Indices 1 2 3 4 5 6 
#
# 1 35.4216 -17.1036 23.6978 0.0000 0.0000 0.0000
# 2 -17.1036 70.1532 13.4026 0.0000 0.0000 0.0000
# 3 23.6978 13.4026 90.4062 0.0000 0.0000 0.0000
# 4 0.0000 0.0000 0.0000 29.5359 0.0000 0.0000
# 5 0.0000 0.0000 0.0000 0.0000 22.6148 0.0000
# 6 0.0000 0.0000 0.0000 0.0000 0.0000 27.6952
#
#
#
# Elastic Compliance Matrix: (Units=1/GPa)
#
#
# Indices 1 2 3 4 5 6 
#
# 1 0.043527 0.013165 -0.013361 0.000000 0.000000 0.000000
# 2 0.013165 0.018652 -0.006216 0.000000 0.000000 0.000000
# 3 -0.013361 -0.006216 0.015485 0.000000 0.000000 0.000000
# 4 0.000000 0.000000 0.000000 0.033857 0.000000 0.000000
# 5 0.000000 0.000000 0.000000 0.000000 0.044219 0.000000
# 6 0.000000 0.000000 0.000000 0.000000 0.000000 0.036107
#
#
# Mechanical properties :
#
#
# Convention : Reuss Voigt Hill
#
# Bulk Modulus (GPa) = 15.42288 26.21939 20.82114
# Shear Modulus (GPa) = 22.09608 27.70146 24.89877
#
# Velocity S-wave (km/s) = 3.40241 3.80961 3.61176
# Velocity P-wave (km/s) = 4.84928 5.75218 5.31992
#
# Compressibility (1/GPa) = 0.06483875
#
# Stress axis : x y z
#
# Youngs Moduli (GPa) = 22.97427 53.61463 64.57867
#
# Poissons Ratio (x) = -0.70582 0.86285
# Poissons Ratio (y) = -0.30245 0.40141
# Poissons Ratio (z) = 0.30696 0.33326
#
# Static dielectric constant tensor:
#      x y z
#    x 1.660250 0.000000 0.000000 
#    y 0.000000 1.662990 0.000000 
#    z 0.000000 0.000000 1.653290 
# 
# From -- ./inp_files/22963.got.cif
#   From: 2010.05.17/outbox.cif.g08.bks.cpg/sg57_12_cif.got.tgz:22963.got - 2010.06.03 13:58:18.
