data_PCOD9438549
_publ_section_title
;
Structure prediction by ZEFSAII (Michael W. Deem and Ramdas Pophale) SiO2 
 PCOD9438549
Probable space group: P B C M
;
_chemical_formula_sum "Si O2"
_cell_formula_units_Z 64
_cell_length_a 26.904174
_cell_length_b 15.040461
_cell_length_c 8.656658
_cell_angle_alpha 90.000000
_cell_angle_beta 90.000000
_cell_angle_gamma 90.000000
_cell_volume 3502.926873
_symmetry_space_group_name_H-M "P B C M"
_symmetry_group_IT_number 57
_symmetry_cell_setting 'orthorhombic'
loop_
_space_group_symop_operation_xyz
x,y,z
-x,-y,1/2+z
x,1/2-y,-z
-x,1/2+y,1/2-z
-x,-y,-z
x,y,1/2-z
-x,1/2+y,z
x,1/2-y,1/2+z
loop_
_atom_site_type_symbol
_atom_site_label
_atom_site_fract_x
_atom_site_fract_y
_atom_site_fract_z
Si Si1 0.055383 0.503070 0.435311
Si Si2 0.871072 0.652087 0.563701
Si Si3 0.758470 0.652164 0.936167
Si Si4 0.686365 0.005298 0.435534
Si Si5 0.872781 0.349222 0.065016
Si Si6 0.501017 0.850577 0.564586
Si Si7 0.575582 0.008045 0.935170
Si Si8 0.760325 0.150568 0.564691
O O1 0.053649 0.503217 0.250000
O O2 0.087950 0.418266 0.487789
O O3 0.085710 0.588174 0.493328
O O4 0.000000 0.500000 0.500000
O O5 0.881113 0.750000 0.500000
O O6 0.871666 0.654879 0.750000
O O7 0.814763 0.626737 0.515369
O O8 0.758018 0.655105 0.750000
O O9 0.717637 0.581303 0.986475
O O10 0.748329 0.750000 0.000000
O O11 0.682859 0.005311 0.250000
O O12 0.718968 0.088451 0.490677
O O13 0.631711 0.006316 0.506313
O O14 0.876973 0.348022 0.250000
O O15 0.816583 0.380451 0.024892
O O16 0.877795 0.250000 0.000000
O O17 0.503866 0.750000 0.500000
O O18 0.499208 0.845250 0.750000
O O19 0.546928 0.916295 0.520512
O O20 0.453737 0.907232 0.504627
O O21 0.573870 0.014678 0.750000
O O22 0.755449 0.250000 0.500000
O O23 0.755745 0.151116 0.750000
#
# Coordination Sequence:
#
# PCOD9438549 Si02
#       8
#     8   8   8   8   8   8   8   8
#     4  11  23  38  56  80 111 144 183 231 282 337
#     4   9  19  36  57  79 105 140 180 223 271 323
#     4   9  19  35  55  80 109 143 182 222 267 322
#     4  11  22  36  56  83 118 153 185 227 277 327
#     4  10  21  38  60  84 110 144 185 229 279 335
#     4  10  21  39  63  86 111 147 189 234 282 332
#     4  10  22  39  58  84 116 148 188 233 277 328
#     4  10  21  37  58  84 113 146 186 229 276 334
#
# _framework density 18.270436
#
# number of rings (size 3 to 8) (size 9 to 14) (size 15 to 20)
#    0.000    2.000    0.000    3.000    0.000    7.500 
#    0.000    8.750    0.000    0.000    0.000    0.000 
#    0.000    0.000    0.000    0.000    0.000    0.000 
#
# Total GULP energy -357400.802660 kJ/mol
# GULP energy per Si atom -5584.387542 kJ/mol
# Density = 1.822885 g / cm^3
# Si number density = 18.270436 Si / 1000 Ang^3
#
#
#
# Elastic Constant Matrix: (Units=GPa)
#
#
# Indices 1 2 3 4 5 6 
#
# 1 181.5024 104.2329 47.8864 0.0000 0.0000 0.0000
# 2 104.2329 134.0679 37.3661 0.0000 0.0000 0.0000
# 3 47.8864 37.3661 45.1006 0.0000 0.0000 0.0000
# 4 0.0000 0.0000 0.0000 33.7715 0.0000 0.0000
# 5 0.0000 0.0000 0.0000 0.0000 60.0098 0.0000
# 6 0.0000 0.0000 0.0000 0.0000 0.0000 82.1058
#
#
#
# Elastic Compliance Matrix: (Units=1/GPa)
#
#
# Indices 1 2 3 4 5 6 
#
# 1 0.011082 -0.006939 -0.006018 0.000000 0.000000 0.000000
# 2 -0.006939 0.014043 -0.004267 0.000000 0.000000 0.000000
# 3 -0.006018 -0.004267 0.032098 0.000000 0.000000 0.000000
# 4 0.000000 0.000000 0.000000 0.029611 0.000000 0.000000
# 5 0.000000 0.000000 0.000000 0.000000 0.016664 0.000000
# 6 0.000000 0.000000 0.000000 0.000000 0.000000 0.012179
#
#
# Mechanical properties :
#
#
# Convention : Reuss Voigt Hill
#
# Bulk Modulus (GPa) = 43.90790 82.18240 63.04515
# Shear Modulus (GPa) = 31.70263 46.58979 39.14621
#
# Velocity S-wave (km/s) = 4.17008 5.05524 4.63384
# Velocity P-wave (km/s) = 6.87535 8.89678 7.95057
#
# Compressibility (1/GPa) = 0.02277495
#
# Stress axis : x y z
#
# Youngs Moduli (GPa) = 90.23693 71.21110 31.15487
#
# Poissons Ratio (x) = 0.49410 0.18748
# Poissons Ratio (y) = 0.62612 0.13295
# Poissons Ratio (z) = 0.54303 0.30388
#
# Static dielectric constant tensor:
#      x y z
#    x 1.610990 0.000000 0.000000 
#    y 0.000000 1.607290 0.000000 
#    z 0.000000 0.000000 1.614420 
# 
# From -- ./inp_files/9301.got.cif
#   From: 2010.05.17/outbox.cif.g08.bks.cpg/sg57_5_cif.got.tgz:9301.got - 2010.06.03 13:58:18.
