data_PCOD9438363
_publ_section_title
;
Structure prediction by ZEFSAII (Michael W. Deem and Ramdas Pophale) SiO2 
 PCOD9438363
Probable space group: P B C M
;
_chemical_formula_sum "Si O2"
_cell_formula_units_Z 64
_cell_length_a 20.650787
_cell_length_b 19.015886
_cell_length_c 7.732260
_cell_angle_alpha 90.000000
_cell_angle_beta 90.000000
_cell_angle_gamma 90.000000
_cell_volume 3036.404464
_symmetry_space_group_name_H-M "P B C M"
_symmetry_group_IT_number 57
_symmetry_cell_setting 'orthorhombic'
loop_
_space_group_symop_operation_xyz
x,y,z
-x,-y,1/2+z
x,1/2-y,-z
-x,1/2+y,1/2-z
-x,-y,-z
x,y,1/2-z
-x,1/2+y,z
x,1/2-y,1/2+z
loop_
_atom_site_type_symbol
_atom_site_label
_atom_site_fract_x
_atom_site_fract_y
_atom_site_fract_z
Si Si1 0.457725 0.331819 0.041880
Si Si2 0.081108 0.069998 0.451391
Si Si3 0.968803 0.330723 0.544330
Si Si4 0.397688 0.831554 0.458360
Si Si5 0.801412 0.831122 0.043375
Si Si6 0.858145 0.071817 0.956509
Si Si7 0.711953 0.063725 0.543335
Si Si8 0.671050 0.905914 0.040999
O O1 0.458936 0.338376 0.250000
O O2 0.529878 0.350101 0.977021
O O3 0.398166 0.378323 0.976113
O O4 0.445892 0.250000 0.000000
O O5 0.064934 0.057696 0.250000
O O6 0.144418 0.118990 0.462103
O O7 0.022261 0.114952 0.529712
O O8 0.100880 0.994598 0.528419
O O9 0.982140 0.250000 0.500000
O O10 0.971680 0.335158 0.750000
O O11 0.898658 0.357891 0.487121
O O12 0.385883 0.750000 0.500000
O O13 0.399287 0.838259 0.250000
O O14 0.340907 0.881412 0.526157
O O15 0.805323 0.840140 0.250000
O O16 0.730261 0.855947 0.984370
O O17 0.812674 0.750000 0.000000
O O18 0.853073 0.060690 0.750000
O O19 0.784987 0.072437 0.025882
O O20 0.715403 0.074996 0.750000
O O21 0.687707 0.984841 0.512135
O O22 0.669583 0.903478 0.250000
#
# Coordination Sequence:
#
# PCOD9438363 Si02
#       8
#     8   8   8   8   8   8   8   8
#     4   9  18  34  54  78 111 147 188 233 277 329
#     4  10  21  39  61  85 113 148 185 227 278 333
#     4  11  24  40  60  86 114 146 187 232 280 334
#     4   9  19  36  57  81 108 144 187 232 282 330
#     4  11  22  34  53  81 113 149 189 228 273 326
#     4  10  21  39  61  84 114 149 186 231 282 335
#     4  10  21  37  58  83 113 147 184 228 278 334
#     4  10  21  35  52  79 113 148 186 230 275 327
#
# _framework density 21.077562
#
# number of rings (size 3 to 8) (size 9 to 14) (size 15 to 20)
#    0.000    2.000    1.250    1.875    0.000    5.500 
#    0.000    1.250    0.000    0.000    0.000    0.000 
#    0.000    0.000    0.000    0.000    0.000    0.000 
#
# Total GULP energy -357512.497354 kJ/mol
# GULP energy per Si atom -5586.132771 kJ/mol
# Density = 2.102959 g / cm^3
# Si number density = 21.077562 Si / 1000 Ang^3
#
#
#
# Elastic Constant Matrix: (Units=GPa)
#
#
# Indices 1 2 3 4 5 6 
#
# 1 141.2834 44.3411 10.5427 0.0000 0.0000 0.0000
# 2 44.3411 36.0997 -7.4547 0.0000 0.0000 0.0000
# 3 10.5427 -7.4547 28.6220 0.0000 0.0000 0.0000
# 4 0.0000 0.0000 0.0000 21.4711 0.0000 0.0000
# 5 0.0000 0.0000 0.0000 0.0000 91.4748 0.0000
# 6 0.0000 0.0000 0.0000 0.0000 0.0000 37.0812
#
#
#
# Elastic Compliance Matrix: (Units=1/GPa)
#
#
# Indices 1 2 3 4 5 6 
#
# 1 0.013795 -0.019016 -0.010034 0.000000 0.000000 0.000000
# 2 -0.019016 0.055490 0.021457 0.000000 0.000000 0.000000
# 3 -0.010034 0.021457 0.044223 0.000000 0.000000 0.000000
# 4 0.000000 0.000000 0.000000 0.046574 0.000000 0.000000
# 5 0.000000 0.000000 0.000000 0.000000 0.010932 0.000000
# 6 0.000000 0.000000 0.000000 0.000000 0.000000 0.026968
#
#
# Mechanical properties :
#
#
# Convention : Reuss Voigt Hill
#
# Bulk Modulus (GPa) = 10.17080 33.42924 21.80002
# Shear Modulus (GPa) = 20.33002 40.57716 30.45359
#
# Velocity S-wave (km/s) = 3.10906 4.39240 3.80522
# Velocity P-wave (km/s) = 4.21002 6.45126 5.44715
#
# Compressibility (1/GPa) = 0.09832067
#
# Stress axis : x y z
#
# Youngs Moduli (GPa) = 72.49054 18.02134 22.61280
#
# Poissons Ratio (x) = 0.34270 0.22690
# Poissons Ratio (y) = 1.37850 -0.48521
# Poissons Ratio (z) = 0.72738 -0.38669
#
# Static dielectric constant tensor:
#      x y z
#    x 1.781280 0.000000 0.000000 
#    y 0.000000 1.711480 0.000000 
#    z 0.000000 0.000000 1.768020 
# 
# From -- ./inp_files/8420.got.cif
#   From: 2010.05.17/outbox.cif.g08.bks.cpg/sg57_5_cif.got.tgz:8420.got - 2010.06.03 13:58:18.
