data_PCOD9438119
_publ_section_title
;
Structure prediction by ZEFSAII (Michael W. Deem and Ramdas Pophale) SiO2 
 PCOD9438119
Probable space group: P B C M
;
_chemical_formula_sum "Si O2"
_cell_formula_units_Z 64
_cell_length_a 8.177598
_cell_length_b 18.295866
_cell_length_c 21.464011
_cell_angle_alpha 90.000000
_cell_angle_beta 90.000000
_cell_angle_gamma 90.000000
_cell_volume 3211.364561
_symmetry_space_group_name_H-M "P B C M"
_symmetry_group_IT_number 57
_symmetry_cell_setting 'orthorhombic'
loop_
_space_group_symop_operation_xyz
x,y,z
-x,-y,1/2+z
x,1/2-y,-z
-x,1/2+y,1/2-z
-x,-y,-z
x,y,1/2-z
-x,1/2+y,z
x,1/2-y,1/2+z
loop_
_atom_site_type_symbol
_atom_site_label
_atom_site_fract_x
_atom_site_fract_y
_atom_site_fract_z
Si Si1 0.521774 0.076070 0.179060
Si Si2 0.781060 0.811851 0.678691
Si Si3 0.809602 0.795636 0.060999
Si Si4 0.854888 0.338689 0.820961
Si Si5 0.344539 0.508812 0.577933
Si Si6 0.756914 0.187560 0.448755
Si Si7 0.952897 0.075906 0.532828
Si Si8 0.550883 0.880885 0.505808
O O1 0.511432 0.051319 0.250000
O O2 0.383727 0.140242 0.172895
O O3 0.710329 0.101614 0.169736
O O4 0.460053 0.012355 0.134449
O O5 0.779811 0.781344 0.750000
O O6 0.796487 0.752892 0.622994
O O7 0.952234 0.858120 0.674729
O O8 0.632215 0.823492 0.039606
O O9 0.916655 0.869390 0.063277
O O10 0.869293 0.750000 0.000000
O O11 0.829824 0.310362 0.750000
O O12 0.820555 0.288129 0.881235
O O13 0.175280 0.550229 0.585880
O O14 0.444722 0.562746 0.533572
O O15 0.319582 0.430903 0.542548
O O16 0.758231 0.250000 0.500000
O O17 0.866059 0.122714 0.477767
O O18 0.571962 0.157741 0.446757
O O19 0.000000 0.000000 0.500000
#
# Coordination Sequence:
#
# PCOD9438119 Si02
#       8
#     8   8   8   8   8   8   8   8
#     4  10  21  39  64  90 122 167 211 255 312 381
#     4  10  23  41  62  93 129 162 211 267 316 376
#     4  12  23  39  63  94 122 167 212 263 322 383
#     4  10  21  37  60  90 123 161 207 262 312 368
#     4  10  20  39  55  84 124 157 201 256 309 375
#     4  11  22  37  60  92 124 159 210 263 314 379
#     4  11  23  36  57  88 125 161 199 258 319 375
#     4  10  21  35  59  86 122 159 197 259 317 366
#
# _framework density 19.929224000000001
#
# number of rings (size 3 to 8) (size 9 to 14) (size 15 to 20)
#    0.000    1.500    2.500    3.000    3.500    0.000 
#    0.000    1.250    0.000    3.750    0.000    0.000 
#    0.000    0.000    0.000    0.000    0.000    0.000 
#
# Total GULP energy -356573.624674 kJ/mol
# GULP energy per Si atom -5571.462886 kJ/mol
# Density = 1.988386 g / cm^3
# Si number density = 19.929224 Si / 1000 Ang^3
#
#
#
# Elastic Constant Matrix: (Units=GPa)
#
#
# Indices 1 2 3 4 5 6 
#
# 1 70.7033 13.5165 -0.9303 0.0000 0.0000 0.0000
# 2 13.5165 67.5642 14.1021 0.0000 0.0000 0.0000
# 3 -0.9303 14.1021 96.1652 0.0000 0.0000 0.0000
# 4 0.0000 0.0000 0.0000 19.7102 0.0000 0.0000
# 5 0.0000 0.0000 0.0000 0.0000 24.0546 0.0000
# 6 0.0000 0.0000 0.0000 0.0000 0.0000 21.3712
#
#
#
# Elastic Compliance Matrix: (Units=1/GPa)
#
#
# Indices 1 2 3 4 5 6 
#
# 1 0.014739 -0.003072 0.000593 0.000000 0.000000 0.000000
# 2 -0.003072 0.015908 -0.002363 0.000000 0.000000 0.000000
# 3 0.000593 -0.002363 0.010751 0.000000 0.000000 0.000000
# 4 0.000000 0.000000 0.000000 0.050735 0.000000 0.000000
# 5 0.000000 0.000000 0.000000 0.000000 0.041572 0.000000
# 6 0.000000 0.000000 0.000000 0.000000 0.000000 0.046792
#
#
# Mechanical properties :
#
#
# Convention : Reuss Voigt Hill
#
# Bulk Modulus (GPa) = 31.53125 31.97880 31.75503
# Shear Modulus (GPa) = 24.90629 26.87684 25.89156
#
# Velocity S-wave (km/s) = 3.53900 3.67633 3.60832
# Velocity P-wave (km/s) = 5.70572 5.83966 5.77308
#
# Compressibility (1/GPa) = 0.03171457
#
# Stress axis : x y z
#
# Youngs Moduli (GPa) = 67.84831 62.85952 93.01482
#
# Poissons Ratio (x) = 0.19313 -0.05517
# Poissons Ratio (y) = 0.20845 0.21976
# Poissons Ratio (z) = -0.04024 0.14851
#
# Static dielectric constant tensor:
#      x y z
#    x 1.792050 0.000000 0.000000 
#    y 0.000000 1.699910 0.000000 
#    z 0.000000 0.000000 1.738040 
# 
# From -- ./inp_files/24602.got.cif
#   From: 2010.05.17/outbox.cif.g08.bks.cpg/sg57_13_cif.got.tgz:24602.got - 2010.06.03 13:58:18.
