data_PCOD9438431
_publ_section_title
;
Structure prediction by ZEFSAII (Michael W. Deem and Ramdas Pophale) SiO2 
 PCOD9438431
Probable space group: P B C M
;
_chemical_formula_sum "Si O2"
_cell_formula_units_Z 48
_cell_length_a 16.335470
_cell_length_b 5.207900
_cell_length_c 31.655442
_cell_angle_alpha 90.000000
_cell_angle_beta 90.000000
_cell_angle_gamma 90.000000
_cell_volume 2693.039062
_symmetry_space_group_name_H-M "P B C M"
_symmetry_group_IT_number 57
_symmetry_cell_setting 'orthorhombic'
loop_
_space_group_symop_operation_xyz
x,y,z
-x,-y,1/2+z
x,1/2-y,-z
-x,1/2+y,1/2-z
-x,-y,-z
x,y,1/2-z
-x,1/2+y,z
x,1/2-y,1/2+z
loop_
_atom_site_type_symbol
_atom_site_label
_atom_site_fract_x
_atom_site_fract_y
_atom_site_fract_z
Si Si1 0.445291 0.198187 0.700552
Si Si2 0.942832 0.238545 0.549295
Si Si3 0.805342 0.276061 0.621331
Si Si4 0.275274 0.290894 0.841724
Si Si5 0.032648 0.861471 0.659893
Si Si6 0.811665 0.652828 0.250000
Si Si7 0.924234 0.348477 0.750000
O O1 0.417806 0.212327 0.750000
O O2 0.511642 0.423702 0.694768
O O3 0.370025 0.240428 0.669063
O O4 0.918631 0.250000 0.500000
O O5 0.861936 0.267224 0.578841
O O6 0.007627 0.471899 0.556085
O O7 0.763154 0.544830 0.633963
O O8 0.878304 0.244445 0.655125
O O9 0.744432 0.040192 0.629613
O O10 0.237069 0.336533 0.794710
O O11 0.019560 0.877100 0.709206
O O12 0.972319 0.647004 0.641808
O O13 0.866979 0.399753 0.250000
O O14 0.863755 0.911249 0.250000
#
# Coordination Sequence:
#
# PCOD9438431 Si02
#       7
#     8   8   8   8   8   4   4
#     4  10  21  36  56  80 107 146 191 229 269 321
#     4  10  21  40  63  84 111 145 184 234 290 341
#     4  12  23  36  55  80 106 140 181 226 282 332
#     4  12  22  37  56  77 112 143 183 228 270 328
#     4  12  22  33  45  63  94 133 177 225 252 293
#     4  12  20  37  48  71 100 144 180 222 272 309
#     4  12  22  35  46  61  96 136 194 224 258 303
#
# _framework density 17.823730000000001
#
# number of rings (size 3 to 8) (size 9 to 14) (size 15 to 20)
#    0.000    0.667    4.167    5.500    0.000    0.000 
#    0.000    0.000    0.000    0.000    0.000    0.000 
#    0.000   13.333    0.000    0.000    0.000    0.000 
#
# Total GULP energy -267777.722862 kJ/mol
# GULP energy per Si atom -5578.702560 kJ/mol
# Density = 1.778316 g / cm^3
# Si number density = 17.823730 Si / 1000 Ang^3
#
#
#
# Elastic Constant Matrix: (Units=GPa)
#
#
# Indices 1 2 3 4 5 6 
#
# 1 52.6451 2.1492 22.7921 0.0000 0.0000 0.0000
# 2 2.1492 99.9196 23.4217 0.0000 0.0000 0.0000
# 3 22.7921 23.4217 112.5684 0.0000 0.0000 0.0000
# 4 0.0000 0.0000 0.0000 17.3928 0.0000 0.0000
# 5 0.0000 0.0000 0.0000 0.0000 27.0424 0.0000
# 6 0.0000 0.0000 0.0000 0.0000 0.0000 17.2202
#
#
#
# Elastic Compliance Matrix: (Units=1/GPa)
#
#
# Indices 1 2 3 4 5 6 
#
# 1 0.020851 0.000569 -0.004340 0.000000 0.000000 0.000000
# 2 0.000569 0.010537 -0.002308 0.000000 0.000000 0.000000
# 3 -0.004340 -0.002308 0.010242 0.000000 0.000000 0.000000
# 4 0.000000 0.000000 0.000000 0.057495 0.000000 0.000000
# 5 0.000000 0.000000 0.000000 0.000000 0.036979 0.000000
# 6 0.000000 0.000000 0.000000 0.000000 0.000000 0.058071
#
#
# Mechanical properties :
#
#
# Convention : Reuss Voigt Hill
#
# Bulk Modulus (GPa) = 33.93001 40.20657 37.06829
# Shear Modulus (GPa) = 23.13131 26.78240 24.95686
#
# Velocity S-wave (km/s) = 3.60638 3.88058 3.74599
# Velocity P-wave (km/s) = 6.03482 6.53340 6.28906
#
# Compressibility (1/GPa) = 0.02947244
#
# Stress axis : x y z
#
# Youngs Moduli (GPa) = 47.95954 94.90636 97.63373
#
# Poissons Ratio (x) = -0.05399 0.42374
# Poissons Ratio (y) = -0.02728 0.22529
# Poissons Ratio (z) = 0.20815 0.21900
#
# Static dielectric constant tensor:
#      x y z
#    x 1.593600 0.000000 0.000000 
#    y 0.000000 1.682190 0.000000 
#    z 0.000000 0.000000 1.742090 
# 
# From -- ./inp_files/29841.got.cif
#   From: 2010.05.17/outbox.cif.g08.bks.cpg/sg57_15_cif.got.tgz:29841.got - 2010.06.03 13:58:18.
