data_PCOD9438625
_publ_section_title
;
Structure prediction by ZEFSAII (Michael W. Deem and Ramdas Pophale) SiO2 
 PCOD9438625
Probable space group: P B C M
;
_chemical_formula_sum "Si O2"
_cell_formula_units_Z 64
_cell_length_a 19.395194
_cell_length_b 11.903108
_cell_length_c 14.027055
_cell_angle_alpha 90.000000
_cell_angle_beta 90.000000
_cell_angle_gamma 90.000000
_cell_volume 3238.329245
_symmetry_space_group_name_H-M "P B C M"
_symmetry_group_IT_number 57
_symmetry_cell_setting 'orthorhombic'
loop_
_space_group_symop_operation_xyz
x,y,z
-x,-y,1/2+z
x,1/2-y,-z
-x,1/2+y,1/2-z
-x,-y,-z
x,y,1/2-z
-x,1/2+y,z
x,1/2-y,1/2+z
loop_
_atom_site_type_symbol
_atom_site_label
_atom_site_fract_x
_atom_site_fract_y
_atom_site_fract_z
Si Si1 0.379573 0.411274 0.042589
Si Si2 0.035936 0.951083 0.861658
Si Si3 0.760785 0.973276 0.999659
Si Si4 0.174728 0.842593 0.637645
Si Si5 0.443350 0.198708 0.359958
Si Si6 0.603850 0.346760 0.862215
Si Si7 0.281774 0.660694 0.637130
Si Si8 0.090994 0.380864 0.519251
O O1 0.415195 0.321832 0.112747
O O2 0.389462 0.538601 0.078419
O O3 0.297344 0.391064 0.039990
O O4 0.411559 0.385260 0.938612
O O5 0.036759 0.977533 0.750000
O O6 0.093300 0.853974 0.880020
O O7 0.960966 0.915538 0.896948
O O8 0.062922 0.053402 0.926095
O O9 0.721299 0.046332 0.920298
O O10 0.830345 0.916774 0.962467
O O11 0.785846 0.061054 0.080028
O O12 0.186305 0.861583 0.750000
O O13 0.209653 0.724246 0.615002
O O14 0.427214 0.170168 0.250000
O O15 0.525955 0.196929 0.371147
O O16 0.616866 0.372432 0.750000
O O17 0.658115 0.249171 0.888900
O O18 0.286927 0.640988 0.750000
O O19 0.087481 0.250000 0.500000
#
# Coordination Sequence:
#
# PCOD9438625 Si02
#       8
#     8   8   8   8   8   8   8   8
#     4  11  23  39  65  88 119 168 213 253 316 380
#     4   9  20  40  64  92 122 159 207 254 301 363
#     4  11  23  37  60  85 125 162 204 253 302 368
#     4   9  18  35  60  90 119 156 202 248 302 357
#     4  10  24  42  60  89 125 162 208 265 319 373
#     4  10  21  40  65  92 124 161 207 258 314 378
#     4  10  21  37  60  92 123 157 203 258 316 364
#     4  10  23  40  62  90 127 167 206 248 311 368
#
# _framework density 19.763276999999999
#
# number of rings (size 3 to 8) (size 9 to 14) (size 15 to 20)
#    0.000    2.000    1.250    1.125    1.750    8.000 
#    0.000    3.750    0.000    0.000    0.000    0.000 
#    0.000    0.000    0.000    0.000    0.000    0.000 
#
# Total GULP energy -357472.666835 kJ/mol
# GULP energy per Si atom -5585.510419 kJ/mol
# Density = 1.971830 g / cm^3
# Si number density = 19.763277 Si / 1000 Ang^3
#
#
#
# Elastic Constant Matrix: (Units=GPa)
#
#
# Indices 1 2 3 4 5 6 
#
# 1 128.6030 38.2992 33.1734 0.0000 0.0000 0.0000
# 2 38.2992 78.4366 21.6179 0.0000 0.0000 0.0000
# 3 33.1734 21.6179 88.7101 0.0000 0.0000 0.0000
# 4 0.0000 0.0000 0.0000 19.0507 0.0000 0.0000
# 5 0.0000 0.0000 0.0000 0.0000 12.3663 0.0000
# 6 0.0000 0.0000 0.0000 0.0000 0.0000 23.3140
#
#
#
# Elastic Compliance Matrix: (Units=1/GPa)
#
#
# Indices 1 2 3 4 5 6 
#
# 1 0.009641 -0.003981 -0.002635 0.000000 0.000000 0.000000
# 2 -0.003981 0.015311 -0.002242 0.000000 0.000000 0.000000
# 3 -0.002635 -0.002242 0.012805 0.000000 0.000000 0.000000
# 4 0.000000 0.000000 0.000000 0.052491 0.000000 0.000000
# 5 0.000000 0.000000 0.000000 0.000000 0.080865 0.000000
# 6 0.000000 0.000000 0.000000 0.000000 0.000000 0.042893
#
#
# Mechanical properties :
#
#
# Convention : Reuss Voigt Hill
#
# Bulk Modulus (GPa) = 49.90213 53.54785 51.72499
# Shear Modulus (GPa) = 20.97281 24.45681 22.71481
#
# Velocity S-wave (km/s) = 3.26114 3.52161 3.39388
# Velocity P-wave (km/s) = 6.28369 6.60977 6.44879
#
# Compressibility (1/GPa) = 0.02003922
#
# Stress axis : x y z
#
# Youngs Moduli (GPa) = 103.72035 65.31157 78.09731
#
# Poissons Ratio (x) = 0.26003 0.20580
# Poissons Ratio (y) = 0.41295 0.17512
# Poissons Ratio (z) = 0.27332 0.14645
#
# Static dielectric constant tensor:
#      x y z
#    x 1.713850 0.000000 0.000000 
#    y 0.000000 1.671590 0.000000 
#    z 0.000000 0.000000 1.698300 
# 
# From -- ./inp_files/19097.got.cif
#   From: 2010.05.17/outbox.cif.g08.bks.cpg/sg57_10_cif.got.tgz:19097.got - 2010.06.03 13:58:18.
