data_PCOD9438182
_publ_section_title
;
Structure prediction by ZEFSAII (Michael W. Deem and Ramdas Pophale) SiO2 
 PCOD9438182
Probable space group: P B C M
;
_chemical_formula_sum "Si O2"
_cell_formula_units_Z 60
_cell_length_a 5.283892
_cell_length_b 24.101326
_cell_length_c 18.438333
_cell_angle_alpha 90.000000
_cell_angle_beta 90.000000
_cell_angle_gamma 90.000000
_cell_volume 2348.099649
_symmetry_space_group_name_H-M "P B C M"
_symmetry_group_IT_number 57
_symmetry_cell_setting 'orthorhombic'
loop_
_space_group_symop_operation_xyz
x,y,z
-x,-y,1/2+z
x,1/2-y,-z
-x,1/2+y,1/2-z
-x,-y,-z
x,y,1/2-z
-x,1/2+y,z
x,1/2-y,1/2+z
loop_
_atom_site_type_symbol
_atom_site_label
_atom_site_fract_x
_atom_site_fract_y
_atom_site_fract_z
Si Si1 0.362133 0.920963 0.829772
Si Si2 0.014457 0.386616 0.553429
Si Si3 0.253359 0.701361 0.541581
Si Si4 0.098642 0.277588 0.630390
Si Si5 0.605818 0.678142 0.830827
Si Si6 0.303480 0.812901 0.750000
Si Si7 0.823237 0.576875 0.599291
Si Si8 0.317801 0.979126 0.336555
O O1 0.262926 0.942609 0.750000
O O2 0.149694 0.923527 0.891392
O O3 0.412158 0.857161 0.811536
O O4 0.611882 0.955860 0.846549
O O5 0.809738 0.348724 0.510692
O O6 0.157035 0.337435 0.596638
O O7 0.166346 0.415350 0.487889
O O8 0.408505 0.750000 0.500000
O O9 0.011817 0.735559 0.570536
O O10 0.392851 0.675456 0.609408
O O11 0.872906 0.284124 0.687364
O O12 0.317498 0.243090 0.669741
O O13 0.529123 0.662525 0.750000
O O14 0.821170 0.636484 0.859582
O O15 0.067472 0.542893 0.625080
O O16 0.565339 0.549458 0.628231
O O17 0.302310 0.968581 0.250000
#
# Coordination Sequence:
#
# PCOD9438182 Si02
#       8
#     8   8   8   8   8   4   8   8
#     4   8  19  41  75  97 131 174 233 298 360 413
#     4  10  21  42  66 101 134 183 227 288 353 428
#     4  10  23  39  62  94 139 187 224 283 350 417
#     4  10  20  39  66  89 136 173 228 271 345 410
#     4  12  25  39  62  99 137 185 232 287 340 424
#     4   8  16  38  70  94 122 168 222 290 328 422
#     4  12  26  42  72 104 142 189 236 288 356 425
#     4  11  24  48  73 101 139 185 239 299 355 419
#
# _framework density 25.552575999999998
#
# number of rings (size 3 to 8) (size 9 to 14) (size 15 to 20)
#    0.400    1.333    2.000    2.000    2.800    1.067 
#    0.000    1.333   11.733    0.000    0.000    0.000 
#    0.000    0.000    0.000    0.000    0.000    0.000 
#
# Total GULP energy -334708.168424 kJ/mol
# GULP energy per Si atom -5578.469474 kJ/mol
# Density = 2.549442 g / cm^3
# Si number density = 25.552576 Si / 1000 Ang^3
#
#
#
# Elastic Constant Matrix: (Units=GPa)
#
#
# Indices 1 2 3 4 5 6 
#
# 1 105.5849 28.9932 44.8251 0.0000 0.0000 0.0000
# 2 28.9932 74.5628 7.9126 0.0000 0.0000 0.0000
# 3 44.8251 7.9126 166.3683 0.0000 0.0000 0.0000
# 4 0.0000 0.0000 0.0000 24.2436 0.0000 0.0000
# 5 0.0000 0.0000 0.0000 0.0000 58.5542 0.0000
# 6 0.0000 0.0000 0.0000 0.0000 0.0000 28.4691
#
#
#
# Elastic Compliance Matrix: (Units=1/GPa)
#
#
# Indices 1 2 3 4 5 6 
#
# 1 0.011936 -0.004322 -0.003010 0.000000 0.000000 0.000000
# 2 -0.004322 0.015044 0.000449 0.000000 0.000000 0.000000
# 3 -0.003010 0.000449 0.006800 0.000000 0.000000 0.000000
# 4 0.000000 0.000000 0.000000 0.041248 0.000000 0.000000
# 5 0.000000 0.000000 0.000000 0.000000 0.017078 0.000000
# 6 0.000000 0.000000 0.000000 0.000000 0.000000 0.035126
#
#
# Mechanical properties :
#
#
# Convention : Reuss Voigt Hill
#
# Bulk Modulus (GPa) = 49.96425 56.66422 53.31424
# Shear Modulus (GPa) = 33.85919 39.90572 36.88246
#
# Velocity S-wave (km/s) = 3.64411 3.95614 3.80333
# Velocity P-wave (km/s) = 6.10754 6.56443 6.34010
#
# Compressibility (1/GPa) = 0.02001431
#
# Stress axis : x y z
#
# Youngs Moduli (GPa) = 83.78160 66.47014 147.04805
#
# Poissons Ratio (x) = 0.28726 0.44267
# Poissons Ratio (y) = 0.36208 -0.06601
# Poissons Ratio (z) = 0.25221 -0.02984
#
# Static dielectric constant tensor:
#      x y z
#    x 2.023240 0.000000 0.000000 
#    y 0.000000 2.095050 0.000000 
#    z 0.000000 0.000000 1.993840 
# 
# From -- ./inp_files/20267.got.cif
#   From: 2010.05.17/outbox.cif.g08.bks.cpg/sg57_11_cif.got.tgz:20267.got - 2010.06.03 13:58:18.
