data_PCOD9438987
_publ_section_title
;
Structure prediction by ZEFSAII (Michael W. Deem and Ramdas Pophale) SiO2 
 PCOD9438987
Probable space group: P B C M
;
_chemical_formula_sum "Si O2"
_cell_formula_units_Z 48
_cell_length_a 7.094553
_cell_length_b 16.237637
_cell_length_c 16.806705
_cell_angle_alpha 90.000000
_cell_angle_beta 90.000000
_cell_angle_gamma 90.000000
_cell_volume 1936.111849
_symmetry_space_group_name_H-M "P B C M"
_symmetry_group_IT_number 57
_symmetry_cell_setting 'orthorhombic'
loop_
_space_group_symop_operation_xyz
x,y,z
-x,-y,1/2+z
x,1/2-y,-z
-x,1/2+y,1/2-z
-x,-y,-z
x,y,1/2-z
-x,1/2+y,z
x,1/2-y,1/2+z
loop_
_atom_site_type_symbol
_atom_site_label
_atom_site_fract_x
_atom_site_fract_y
_atom_site_fract_z
Si Si1 0.486456 0.096340 0.562297
Si Si2 0.951449 0.868289 0.663103
Si Si3 0.923691 0.409206 0.009656
Si Si4 0.571516 0.573385 0.113596
Si Si5 0.003802 0.310816 0.162387
Si Si6 0.433870 0.751013 0.160576
O O1 0.705813 0.092558 0.535095
O O2 0.379475 0.088202 0.479377
O O3 0.464122 0.183624 0.603632
O O4 0.463612 0.014073 0.615859
O O5 0.046213 0.880755 0.750000
O O6 0.770667 0.927871 0.658346
O O7 0.058141 0.874061 0.579363
O O8 0.879867 0.773895 0.662382
O O9 0.029008 0.364266 0.083271
O O10 0.000000 0.500000 0.000000
O O11 0.462831 0.655232 0.140552
O O12 0.027273 0.351335 0.250000
O O13 0.787166 0.277034 0.158404
O O14 0.497253 0.765793 0.250000
#
# Coordination Sequence:
#
# PCOD9438987 Si02
#       6
#     8   8   8   8   8   8
#     4  10  23  41  62  92 127 171 218 260 320 390
#     4  11  23  39  63  94 126 165 215 270 327 379
#     4  11  21  40  63  95 126 168 212 264 324 384
#     4  11  22  40  62  91 128 166 212 267 319 383
#     4   9  21  40  63  91 127 169 216 262 315 386
#     4  10  21  39  64  91 124 171 215 258 319 384
#
# _framework density 24.791955999999999
#
# number of rings (size 3 to 8) (size 9 to 14) (size 15 to 20)
#    0.000    1.667    1.667    2.500    0.000    7.333 
#    0.000    0.833    0.000    1.000    0.000    0.000 
#    0.000    0.000    0.000    0.000    0.000    0.000 
#
# Total GULP energy -268402.633480 kJ/mol
# GULP energy per Si atom -5591.721531 kJ/mol
# Density = 2.473553 g / cm^3
# Si number density = 24.791956 Si / 1000 Ang^3
#
#
#
# Elastic Constant Matrix: (Units=GPa)
#
#
# Indices 1 2 3 4 5 6 
#
# 1 49.8978 4.9692 19.2461 0.0000 0.0000 0.0000
# 2 4.9692 71.1184 60.1736 0.0000 0.0000 0.0000
# 3 19.2461 60.1736 177.0556 0.0000 0.0000 0.0000
# 4 0.0000 0.0000 0.0000 15.5767 0.0000 0.0000
# 5 0.0000 0.0000 0.0000 0.0000 37.4590 0.0000
# 6 0.0000 0.0000 0.0000 0.0000 0.0000 38.5932
#
#
#
# Elastic Compliance Matrix: (Units=1/GPa)
#
#
# Indices 1 2 3 4 5 6 
#
# 1 0.020939 0.000650 -0.002497 0.000000 0.000000 0.000000
# 2 0.000650 0.019756 -0.006785 0.000000 0.000000 0.000000
# 3 -0.002497 -0.006785 0.008225 0.000000 0.000000 0.000000
# 4 0.000000 0.000000 0.000000 0.064199 0.000000 0.000000
# 5 0.000000 0.000000 0.000000 0.000000 0.026696 0.000000
# 6 0.000000 0.000000 0.000000 0.000000 0.000000 0.025911
#
#
# Mechanical properties :
#
#
# Convention : Reuss Voigt Hill
#
# Bulk Modulus (GPa) = 31.58916 51.87220 41.73068
# Shear Modulus (GPa) = 25.83397 32.57130 29.20264
#
# Velocity S-wave (km/s) = 3.23155 3.62855 3.43579
# Velocity P-wave (km/s) = 5.16655 6.20674 5.71038
#
# Compressibility (1/GPa) = 0.03165643
#
# Stress axis : x y z
#
# Youngs Moduli (GPa) = 47.75702 50.61629 121.57637
#
# Poissons Ratio (x) = -0.03288 0.30356
# Poissons Ratio (y) = -0.03102 0.82489
# Poissons Ratio (z) = 0.11924 0.34343
#
# Static dielectric constant tensor:
#      x y z
#    x 2.152720 0.000000 0.000000 
#    y 0.000000 1.977340 0.000000 
#    z 0.000000 0.000000 1.975510 
# 
# From -- ./inp_files/16346.got.cif
#   From: 2010.05.17/outbox.cif.g08.bks.cpg/sg57_9_cif.got.tgz:16346.got - 2010.06.03 13:58:18.
