data_PCOD9438884
_publ_section_title
;
Structure prediction by ZEFSAII (Michael W. Deem and Ramdas Pophale) SiO2 
 PCOD9438884
Probable space group: P B C M
;
_chemical_formula_sum "Si O2"
_cell_formula_units_Z 48
_cell_length_a 14.950499
_cell_length_b 8.169479
_cell_length_c 17.647471
_cell_angle_alpha 90.000000
_cell_angle_beta 90.000000
_cell_angle_gamma 90.000000
_cell_volume 2155.423065
_symmetry_space_group_name_H-M "P B C M"
_symmetry_group_IT_number 57
_symmetry_cell_setting 'orthorhombic'
loop_
_space_group_symop_operation_xyz
x,y,z
-x,-y,1/2+z
x,1/2-y,-z
-x,1/2+y,1/2-z
-x,-y,-z
x,y,1/2-z
-x,1/2+y,z
x,1/2-y,1/2+z
loop_
_atom_site_type_symbol
_atom_site_label
_atom_site_fract_x
_atom_site_fract_y
_atom_site_fract_z
Si Si1 0.786136 0.320485 0.161207
Si Si2 0.617234 0.204758 0.087739
Si Si3 0.527727 0.518335 0.340467
Si Si4 0.952748 0.322130 0.585472
Si Si5 0.867597 0.817758 0.416598
Si Si6 0.706575 0.681756 0.160657
O O1 0.772236 0.287204 0.250000
O O2 0.720448 0.208453 0.110986
O O3 0.886190 0.283535 0.136478
O O4 0.756439 0.507444 0.146919
O O5 0.561937 0.046482 0.112278
O O6 0.571941 0.345531 0.139522
O O7 0.607338 0.250000 0.000000
O O8 0.512616 0.529723 0.250000
O O9 0.604597 0.649845 0.364579
O O10 0.951783 0.250000 0.500000
O O11 0.914383 0.505286 0.582812
O O12 0.054284 0.302677 0.614426
O O13 0.847906 0.750000 0.500000
O O14 0.773328 0.813024 0.374270
O O15 0.701185 0.709611 0.250000
#
# Coordination Sequence:
#
# PCOD9438884 Si02
#       6
#     8   8   8   8   8   8
#     4  10  21  39  60  83 114 155 195 240 296 353
#     4  11  22  37  60  89 119 154 198 249 296 350
#     4  10  21  39  60  85 120 160 197 242 299 358
#     4  11  22  38  59  85 116 150 193 241 290 350
#     4  11  22  37  60  85 115 152 190 237 293 348
#     4   9  20  38  58  81 115 153 192 235 286 347
#
# _framework density 22.269409
#
# number of rings (size 3 to 8) (size 9 to 14) (size 15 to 20)
#    0.000    1.667    0.000    7.500    0.000    4.667 
#    0.000    1.667    0.000    0.000    0.000    0.000 
#    0.000    0.000    0.000    0.000    0.000    0.000 
#
# Total GULP energy -268345.695187 kJ/mol
# GULP energy per Si atom -5590.535316 kJ/mol
# Density = 2.221872 g / cm^3
# Si number density = 22.269409 Si / 1000 Ang^3
#
#
#
# Elastic Constant Matrix: (Units=GPa)
#
#
# Indices 1 2 3 4 5 6 
#
# 1 73.4661 -14.9062 14.0796 0.0000 0.0000 0.0000
# 2 -14.9062 52.6716 2.5710 0.0000 0.0000 0.0000
# 3 14.0796 2.5710 49.3736 0.0000 0.0000 0.0000
# 4 0.0000 0.0000 0.0000 21.5999 0.0000 0.0000
# 5 0.0000 0.0000 0.0000 0.0000 29.8150 0.0000
# 6 0.0000 0.0000 0.0000 0.0000 0.0000 32.9196
#
#
#
# Elastic Compliance Matrix: (Units=1/GPa)
#
#
# Indices 1 2 3 4 5 6 
#
# 1 0.015433 0.004594 -0.004640 0.000000 0.000000 0.000000
# 2 0.004594 0.020402 -0.002372 0.000000 0.000000 0.000000
# 3 -0.004640 -0.002372 0.021701 0.000000 0.000000 0.000000
# 4 0.000000 0.000000 0.000000 0.046297 0.000000 0.000000
# 5 0.000000 0.000000 0.000000 0.000000 0.033540 0.000000
# 6 0.000000 0.000000 0.000000 0.000000 0.000000 0.030377
#
#
# Mechanical properties :
#
#
# Convention : Reuss Voigt Hill
#
# Bulk Modulus (GPa) = 18.97602 19.88892 19.43247
# Shear Modulus (GPa) = 26.29474 28.45134 27.37304
#
# Velocity S-wave (km/s) = 3.43994 3.57823 3.50977
# Velocity P-wave (km/s) = 4.93125 5.10118 5.01693
#
# Compressibility (1/GPa) = 0.05269808
#
# Stress axis : x y z
#
# Youngs Moduli (GPa) = 64.79560 49.01594 46.08189
#
# Poissons Ratio (x) = -0.22518 0.21383
# Poissons Ratio (y) = -0.29768 0.10933
# Poissons Ratio (z) = 0.30067 0.11629
#
# Static dielectric constant tensor:
#      x y z
#    x 1.829390 0.000000 0.000000 
#    y 0.000000 1.894870 0.000000 
#    z 0.000000 0.000000 1.769110 
# 
# From -- ./inp_files/22472.got.cif
#   From: 2010.05.17/outbox.cif.g08.bks.cpg/sg57_12_cif.got.tgz:22472.got - 2010.06.03 13:58:18.
