data_PCOD9438590
_publ_section_title
;
Structure prediction by ZEFSAII (Michael W. Deem and Ramdas Pophale) SiO2 
 PCOD9438590
Probable space group: P B C M
;
_chemical_formula_sum "Si O2"
_cell_formula_units_Z 40
_cell_length_a 26.229183
_cell_length_b 9.282391
_cell_length_c 8.680299
_cell_angle_alpha 90.000000
_cell_angle_beta 90.000000
_cell_angle_gamma 90.000000
_cell_volume 2113.388337
_symmetry_space_group_name_H-M "P B C M"
_symmetry_group_IT_number 57
_symmetry_cell_setting 'orthorhombic'
loop_
_space_group_symop_operation_xyz
x,y,z
-x,-y,1/2+z
x,1/2-y,-z
-x,1/2+y,1/2-z
-x,-y,-z
x,y,1/2-z
-x,1/2+y,z
x,1/2-y,1/2+z
loop_
_atom_site_type_symbol
_atom_site_label
_atom_site_fract_x
_atom_site_fract_y
_atom_site_fract_z
Si Si1 0.952650 0.910314 0.065090
Si Si2 0.256036 0.910075 0.434239
Si Si3 0.852894 0.089762 0.434643
Si Si4 0.643265 0.911206 0.935244
Si Si5 0.548012 0.411794 0.565253
O O1 0.955625 0.907393 0.250000
O O2 0.899710 0.987944 0.020803
O O3 0.954217 0.750000 0.000000
O O4 0.000000 0.000000 0.000000
O O5 0.265990 0.750000 0.500000
O O6 0.252018 0.899616 0.250000
O O7 0.201795 0.959686 0.501417
O O8 0.302445 0.015587 0.472898
O O9 0.861743 0.250000 0.500000
O O10 0.850286 0.097577 0.250000
O O11 0.637436 0.909441 0.750000
O O12 0.640483 0.750000 0.000000
O O13 0.598762 0.007467 0.008336
O O14 0.547079 0.250000 0.500000
O O15 0.500000 0.500000 0.500000
O O16 0.546158 0.408502 0.750000
#
# Coordination Sequence:
#
# PCOD9438590 Si02
#       5
#     8   8   8   8   8
#     4  11  24  40  60  86 116 153 194 241 293 350
#     4  10  21  37  60  87 117 154 196 241 292 348
#     4  10  21  37  59  86 116 151 193 239 291 348
#     4  11  24  41  61  89 122 159 201 246 296 350
#     4  12  25  43  66  92 123 159 199 245 296 352
#
# _framework density 18.926950999999999
#
# number of rings (size 3 to 8) (size 9 to 14) (size 15 to 20)
#    0.000    1.200    0.000    7.200    0.000   10.400 
#    0.000    4.000    0.000    0.000    0.000    0.000 
#    0.000    0.000    0.000    0.000    0.000    0.000 
#
# Total GULP energy -223784.294988 kJ/mol
# GULP energy per Si atom -5594.607375 kJ/mol
# Density = 1.888387 g / cm^3
# Si number density = 18.926951 Si / 1000 Ang^3
#
#
#
# Elastic Constant Matrix: (Units=GPa)
#
#
# Indices 1 2 3 4 5 6 
#
# 1 196.7264 135.7257 87.4662 0.0000 0.0000 0.0000
# 2 135.7257 172.8442 74.3615 0.0000 0.0000 0.0000
# 3 87.4662 74.3615 108.0674 0.0000 0.0000 0.0000
# 4 0.0000 0.0000 0.0000 36.5144 0.0000 0.0000
# 5 0.0000 0.0000 0.0000 0.0000 30.7409 0.0000
# 6 0.0000 0.0000 0.0000 0.0000 0.0000 40.5032
#
#
#
# Elastic Compliance Matrix: (Units=1/GPa)
#
#
# Indices 1 2 3 4 5 6 
#
# 1 0.012652 -0.007855 -0.004835 0.000000 0.000000 0.000000
# 2 -0.007855 0.013095 -0.002653 0.000000 0.000000 0.000000
# 3 -0.004835 -0.002653 0.014993 0.000000 0.000000 0.000000
# 4 0.000000 0.000000 0.000000 0.027386 0.000000 0.000000
# 5 0.000000 0.000000 0.000000 0.000000 0.032530 0.000000
# 6 0.000000 0.000000 0.000000 0.000000 0.000000 0.024689
#
#
# Mechanical properties :
#
#
# Convention : Reuss Voigt Hill
#
# Bulk Modulus (GPa) = 99.47182 119.19387 109.33285
# Shear Modulus (GPa) = 31.37070 33.55733 32.46402
#
# Velocity S-wave (km/s) = 4.07561 4.21526 4.14602
# Velocity P-wave (km/s) = 8.64969 9.31685 8.98946
#
# Compressibility (1/GPa) = 0.01005310
#
# Stress axis : x y z
#
# Youngs Moduli (GPa) = 79.03665 76.36414 66.69864
#
# Poissons Ratio (x) = 0.59984 0.32251
# Poissons Ratio (y) = 0.62083 0.17697
# Poissons Ratio (z) = 0.38217 0.20261
#
# Static dielectric constant tensor:
#      x y z
#    x 1.644030 0.000000 0.000000 
#    y 0.000000 1.613360 0.000000 
#    z 0.000000 0.000000 1.635420 
# 
# From -- ./inp_files/8927.got.cif
#   From: 2010.05.17/outbox.cif.g08.bks.cpg/sg57_5_cif.got.tgz:8927.got - 2010.06.03 13:58:18.
