data_PCOD9438382
_publ_section_title
;
Structure prediction by ZEFSAII (Michael W. Deem and Ramdas Pophale) SiO2 
 PCOD9438382
Probable space group: P B C M
;
_chemical_formula_sum "Si O2"
_cell_formula_units_Z 64
_cell_length_a 10.415192
_cell_length_b 15.137197
_cell_length_c 18.532705
_cell_angle_alpha 90.000000
_cell_angle_beta 90.000000
_cell_angle_gamma 90.000000
_cell_volume 2921.807208
_symmetry_space_group_name_H-M "P B C M"
_symmetry_group_IT_number 57
_symmetry_cell_setting 'orthorhombic'
loop_
_space_group_symop_operation_xyz
x,y,z
-x,-y,1/2+z
x,1/2-y,-z
-x,1/2+y,1/2-z
-x,-y,-z
x,y,1/2-z
-x,1/2+y,z
x,1/2-y,1/2+z
loop_
_atom_site_type_symbol
_atom_site_label
_atom_site_fract_x
_atom_site_fract_y
_atom_site_fract_z
Si Si1 0.064025 0.906493 0.667445
Si Si2 0.326531 0.832354 0.049930
Si Si3 0.312181 0.343112 0.962689
Si Si4 0.431540 0.559507 0.059529
Si Si5 0.107122 0.453067 0.053872
Si Si6 0.454603 0.559002 0.834266
Si Si7 0.952427 0.279786 0.416591
Si Si8 0.225444 0.080031 0.328693
O O1 0.112176 0.899848 0.750000
O O2 0.047024 0.808249 0.633075
O O3 0.921219 0.948682 0.670321
O O4 0.136601 0.974147 0.615101
O O5 0.430545 0.861160 0.109700
O O6 0.192851 0.815701 0.088546
O O7 0.359044 0.750000 0.000000
O O8 0.312870 0.903978 0.985808
O O9 0.456910 0.366068 0.937686
O O10 0.237561 0.344964 0.887765
O O11 0.308280 0.250000 0.000000
O O12 0.231624 0.414102 0.010965
O O13 0.434700 0.504343 0.132981
O O14 0.500000 0.500000 0.000000
O O15 0.044713 0.364805 0.090607
O O16 0.000000 0.500000 0.000000
O O17 0.470783 0.580701 0.750000
O O18 0.324291 0.499801 0.842791
O O19 0.971667 0.250000 0.500000
O O20 0.257733 0.115291 0.250000
#
# Coordination Sequence:
#
# PCOD9438382 Si02
#       8
#     8   8   8   8   8   8   8   8
#     4  11  23  37  55  88 128 162 202 253 312 373
#     4  10  21  35  58  83 113 147 195 246 298 357
#     4  11  21  35  58  88 118 154 201 252 303 370
#     4   9  20  36  60  84 108 143 199 251 300 354
#     4  12  22  35  61  88 121 159 206 247 307 371
#     4   9  18  34  57  83 110 147 195 247 303 366
#     4  11  22  37  59  87 118 162 207 254 305 371
#     4   9  17  32  55  81 114 152 194 241 294 355
#
# _framework density 21.904252
#
# number of rings (size 3 to 8) (size 9 to 14) (size 15 to 20)
#    0.000    1.750    2.500    2.250    3.500    1.000 
#    0.000    1.250    0.000   17.250    0.000    0.000 
#    0.000    0.000    0.000    0.000    0.000    0.000 
#
# Total GULP energy -356587.826576 kJ/mol
# GULP energy per Si atom -5571.684790 kJ/mol
# Density = 2.185440 g / cm^3
# Si number density = 21.904252 Si / 1000 Ang^3
#
#
#
# Elastic Constant Matrix: (Units=GPa)
#
#
# Indices 1 2 3 4 5 6 
#
# 1 42.4895 2.0504 -2.7141 0.0000 0.0000 0.0000
# 2 2.0504 114.1104 57.2395 0.0000 0.0000 0.0000
# 3 -2.7141 57.2395 152.1551 0.0000 0.0000 0.0000
# 4 0.0000 0.0000 0.0000 27.0764 0.0000 0.0000
# 5 0.0000 0.0000 0.0000 0.0000 23.1296 0.0000
# 6 0.0000 0.0000 0.0000 0.0000 0.0000 19.3225
#
#
#
# Elastic Compliance Matrix: (Units=1/GPa)
#
#
# Indices 1 2 3 4 5 6 
#
# 1 0.023619 -0.000784 0.000716 0.000000 0.000000 0.000000
# 2 -0.000784 0.010828 -0.004087 0.000000 0.000000 0.000000
# 3 0.000716 -0.004087 0.008123 0.000000 0.000000 0.000000
# 4 0.000000 0.000000 0.000000 0.036933 0.000000 0.000000
# 5 0.000000 0.000000 0.000000 0.000000 0.043235 0.000000
# 6 0.000000 0.000000 0.000000 0.000000 0.000000 0.051753
#
#
# Mechanical properties :
#
#
# Convention : Reuss Voigt Hill
#
# Bulk Modulus (GPa) = 29.18895 46.87852 38.03373
# Shear Modulus (GPa) = 25.74414 30.71765 28.23089
#
# Velocity S-wave (km/s) = 3.43199 3.74887 3.59392
# Velocity P-wave (km/s) = 5.39067 6.33930 5.88414
#
# Compressibility (1/GPa) = 0.03425954
#
# Stress axis : x y z
#
# Youngs Moduli (GPa) = 42.33923 92.35510 123.11292
#
# Poissons Ratio (x) = 0.07237 -0.08816
# Poissons Ratio (y) = 0.03318 0.50320
# Poissons Ratio (z) = -0.03032 0.37748
#
# Static dielectric constant tensor:
#      x y z
#    x 2.005450 0.000000 0.000000 
#    y 0.000000 1.998470 0.000000 
#    z 0.000000 0.000000 1.821060 
# 
# From -- ./inp_files/22010.got.cif
#   From: 2010.05.17/outbox.cif.g08.bks.cpg/sg57_12_cif.got.tgz:22010.got - 2010.06.03 13:58:18.
