data_PCOD9438067
_publ_section_title
;
Structure prediction by ZEFSAII (Michael W. Deem and Ramdas Pophale) SiO2 
 PCOD9438067
Probable space group: P B C M
;
_chemical_formula_sum "Si O2"
_cell_formula_units_Z 36
_cell_length_a 8.752418
_cell_length_b 9.525623
_cell_length_c 20.094598
_cell_angle_alpha 90.000000
_cell_angle_beta 90.000000
_cell_angle_gamma 90.000000
_cell_volume 1675.331531
_symmetry_space_group_name_H-M "P B C M"
_symmetry_group_IT_number 57
_symmetry_cell_setting 'orthorhombic'
loop_
_space_group_symop_operation_xyz
x,y,z
-x,-y,1/2+z
x,1/2-y,-z
-x,1/2+y,1/2-z
-x,-y,-z
x,y,1/2-z
-x,1/2+y,z
x,1/2-y,1/2+z
loop_
_atom_site_type_symbol
_atom_site_label
_atom_site_fract_x
_atom_site_fract_y
_atom_site_fract_z
Si Si1 0.867028 0.233054 0.750000
Si Si2 0.386930 0.747075 0.927427
Si Si3 0.833302 0.464068 0.632100
Si Si4 0.664857 0.746419 0.828390
Si Si5 0.162563 0.523730 0.623663
O O1 0.866119 0.355819 0.691858
O O2 0.859658 0.112271 0.808579
O O3 0.507695 0.729084 0.868248
O O4 0.267867 0.619009 0.923036
O O5 0.293129 0.888996 0.913217
O O6 0.461230 0.750000 0.000000
O O7 0.766253 0.608324 0.660971
O O8 0.993897 0.492908 0.596588
O O9 0.635040 0.766342 0.750000
O O10 0.752479 0.880180 0.857581
#
# Coordination Sequence:
#
# PCOD9438067 Si02
#       5
#     4   8   8   8   8
#     4  10  20  38  64 100 144 166 204 272 350 398
#     4  11  28  49  67  94 140 189 230 277 335 402
#     4  11  24  42  71 103 135 177 225 284 340 402
#     4  12  25  41  71 107 139 177 224 278 344 408
#     4  11  24  42  71 103 135 177 225 284 340 402
#
# _framework density 21.488285000000001
#
# number of rings (size 3 to 8) (size 9 to 14) (size 15 to 20)
#    0.000    0.889    2.222    4.667    9.333    6.222 
#    0.000    2.222    0.000    0.000    0.000    0.000 
#    0.000    0.000    0.000    0.000    0.000    0.000 
#
# Total GULP energy -200430.081359 kJ/mol
# GULP energy per Si atom -5567.502260 kJ/mol
# Density = 2.143938 g / cm^3
# Si number density = 21.488285 Si / 1000 Ang^3
#
#
#
# Elastic Constant Matrix: (Units=GPa)
#
#
# Indices 1 2 3 4 5 6 
#
# 1 77.2543 -13.9898 -12.7757 0.0000 0.0000 0.0000
# 2 -13.9898 100.6029 -30.9329 0.0000 0.0000 0.0000
# 3 -12.7757 -30.9329 37.6489 0.0000 0.0000 0.0000
# 4 0.0000 0.0000 0.0000 3.6905 0.0000 0.0000
# 5 0.0000 0.0000 0.0000 0.0000 3.4561 0.0000
# 6 0.0000 0.0000 0.0000 0.0000 0.0000 23.3200
#
#
#
# Elastic Compliance Matrix: (Units=1/GPa)
#
#
# Indices 1 2 3 4 5 6 
#
# 1 0.015398 0.005015 0.009345 0.000000 0.000000 0.000000
# 2 0.005015 0.014933 0.013971 0.000000 0.000000 0.000000
# 3 0.009345 0.013971 0.041211 0.000000 0.000000 0.000000
# 4 0.000000 0.000000 0.000000 0.270965 0.000000 0.000000
# 5 0.000000 0.000000 0.000000 0.000000 0.289343 0.000000
# 6 0.000000 0.000000 0.000000 0.000000 0.000000 0.042882
#
#
# Mechanical properties :
#
#
# Convention : Reuss Voigt Hill
#
# Bulk Modulus (GPa) = 7.80010 11.12324 9.46167
# Shear Modulus (GPa) = 7.56654 24.30696 15.93675
#
# Velocity S-wave (km/s) = 1.87853 3.36694 2.72628
# Velocity P-wave (km/s) = 2.88842 4.50585 3.78455
#
# Compressibility (1/GPa) = 0.12820341
#
# Stress axis : x y z
#
# Youngs Moduli (GPa) = 64.94441 66.96522 24.26531
#
# Poissons Ratio (x) = -0.33580 -0.22676
# Poissons Ratio (y) = -0.32567 -0.33901
# Poissons Ratio (z) = -0.60692 -0.93557
#
# Static dielectric constant tensor:
#      x y z
#    x 1.826250 0.000000 0.000000 
#    y 0.000000 1.749180 0.000000 
#    z 0.000000 0.000000 1.728690 
# 
# From -- ./inp_files/23973.got.cif
#   From: 2010.05.17/outbox.cif.g08.bks.cpg/sg57_12_cif.got.tgz:23973.got - 2010.06.03 13:58:18.
