data_PCOD9438636
_publ_section_title
;
Structure prediction by ZEFSAII (Michael W. Deem and Ramdas Pophale) SiO2 
 PCOD9438636
Probable space group: P B C M
;
_chemical_formula_sum "Si O2"
_cell_formula_units_Z 64
_cell_length_a 15.255950
_cell_length_b 25.252179
_cell_length_c 8.769276
_cell_angle_alpha 90.000000
_cell_angle_beta 90.000000
_cell_angle_gamma 90.000000
_cell_volume 3378.328328
_symmetry_space_group_name_H-M "P B C M"
_symmetry_group_IT_number 57
_symmetry_cell_setting 'orthorhombic'
loop_
_space_group_symop_operation_xyz
x,y,z
-x,-y,1/2+z
x,1/2-y,-z
-x,1/2+y,1/2-z
-x,-y,-z
x,y,1/2-z
-x,1/2+y,z
x,1/2-y,1/2+z
loop_
_atom_site_type_symbol
_atom_site_label
_atom_site_fract_x
_atom_site_fract_y
_atom_site_fract_z
Si Si1 0.141895 0.308044 0.068261
Si Si2 0.400578 0.844731 0.936103
Si Si3 0.791920 0.115567 0.065597
Si Si4 0.285101 0.385261 0.568491
Si Si5 0.064186 0.692020 0.930861
Si Si6 0.426378 0.305147 0.432642
Si Si7 0.553117 0.043185 0.416320
Si Si8 0.251243 0.000214 0.578535
O O1 0.159093 0.308437 0.250000
O O2 0.038732 0.319523 0.043570
O O3 0.158576 0.250000 0.000000
O O4 0.203175 0.349780 0.984544
O O5 0.404357 0.840544 0.750000
O O6 0.297586 0.851725 0.976382
O O7 0.439856 0.900619 0.992081
O O8 0.472206 0.806876 0.010372
O O9 0.790935 0.112837 0.250000
O O10 0.794146 0.053558 0.013356
O O11 0.873765 0.148453 0.005969
O O12 0.295907 0.385169 0.750000
O O13 0.369554 0.355146 0.494963
O O14 0.263356 0.445062 0.512100
O O15 0.079524 0.693675 0.750000
O O16 0.082769 0.750000 0.000000
O O17 0.388472 0.250000 0.500000
O O18 0.422618 0.304674 0.250000
O O19 0.513694 0.051484 0.250000
O O20 0.500000 0.000000 0.500000
O O21 0.650842 0.021994 0.403340
O O22 0.216274 0.011796 0.750000
#
# Coordination Sequence:
#
# PCOD9438636 Si02
#       8
#     8   8   8   8   8   8   8   8
#     4  10  21  39  61  86 114 145 184 234 285 339
#     4   9  19  36  54  77 108 143 182 224 270 322
#     4   9  19  37  61  86 118 154 189 234 284 331
#     4  12  24  38  58  84 113 148 188 234 284 339
#     4  10  21  37  61  89 116 146 185 230 280 338
#     4  12  25  40  57  79 110 149 190 236 286 339
#     4   9  17  29  48  72 100 134 175 220 265 311
#     4   9  19  36  55  79 111 149 189 230 277 331
#
# _framework density 18.944279999999999
#
# number of rings (size 3 to 8) (size 9 to 14) (size 15 to 20)
#    0.000    2.000    0.000    5.625    0.000    6.000 
#    0.000    3.125    0.000    0.000    0.000    0.000 
#    0.000    0.000    0.000    0.000    0.000    0.000 
#
# Total GULP energy -356634.092328 kJ/mol
# GULP energy per Si atom -5572.407693 kJ/mol
# Density = 1.890116 g / cm^3
# Si number density = 18.944280 Si / 1000 Ang^3
#
#
#
# Elastic Constant Matrix: (Units=GPa)
#
#
# Indices 1 2 3 4 5 6 
#
# 1 69.6877 63.2567 39.8548 0.0000 0.0000 0.0000
# 2 63.2567 133.7559 51.9467 0.0000 0.0000 0.0000
# 3 39.8548 51.9467 79.8679 0.0000 0.0000 0.0000
# 4 0.0000 0.0000 0.0000 30.4277 0.0000 0.0000
# 5 0.0000 0.0000 0.0000 0.0000 -43.5876 0.0000
# 6 0.0000 0.0000 0.0000 0.0000 0.0000 35.7194
#
#
#
# Elastic Compliance Matrix: (Units=1/GPa)
#
#
# Indices 1 2 3 4 5 6 
#
# 1 0.027889 -0.010415 -0.007142 0.000000 0.000000 0.000000
# 2 -0.010415 0.013893 -0.003839 0.000000 0.000000 0.000000
# 3 -0.007142 -0.003839 0.018582 0.000000 0.000000 0.000000
# 4 0.000000 0.000000 0.000000 0.032865 0.000000 0.000000
# 5 0.000000 0.000000 0.000000 0.000000 -0.022942 0.000000
# 6 0.000000 0.000000 0.000000 0.000000 0.000000 0.027996
#
#
# Mechanical properties :
#
#
# Convention : Reuss Voigt Hill
#
# Bulk Modulus (GPa) = 56.91492 65.93645 61.42568
# Shear Modulus (GPa) = 34.02946 13.06212 23.54579
#
# Velocity S-wave (km/s) = 4.24287 2.62869 3.52930
# Velocity P-wave (km/s) = 7.35603 6.64036 7.00733
#
# Compressibility (1/GPa) = 0.01757009
#
# Stress axis : x y z
#
# Youngs Moduli (GPa) = 35.85663 71.97946 53.81697
#
# Poissons Ratio (x) = 0.74970 0.38439
# Poissons Ratio (y) = 0.37346 0.20658
# Poissons Ratio (z) = 0.25611 0.27630
#
# Static dielectric constant tensor:
#      x y z
#    x 1.661960 0.000000 0.000000 
#    y 0.000000 1.755550 0.000000 
#    z 0.000000 0.000000 1.660970 
# 
# From -- ./inp_files/5746.got.cif
#   From: 2010.05.17/outbox.cif.g08.bks.cpg/sg57_3_cif.got.tgz:5746.got - 2010.06.03 13:58:18.
