data_PCOD9438691
_publ_section_title
;
Structure prediction by ZEFSAII (Michael W. Deem and Ramdas Pophale) SiO2 
 PCOD9438691
Probable space group: P B C M
;
_chemical_formula_sum "Si O2"
_cell_formula_units_Z 56
_cell_length_a 21.730736
_cell_length_b 16.005778
_cell_length_c 8.484448
_cell_angle_alpha 90.000000
_cell_angle_beta 90.000000
_cell_angle_gamma 90.000000
_cell_volume 2951.038102
_symmetry_space_group_name_H-M "P B C M"
_symmetry_group_IT_number 57
_symmetry_cell_setting 'orthorhombic'
loop_
_space_group_symop_operation_xyz
x,y,z
-x,-y,1/2+z
x,1/2-y,-z
-x,1/2+y,1/2-z
-x,-y,-z
x,y,1/2-z
-x,1/2+y,z
x,1/2-y,1/2+z
loop_
_atom_site_type_symbol
_atom_site_label
_atom_site_fract_x
_atom_site_fract_y
_atom_site_fract_z
Si Si1 0.467828 0.584567 0.438593
Si Si2 0.991740 0.594553 0.560377
Si Si3 0.876494 0.160404 0.939900
Si Si4 0.790328 0.007565 0.942505
Si Si5 0.410201 0.162948 0.439343
Si Si6 0.349722 0.511839 0.559864
Si Si7 0.139043 0.158413 0.438826
O O1 0.500000 0.500000 0.500000
O O2 0.465661 0.583512 0.250000
O O3 0.518065 0.653097 0.489159
O O4 0.398766 0.580567 0.502657
O O5 0.988891 0.593897 0.750000
O O6 0.929736 0.634974 0.494280
O O7 0.000000 0.500000 0.500000
O O8 0.053033 0.644141 0.510316
O O9 0.875246 0.160532 0.750000
O O10 0.834922 0.082551 0.994013
O O11 0.854905 0.250000 0.000000
O O12 0.790791 0.007119 0.750000
O O13 0.720268 0.022594 0.993152
O O14 0.816859 0.917569 0.992555
O O15 0.384456 0.250000 0.500000
O O16 0.408409 0.163154 0.250000
O O17 0.374094 0.079839 0.492306
O O18 0.351049 0.512409 0.750000
O O19 0.156332 0.250000 0.500000
O O20 0.139827 0.159959 0.250000
#
# Coordination Sequence:
#
# PCOD9438691 Si02
#       7
#     8   8   8   8   8   8   8
#     4   9  17  31  50  74 101 129 167 211 253 305
#     4  11  21  36  59  85 112 144 185 234 291 345
#     4  10  21  38  58  81 106 142 184 229 282 335
#     4   9  19  38  58  76 109 151 187 224 276 337
#     4   9  18  30  48  76 104 132 168 210 259 311
#     4   9  18  34  55  75 100 141 181 215 264 321
#     4  11  22  38  57  82 115 151 190 234 283 341
#
# _framework density 18.976372999999999
#
# number of rings (size 3 to 8) (size 9 to 14) (size 15 to 20)
#    0.000    2.286    1.429    2.571    0.000    5.714 
#    0.000    2.857    0.000    3.429    0.000    0.000 
#    0.000    0.000    0.000    0.000    0.000    0.000 
#
# Total GULP energy -312332.638136 kJ/mol
# GULP energy per Si atom -5577.368538 kJ/mol
# Density = 1.893318 g / cm^3
# Si number density = 18.976373 Si / 1000 Ang^3
#
#
#
# Elastic Constant Matrix: (Units=GPa)
#
#
# Indices 1 2 3 4 5 6 
#
# 1 105.9502 10.5352 13.4095 0.0000 0.0000 0.0000
# 2 10.5352 78.7775 6.9309 0.0000 0.0000 0.0000
# 3 13.4095 6.9309 16.6153 0.0000 0.0000 0.0000
# 4 0.0000 0.0000 0.0000 29.5333 0.0000 0.0000
# 5 0.0000 0.0000 0.0000 0.0000 20.9287 0.0000
# 6 0.0000 0.0000 0.0000 0.0000 0.0000 11.6338
#
#
#
# Elastic Compliance Matrix: (Units=1/GPa)
#
#
# Indices 1 2 3 4 5 6 
#
# 1 0.010548 -0.000687 -0.008226 0.000000 0.000000 0.000000
# 2 -0.000687 0.013222 -0.004961 0.000000 0.000000 0.000000
# 3 -0.008226 -0.004961 0.068894 0.000000 0.000000 0.000000
# 4 0.000000 0.000000 0.000000 0.033860 0.000000 0.000000
# 5 0.000000 0.000000 0.000000 0.000000 0.047781 0.000000
# 6 0.000000 0.000000 0.000000 0.000000 0.000000 0.085956
#
#
# Mechanical properties :
#
#
# Convention : Reuss Voigt Hill
#
# Bulk Modulus (GPa) = 15.40462 29.23269 22.31866
# Shear Modulus (GPa) = 16.14734 23.78368 19.96551
#
# Velocity S-wave (km/s) = 2.92021 3.54408 3.24717
# Velocity P-wave (km/s) = 4.41652 5.67323 5.08386
#
# Compressibility (1/GPa) = 0.06491557
#
# Stress axis : x y z
#
# Youngs Moduli (GPa) = 94.80625 75.62964 14.51506
#
# Poissons Ratio (x) = 0.05195 0.11940
# Poissons Ratio (y) = 0.06512 0.07201
# Poissons Ratio (z) = 0.77989 0.37522
#
# Static dielectric constant tensor:
#      x y z
#    x 1.672090 0.000000 0.000000 
#    y 0.000000 1.648660 0.000000 
#    z 0.000000 0.000000 1.653780 
# 
# From -- ./inp_files/8136.got.cif
#   From: 2010.05.17/outbox.cif.g08.bks.cpg/sg57_5_cif.got.tgz:8136.got - 2010.06.03 13:58:18.
