data_PCOD9438835
_publ_section_title
;
Structure prediction by ZEFSAII (Michael W. Deem and Ramdas Pophale) SiO2 
 PCOD9438835
Probable space group: P B C M
;
_chemical_formula_sum "Si O2"
_cell_formula_units_Z 36
_cell_length_a 13.354054
_cell_length_b 5.316277
_cell_length_c 25.207144
_cell_angle_alpha 90.000000
_cell_angle_beta 90.000000
_cell_angle_gamma 90.000000
_cell_volume 1789.552204
_symmetry_space_group_name_H-M "P B C M"
_symmetry_group_IT_number 57
_symmetry_cell_setting 'orthorhombic'
loop_
_space_group_symop_operation_xyz
x,y,z
-x,-y,1/2+z
x,1/2-y,-z
-x,1/2+y,1/2-z
-x,-y,-z
x,y,1/2-z
-x,1/2+y,z
x,1/2-y,1/2+z
loop_
_atom_site_type_symbol
_atom_site_label
_atom_site_fract_x
_atom_site_fract_y
_atom_site_fract_z
Si Si1 0.039494 0.954363 0.939921
Si Si2 0.329831 0.211364 0.361224
Si Si3 0.563944 0.631342 0.250000
Si Si4 0.253749 0.777776 0.593447
Si Si5 0.599133 0.540816 0.034281
O O1 0.026510 0.230221 0.915180
O O2 0.152000 0.854715 0.935482
O O3 0.000000 0.000000 0.000000
O O4 0.373467 0.173201 0.303435
O O5 0.286503 0.487791 0.370840
O O6 0.414119 0.168812 0.407474
O O7 0.251304 0.986566 0.374648
O O8 0.519951 0.349957 0.250000
O O9 0.340236 0.706054 0.551545
O O10 0.660486 0.750000 0.000000
O O11 0.500000 0.500000 0.000000
#
# Coordination Sequence:
#
# PCOD9438835 Si02
#       5
#     8   8   4   8   8
#     4  10  21  38  63  91 135 174 224 271 345 409
#     4  10  25  42  66  92 133 178 233 281 349 393
#     4  12  26  44  72  96 134 180 250 298 342 410
#     4  10  23  44  62  96 133 179 229 278 343 422
#     4  10  26  38  62  91 139 185 227 268 339 418
#
# _framework density 20.116765000000001
#
# number of rings (size 3 to 8) (size 9 to 14) (size 15 to 20)
#    1.333    0.444    0.000    2.667    6.222    3.556 
#    0.000    0.000    0.000    0.000    0.000   15.556 
#    0.000    0.000    0.000    0.000    0.000    0.000 
#
# Total GULP energy -200617.136499 kJ/mol
# GULP energy per Si atom -5572.698236 kJ/mol
# Density = 2.007098 g / cm^3
# Si number density = 20.116765 Si / 1000 Ang^3
#
#
#
# Elastic Constant Matrix: (Units=GPa)
#
#
# Indices 1 2 3 4 5 6 
#
# 1 102.5501 34.1715 33.5409 0.0000 0.0000 0.0000
# 2 34.1715 160.8692 12.4368 0.0000 0.0000 0.0000
# 3 33.5409 12.4368 118.9197 0.0000 0.0000 0.0000
# 4 0.0000 0.0000 0.0000 19.9375 0.0000 0.0000
# 5 0.0000 0.0000 0.0000 0.0000 25.7154 0.0000
# 6 0.0000 0.0000 0.0000 0.0000 0.0000 35.3891
#
#
#
# Elastic Compliance Matrix: (Units=1/GPa)
#
#
# Indices 1 2 3 4 5 6 
#
# 1 0.011468 -0.002204 -0.003004 0.000000 0.000000 0.000000
# 2 -0.002204 0.006690 -0.000078 0.000000 0.000000 0.000000
# 3 -0.003004 -0.000078 0.009264 0.000000 0.000000 0.000000
# 4 0.000000 0.000000 0.000000 0.050157 0.000000 0.000000
# 5 0.000000 0.000000 0.000000 0.000000 0.038887 0.000000
# 6 0.000000 0.000000 0.000000 0.000000 0.000000 0.028257
#
#
# Mechanical properties :
#
#
# Convention : Reuss Voigt Hill
#
# Bulk Modulus (GPa) = 59.34337 60.29304 59.81820
# Shear Modulus (GPa) = 31.07262 36.35440 33.71351
#
# Velocity S-wave (km/s) = 3.93442 4.25569 4.09821
# Velocity P-wave (km/s) = 7.08541 7.36101 7.22453
#
# Compressibility (1/GPa) = 0.01685108
#
# Stress axis : x y z
#
# Youngs Moduli (GPa) = 87.19742 149.46799 107.93892
#
# Poissons Ratio (x) = 0.32940 0.32426
# Poissons Ratio (y) = 0.19217 0.00843
# Poissons Ratio (z) = 0.26195 0.01168
#
# Static dielectric constant tensor:
#      x y z
#    x 1.751550 0.000000 0.000000 
#    y 0.000000 2.058230 0.000000 
#    z 0.000000 0.000000 1.784250 
# 
# From -- ./inp_files/28690.got.cif
#   From: 2010.05.17/outbox.cif.g08.bks.cpg/sg57_15_cif.got.tgz:28690.got - 2010.06.03 13:58:18.
