data_PCOD9438041
_publ_section_title
;
Structure prediction by ZEFSAII (Michael W. Deem and Ramdas Pophale) SiO2 
 PCOD9438041
Probable space group: P B C M
;
_chemical_formula_sum "Si O2"
_cell_formula_units_Z 48
_cell_length_a 13.905642
_cell_length_b 8.611736
_cell_length_c 16.390603
_cell_angle_alpha 90.000000
_cell_angle_beta 90.000000
_cell_angle_gamma 90.000000
_cell_volume 1962.802865
_symmetry_space_group_name_H-M "P B C M"
_symmetry_group_IT_number 57
_symmetry_cell_setting 'orthorhombic'
loop_
_space_group_symop_operation_xyz
x,y,z
-x,-y,1/2+z
x,1/2-y,-z
-x,1/2+y,1/2-z
-x,-y,-z
x,y,1/2-z
-x,1/2+y,z
x,1/2-y,1/2+z
loop_
_atom_site_type_symbol
_atom_site_label
_atom_site_fract_x
_atom_site_fract_y
_atom_site_fract_z
Si Si1 0.410341 0.188466 0.909408
Si Si2 0.491869 0.678283 0.250000
Si Si3 0.060428 0.230259 0.651526
Si Si4 0.132647 0.883595 0.847664
Si Si5 0.758998 0.584516 0.394675
Si Si6 0.653460 0.412606 0.250000
Si Si7 0.316704 0.601433 0.452369
O O1 0.474504 0.243396 0.835109
O O2 0.305789 0.260155 0.888124
O O3 0.399315 0.003524 0.912914
O O4 0.434436 0.250000 0.000000
O O5 0.554748 0.518760 0.250000
O O6 0.379961 0.732998 0.250000
O O7 0.065055 0.246101 0.750000
O O8 0.132616 0.359752 0.616514
O O9 0.951239 0.264991 0.626610
O O10 0.095633 0.057451 0.631795
O O11 0.143176 0.874698 0.750000
O O12 0.232525 0.853844 0.891353
O O13 0.716797 0.469242 0.326438
O O14 0.734130 0.508237 0.480449
O O15 0.354400 0.750000 0.500000
#
# Coordination Sequence:
#
# PCOD9438041 Si02
#       7
#     8   4   8   8   8   4   8
#     4   9  20  41  67  96 128 174 215 263 320 400
#     4  10  22  40  74 103 127 167 217 260 332 392
#     4  10  20  38  62  90 121 169 215 266 316 374
#     4  10  23  39  61  89 125 165 219 265 317 374
#     4  10  20  40  64  85 124 172 212 250 322 390
#     4  10  22  42  68  99 125 165 215 258 314 402
#     4  11  24  39  56  95 129 165 216 267 322 369
#
# _framework density 24.454826000000001
#
# number of rings (size 3 to 8) (size 9 to 14) (size 15 to 20)
#    0.000    2.000    2.500    0.000    3.500    2.000 
#    1.500    8.333    0.000    0.000    0.000    0.000 
#    0.000    0.000    0.000    0.000    0.000    0.000 
#
# Total GULP energy -268776.080194 kJ/mol
# GULP energy per Si atom -5599.501671 kJ/mol
# Density = 2.439917 g / cm^3
# Si number density = 24.454826 Si / 1000 Ang^3
#
#
#
# Elastic Constant Matrix: (Units=GPa)
#
#
# Indices 1 2 3 4 5 6 
#
# 1 93.8455 29.3438 34.6309 0.0000 0.0000 0.0000
# 2 29.3438 106.0727 17.7547 0.0000 0.0000 0.0000
# 3 34.6309 17.7547 75.9517 0.0000 0.0000 0.0000
# 4 0.0000 0.0000 0.0000 34.3810 0.0000 0.0000
# 5 0.0000 0.0000 0.0000 0.0000 2.8181 0.0000
# 6 0.0000 0.0000 0.0000 0.0000 0.0000 38.8614
#
#
#
# Elastic Compliance Matrix: (Units=1/GPa)
#
#
# Indices 1 2 3 4 5 6 
#
# 1 0.013582 -0.002832 -0.005531 0.000000 0.000000 0.000000
# 2 -0.002832 0.010402 -0.001140 0.000000 0.000000 0.000000
# 3 -0.005531 -0.001140 0.015955 0.000000 0.000000 0.000000
# 4 0.000000 0.000000 0.000000 0.029086 0.000000 0.000000
# 5 0.000000 0.000000 0.000000 0.000000 0.354844 0.000000
# 6 0.000000 0.000000 0.000000 0.000000 0.000000 0.025732
#
#
# Mechanical properties :
#
#
# Convention : Reuss Voigt Hill
#
# Bulk Modulus (GPa) = 47.77233 48.81430 48.29331
# Shear Modulus (GPa) = 10.51336 28.15482 19.33409
#
# Velocity S-wave (km/s) = 2.07568 3.39676 2.81482
# Velocity P-wave (km/s) = 5.03209 5.94881 5.50955
#
# Compressibility (1/GPa) = 0.02093262
#
# Stress axis : x y z
#
# Youngs Moduli (GPa) = 73.62548 96.13808 62.67713
#
# Poissons Ratio (x) = 0.27222 0.34667
# Poissons Ratio (y) = 0.20848 0.07148
# Poissons Ratio (z) = 0.40723 0.10964
#
# Static dielectric constant tensor:
#      x y z
#    x 1.879410 0.000000 0.000000 
#    y 0.000000 1.974690 0.000000 
#    z 0.000000 0.000000 1.941670 
# 
# From -- ./inp_files/22539.got.cif
#   From: 2010.05.17/outbox.cif.g08.bks.cpg/sg57_12_cif.got.tgz:22539.got - 2010.06.03 13:58:18.
