data_PCOD9438064
_publ_section_title
;
Structure prediction by ZEFSAII (Michael W. Deem and Ramdas Pophale) SiO2 
 PCOD9438064
Probable space group: P B C M
;
_chemical_formula_sum "Si O2"
_cell_formula_units_Z 56
_cell_length_a 19.410586
_cell_length_b 8.855469
_cell_length_c 16.377537
_cell_angle_alpha 90.000000
_cell_angle_beta 90.000000
_cell_angle_gamma 90.000000
_cell_volume 2815.132257
_symmetry_space_group_name_H-M "P B C M"
_symmetry_group_IT_number 57
_symmetry_cell_setting 'orthorhombic'
loop_
_space_group_symop_operation_xyz
x,y,z
-x,-y,1/2+z
x,1/2-y,-z
-x,1/2+y,1/2-z
-x,-y,-z
x,y,1/2-z
-x,1/2+y,z
x,1/2-y,1/2+z
loop_
_atom_site_type_symbol
_atom_site_label
_atom_site_fract_x
_atom_site_fract_y
_atom_site_fract_z
Si Si1 0.184190 0.419833 0.842040
Si Si2 0.574682 0.650039 0.844639
Si Si3 0.042915 0.272564 0.845068
Si Si4 0.268076 0.113458 0.657932
Si Si5 0.939778 0.464239 0.563918
Si Si6 0.215052 0.580008 0.006674
Si Si7 0.470504 0.629596 0.059396
O O1 0.195007 0.482153 0.750000
O O2 0.102272 0.399107 0.856323
O O3 0.214560 0.250944 0.842468
O O4 0.219034 0.504316 0.917446
O O5 0.553857 0.660862 0.750000
O O6 0.655685 0.682833 0.851763
O O7 0.529061 0.768215 0.896662
O O8 0.567116 0.475850 0.874690
O O9 0.035538 0.244445 0.750000
O O10 0.971582 0.331430 0.881530
O O11 0.067441 0.119718 0.887009
O O12 0.265006 0.043366 0.750000
O O13 0.251638 0.007425 0.581085
O O14 0.866341 0.421339 0.528253
O O15 0.000000 0.500000 0.500000
O O16 0.240490 0.750000 0.000000
O O17 0.432141 0.750000 0.000000
O O18 0.500000 0.500000 0.000000
#
# Coordination Sequence:
#
# PCOD9438064 Si02
#       7
#     8   8   8   8   8   8   8
#     4  10  22  42  63  86 116 158 208 254 308 380
#     4  10  20  38  63  94 126 166 207 256 310 367
#     4  11  23  39  59  84 115 152 197 254 310 371
#     4  10  23  42  66  90 122 166 218 260 308 379
#     4  12  23  38  58  86 116 149 201 250 317 378
#     4  12  25  40  61  90 122 165 200 264 323 376
#     4   9  19  34  57  91 130 162 204 251 299 360
#
# _framework density 19.892493999999999
#
# number of rings (size 3 to 8) (size 9 to 14) (size 15 to 20)
#    0.000    1.429    2.857    2.571    0.000    5.143 
#    0.000    1.429    0.000    6.857    0.000    0.000 
#    0.000    0.000    0.000    0.000    0.000    0.000 
#
# Total GULP energy -312455.247528 kJ/mol
# GULP energy per Si atom -5579.557992 kJ/mol
# Density = 1.984722 g / cm^3
# Si number density = 19.892494 Si / 1000 Ang^3
#
#
#
# Elastic Constant Matrix: (Units=GPa)
#
#
# Indices 1 2 3 4 5 6 
#
# 1 58.2711 2.9399 9.4378 0.0000 0.0000 0.0000
# 2 2.9399 84.1984 40.2224 0.0000 0.0000 0.0000
# 3 9.4378 40.2224 170.0907 0.0000 0.0000 0.0000
# 4 0.0000 0.0000 0.0000 -3.9470 0.0000 0.0000
# 5 0.0000 0.0000 0.0000 0.0000 17.3562 0.0000
# 6 0.0000 0.0000 0.0000 0.0000 0.0000 14.4626
#
#
#
# Elastic Compliance Matrix: (Units=1/GPa)
#
#
# Indices 1 2 3 4 5 6 
#
# 1 0.017319 -0.000164 -0.000922 0.000000 0.000000 0.000000
# 2 -0.000164 0.013391 -0.003157 0.000000 0.000000 0.000000
# 3 -0.000922 -0.003157 0.006677 0.000000 0.000000 0.000000
# 4 0.000000 0.000000 0.000000 -0.253360 0.000000 0.000000
# 5 0.000000 0.000000 0.000000 0.000000 0.057616 0.000000
# 6 0.000000 0.000000 0.000000 0.000000 0.000000 0.069144
#
#
# Mechanical properties :
#
#
# Convention : Reuss Voigt Hill
#
# Bulk Modulus (GPa) = 34.60324 46.41780 40.51052
# Shear Modulus (GPa) = -70.33137 22.90503 -23.71317
#
# Velocity S-wave (km/s) = -5.95252 3.39697 -3.45638
# Velocity P-wave (km/s) = 5.45989 6.22662 2.11665
#
# Compressibility (1/GPa) = 0.02889903
#
# Stress axis : x y z
#
# Youngs Moduli (GPa) = 57.74069 74.67805 149.76662
#
# Poissons Ratio (x) = 0.01226 0.13811
# Poissons Ratio (y) = 0.00948 0.47289
# Poissons Ratio (z) = 0.05324 0.23580
#
# Static dielectric constant tensor:
#      x y z
#    x 1.692840 0.000000 0.000000 
#    y 0.000000 1.686710 0.000000 
#    z 0.000000 0.000000 1.736880 
# 
# From -- ./inp_files/19369.got.cif
#   From: 2010.05.17/outbox.cif.g08.bks.cpg/sg57_10_cif.got.tgz:19369.got - 2010.06.03 13:58:18.
