data_PCOD9438623
_publ_section_title
;
Structure prediction by ZEFSAII (Michael W. Deem and Ramdas Pophale) SiO2 
 PCOD9438623
Probable space group: P B C M
;
_chemical_formula_sum "Si O2"
_cell_formula_units_Z 32
_cell_length_a 11.185150
_cell_length_b 12.183220
_cell_length_c 10.695600
_cell_angle_alpha 90.000000
_cell_angle_beta 90.000000
_cell_angle_gamma 90.000000
_cell_volume 1457.501639
_symmetry_space_group_name_H-M "P B C M"
_symmetry_group_IT_number 57
_symmetry_cell_setting 'orthorhombic'
loop_
_space_group_symop_operation_xyz
x,y,z
-x,-y,1/2+z
x,1/2-y,-z
-x,1/2+y,1/2-z
-x,-y,-z
x,y,1/2-z
-x,1/2+y,z
x,1/2-y,1/2+z
loop_
_atom_site_type_symbol
_atom_site_label
_atom_site_fract_x
_atom_site_fract_y
_atom_site_fract_z
Si Si1 0.437008 0.430966 0.609833
Si Si2 0.197634 0.480516 0.490992
Si Si3 0.328695 0.818307 0.881683
Si Si4 0.980111 0.344111 0.105802
O O1 0.500000 0.500000 0.500000
O O2 0.440383 0.481550 0.750000
O O3 0.300134 0.418286 0.569507
O O4 0.527539 0.329099 0.617401
O O5 0.267924 0.563058 0.398063
O O6 0.116795 0.559882 0.578244
O O7 0.108682 0.400225 0.419595
O O8 0.291877 0.768498 0.750000
O O9 0.292436 0.750000 0.000000
O O10 0.973299 0.305938 0.250000
O O11 0.966999 0.250000 0.000000
#
# Coordination Sequence:
#
# PCOD9438623 Si02
#       4
#     8   8   8   8
#     4   9  19  36  58  85 116 153 195 242 296 355
#     4  10  22  41  65  87 119 164 209 251 301 365
#     4  10  21  37  60  91 125 159 199 245 296 357
#     4  11  25  42  63  91 122 160 208 261 314 368
#
# _framework density 21.955379000000001
#
# number of rings (size 3 to 8) (size 9 to 14) (size 15 to 20)
#    0.000    2.000    0.000    2.250    0.000   15.000 
#    0.000    2.500    0.000    0.000    0.000    0.000 
#    0.000    0.000    0.000    0.000    0.000    0.000 
#
# Total GULP energy -178492.566997 kJ/mol
# GULP energy per Si atom -5577.892719 kJ/mol
# Density = 2.190541 g / cm^3
# Si number density = 21.955379 Si / 1000 Ang^3
#
#
#
# Elastic Constant Matrix: (Units=GPa)
#
#
# Indices 1 2 3 4 5 6 
#
# 1 176.2441 35.3268 47.3761 0.0000 0.0000 0.0000
# 2 35.3268 46.8624 38.8172 0.0000 0.0000 0.0000
# 3 47.3761 38.8172 210.1162 0.0000 0.0000 0.0000
# 4 0.0000 0.0000 0.0000 25.3895 0.0000 0.0000
# 5 0.0000 0.0000 0.0000 0.0000 -12.5227 0.0000
# 6 0.0000 0.0000 0.0000 0.0000 0.0000 27.4866
#
#
#
# Elastic Compliance Matrix: (Units=1/GPa)
#
#
# Indices 1 2 3 4 5 6 
#
# 1 0.006767 -0.004531 -0.000689 0.000000 0.000000 0.000000
# 2 -0.004531 0.028228 -0.004193 0.000000 0.000000 0.000000
# 3 -0.000689 -0.004193 0.005689 0.000000 0.000000 0.000000
# 4 0.000000 0.000000 0.000000 0.039386 0.000000 0.000000
# 5 0.000000 0.000000 0.000000 0.000000 -0.079855 0.000000
# 6 0.000000 0.000000 0.000000 0.000000 0.000000 0.036381
#
#
# Mechanical properties :
#
#
# Convention : Reuss Voigt Hill
#
# Bulk Modulus (GPa) = 45.74862 75.14033 60.44448
# Shear Modulus (GPa) = 79.73263 28.85085 54.29174
#
# Velocity S-wave (km/s) = 6.03279 3.62894 4.97814
# Velocity P-wave (km/s) = 8.33117 7.20120 7.78671
#
# Compressibility (1/GPa) = 0.02185858
#
# Stress axis : x y z
#
# Youngs Moduli (GPa) = 147.76950 35.42577 175.76991
#
# Poissons Ratio (x) = 0.16051 0.12107
# Poissons Ratio (y) = 0.66953 0.73705
# Poissons Ratio (z) = 0.10179 0.14855
#
# Static dielectric constant tensor:
#      x y z
#    x 1.848000 0.000000 0.000000 
#    y 0.000000 1.824220 0.000000 
#    z 0.000000 0.000000 1.824100 
# 
# From -- ./inp_files/2496.got.cif
#   From: 2010.05.17/outbox.cif.g08.bks.cpg/sg57_2_cif.got.tgz:2496.got - 2010.06.03 13:58:18.
