data_PCOD9438679
_publ_section_title
;
Structure prediction by ZEFSAII (Michael W. Deem and Ramdas Pophale) SiO2 
 PCOD9438679
Probable space group: P B C M
;
_chemical_formula_sum "Si O2"
_cell_formula_units_Z 56
_cell_length_a 13.244070
_cell_length_b 12.042873
_cell_length_c 18.235810
_cell_angle_alpha 90.000000
_cell_angle_beta 90.000000
_cell_angle_gamma 90.000000
_cell_volume 2908.550660
_symmetry_space_group_name_H-M "P B C M"
_symmetry_group_IT_number 57
_symmetry_cell_setting 'orthorhombic'
loop_
_space_group_symop_operation_xyz
x,y,z
-x,-y,1/2+z
x,1/2-y,-z
-x,1/2+y,1/2-z
-x,-y,-z
x,y,1/2-z
-x,1/2+y,z
x,1/2-y,1/2+z
loop_
_atom_site_type_symbol
_atom_site_label
_atom_site_fract_x
_atom_site_fract_y
_atom_site_fract_z
Si Si1 0.328520 0.179878 0.426627
Si Si2 0.601749 0.244974 0.167782
Si Si3 0.387550 0.131240 0.831724
Si Si4 0.071887 0.851492 0.942777
Si Si5 0.861903 0.521403 0.058564
Si Si6 0.470511 0.560742 0.424825
Si Si7 0.171374 0.683092 0.665522
O O1 0.359426 0.250000 0.500000
O O2 0.316273 0.275297 0.366169
O O3 0.418402 0.099853 0.398380
O O4 0.232231 0.104597 0.441298
O O5 0.600936 0.187711 0.250000
O O6 0.501854 0.319908 0.168910
O O7 0.590573 0.173158 0.093258
O O8 0.707125 0.307736 0.163424
O O9 0.356598 0.103204 0.750000
O O10 0.401624 0.025510 0.881807
O O11 0.124813 0.792173 0.873920
O O12 0.060114 0.750000 0.000000
O O13 0.133792 0.949784 0.983228
O O14 0.962845 0.906372 0.930342
O O15 0.856910 0.427812 0.121449
O O16 0.500000 0.500000 0.500000
O O17 0.139236 0.677884 0.750000
#
# Coordination Sequence:
#
# PCOD9438679 Si02
#       7
#     8   8   8   8   8   8   8
#     4  11  22  36  56  87 116 151 197 244 284 341
#     4   9  20  36  54  78 114 151 186 233 286 342
#     4  10  21  38  55  79 117 155 189 232 290 345
#     4   9  20  39  60  86 116 153 190 240 299 354
#     4  10  21  38  61  85 117 154 192 237 296 353
#     4  11  21  34  54  81 114 152 195 240 277 333
#     4  10  21  38  60  87 113 146 195 240 286 346
#
# _framework density 19.253575999999999
#
# number of rings (size 3 to 8) (size 9 to 14) (size 15 to 20)
#    0.000    2.000    1.429    1.714    2.000    1.714 
#    2.571    0.000    0.000    0.000    0.000    0.000 
#    0.000    0.000    0.000    0.000    0.000    0.000 
#
# Total GULP energy -311834.483821 kJ/mol
# GULP energy per Si atom -5568.472925 kJ/mol
# Density = 1.920975 g / cm^3
# Si number density = 19.253576 Si / 1000 Ang^3
#
#
#
# Elastic Constant Matrix: (Units=GPa)
#
#
# Indices 1 2 3 4 5 6 
#
# 1 55.8580 24.3950 -11.0301 0.0000 0.0000 0.0000
# 2 24.3950 44.3577 -10.9471 0.0000 0.0000 0.0000
# 3 -11.0301 -10.9471 43.8662 0.0000 0.0000 0.0000
# 4 0.0000 0.0000 0.0000 12.1835 0.0000 0.0000
# 5 0.0000 0.0000 0.0000 0.0000 19.1552 0.0000
# 6 0.0000 0.0000 0.0000 0.0000 0.0000 37.6316
#
#
#
# Elastic Compliance Matrix: (Units=1/GPa)
#
#
# Indices 1 2 3 4 5 6 
#
# 1 0.023905 -0.012429 0.002909 0.000000 0.000000 0.000000
# 2 -0.012429 0.030486 0.004483 0.000000 0.000000 0.000000
# 3 0.002909 0.004483 0.024647 0.000000 0.000000 0.000000
# 4 0.000000 0.000000 0.000000 0.082078 0.000000 0.000000
# 5 0.000000 0.000000 0.000000 0.000000 0.052205 0.000000
# 6 0.000000 0.000000 0.000000 0.000000 0.000000 0.026573
#
#
# Mechanical properties :
#
#
# Convention : Reuss Voigt Hill
#
# Bulk Modulus (GPa) = 14.50043 16.54638 15.52341
# Shear Modulus (GPa) = 18.31795 23.23834 20.77815
#
# Velocity S-wave (km/s) = 3.08783 3.47791 3.28866
# Velocity P-wave (km/s) = 4.50118 4.97397 4.74347
#
# Compressibility (1/GPa) = 0.06896349
#
# Stress axis : x y z
#
# Youngs Moduli (GPa) = 41.83202 32.80230 40.57328
#
# Poissons Ratio (x) = 0.40770 -0.11804
# Poissons Ratio (y) = 0.51993 -0.18188
# Poissons Ratio (z) = -0.12170 -0.14704
#
# Static dielectric constant tensor:
#      x y z
#    x 1.643550 0.000000 0.000000 
#    y 0.000000 1.715870 0.000000 
#    z 0.000000 0.000000 1.736930 
# 
# From -- ./inp_files/25043.got.cif
#   From: 2010.05.17/outbox.cif.g08.bks.cpg/sg57_13_cif.got.tgz:25043.got - 2010.06.03 13:58:18.
