data_PCOD9438563
_publ_section_title
;
Structure prediction by ZEFSAII (Michael W. Deem and Ramdas Pophale) SiO2 
 PCOD9438563
Probable space group: P B C M
;
_chemical_formula_sum "Si O2"
_cell_formula_units_Z 56
_cell_length_a 16.605335
_cell_length_b 19.399570
_cell_length_c 8.880854
_cell_angle_alpha 90.000000
_cell_angle_beta 90.000000
_cell_angle_gamma 90.000000
_cell_volume 2860.845970
_symmetry_space_group_name_H-M "P B C M"
_symmetry_group_IT_number 57
_symmetry_cell_setting 'orthorhombic'
loop_
_space_group_symop_operation_xyz
x,y,z
-x,-y,1/2+z
x,1/2-y,-z
-x,1/2+y,1/2-z
-x,-y,-z
x,y,1/2-z
-x,1/2+y,z
x,1/2-y,1/2+z
loop_
_atom_site_type_symbol
_atom_site_label
_atom_site_fract_x
_atom_site_fract_y
_atom_site_fract_z
Si Si1 0.003634 0.674699 0.571437
Si Si2 0.329694 0.914459 0.927091
Si Si3 0.645815 0.826402 0.067871
Si Si4 0.760145 0.946842 0.427904
Si Si5 0.928941 0.545320 0.428254
Si Si6 0.504188 0.076532 0.929927
Si Si7 0.810517 0.174207 0.928591
O O1 0.996842 0.750000 0.500000
O O2 0.987101 0.675861 0.750000
O O3 0.096717 0.651286 0.551088
O O4 0.946681 0.622380 0.485227
O O5 0.341010 0.901356 0.750000
O O6 0.308765 0.995336 0.945708
O O7 0.409488 0.895108 0.017404
O O8 0.252907 0.873852 0.988804
O O9 0.645614 0.821668 0.250000
O O10 0.722899 0.873514 0.024484
O O11 0.567177 0.871438 0.023135
O O12 0.646268 0.750000 0.000000
O O13 0.779806 0.943610 0.250000
O O14 0.839313 0.970713 0.515121
O O15 0.933377 0.538961 0.250000
O O16 0.000000 0.500000 0.500000
O O17 0.500101 0.069828 0.750000
O O18 0.500000 0.000000 0.000000
O O19 0.794786 0.176616 0.750000
O O20 0.804465 0.250000 0.000000
#
# Coordination Sequence:
#
# PCOD9438563 Si02
#       7
#     8   8   8   8   8   8   8
#     4  10  21  39  62  87 118 158 203 251 309 371
#     4  11  22  38  62  90 122 160 200 249 308 365
#     4  10  23  43  65  93 126 163 206 254 309 366
#     4  10  22  42  63  87 123 162 203 255 312 371
#     4  12  25  40  61  91 124 162 209 259 313 369
#     4  11  22  40  64  91 123 160 206 254 306 369
#     4  10  21  37  58  87 120 157 201 250 303 365
#
# _framework density 19.574629000000002
#
# number of rings (size 3 to 8) (size 9 to 14) (size 15 to 20)
#    0.000    1.429    1.429    3.857    0.000    8.000 
#    0.000    2.857    0.000    0.000    0.000    0.000 
#    0.000    0.000    0.000    0.000    0.000    0.000 
#
# Total GULP energy -313009.177807 kJ/mol
# GULP energy per Si atom -5589.449604 kJ/mol
# Density = 1.953008 g / cm^3
# Si number density = 19.574629 Si / 1000 Ang^3
#
#
#
# Elastic Constant Matrix: (Units=GPa)
#
#
# Indices 1 2 3 4 5 6 
#
# 1 84.9681 23.2506 46.1945 0.0000 0.0000 0.0000
# 2 23.2506 63.5144 27.0735 0.0000 0.0000 0.0000
# 3 46.1945 27.0735 82.4853 0.0000 0.0000 0.0000
# 4 0.0000 0.0000 0.0000 34.7415 0.0000 0.0000
# 5 0.0000 0.0000 0.0000 0.0000 32.5120 0.0000
# 6 0.0000 0.0000 0.0000 0.0000 0.0000 19.3789
#
#
#
# Elastic Compliance Matrix: (Units=1/GPa)
#
#
# Indices 1 2 3 4 5 6 
#
# 1 0.017271 -0.002557 -0.008833 0.000000 0.000000 0.000000
# 2 -0.002557 0.018684 -0.004700 0.000000 0.000000 0.000000
# 3 -0.008833 -0.004700 0.018613 0.000000 0.000000 0.000000
# 4 0.000000 0.000000 0.000000 0.028784 0.000000 0.000000
# 5 0.000000 0.000000 0.000000 0.000000 0.030758 0.000000
# 6 0.000000 0.000000 0.000000 0.000000 0.000000 0.051602
#
#
# Mechanical properties :
#
#
# Convention : Reuss Voigt Hill
#
# Bulk Modulus (GPa) = 44.66915 47.11168 45.89042
# Shear Modulus (GPa) = 24.34791 26.28976 25.31884
#
# Velocity S-wave (km/s) = 3.53065 3.66874 3.60036
# Velocity P-wave (km/s) = 6.28412 6.48585 6.38578
#
# Compressibility (1/GPa) = 0.02238681
#
# Stress axis : x y z
#
# Youngs Moduli (GPa) = 57.89999 53.52117 53.72599
#
# Poissons Ratio (x) = 0.13687 0.47457
# Poissons Ratio (y) = 0.14807 0.25253
# Poissons Ratio (z) = 0.51143 0.25157
#
# Static dielectric constant tensor:
#      x y z
#    x 1.694920 0.000000 0.000000 
#    y 0.000000 1.711740 0.000000 
#    z 0.000000 0.000000 1.647830 
# 
# From -- ./inp_files/5235.got.cif
#   From: 2010.05.17/outbox.cif.g08.bks.cpg/sg57_3_cif.got.tgz:5235.got - 2010.06.03 13:58:18.
