data_PCOD9438059
_publ_section_title
;
Structure prediction by ZEFSAII (Michael W. Deem and Ramdas Pophale) SiO2 
 PCOD9438059
Probable space group: P B C M
;
_chemical_formula_sum "Si O2"
_cell_formula_units_Z 56
_cell_length_a 14.365999
_cell_length_b 11.024972
_cell_length_c 17.067572
_cell_angle_alpha 90.000000
_cell_angle_beta 90.000000
_cell_angle_gamma 90.000000
_cell_volume 2703.242898
_symmetry_space_group_name_H-M "P B C M"
_symmetry_group_IT_number 57
_symmetry_cell_setting 'orthorhombic'
loop_
_space_group_symop_operation_xyz
x,y,z
-x,-y,1/2+z
x,1/2-y,-z
-x,1/2+y,1/2-z
-x,-y,-z
x,y,1/2-z
-x,1/2+y,z
x,1/2-y,1/2+z
loop_
_atom_site_type_symbol
_atom_site_label
_atom_site_fract_x
_atom_site_fract_y
_atom_site_fract_z
Si Si1 0.191921 0.629397 0.336633
Si Si2 0.310895 0.404724 0.372753
Si Si3 0.022459 0.624252 0.450862
Si Si4 0.171271 0.199423 0.089196
Si Si5 0.345268 0.820775 0.160037
Si Si6 0.542760 0.713021 0.164245
Si Si7 0.659394 0.954408 0.944198
O O1 0.149503 0.636460 0.250000
O O2 0.270174 0.525478 0.336560
O O3 0.114839 0.601640 0.401034
O O4 0.248438 0.752060 0.352800
O O5 0.226770 0.305483 0.366103
O O6 0.402686 0.341545 0.338966
O O7 0.333453 0.435478 0.463400
O O8 0.036665 0.750000 0.500000
O O9 0.000000 0.500000 0.500000
O O10 0.933446 0.656987 0.395793
O O11 0.240475 0.086134 0.089811
O O12 0.168368 0.250000 0.000000
O O13 0.344487 0.870473 0.250000
O O14 0.433385 0.731505 0.157307
O O15 0.360905 0.915519 0.090911
O O16 0.563382 0.657986 0.250000
O O17 0.584713 0.636162 0.093697
#
# Coordination Sequence:
#
# PCOD9438059 Si02
#       7
#     8   8   8   8   8   8   8
#     4  11  25  43  62  95 134 171 208 263 329 393
#     4  10  21  40  63  91 124 162 213 263 317 383
#     4  11  23  41  70  98 128 170 218 266 330 389
#     4   8  17  36  61  88 119 153 199 255 309 373
#     4  10  24  40  58  87 126 172 215 260 327 386
#     4  10  21  39  62  86 124 173 212 260 320 386
#     4  10  20  38  63  91 122 158 215 270 314 374
#
# _framework density 20.715861
#
# number of rings (size 3 to 8) (size 9 to 14) (size 15 to 20)
#    0.000    2.000    0.000    4.714    6.000    0.571 
#    2.571    6.429    0.000    0.000    0.000    0.000 
#    0.000    0.000    0.000    0.000    0.000    0.000 
#
# Total GULP energy -312442.316611 kJ/mol
# GULP energy per Si atom -5579.327082 kJ/mol
# Density = 2.066871 g / cm^3
# Si number density = 20.715861 Si / 1000 Ang^3
#
#
#
# Elastic Constant Matrix: (Units=GPa)
#
#
# Indices 1 2 3 4 5 6 
#
# 1 89.3848 20.8297 38.3339 0.0000 0.0000 0.0000
# 2 20.8297 58.7381 35.5078 0.0000 0.0000 0.0000
# 3 38.3339 35.5078 92.5178 0.0000 0.0000 0.0000
# 4 0.0000 0.0000 0.0000 6.5402 0.0000 0.0000
# 5 0.0000 0.0000 0.0000 0.0000 21.6099 0.0000
# 6 0.0000 0.0000 0.0000 0.0000 0.0000 12.6249
#
#
#
# Elastic Compliance Matrix: (Units=1/GPa)
#
#
# Indices 1 2 3 4 5 6 
#
# 1 0.013760 -0.001866 -0.004985 0.000000 0.000000 0.000000
# 2 -0.001866 0.022421 -0.007832 0.000000 0.000000 0.000000
# 3 -0.004985 -0.007832 0.015880 0.000000 0.000000 0.000000
# 4 0.000000 0.000000 0.000000 0.152901 0.000000 0.000000
# 5 0.000000 0.000000 0.000000 0.000000 0.046275 0.000000
# 6 0.000000 0.000000 0.000000 0.000000 0.000000 0.079208
#
#
# Mechanical properties :
#
#
# Convention : Reuss Voigt Hill
#
# Bulk Modulus (GPa) = 44.06238 47.77593 45.91915
# Shear Modulus (GPa) = 13.61000 17.88630 15.74815
#
# Velocity S-wave (km/s) = 2.56595 2.94157 2.76016
# Velocity P-wave (km/s) = 5.48588 5.88640 5.68966
#
# Compressibility (1/GPa) = 0.02269510
#
# Stress axis : x y z
#
# Youngs Moduli (GPa) = 72.67199 44.60126 62.97155
#
# Poissons Ratio (x) = 0.08323 0.31394
# Poissons Ratio (y) = 0.13561 0.49318
# Poissons Ratio (z) = 0.36230 0.34931
#
# Static dielectric constant tensor:
#      x y z
#    x 1.730770 0.000000 0.000000 
#    y 0.000000 1.775060 0.000000 
#    z 0.000000 0.000000 1.760870 
# 
# From -- ./inp_files/18490.got.cif
#   From: 2010.05.17/outbox.cif.g08.bks.cpg/sg57_10_cif.got.tgz:18490.got - 2010.06.03 13:58:18.
