data_PCOD9438089
_publ_section_title
;
Structure prediction by ZEFSAII (Michael W. Deem and Ramdas Pophale) SiO2 
 PCOD9438089
Probable space group: P B C M
;
_chemical_formula_sum "Si O2"
_cell_formula_units_Z 64
_cell_length_a 12.319601
_cell_length_b 31.945022
_cell_length_c 8.713154
_cell_angle_alpha 90.000000
_cell_angle_beta 90.000000
_cell_angle_gamma 90.000000
_cell_volume 3429.061103
_symmetry_space_group_name_H-M "P B C M"
_symmetry_group_IT_number 57
_symmetry_cell_setting 'orthorhombic'
loop_
_space_group_symop_operation_xyz
x,y,z
-x,-y,1/2+z
x,1/2-y,-z
-x,1/2+y,1/2-z
-x,-y,-z
x,y,1/2-z
-x,1/2+y,z
x,1/2-y,1/2+z
loop_
_atom_site_type_symbol
_atom_site_label
_atom_site_fract_x
_atom_site_fract_y
_atom_site_fract_z
Si Si1 0.746106 0.205143 0.067416
Si Si2 0.009836 0.546833 0.933655
Si Si3 0.865106 0.625346 0.935637
Si Si4 0.595964 0.366172 0.433196
Si Si5 0.366635 0.388713 0.567591
Si Si6 0.742157 0.447249 0.067385
Si Si7 0.610000 0.980464 0.068220
Si Si8 0.985234 0.204671 0.934207
O O1 0.753614 0.207346 0.250000
O O2 0.713000 0.250000 0.000000
O O3 0.662014 0.170398 0.014151
O O4 0.865103 0.195967 0.998673
O O5 0.997609 0.543524 0.750000
O O6 0.132377 0.563013 0.964132
O O7 0.924164 0.582071 0.987195
O O8 0.000000 0.500000 0.000000
O O9 0.856530 0.623362 0.750000
O O10 0.937456 0.665861 0.974497
O O11 0.746464 0.629382 0.006996
O O12 0.597796 0.360615 0.250000
O O13 0.473462 0.368733 0.492420
O O14 0.660250 0.409392 0.467022
O O15 0.373617 0.385722 0.750000
O O16 0.368114 0.436919 0.514283
O O17 0.732573 0.456639 0.250000
O O18 0.705296 0.487161 0.970590
O O19 0.598820 0.974019 0.250000
O O20 0.500000 0.000000 0.000000
O O21 0.979389 0.207624 0.750000
O O22 0.019776 0.250000 0.000000
#
# Coordination Sequence:
#
# PCOD9438089 Si02
#       8
#     8   8   8   8   8   8   8   8
#     4  11  22  38  62  92 125 156 193 240 296 358
#     4  10  21  37  56  82 115 153 197 242 294 354
#     4  10  22  41  62  85 118 163 205 247 304 368
#     4  11  22  39  62  86 116 153 195 244 297 351
#     4  12  25  40  59  86 119 156 202 252 300 358
#     4  10  21  37  59  85 114 150 194 246 296 348
#     4  12  23  37  57  82 115 156 201 247 295 353
#     4  10  20  38  65  94 123 156 199 248 303 364
#
# _framework density 18.664000999999999
#
# number of rings (size 3 to 8) (size 9 to 14) (size 15 to 20)
#    0.000    1.250    1.250    6.375    0.000    6.500 
#    0.000    1.875    0.000    1.500    0.000    0.000 
#    0.000    0.000    0.000    0.000    0.000    0.000 
#
# Total GULP energy -357834.858343 kJ/mol
# GULP energy per Si atom -5591.169662 kJ/mol
# Density = 1.862152 g / cm^3
# Si number density = 18.664001 Si / 1000 Ang^3
#
#
#
# Elastic Constant Matrix: (Units=GPa)
#
#
# Indices 1 2 3 4 5 6 
#
# 1 101.8069 60.8786 35.6223 0.0000 0.0000 0.0000
# 2 60.8786 110.5467 41.6404 0.0000 0.0000 0.0000
# 3 35.6223 41.6404 61.4821 0.0000 0.0000 0.0000
# 4 0.0000 0.0000 0.0000 27.6100 0.0000 0.0000
# 5 0.0000 0.0000 0.0000 0.0000 30.0332 0.0000
# 6 0.0000 0.0000 0.0000 0.0000 0.0000 29.3830
#
#
#
# Elastic Compliance Matrix: (Units=1/GPa)
#
#
# Indices 1 2 3 4 5 6 
#
# 1 0.015441 -0.006892 -0.004279 0.000000 0.000000 0.000000
# 2 -0.006892 0.015220 -0.006315 0.000000 0.000000 0.000000
# 3 -0.004279 -0.006315 0.023021 0.000000 0.000000 0.000000
# 4 0.000000 0.000000 0.000000 0.036219 0.000000 0.000000
# 5 0.000000 0.000000 0.000000 0.000000 0.033296 0.000000
# 6 0.000000 0.000000 0.000000 0.000000 0.000000 0.034033
#
#
# Mechanical properties :
#
#
# Convention : Reuss Voigt Hill
#
# Bulk Modulus (GPa) = 53.44517 61.12426 57.28471
# Shear Modulus (GPa) = 25.19677 26.45155 25.82416
#
# Velocity S-wave (km/s) = 3.67825 3.76872 3.72376
# Velocity P-wave (km/s) = 6.83644 7.19434 7.01768
#
# Compressibility (1/GPa) = 0.01871077
#
# Stress axis : x y z
#
# Youngs Moduli (GPa) = 64.76403 65.70309 43.43834
#
# Poissons Ratio (x) = 0.45280 0.18586
# Poissons Ratio (y) = 0.44633 0.27432
# Poissons Ratio (z) = 0.27711 0.41493
#
# Static dielectric constant tensor:
#      x y z
#    x 1.645170 0.000000 0.000000 
#    y 0.000000 1.615030 0.000000 
#    z 0.000000 0.000000 1.617760 
# 
# From -- ./inp_files/3848.got.cif
#   From: 2010.05.17/outbox.cif.g08.bks.cpg/sg57_2_cif.got.tgz:3848.got - 2010.06.03 13:58:18.
