data_PCOD9438577
_publ_section_title
;
Structure prediction by ZEFSAII (Michael W. Deem and Ramdas Pophale) SiO2 
 PCOD9438577
Probable space group: P B C M
;
_chemical_formula_sum "Si O2"
_cell_formula_units_Z 48
_cell_length_a 14.375158
_cell_length_b 8.174201
_cell_length_c 16.847149
_cell_angle_alpha 90.000000
_cell_angle_beta 90.000000
_cell_angle_gamma 90.000000
_cell_volume 1979.631503
_symmetry_space_group_name_H-M "P B C M"
_symmetry_group_IT_number 57
_symmetry_cell_setting 'orthorhombic'
loop_
_space_group_symop_operation_xyz
x,y,z
-x,-y,1/2+z
x,1/2-y,-z
-x,1/2+y,1/2-z
-x,-y,-z
x,y,1/2-z
-x,1/2+y,z
x,1/2-y,1/2+z
loop_
_atom_site_type_symbol
_atom_site_label
_atom_site_fract_x
_atom_site_fract_y
_atom_site_fract_z
Si Si1 0.307024 0.824958 0.415989
Si Si2 0.479632 0.000144 0.158350
Si Si3 0.190505 0.335431 0.583129
Si Si4 0.626947 0.803948 0.092242
Si Si5 0.131581 0.670005 0.343117
Si Si6 0.982175 0.472366 0.093321
O O1 0.333670 0.750000 0.500000
O O2 0.396695 0.876012 0.365915
O O3 0.235298 0.701673 0.373801
O O4 0.248695 0.994655 0.429907
O O5 0.504022 0.984313 0.250000
O O6 0.571053 0.969630 0.105507
O O7 0.434042 0.174313 0.140693
O O8 0.165352 0.250000 0.500000
O O9 0.267177 0.215626 0.621308
O O10 0.096276 0.397446 0.622848
O O11 0.626018 0.750000 0.000000
O O12 0.128085 0.702804 0.250000
O O13 0.079853 0.501083 0.363275
O O14 0.067425 0.801092 0.389975
O O15 0.000000 0.500000 0.000000
#
# Coordination Sequence:
#
# PCOD9438577 Si02
#       6
#     8   8   8   8   8   8
#     4  10  21  37  59  83 112 151 194 237 288 352
#     4  11  22  38  58  85 117 151 191 243 294 343
#     4   9  19  35  56  84 111 143 191 241 283 336
#     4  10  21  38  60  84 114 154 197 240 291 355
#     4  11  22  37  56  85 118 151 190 242 296 345
#     4  11  21  37  61  85 115 156 198 239 287 353
#
# _framework density 24.246935000000001
#
# number of rings (size 3 to 8) (size 9 to 14) (size 15 to 20)
#    0.000    1.667    0.000    6.000    0.000    2.667 
#    0.000    2.500    0.000    0.000    0.000    2.333 
#    0.000    0.000    0.000    0.000    0.000    0.000 
#
# Total GULP energy -268604.303406 kJ/mol
# GULP energy per Si atom -5595.922988 kJ/mol
# Density = 2.419175 g / cm^3
# Si number density = 24.246935 Si / 1000 Ang^3
#
#
#
# Elastic Constant Matrix: (Units=GPa)
#
#
# Indices 1 2 3 4 5 6 
#
# 1 128.4736 32.0057 7.1348 0.0000 0.0000 0.0000
# 2 32.0057 41.7736 -6.3955 0.0000 0.0000 0.0000
# 3 7.1348 -6.3955 100.7115 0.0000 0.0000 0.0000
# 4 0.0000 0.0000 0.0000 30.2125 0.0000 0.0000
# 5 0.0000 0.0000 0.0000 0.0000 14.0081 0.0000
# 6 0.0000 0.0000 0.0000 0.0000 0.0000 207.2745
#
#
#
# Elastic Compliance Matrix: (Units=1/GPa)
#
#
# Indices 1 2 3 4 5 6 
#
# 1 0.009756 -0.007655 -0.001177 0.000000 0.000000 0.000000
# 2 -0.007655 0.030180 0.002459 0.000000 0.000000 0.000000
# 3 -0.001177 0.002459 0.010169 0.000000 0.000000 0.000000
# 4 0.000000 0.000000 0.000000 0.033099 0.000000 0.000000
# 5 0.000000 0.000000 0.000000 0.000000 0.071387 0.000000
# 6 0.000000 0.000000 0.000000 0.000000 0.000000 0.004825
#
#
# Mechanical properties :
#
#
# Convention : Reuss Voigt Hill
#
# Bulk Modulus (GPa) = 26.76794 37.38319 32.07557
# Shear Modulus (GPa) = 27.08330 66.17995 46.63163
#
# Velocity S-wave (km/s) = 3.34575 5.23005 4.39018
# Velocity P-wave (km/s) = 5.09795 7.20572 6.24145
#
# Compressibility (1/GPa) = 0.03735812
#
# Stress axis : x y z
#
# Youngs Moduli (GPa) = 102.49955 33.13437 98.33898
#
# Poissons Ratio (x) = 0.25365 0.11577
# Poissons Ratio (y) = 0.78465 -0.24180
# Poissons Ratio (z) = 0.12067 -0.08147
#
# Static dielectric constant tensor:
#      x y z
#    x 1.923740 0.000000 0.000000 
#    y 0.000000 2.060180 0.000000 
#    z 0.000000 0.000000 1.844830 
# 
# From -- ./inp_files/22403.got.cif
#   From: 2010.05.17/outbox.cif.g08.bks.cpg/sg57_12_cif.got.tgz:22403.got - 2010.06.03 13:58:18.
