data_PCOD9438190
_publ_section_title
;
Structure prediction by ZEFSAII (Michael W. Deem and Ramdas Pophale) SiO2 
 PCOD9438190
Probable space group: P B C M
;
_chemical_formula_sum "Si O2"
_cell_formula_units_Z 40
_cell_length_a 5.237780
_cell_length_b 18.092411
_cell_length_c 20.322627
_cell_angle_alpha 90.000000
_cell_angle_beta 90.000000
_cell_angle_gamma 90.000000
_cell_volume 1925.854817
_symmetry_space_group_name_H-M "P B C M"
_symmetry_group_IT_number 57
_symmetry_cell_setting 'orthorhombic'
loop_
_space_group_symop_operation_xyz
x,y,z
-x,-y,1/2+z
x,1/2-y,-z
-x,1/2+y,1/2-z
-x,-y,-z
x,y,1/2-z
-x,1/2+y,z
x,1/2-y,1/2+z
loop_
_atom_site_type_symbol
_atom_site_label
_atom_site_fract_x
_atom_site_fract_y
_atom_site_fract_z
Si Si1 0.523420 0.532728 0.571903
Si Si2 0.122953 0.963115 0.179834
Si Si3 0.778143 0.842621 0.367184
Si Si4 0.747542 0.416703 0.674901
Si Si5 0.262903 0.743246 0.671933
O O1 0.500000 0.500000 0.500000
O O2 0.273232 0.555339 0.613624
O O3 0.693954 0.607195 0.570823
O O4 0.622326 0.466726 0.618956
O O5 0.255958 0.949095 0.250000
O O6 0.875504 0.909779 0.179441
O O7 0.031745 0.047901 0.177016
O O8 0.531229 0.796915 0.343627
O O9 0.024912 0.790350 0.368355
O O10 0.649065 0.426807 0.750000
O O11 0.726580 0.330730 0.659655
O O12 0.207723 0.733197 0.750000
#
# Coordination Sequence:
#
# PCOD9438190 Si02
#       5
#     8   8   8   8   8
#     4  11  24  43  68  93 134 181 223 269 327 398
#     4  10  20  39  67  98 128 168 223 278 324 382
#     4  11  23  39  65  98 129 170 216 269 329 390
#     4   9  22  39  65  99 132 170 221 277 333 390
#     4  11  22  39  65 100 135 167 209 276 341 388
#
# _framework density 20.769998999999999
#
# number of rings (size 3 to 8) (size 9 to 14) (size 15 to 20)
#    0.000    1.600    2.000    2.400    2.800    6.400 
#    0.000    1.000    4.400    0.000    0.000    0.000 
#    0.000    0.000    0.000    0.000    0.000    0.000 
#
# Total GULP energy -222771.646143 kJ/mol
# GULP energy per Si atom -5569.291154 kJ/mol
# Density = 2.072273 g / cm^3
# Si number density = 20.769999 Si / 1000 Ang^3
#
#
#
# Elastic Constant Matrix: (Units=GPa)
#
#
# Indices 1 2 3 4 5 6 
#
# 1 110.5240 53.0996 28.1963 0.0000 0.0000 0.0000
# 2 53.0996 159.7800 34.1456 0.0000 0.0000 0.0000
# 3 28.1963 34.1456 101.1081 0.0000 0.0000 0.0000
# 4 0.0000 0.0000 0.0000 24.3763 0.0000 0.0000
# 5 0.0000 0.0000 0.0000 0.0000 2.1753 0.0000
# 6 0.0000 0.0000 0.0000 0.0000 0.0000 30.6949
#
#
#
# Elastic Compliance Matrix: (Units=1/GPa)
#
#
# Indices 1 2 3 4 5 6 
#
# 1 0.011129 -0.003271 -0.001999 0.000000 0.000000 0.000000
# 2 -0.003271 0.007707 -0.001690 0.000000 0.000000 0.000000
# 3 -0.001999 -0.001690 0.011019 0.000000 0.000000 0.000000
# 4 0.000000 0.000000 0.000000 0.041023 0.000000 0.000000
# 5 0.000000 0.000000 0.000000 0.000000 0.459709 0.000000
# 6 0.000000 0.000000 0.000000 0.000000 0.000000 0.032579
#
#
# Mechanical properties :
#
#
# Convention : Reuss Voigt Hill
#
# Bulk Modulus (GPa) = 62.76032 66.92167 64.84100
# Shear Modulus (GPa) = 8.58517 28.51399 18.54958
#
# Velocity S-wave (km/s) = 2.03529 3.70921 2.99171
# Velocity P-wave (km/s) = 5.98378 7.11580 6.57420
#
# Compressibility (1/GPa) = 0.01593363
#
# Stress axis : x y z
#
# Youngs Moduli (GPa) = 89.85135 129.75089 90.75452
#
# Poissons Ratio (x) = 0.42448 0.18141
# Poissons Ratio (y) = 0.29395 0.15342
# Poissons Ratio (z) = 0.17960 0.21934
#
# Static dielectric constant tensor:
#      x y z
#    x 1.889850 0.000000 0.000000 
#    y 0.000000 1.764930 0.000000 
#    z 0.000000 0.000000 1.574270 
# 
# From -- ./inp_files/20001.got.cif
#   From: 2010.05.17/outbox.cif.g08.bks.cpg/sg57_11_cif.got.tgz:20001.got - 2010.06.03 13:58:18.
