data_PCOD9438983
_publ_section_title
;
Structure prediction by ZEFSAII (Michael W. Deem and Ramdas Pophale) SiO2 
 PCOD9438983
Probable space group: P B C M
;
_chemical_formula_sum "Si O2"
_cell_formula_units_Z 40
_cell_length_a 16.194759
_cell_length_b 14.036592
_cell_length_c 8.569904
_cell_angle_alpha 90.000000
_cell_angle_beta 90.000000
_cell_angle_gamma 90.000000
_cell_volume 1948.103932
_symmetry_space_group_name_H-M "P B C M"
_symmetry_group_IT_number 57
_symmetry_cell_setting 'orthorhombic'
loop_
_space_group_symop_operation_xyz
x,y,z
-x,-y,1/2+z
x,1/2-y,-z
-x,1/2+y,1/2-z
-x,-y,-z
x,y,1/2-z
-x,1/2+y,z
x,1/2-y,1/2+z
loop_
_atom_site_type_symbol
_atom_site_label
_atom_site_fract_x
_atom_site_fract_y
_atom_site_fract_z
Si Si1 0.622288 0.446487 0.563036
Si Si2 0.131940 0.143222 0.935488
Si Si3 0.201996 0.537733 0.933781
Si Si4 0.955623 0.356268 0.564713
Si Si5 0.541239 0.647394 0.936866
O O1 0.627787 0.441064 0.750000
O O2 0.709937 0.423172 0.487557
O O3 0.549136 0.378618 0.503751
O O4 0.596792 0.555470 0.519833
O O5 0.142018 0.141346 0.750000
O O6 0.139568 0.250000 0.000000
O O7 0.195575 0.072825 0.017858
O O8 0.039288 0.109195 0.980675
O O9 0.190444 0.549512 0.750000
O O10 0.126306 0.586670 0.023258
O O11 0.943069 0.250000 0.500000
O O12 0.970159 0.355305 0.750000
O O13 0.537518 0.651281 0.750000
O O14 0.569020 0.750000 0.000000
#
# Coordination Sequence:
#
# PCOD9438983 Si02
#       5
#     8   8   8   8   8
#     4  10  22  40  60  87 119 150 191 238 284 340
#     4  11  22  39  60  85 116 154 198 242 290 343
#     4  12  24  39  59  86 119 155 194 240 292 342
#     4  11  22  39  60  85 116 153 197 243 291 344
#     4  10  21  39  64  89 116 151 188 230 284 344
#
# _framework density 20.532786999999999
#
# number of rings (size 3 to 8) (size 9 to 14) (size 15 to 20)
#    0.000    1.200    0.000    8.400    0.000    4.000 
#    0.000    6.000    0.000    0.000    0.000    0.000 
#    0.000    0.000    0.000    0.000    0.000    0.000 
#
# Total GULP energy -223780.101899 kJ/mol
# GULP energy per Si atom -5594.502547 kJ/mol
# Density = 2.048605 g / cm^3
# Si number density = 20.532787 Si / 1000 Ang^3
#
#
#
# Elastic Constant Matrix: (Units=GPa)
#
#
# Indices 1 2 3 4 5 6 
#
# 1 45.0231 -14.6877 -7.6615 0.0000 0.0000 0.0000
# 2 -14.6877 39.1469 0.6721 0.0000 0.0000 0.0000
# 3 -7.6615 0.6721 70.2658 0.0000 0.0000 0.0000
# 4 0.0000 0.0000 0.0000 35.2423 0.0000 0.0000
# 5 0.0000 0.0000 0.0000 0.0000 29.0333 0.0000
# 6 0.0000 0.0000 0.0000 0.0000 0.0000 5.1656
#
#
#
# Elastic Compliance Matrix: (Units=1/GPa)
#
#
# Indices 1 2 3 4 5 6 
#
# 1 0.025819 0.009640 0.002723 0.000000 0.000000 0.000000
# 2 0.009640 0.029149 0.000772 0.000000 0.000000 0.000000
# 3 0.002723 0.000772 0.014521 0.000000 0.000000 0.000000
# 4 0.000000 0.000000 0.000000 0.028375 0.000000 0.000000
# 5 0.000000 0.000000 0.000000 0.000000 0.034443 0.000000
# 6 0.000000 0.000000 0.000000 0.000000 0.000000 0.193589
#
#
# Mechanical properties :
#
#
# Convention : Reuss Voigt Hill
#
# Bulk Modulus (GPa) = 10.44272 12.34241 11.39256
# Shear Modulus (GPa) = 15.08092 25.62910 20.35501
#
# Velocity S-wave (km/s) = 2.71307 3.53683 3.15197
# Velocity P-wave (km/s) = 3.86151 4.76476 4.33672
#
# Compressibility (1/GPa) = 0.09576050
#
# Stress axis : x y z
#
# Youngs Moduli (GPa) = 38.73097 34.30698 68.86485
#
# Poissons Ratio (x) = -0.33074 -0.18752
# Poissons Ratio (y) = -0.37338 -0.05319
# Poissons Ratio (z) = -0.10546 -0.02650
#
# Static dielectric constant tensor:
#      x y z
#    x 1.718200 0.000000 0.000000 
#    y 0.000000 1.696230 0.000000 
#    z 0.000000 0.000000 1.672610 
# 
# From -- ./inp_files/4268.got.cif
#   From: 2010.05.17/outbox.cif.g08.bks.cpg/sg57_3_cif.got.tgz:4268.got - 2010.06.03 13:58:18.
