data_PCOD9438966
_publ_section_title
;
Structure prediction by ZEFSAII (Michael W. Deem and Ramdas Pophale) SiO2 
 PCOD9438966
Probable space group: P B C M
;
_chemical_formula_sum "Si O2"
_cell_formula_units_Z 40
_cell_length_a 25.625424
_cell_length_b 9.370511
_cell_length_c 8.653990
_cell_angle_alpha 90.000000
_cell_angle_beta 90.000000
_cell_angle_gamma 90.000000
_cell_volume 2078.024788
_symmetry_space_group_name_H-M "P B C M"
_symmetry_group_IT_number 57
_symmetry_cell_setting 'orthorhombic'
loop_
_space_group_symop_operation_xyz
x,y,z
-x,-y,1/2+z
x,1/2-y,-z
-x,1/2+y,1/2-z
-x,-y,-z
x,y,1/2-z
-x,1/2+y,z
x,1/2-y,1/2+z
loop_
_atom_site_type_symbol
_atom_site_label
_atom_site_fract_x
_atom_site_fract_y
_atom_site_fract_z
Si Si1 0.859950 0.092731 0.934391
Si Si2 0.262295 0.908005 0.434817
Si Si3 0.645434 0.909571 0.065294
Si Si4 0.952219 0.591601 0.566012
Si Si5 0.451167 0.910671 0.435432
O O1 0.867568 0.092456 0.750000
O O2 0.798864 0.063280 0.965951
O O3 0.871663 0.250000 0.000000
O O4 0.898518 0.981068 0.011874
O O5 0.274210 0.750000 0.500000
O O6 0.270334 0.908928 0.250000
O O7 0.299623 0.022312 0.514309
O O8 0.640722 0.907857 0.250000
O O9 0.640079 0.750000 0.000000
O O10 0.600740 0.009754 0.993429
O O11 0.955626 0.750000 0.500000
O O12 0.955053 0.594110 0.750000
O O13 0.000000 0.500000 0.500000
O O14 0.452727 0.750000 0.500000
O O15 0.452573 0.907738 0.250000
O O16 0.500000 0.000000 0.500000
#
# Coordination Sequence:
#
# PCOD9438966 Si02
#       5
#     8   8   8   8   8
#     4  10  21  39  63  91 123 159 201 247 300 358
#     4  10  21  39  63  91 123 161 203 249 300 358
#     4  12  25  42  63  90 124 163 206 253 304 359
#     4  12  25  42  63  88 120 157 200 247 300 358
#     4  12  25  44  67  94 126 162 204 250 303 361
#
# _framework density 19.24905
#
# number of rings (size 3 to 8) (size 9 to 14) (size 15 to 20)
#    0.000    0.800    0.000    8.400    0.000    3.200 
#    0.000    0.000    0.000    0.000    0.000    0.000 
#    0.000    0.000    0.000    0.000    0.000    0.000 
#
# Total GULP energy -223961.624245 kJ/mol
# GULP energy per Si atom -5599.040606 kJ/mol
# Density = 1.920524 g / cm^3
# Si number density = 19.249050 Si / 1000 Ang^3
#
#
#
# Elastic Constant Matrix: (Units=GPa)
#
#
# Indices 1 2 3 4 5 6 
#
# 1 97.2026 100.1174 79.9850 0.0000 0.0000 0.0000
# 2 100.1174 197.0167 99.2673 0.0000 0.0000 0.0000
# 3 79.9850 99.2673 195.7622 0.0000 0.0000 0.0000
# 4 0.0000 0.0000 0.0000 41.6778 0.0000 0.0000
# 5 0.0000 0.0000 0.0000 0.0000 40.7201 0.0000
# 6 0.0000 0.0000 0.0000 0.0000 0.0000 58.9574
#
#
#
# Elastic Compliance Matrix: (Units=1/GPa)
#
#
# Indices 1 2 3 4 5 6 
#
# 1 0.024790 -0.010066 -0.005025 0.000000 0.000000 0.000000
# 2 -0.010066 0.010905 -0.001417 0.000000 0.000000 0.000000
# 3 -0.005025 -0.001417 0.007880 0.000000 0.000000 0.000000
# 4 0.000000 0.000000 0.000000 0.023994 0.000000 0.000000
# 5 0.000000 0.000000 0.000000 0.000000 0.024558 0.000000
# 6 0.000000 0.000000 0.000000 0.000000 0.000000 0.016961
#
#
# Mechanical properties :
#
#
# Convention : Reuss Voigt Hill
#
# Bulk Modulus (GPa) = 94.69813 116.52454 105.61134
# Shear Modulus (GPa) = 34.33554 42.31185 38.32370
#
# Velocity S-wave (km/s) = 4.22803 4.69350 4.46684
# Velocity P-wave (km/s) = 8.55208 9.48887 9.03263
#
# Compressibility (1/GPa) = 0.01055987
#
# Stress axis : x y z
#
# Youngs Moduli (GPa) = 40.33885 91.70352 126.90908
#
# Poissons Ratio (x) = 0.92307 0.63766
# Poissons Ratio (y) = 0.40604 0.17981
# Poissons Ratio (z) = 0.20269 0.12993
#
# Static dielectric constant tensor:
#      x y z
#    x 1.662270 0.000000 0.000000 
#    y 0.000000 1.620500 0.000000 
#    z 0.000000 0.000000 1.639580 
# 
# From -- ./inp_files/8913.got.cif
#   From: 2010.05.17/outbox.cif.g08.bks.cpg/sg57_5_cif.got.tgz:8913.got - 2010.06.03 13:58:18.
