data_PCOD9438929
_publ_section_title
;
Structure prediction by ZEFSAII (Michael W. Deem and Ramdas Pophale) SiO2 
 PCOD9438929
Probable space group: P B C M
;
_chemical_formula_sum "Si O2"
_cell_formula_units_Z 64
_cell_length_a 21.624057
_cell_length_b 5.567008
_cell_length_c 26.798368
_cell_angle_alpha 90.000000
_cell_angle_beta 90.000000
_cell_angle_gamma 90.000000
_cell_volume 3226.022332
_symmetry_space_group_name_H-M "P B C M"
_symmetry_group_IT_number 57
_symmetry_cell_setting 'orthorhombic'
loop_
_space_group_symop_operation_xyz
x,y,z
-x,-y,1/2+z
x,1/2-y,-z
-x,1/2+y,1/2-z
-x,-y,-z
x,y,1/2-z
-x,1/2+y,z
x,1/2-y,1/2+z
loop_
_atom_site_type_symbol
_atom_site_label
_atom_site_fract_x
_atom_site_fract_y
_atom_site_fract_z
Si Si1 0.462369 0.500610 0.134274
Si Si2 0.713207 0.461980 0.371723
Si Si3 0.827413 0.822598 0.691244
Si Si4 0.370008 0.229083 0.303746
Si Si5 0.402594 0.499256 0.473996
Si Si6 0.031882 0.088624 0.189289
Si Si7 0.735498 0.999015 0.987756
Si Si8 0.743286 0.070878 0.303497
O O1 0.492991 0.764321 0.136288
O O2 0.416619 0.435821 0.179522
O O3 0.425076 0.493345 0.082459
O O4 0.775507 0.564648 0.344811
O O5 0.647769 0.548414 0.348212
O O6 0.715824 0.502701 0.430007
O O7 0.720362 0.191374 0.353634
O O8 0.821022 0.890637 0.750000
O O9 0.896133 0.886658 0.675261
O O10 0.811445 0.537824 0.691103
O O11 0.388230 0.121803 0.250000
O O12 0.303827 0.352973 0.297752
O O13 0.423360 0.750000 0.500000
O O14 0.327971 0.499726 0.479725
O O15 0.423759 0.250000 0.500000
O O16 0.029524 0.089069 0.250000
O O17 0.996756 0.333030 0.172973
O O18 0.768202 0.250000 0.000000
O O19 0.768904 0.750000 0.000000
O O20 0.737603 0.206071 0.250000
#
# Coordination Sequence:
#
# PCOD9438929 Si02
#       8
#     8   8   8   8   8   8   8   8
#     4  12  28  44  64  87 112 148 192 238 293 359
#     4  11  21  35  64  85 120 154 198 245 305 364
#     4   9  19  33  52  86 125 162 207 250 288 342
#     4  10  23  41  61  86 116 151 195 241 295 361
#     4  10  21  39  62  84 109 139 180 232 289 353
#     4   9  18  31  49  76 118 171 212 242 281 330
#     4  10  23  38  60  87 116 151 184 237 306 367
#     4   9  19  33  57  87 114 153 196 242 293 353
#
# _framework density 19.838671999999999
#
# number of rings (size 3 to 8) (size 9 to 14) (size 15 to 20)
#    0.000    2.000    0.000    4.125   10.500    2.000 
#    0.000    0.000    0.000    0.000    0.000    0.000 
#    0.000    3.000    0.000    0.000    0.000    0.000 
#
# Total GULP energy -356474.354143 kJ/mol
# GULP energy per Si atom -5569.911783 kJ/mol
# Density = 1.979352 g / cm^3
# Si number density = 19.838672 Si / 1000 Ang^3
#
#
#
# Elastic Constant Matrix: (Units=GPa)
#
#
# Indices 1 2 3 4 5 6 
#
# 1 67.3562 17.4660 6.1971 0.0000 0.0000 0.0000
# 2 17.4660 99.3945 10.0747 0.0000 0.0000 0.0000
# 3 6.1971 10.0747 67.2645 0.0000 0.0000 0.0000
# 4 0.0000 0.0000 0.0000 25.3782 0.0000 0.0000
# 5 0.0000 0.0000 0.0000 0.0000 7.5990 0.0000
# 6 0.0000 0.0000 0.0000 0.0000 0.0000 18.3581
#
#
#
# Elastic Compliance Matrix: (Units=1/GPa)
#
#
# Indices 1 2 3 4 5 6 
#
# 1 0.015627 -0.002640 -0.001044 0.000000 0.000000 0.000000
# 2 -0.002640 0.010662 -0.001354 0.000000 0.000000 0.000000
# 3 -0.001044 -0.001354 0.015166 0.000000 0.000000 0.000000
# 4 0.000000 0.000000 0.000000 0.039404 0.000000 0.000000
# 5 0.000000 0.000000 0.000000 0.000000 0.131597 0.000000
# 6 0.000000 0.000000 0.000000 0.000000 0.000000 0.054472
#
#
# Mechanical properties :
#
#
# Convention : Reuss Voigt Hill
#
# Bulk Modulus (GPa) = 31.86898 33.49898 32.68398
# Shear Modulus (GPa) = 17.39353 23.61888 20.50621
#
# Velocity S-wave (km/s) = 2.96421 3.45417 3.21853
# Velocity P-wave (km/s) = 5.27393 5.72981 5.50659
#
# Compressibility (1/GPa) = 0.03137848
#
# Stress axis : x y z
#
# Youngs Moduli (GPa) = 63.99118 93.79027 65.93852
#
# Poissons Ratio (x) = 0.24763 0.06886
# Poissons Ratio (y) = 0.16895 0.08926
# Poissons Ratio (z) = 0.06683 0.12696
#
# Static dielectric constant tensor:
#      x y z
#    x 1.692270 0.000000 0.000000 
#    y 0.000000 1.874620 0.000000 
#    z 0.000000 0.000000 1.745020 
# 
# From -- ./inp_files/28926.got.cif
#   From: 2010.05.17/outbox.cif.g08.bks.cpg/sg57_15_cif.got.tgz:28926.got - 2010.06.03 13:58:18.
