data_PCOD9438109
_publ_section_title
;
Structure prediction by ZEFSAII (Michael W. Deem and Ramdas Pophale) SiO2 
 PCOD9438109
Probable space group: P B C M
;
_chemical_formula_sum "Si O2"
_cell_formula_units_Z 64
_cell_length_a 8.967354
_cell_length_b 21.814177
_cell_length_c 14.450199
_cell_angle_alpha 90.000000
_cell_angle_beta 90.000000
_cell_angle_gamma 90.000000
_cell_volume 2826.682142
_symmetry_space_group_name_H-M "P B C M"
_symmetry_group_IT_number 57
_symmetry_cell_setting 'orthorhombic'
loop_
_space_group_symop_operation_xyz
x,y,z
-x,-y,1/2+z
x,1/2-y,-z
-x,1/2+y,1/2-z
-x,-y,-z
x,y,1/2-z
-x,1/2+y,z
x,1/2-y,1/2+z
loop_
_atom_site_type_symbol
_atom_site_label
_atom_site_fract_x
_atom_site_fract_y
_atom_site_fract_z
Si Si1 0.185121 0.397877 0.642385
Si Si2 0.251719 0.133055 0.642097
Si Si3 0.670124 0.114038 0.355133
Si Si4 0.821669 0.736195 0.359802
Si Si5 0.166438 0.740656 0.102934
Si Si6 0.909900 0.059205 0.033661
Si Si7 0.423684 0.435842 0.980118
Si Si8 0.110869 0.623401 0.849829
O O1 0.152102 0.407544 0.750000
O O2 0.251889 0.329733 0.630129
O O3 0.298174 0.445361 0.598446
O O4 0.037766 0.400328 0.581126
O O5 0.701455 0.625910 0.750000
O O6 0.266472 0.203979 0.609286
O O7 0.340626 0.091237 0.570247
O O8 0.071138 0.123659 0.641053
O O9 0.617074 0.104056 0.250000
O O10 0.755316 0.179821 0.357761
O O11 0.784378 0.059891 0.387158
O O12 0.541809 0.109447 0.431665
O O13 0.846405 0.745984 0.250000
O O14 0.987367 0.731723 0.400309
O O15 0.174875 0.807485 0.149945
O O16 0.224799 0.750000 0.000000
O O17 0.839479 0.089913 0.942749
O O18 0.000000 0.000000 0.000000
O O19 0.500000 0.500000 0.000000
O O20 0.146141 0.594706 0.750000
#
# Coordination Sequence:
#
# PCOD9438109 Si02
#       8
#     8   8   8   8   8   8   8   8
#     4  11  22  42  68  95 127 170 230 292 340 403
#     4   9  20  40  68  98 129 175 229 285 342 400
#     4  12  26  45  69 100 141 185 227 288 367 422
#     4   9  18  35  65 103 129 158 218 285 339 401
#     4  11  19  37  67 101 141 176 211 277 352 422
#     4  12  24  42  64 101 139 179 237 287 341 417
#     4  12  27  47  65  96 138 188 240 285 333 420
#     4  10  20  38  68 103 135 173 223 285 347 408
#
# _framework density 22.641386000000001
#
# number of rings (size 3 to 8) (size 9 to 14) (size 15 to 20)
#    0.000    1.250    3.750    3.375    1.750    2.000 
#    2.250    0.625    0.000    0.000    0.000    0.000 
#    0.000    0.000    0.000    0.000    0.000    0.000 
#
# Total GULP energy -357322.989814 kJ/mol
# GULP energy per Si atom -5583.171716 kJ/mol
# Density = 2.258985 g / cm^3
# Si number density = 22.641386 Si / 1000 Ang^3
#
#
#
# Elastic Constant Matrix: (Units=GPa)
#
#
# Indices 1 2 3 4 5 6 
#
# 1 42.2248 17.0896 21.9641 0.0000 0.0000 0.0000
# 2 17.0896 89.3386 46.9803 0.0000 0.0000 0.0000
# 3 21.9641 46.9803 152.4847 0.0000 0.0000 0.0000
# 4 0.0000 0.0000 0.0000 18.1144 0.0000 0.0000
# 5 0.0000 0.0000 0.0000 0.0000 19.6751 0.0000
# 6 0.0000 0.0000 0.0000 0.0000 0.0000 28.0682
#
#
#
# Elastic Compliance Matrix: (Units=1/GPa)
#
#
# Indices 1 2 3 4 5 6 
#
# 1 0.026569 -0.003663 -0.002698 0.000000 0.000000 0.000000
# 2 -0.003663 0.013863 -0.003743 0.000000 0.000000 0.000000
# 3 -0.002698 -0.003743 0.008100 0.000000 0.000000 0.000000
# 4 0.000000 0.000000 0.000000 0.055205 0.000000 0.000000
# 5 0.000000 0.000000 0.000000 0.000000 0.050826 0.000000
# 6 0.000000 0.000000 0.000000 0.000000 0.000000 0.035628
#
#
# Mechanical properties :
#
#
# Convention : Reuss Voigt Hill
#
# Bulk Modulus (GPa) = 35.30894 50.67957 42.99425
# Shear Modulus (GPa) = 22.74378 26.37248 24.55813
#
# Velocity S-wave (km/s) = 3.17286 3.41661 3.29699
# Velocity P-wave (km/s) = 5.38994 6.16413 5.78999
#
# Compressibility (1/GPa) = 0.02832144
#
# Stress axis : x y z
#
# Youngs Moduli (GPa) = 37.63781 72.13618 123.45616
#
# Poissons Ratio (x) = 0.26426 0.33313
# Poissons Ratio (y) = 0.13788 0.46214
# Poissons Ratio (z) = 0.10156 0.27003
#
# Static dielectric constant tensor:
#      x y z
#    x 1.862180 0.000000 0.000000 
#    y 0.000000 1.894510 0.000000 
#    z 0.000000 0.000000 1.837880 
# 
# From -- ./inp_files/16939.got.cif
#   From: 2010.05.17/outbox.cif.g08.bks.cpg/sg57_9_cif.got.tgz:16939.got - 2010.06.03 13:58:18.
