data_PCOD9438801
_publ_section_title
;
Structure prediction by ZEFSAII (Michael W. Deem and Ramdas Pophale) SiO2 
 PCOD9438801
Probable space group: P B C M
;
_chemical_formula_sum "Si O2"
_cell_formula_units_Z 48
_cell_length_a 15.454751
_cell_length_b 19.431474
_cell_length_c 8.736676
_cell_angle_alpha 90.000000
_cell_angle_beta 90.000000
_cell_angle_gamma 90.000000
_cell_volume 2623.698870
_symmetry_space_group_name_H-M "P B C M"
_symmetry_group_IT_number 57
_symmetry_cell_setting 'orthorhombic'
loop_
_space_group_symop_operation_xyz
x,y,z
-x,-y,1/2+z
x,1/2-y,-z
-x,1/2+y,1/2-z
-x,-y,-z
x,y,1/2-z
-x,1/2+y,z
x,1/2-y,1/2+z
loop_
_atom_site_type_symbol
_atom_site_label
_atom_site_fract_x
_atom_site_fract_y
_atom_site_fract_z
Si Si1 0.226746 0.575579 0.933896
Si Si2 0.469528 0.426748 0.566466
Si Si3 0.627558 0.173786 0.433339
Si Si4 0.718202 0.572523 0.565998
Si Si5 0.125701 0.173711 0.934473
Si Si6 0.972221 0.426293 0.434554
O O1 0.233213 0.573995 0.750000
O O2 0.126864 0.588750 0.977255
O O3 0.290788 0.632774 0.999558
O O4 0.254681 0.501541 0.999571
O O5 0.500000 0.500000 0.500000
O O6 0.463611 0.432031 0.750000
O O7 0.541810 0.370146 0.527563
O O8 0.376140 0.409484 0.497667
O O9 0.622769 0.250000 0.500000
O O10 0.634498 0.176296 0.250000
O O11 0.715274 0.567743 0.750000
O O12 0.790485 0.628520 0.522021
O O13 0.124193 0.177521 0.750000
O O14 0.040421 0.131631 0.984969
O O15 0.128489 0.250000 0.000000
O O16 0.976461 0.430283 0.250000
O O17 0.000000 0.500000 0.500000
#
# Coordination Sequence:
#
# PCOD9438801 Si02
#       6
#     8   8   8   8   8   8
#     4  11  22  37  63  93 122 159 206 253 302 363
#     4  11  23  39  63  92 122 159 204 250 301 363
#     4  11  25  43  63  89 125 163 201 252 310 361
#     4  11  22  38  62  90 122 160 204 253 303 359
#     4  10  23  41  60  87 125 161 201 251 306 361
#     4  10  21  38  61  91 122 158 204 251 301 361
#
# _framework density 18.294782000000001
#
# number of rings (size 3 to 8) (size 9 to 14) (size 15 to 20)
#    0.000    1.333    3.333    2.000    0.000    6.000 
#    0.000    5.000    0.000    0.000    0.000    0.000 
#    0.000    0.000    0.000    0.000    0.000    0.000 
#
# Total GULP energy -268328.149787 kJ/mol
# GULP energy per Si atom -5590.169787 kJ/mol
# Density = 1.825314 g / cm^3
# Si number density = 18.294782 Si / 1000 Ang^3
#
#
#
# Elastic Constant Matrix: (Units=GPa)
#
#
# Indices 1 2 3 4 5 6 
#
# 1 219.8333 118.7133 67.9510 0.0000 0.0000 0.0000
# 2 118.7133 193.6469 57.0702 0.0000 0.0000 0.0000
# 3 67.9510 57.0702 46.7642 0.0000 0.0000 0.0000
# 4 0.0000 0.0000 0.0000 37.0368 0.0000 0.0000
# 5 0.0000 0.0000 0.0000 0.0000 28.9571 0.0000
# 6 0.0000 0.0000 0.0000 0.0000 0.0000 32.2989
#
#
#
# Elastic Compliance Matrix: (Units=1/GPa)
#
#
# Indices 1 2 3 4 5 6 
#
# 1 0.009028 -0.002605 -0.009938 0.000000 0.000000 0.000000
# 2 -0.002605 0.008817 -0.006974 0.000000 0.000000 0.000000
# 3 -0.009938 -0.006974 0.044335 0.000000 0.000000 0.000000
# 4 0.000000 0.000000 0.000000 0.027000 0.000000 0.000000
# 5 0.000000 0.000000 0.000000 0.000000 0.034534 0.000000
# 6 0.000000 0.000000 0.000000 0.000000 0.000000 0.030961
#
#
# Mechanical properties :
#
#
# Convention : Reuss Voigt Hill
#
# Bulk Modulus (GPa) = 43.20620 105.30149 74.25385
# Shear Modulus (GPa) = 24.82326 34.09256 29.45791
#
# Velocity S-wave (km/s) = 3.68754 4.32153 4.01706
# Velocity P-wave (km/s) = 6.46518 9.08757 7.88614
#
# Compressibility (1/GPa) = 0.02314483
#
# Stress axis : x y z
#
# Youngs Moduli (GPa) = 110.76839 113.42340 22.55546
#
# Poissons Ratio (x) = 0.29552 0.22416
# Poissons Ratio (y) = 0.28861 0.15729
# Poissons Ratio (z) = 1.10084 0.79097
#
# Static dielectric constant tensor:
#      x y z
#    x 1.628670 0.000000 0.000000 
#    y 0.000000 1.580720 0.000000 
#    z 0.000000 0.000000 1.617600 
# 
# From -- ./inp_files/4687.got.cif
#   From: 2010.05.17/outbox.cif.g08.bks.cpg/sg57_3_cif.got.tgz:4687.got - 2010.06.03 13:58:18.
