data_PCOD9438256
_publ_section_title
;
Structure prediction by ZEFSAII (Michael W. Deem and Ramdas Pophale) SiO2 
 PCOD9438256
Probable space group: P B C M
;
_chemical_formula_sum "Si O2"
_cell_formula_units_Z 64
_cell_length_a 7.989032
_cell_length_b 25.938819
_cell_length_c 13.135614
_cell_angle_alpha 90.000000
_cell_angle_beta 90.000000
_cell_angle_gamma 90.000000
_cell_volume 2722.041470
_symmetry_space_group_name_H-M "P B C M"
_symmetry_group_IT_number 57
_symmetry_cell_setting 'orthorhombic'
loop_
_space_group_symop_operation_xyz
x,y,z
-x,-y,1/2+z
x,1/2-y,-z
-x,1/2+y,1/2-z
-x,-y,-z
x,y,1/2-z
-x,1/2+y,z
x,1/2-y,1/2+z
loop_
_atom_site_type_symbol
_atom_site_label
_atom_site_fract_x
_atom_site_fract_y
_atom_site_fract_z
Si Si1 0.319226 0.278895 0.629302
Si Si2 0.051125 0.563780 0.873744
Si Si3 0.752193 0.974186 0.995474
Si Si4 0.534793 0.046379 0.135556
Si Si5 0.623565 0.150330 0.065301
Si Si6 0.513492 0.825008 0.134821
Si Si7 0.042599 0.792102 0.626160
Si Si8 0.131023 0.819765 0.364221
O O1 0.298146 0.271857 0.750000
O O2 0.485875 0.311858 0.612799
O O3 0.362432 0.219808 0.596156
O O4 0.147567 0.307567 0.598283
O O5 0.043713 0.557194 0.750000
O O6 0.876905 0.557603 0.933507
O O7 0.118182 0.621032 0.899551
O O8 0.160139 0.518791 0.926973
O O9 0.629221 0.002848 0.073207
O O10 0.643150 0.942305 0.915893
O O11 0.510817 0.029634 0.250000
O O12 0.641857 0.098237 0.127423
O O13 0.802262 0.179982 0.069623
O O14 0.532215 0.136463 0.956756
O O15 0.556509 0.843186 0.250000
O O16 0.325152 0.802016 0.142297
O O17 0.069483 0.797919 0.750000
O O18 0.039765 0.731269 0.600060
O O19 0.063242 0.825774 0.250000
#
# Coordination Sequence:
#
# PCOD9438256 Si02
#       8
#     8   8   8   8   8   8   8   8
#     4  10  21  39  61  92 133 179 227 275 332 398
#     4  10  20  40  69 101 135 175 230 294 354 423
#     4  10  23  43  66  98 135 180 228 293 361 418
#     4  11  24  44  70 100 136 178 230 289 354 431
#     4  12  23  42  67  98 135 182 227 276 345 418
#     4  10  21  40  61  88 132 179 225 279 328 391
#     4  10  21  39  64  96 136 175 219 272 332 407
#     4   9  18  35  62  90 124 170 214 271 338 398
#
# _framework density 23.511763999999999
#
# number of rings (size 3 to 8) (size 9 to 14) (size 15 to 20)
#    0.000    1.750    1.250    3.000    0.000    1.000 
#   11.250    4.375    0.000    0.000    0.000    0.000 
#    0.000    0.000    0.000    0.000    0.000    0.000 
#
# Total GULP energy -356911.952163 kJ/mol
# GULP energy per Si atom -5576.749253 kJ/mol
# Density = 2.345825 g / cm^3
# Si number density = 23.511764 Si / 1000 Ang^3
#
#
#
# Elastic Constant Matrix: (Units=GPa)
#
#
# Indices 1 2 3 4 5 6 
#
# 1 123.7954 29.5348 30.2450 0.0000 0.0000 0.0000
# 2 29.5348 69.0452 23.4806 0.0000 0.0000 0.0000
# 3 30.2450 23.4806 153.8132 0.0000 0.0000 0.0000
# 4 0.0000 0.0000 0.0000 26.1673 0.0000 0.0000
# 5 0.0000 0.0000 0.0000 0.0000 27.3006 0.0000
# 6 0.0000 0.0000 0.0000 0.0000 0.0000 24.2979
#
#
#
# Elastic Compliance Matrix: (Units=1/GPa)
#
#
# Indices 1 2 3 4 5 6 
#
# 1 0.009228 -0.003513 -0.001278 0.000000 0.000000 0.000000
# 2 -0.003513 0.016613 -0.001845 0.000000 0.000000 0.000000
# 3 -0.001278 -0.001845 0.007034 0.000000 0.000000 0.000000
# 4 0.000000 0.000000 0.000000 0.038216 0.000000 0.000000
# 5 0.000000 0.000000 0.000000 0.000000 0.036629 0.000000
# 6 0.000000 0.000000 0.000000 0.000000 0.000000 0.041156
#
#
# Mechanical properties :
#
#
# Convention : Reuss Voigt Hill
#
# Bulk Modulus (GPa) = 51.01223 57.01940 54.01581
# Shear Modulus (GPa) = 29.64119 33.11273 31.37696
#
# Velocity S-wave (km/s) = 3.55448 3.75687 3.65707
# Velocity P-wave (km/s) = 6.21203 6.56680 6.39188
#
# Compressibility (1/GPa) = 0.01960314
#
# Stress axis : x y z
#
# Youngs Moduli (GPa) = 108.36322 60.19212 142.15702
#
# Poissons Ratio (x) = 0.21144 0.18173
# Poissons Ratio (y) = 0.38065 0.26234
# Poissons Ratio (z) = 0.13853 0.11108
#
# Static dielectric constant tensor:
#      x y z
#    x 1.936220 0.000000 0.000000 
#    y 0.000000 1.840570 0.000000 
#    z 0.000000 0.000000 2.044250 
# 
# From -- ./inp_files/16959.got.cif
#   From: 2010.05.17/outbox.cif.g08.bks.cpg/sg57_9_cif.got.tgz:16959.got - 2010.06.03 13:58:18.
