data_PCOD9438901
_publ_section_title
;
Structure prediction by ZEFSAII (Michael W. Deem and Ramdas Pophale) SiO2 
 PCOD9438901
Probable space group: P B C M
;
_chemical_formula_sum "Si O2"
_cell_formula_units_Z 48
_cell_length_a 32.937290
_cell_length_b 5.089085
_cell_length_c 14.269492
_cell_angle_alpha 90.000000
_cell_angle_beta 90.000000
_cell_angle_gamma 90.000000
_cell_volume 2391.861788
_symmetry_space_group_name_H-M "P B C M"
_symmetry_group_IT_number 57
_symmetry_cell_setting 'orthorhombic'
loop_
_space_group_symop_operation_xyz
x,y,z
-x,-y,1/2+z
x,1/2-y,-z
-x,1/2+y,1/2-z
-x,-y,-z
x,y,1/2-z
-x,1/2+y,z
x,1/2-y,1/2+z
loop_
_atom_site_type_symbol
_atom_site_label
_atom_site_fract_x
_atom_site_fract_y
_atom_site_fract_z
Si Si1 0.650726 0.620658 0.250000
Si Si2 0.795638 0.008016 0.564038
Si Si3 0.594818 0.127529 0.250000
Si Si4 0.152346 0.403819 0.750000
Si Si5 0.524817 0.232893 0.111732
Si Si6 0.905420 0.397978 0.750000
Si Si7 0.975275 0.233919 0.388197
Si Si8 0.298326 0.508048 0.935927
O O1 0.615020 0.410879 0.250000
O O2 0.677078 0.559704 0.342510
O O3 0.629630 0.906551 0.250000
O O4 0.811281 0.250000 0.500000
O O5 0.795999 0.750000 0.500000
O O6 0.820460 0.942982 0.657334
O O7 0.748660 0.071137 0.588917
O O8 0.565002 0.125070 0.160791
O O9 0.120325 0.635786 0.750000
O O10 0.126135 0.137059 0.750000
O O11 0.510509 0.525359 0.138029
O O12 0.529952 0.250000 0.000000
O O13 0.935443 0.377721 0.661189
O O14 0.970151 0.250000 0.500000
O O15 0.989120 0.527601 0.362019
O O16 0.298667 0.250000 0.000000
O O17 0.313990 0.750000 0.000000
#
# Coordination Sequence:
#
# PCOD9438901 Si02
#       8
#     4   8   4   4   8   4   8   8
#     4  12  25  39  60  94 129 160 197 252 316 369
#     4  10  22  42  66  89 119 163 209 250 296 361
#     4  12  24  37  59  90 125 158 193 250 315 365
#     4  12  25  39  60  94 129 160 197 252 316 369
#     4  10  21  39  61  83 112 156 206 249 292 353
#     4  12  24  37  59  90 125 158 193 250 315 365
#     4  10  21  39  61  83 112 156 206 249 292 353
#     4  10  22  42  66  89 119 163 209 250 296 361
#
# _framework density 20.068047
#
# number of rings (size 3 to 8) (size 9 to 14) (size 15 to 20)
#    0.000    1.333    0.000    5.500    0.000    4.000 
#    0.000    6.667    0.000    0.000    0.000    0.000 
#    0.000    0.000    0.000    0.000    0.000    0.000 
#
# Total GULP energy -268122.269424 kJ/mol
# GULP energy per Si atom -5585.880613 kJ/mol
# Density = 2.002237 g / cm^3
# Si number density = 20.068047 Si / 1000 Ang^3
#
#
#
# Elastic Constant Matrix: (Units=GPa)
#
#
# Indices 1 2 3 4 5 6 
#
# 1 77.4781 12.2028 57.2037 0.0000 0.0000 0.0000
# 2 12.2028 110.5343 28.7276 0.0000 0.0000 0.0000
# 3 57.2037 28.7276 141.9580 0.0000 0.0000 0.0000
# 4 0.0000 0.0000 0.0000 22.6102 0.0000 0.0000
# 5 0.0000 0.0000 0.0000 0.0000 271.0975 0.0000
# 6 0.0000 0.0000 0.0000 0.0000 0.0000 31.5573
#
#
#
# Elastic Compliance Matrix: (Units=1/GPa)
#
#
# Indices 1 2 3 4 5 6 
#
# 1 0.018374 -0.000110 -0.007382 0.000000 0.000000 0.000000
# 2 -0.000110 0.009550 -0.001888 0.000000 0.000000 0.000000
# 3 -0.007382 -0.001888 0.010401 0.000000 0.000000 0.000000
# 4 0.000000 0.000000 0.000000 0.044228 0.000000 0.000000
# 5 0.000000 0.000000 0.000000 0.000000 0.003689 0.000000
# 6 0.000000 0.000000 0.000000 0.000000 0.000000 0.031688
#
#
# Mechanical properties :
#
#
# Convention : Reuss Voigt Hill
#
# Bulk Modulus (GPa) = 51.11153 58.47094 54.79123
# Shear Modulus (GPa) = 34.91319 80.50875 57.71097
#
# Velocity S-wave (km/s) = 4.17554 6.34074 5.36843
# Velocity P-wave (km/s) = 6.98364 9.09979 8.11103
#
# Compressibility (1/GPa) = 0.01956506
#
# Stress axis : x y z
#
# Youngs Moduli (GPa) = 54.42342 104.71356 96.14364
#
# Poissons Ratio (x) = 0.01151 0.70973
# Poissons Ratio (y) = 0.00598 0.18154
# Poissons Ratio (z) = 0.40175 0.19773
#
# Static dielectric constant tensor:
#      x y z
#    x 1.688320 0.000000 0.000000 
#    y 0.000000 1.678170 0.000000 
#    z 0.000000 0.000000 1.702070 
# 
# From -- ./inp_files/19626.got.cif
#   From: 2010.05.17/outbox.cif.g08.bks.cpg/sg57_10_cif.got.tgz:19626.got - 2010.06.03 13:58:18.
