data_PCOD9438237
_publ_section_title
;
Structure prediction by ZEFSAII (Michael W. Deem and Ramdas Pophale) SiO2 
 PCOD9438237
Probable space group: P B C M
;
_chemical_formula_sum "Si O2"
_cell_formula_units_Z 64
_cell_length_a 10.980873
_cell_length_b 14.563865
_cell_length_c 16.237041
_cell_angle_alpha 90.000000
_cell_angle_beta 90.000000
_cell_angle_gamma 90.000000
_cell_volume 2596.691765
_symmetry_space_group_name_H-M "P B C M"
_symmetry_group_IT_number 57
_symmetry_cell_setting 'orthorhombic'
loop_
_space_group_symop_operation_xyz
x,y,z
-x,-y,1/2+z
x,1/2-y,-z
-x,1/2+y,1/2-z
-x,-y,-z
x,y,1/2-z
-x,1/2+y,z
x,1/2-y,1/2+z
loop_
_atom_site_type_symbol
_atom_site_label
_atom_site_fract_x
_atom_site_fract_y
_atom_site_fract_z
Si Si1 0.460309 0.979403 0.408106
Si Si2 0.301917 0.929963 0.844812
Si Si3 0.924330 0.067770 0.842714
Si Si4 0.926551 0.630367 0.420519
Si Si5 0.845662 0.239218 0.349331
Si Si6 0.176544 0.100802 0.900657
Si Si7 0.317725 0.371764 0.653836
Si Si8 0.430364 0.305771 0.151427
O O1 0.561479 0.032887 0.353248
O O2 0.335574 0.030517 0.389001
O O3 0.500000 0.000000 0.500000
O O4 0.470675 0.872861 0.387485
O O5 0.262883 0.946971 0.750000
O O6 0.274344 0.823397 0.861641
O O7 0.219941 0.994417 0.902852
O O8 0.886484 0.040718 0.750000
O O9 0.843898 0.153723 0.872948
O O10 0.061658 0.107800 0.841062
O O11 0.937799 0.977444 0.897957
O O12 0.874982 0.636547 0.512739
O O13 0.816528 0.664728 0.363122
O O14 0.047044 0.686347 0.397956
O O15 0.870448 0.238077 0.250000
O O16 0.299396 0.149279 0.870335
O O17 0.336845 0.381887 0.750000
O O18 0.414639 0.297800 0.620437
O O19 0.446739 0.304920 0.250000
#
# Coordination Sequence:
#
# PCOD9438237 Si02
#       8
#     8   8   8   8   8   8   8   8
#     4  11  23  41  66  93 127 160 208 266 325 370
#     4  10  20  40  66  87 117 167 218 257 297 371
#     4  11  22  38  59  87 124 167 210 254 307 369
#     4  12  24  39  59  95 134 162 198 263 328 367
#     4  10  22  39  62  89 121 168 216 251 301 375
#     4  11  21  36  61  91 123 164 207 256 309 368
#     4  11  23  41  66  94 127 166 209 262 320 374
#     4  10  22  42  69  95 119 166 224 258 300 377
#
# _framework density 24.646746
#
# number of rings (size 3 to 8) (size 9 to 14) (size 15 to 20)
#    0.000    1.250    1.250    6.750    0.000    5.500 
#    2.250    0.000    5.500    0.000    0.000    0.000 
#    0.000    0.000    0.000    0.000    0.000    0.000 
#
# Total GULP energy -358082.152236 kJ/mol
# GULP energy per Si atom -5595.033629 kJ/mol
# Density = 2.459065 g / cm^3
# Si number density = 24.646746 Si / 1000 Ang^3
#
#
#
# Elastic Constant Matrix: (Units=GPa)
#
#
# Indices 1 2 3 4 5 6 
#
# 1 52.4670 0.8737 -15.4146 0.0000 0.0000 0.0000
# 2 0.8737 116.5806 2.2810 0.0000 0.0000 0.0000
# 3 -15.4146 2.2810 68.6155 0.0000 0.0000 0.0000
# 4 0.0000 0.0000 0.0000 -0.4103 0.0000 0.0000
# 5 0.0000 0.0000 0.0000 0.0000 23.7494 0.0000
# 6 0.0000 0.0000 0.0000 0.0000 0.0000 28.0273
#
#
#
# Elastic Compliance Matrix: (Units=1/GPa)
#
#
# Indices 1 2 3 4 5 6 
#
# 1 0.020413 -0.000243 0.004594 0.000000 0.000000 0.000000
# 2 -0.000243 0.008586 -0.000340 0.000000 0.000000 0.000000
# 3 0.004594 -0.000340 0.015617 0.000000 0.000000 0.000000
# 4 0.000000 0.000000 0.000000 -2.437438 0.000000 0.000000
# 5 0.000000 0.000000 0.000000 0.000000 0.042106 0.000000
# 6 0.000000 0.000000 0.000000 0.000000 0.000000 0.035679
#
#
# Mechanical properties :
#
#
# Convention : Reuss Voigt Hill
#
# Bulk Modulus (GPa) = 18.99730 23.68259 21.33994
# Shear Modulus (GPa) = -2.16872 26.93482 12.38305
#
# Velocity S-wave (km/s) = -0.93906 3.30939 2.24391
# Velocity P-wave (km/s) = 2.55906 4.92264 3.92309
#
# Compressibility (1/GPa) = 0.05263907
#
# Stress axis : x y z
#
# Youngs Moduli (GPa) = 48.98763 116.46552 64.03152
#
# Poissons Ratio (x) = 0.02829 -0.29416
# Poissons Ratio (y) = 0.01190 0.02177
# Poissons Ratio (z) = -0.22505 0.03960
#
# Static dielectric constant tensor:
#      x y z
#    x 1.974250 0.000000 0.000000 
#    y 0.000000 2.025200 0.000000 
#    z 0.000000 0.000000 1.748670 
# 
# From -- ./inp_files/21996.got.cif
#   From: 2010.05.17/outbox.cif.g08.bks.cpg/sg57_11_cif.got.tgz:21996.got - 2010.06.03 13:58:18.
