data_PCOD9438125
_publ_section_title
;
Structure prediction by ZEFSAII (Michael W. Deem and Ramdas Pophale) SiO2 
 PCOD9438125
Probable space group: P B C M
;
_chemical_formula_sum "Si O2"
_cell_formula_units_Z 40
_cell_length_a 8.397392
_cell_length_b 7.710533
_cell_length_c 25.644841
_cell_angle_alpha 90.000000
_cell_angle_beta 90.000000
_cell_angle_gamma 90.000000
_cell_volume 1660.461606
_symmetry_space_group_name_H-M "P B C M"
_symmetry_group_IT_number 57
_symmetry_cell_setting 'orthorhombic'
loop_
_space_group_symop_operation_xyz
x,y,z
-x,-y,1/2+z
x,1/2-y,-z
-x,1/2+y,1/2-z
-x,-y,-z
x,y,1/2-z
-x,1/2+y,z
x,1/2-y,1/2+z
loop_
_atom_site_type_symbol
_atom_site_label
_atom_site_fract_x
_atom_site_fract_y
_atom_site_fract_z
Si Si1 0.336289 0.611855 0.833543
Si Si2 0.133634 0.728265 0.082906
Si Si3 0.902127 0.400418 0.805663
Si Si4 0.805467 0.863822 0.451451
Si Si5 0.697534 0.717189 0.663207
O O1 0.294434 0.415838 0.820113
O O2 0.271939 0.653529 0.892242
O O3 0.236657 0.756229 0.803197
O O4 0.521891 0.643530 0.826061
O O5 0.044476 0.641344 0.134613
O O6 0.208185 0.572052 0.049678
O O7 0.995318 0.830643 0.054494
O O8 0.988991 0.394453 0.750000
O O9 0.826447 0.591037 0.810958
O O10 0.749894 0.750000 0.500000
O O11 0.721901 0.799134 0.398829
#
# Coordination Sequence:
#
# PCOD9438125 Si02
#       5
#     8   8   8   8   8
#     4  10  20  39  59  86 125 158 195 246 312 344
#     4   9  21  38  58  87 124 154 199 258 291 357
#     4   9  21  38  60  87 118 156 199 238 299 362
#     4  11  21  38  63  90 118 163 207 247 309 364
#     4  11  20  39  61  87 125 157 193 261 293 354
#
# _framework density 24.089684999999999
#
# number of rings (size 3 to 8) (size 9 to 14) (size 15 to 20)
#    1.200    0.800    2.000    1.800    0.000    1.600 
#    0.000    9.000    0.000    0.000    0.000    0.000 
#    0.000    0.000    0.000    0.000    0.000    0.000 
#
# Total GULP energy -223389.364679 kJ/mol
# GULP energy per Si atom -5584.734117 kJ/mol
# Density = 2.403486 g / cm^3
# Si number density = 24.089685 Si / 1000 Ang^3
#
#
#
# Elastic Constant Matrix: (Units=GPa)
#
#
# Indices 1 2 3 4 5 6 
#
# 1 33.1063 6.3438 -2.2201 0.0000 0.0000 0.0000
# 2 6.3438 145.5825 -9.7405 0.0000 0.0000 0.0000
# 3 -2.2201 -9.7405 69.6192 0.0000 0.0000 0.0000
# 4 0.0000 0.0000 0.0000 126.2430 0.0000 0.0000
# 5 0.0000 0.0000 0.0000 0.0000 12.8961 0.0000
# 6 0.0000 0.0000 0.0000 0.0000 0.0000 34.3815
#
#
#
# Elastic Compliance Matrix: (Units=1/GPa)
#
#
# Indices 1 2 3 4 5 6 
#
# 1 0.030504 -0.001276 0.000794 0.000000 0.000000 0.000000
# 2 -0.001276 0.006987 0.000937 0.000000 0.000000 0.000000
# 3 0.000794 0.000937 0.014520 0.000000 0.000000 0.000000
# 4 0.000000 0.000000 0.000000 0.007921 0.000000 0.000000
# 5 0.000000 0.000000 0.000000 0.000000 0.077543 0.000000
# 6 0.000000 0.000000 0.000000 0.000000 0.000000 0.029085
#
#
# Mechanical properties :
#
#
# Convention : Reuss Voigt Hill
#
# Bulk Modulus (GPa) = 18.89604 26.34160 22.61882
# Shear Modulus (GPa) = 27.27910 51.63246 39.45578
#
# Velocity S-wave (km/s) = 3.36876 4.63465 4.05145
# Velocity P-wave (km/s) = 4.79505 6.29273 5.59424
#
# Compressibility (1/GPa) = 0.05292113
#
# Stress axis : x y z
#
# Youngs Moduli (GPa) = 32.78309 143.11789 68.86932
#
# Poissons Ratio (x) = 0.18263 -0.05470
# Poissons Ratio (y) = 0.04183 -0.06452
# Poissons Ratio (z) = -0.02604 -0.13409
#
# Static dielectric constant tensor:
#      x y z
#    x 1.909370 0.000000 0.000000 
#    y 0.000000 1.904140 0.000000 
#    z 0.000000 0.000000 1.937300 
# 
# From -- ./inp_files/29370.got.cif
#   From: 2010.05.17/outbox.cif.g08.bks.cpg/sg57_15_cif.got.tgz:29370.got - 2010.06.03 13:58:18.
