data_PCOD9438755
_publ_section_title
;
Structure prediction by ZEFSAII (Michael W. Deem and Ramdas Pophale) SiO2 
 PCOD9438755
Probable space group: P B C M
;
_chemical_formula_sum "Si O2"
_cell_formula_units_Z 48
_cell_length_a 31.542297
_cell_length_b 9.276462
_cell_length_c 8.655824
_cell_angle_alpha 90.000000
_cell_angle_beta 90.000000
_cell_angle_gamma 90.000000
_cell_volume 2532.702062
_symmetry_space_group_name_H-M "P B C M"
_symmetry_group_IT_number 57
_symmetry_cell_setting 'orthorhombic'
loop_
_space_group_symop_operation_xyz
x,y,z
-x,-y,1/2+z
x,1/2-y,-z
-x,1/2+y,1/2-z
-x,-y,-z
x,y,1/2-z
-x,1/2+y,z
x,1/2-y,1/2+z
loop_
_atom_site_type_symbol
_atom_site_label
_atom_site_fract_x
_atom_site_fract_y
_atom_site_fract_z
Si Si1 0.623849 0.088699 0.063959
Si Si2 0.786004 0.411713 0.065171
Si Si3 0.707374 0.589003 0.936041
Si Si4 0.877248 0.410277 0.564350
Si Si5 0.539993 0.587961 0.936018
Si Si6 0.039413 0.410416 0.435000
O O1 0.623728 0.096449 0.250000
O O2 0.666759 0.006772 0.016535
O O3 0.582869 0.995774 0.016822
O O4 0.622108 0.250000 0.000000
O O5 0.785310 0.407286 0.250000
O O6 0.779182 0.250000 0.000000
O O7 0.749533 0.514825 0.001604
O O8 0.832443 0.458701 0.006429
O O9 0.709221 0.592445 0.750000
O O10 0.702911 0.750000 0.000000
O O11 0.885487 0.250000 0.500000
O O12 0.873437 0.403590 0.750000
O O13 0.916448 0.511964 0.522525
O O14 0.538127 0.592189 0.750000
O O15 0.539967 0.750000 0.000000
O O16 0.500000 0.500000 0.000000
O O17 0.038252 0.250000 0.500000
O O18 0.036677 0.407261 0.250000
O O19 0.000000 0.500000 0.500000
#
# Coordination Sequence:
#
# PCOD9438755 Si02
#       6
#     8   8   8   8   8   8
#     4  10  23  40  61  87 117 153 196 242 292 348
#     4  11  22  38  61  88 118 155 195 240 289 345
#     4  11  23  40  60  86 118 154 195 242 293 348
#     4  10  21  38  60  87 117 153 195 241 290 346
#     4  11  23  40  61  89 121 157 198 243 293 348
#     4  11  24  40  61  87 118 154 195 240 290 345
#
# _framework density 18.952090999999999
#
# number of rings (size 3 to 8) (size 9 to 14) (size 15 to 20)
#    0.000    1.333    0.000    6.500    0.000   10.000 
#    0.000    1.667    0.000    0.000    0.000    0.000 
#    0.000    0.000    0.000    0.000    0.000    0.000 
#
# Total GULP energy -268496.115388 kJ/mol
# GULP energy per Si atom -5593.669071 kJ/mol
# Density = 1.890896 g / cm^3
# Si number density = 18.952091 Si / 1000 Ang^3
#
#
#
# Elastic Constant Matrix: (Units=GPa)
#
#
# Indices 1 2 3 4 5 6 
#
# 1 198.5837 138.6951 69.2721 0.0000 0.0000 0.0000
# 2 138.6951 183.2183 58.7350 0.0000 0.0000 0.0000
# 3 69.2721 58.7350 82.4274 0.0000 0.0000 0.0000
# 4 0.0000 0.0000 0.0000 40.4697 0.0000 0.0000
# 5 0.0000 0.0000 0.0000 0.0000 29.0933 0.0000
# 6 0.0000 0.0000 0.0000 0.0000 0.0000 41.1470
#
#
#
# Elastic Compliance Matrix: (Units=1/GPa)
#
#
# Indices 1 2 3 4 5 6 
#
# 1 0.011917 -0.007531 -0.004649 0.000000 0.000000 0.000000
# 2 -0.007531 0.011833 -0.002103 0.000000 0.000000 0.000000
# 3 -0.004649 -0.002103 0.017537 0.000000 0.000000 0.000000
# 4 0.000000 0.000000 0.000000 0.024710 0.000000 0.000000
# 5 0.000000 0.000000 0.000000 0.000000 0.034372 0.000000
# 6 0.000000 0.000000 0.000000 0.000000 0.000000 0.024303
#
#
# Mechanical properties :
#
#
# Convention : Reuss Voigt Hill
#
# Bulk Modulus (GPa) = 78.60333 110.84821 94.72577
# Shear Modulus (GPa) = 31.75052 35.31048 33.53050
#
# Velocity S-wave (km/s) = 4.09749 4.32110 4.21078
# Velocity P-wave (km/s) = 7.99692 9.13846 8.58668
#
# Compressibility (1/GPa) = 0.01272211
#
# Stress axis : x y z
#
# Youngs Moduli (GPa) = 83.91379 84.51070 57.02167
#
# Poissons Ratio (x) = 0.63643 0.26509
# Poissons Ratio (y) = 0.63194 0.11990
# Poissons Ratio (z) = 0.39011 0.17771
#
# Static dielectric constant tensor:
#      x y z
#    x 1.643720 0.000000 0.000000 
#    y 0.000000 1.612370 0.000000 
#    z 0.000000 0.000000 1.639220 
# 
# From -- ./inp_files/9895.got.cif
#   From: 2010.05.17/outbox.cif.g08.bks.cpg/sg57_5_cif.got.tgz:9895.got - 2010.06.03 13:58:18.
