data_PCOD9438275
_publ_section_title
;
Structure prediction by ZEFSAII (Michael W. Deem and Ramdas Pophale) SiO2 
 PCOD9438275
Probable space group: P B C M
;
_chemical_formula_sum "Si O2"
_cell_formula_units_Z 32
_cell_length_a 7.427915
_cell_length_b 8.850262
_cell_length_c 23.770742
_cell_angle_alpha 90.000000
_cell_angle_beta 90.000000
_cell_angle_gamma 90.000000
_cell_volume 1562.664662
_symmetry_space_group_name_H-M "P B C M"
_symmetry_group_IT_number 57
_symmetry_cell_setting 'orthorhombic'
loop_
_space_group_symop_operation_xyz
x,y,z
-x,-y,1/2+z
x,1/2-y,-z
-x,1/2+y,1/2-z
-x,-y,-z
x,y,1/2-z
-x,1/2+y,z
x,1/2-y,1/2+z
loop_
_atom_site_type_symbol
_atom_site_label
_atom_site_fract_x
_atom_site_fract_y
_atom_site_fract_z
Si Si1 0.895138 0.019027 0.116164
Si Si2 0.407420 0.166586 0.941110
Si Si3 0.297453 0.464987 0.603060
Si Si4 0.856472 0.320545 0.183991
O O1 0.748288 0.951388 0.074753
O O2 0.087509 0.054188 0.086546
O O3 0.954805 0.893068 0.162252
O O4 0.831847 0.167726 0.148759
O O5 0.593938 0.077194 0.937422
O O6 0.392437 0.304020 0.896750
O O7 0.381456 0.250000 0.000000
O O8 0.284110 0.552434 0.662500
O O9 0.853671 0.296080 0.250000
#
# Coordination Sequence:
#
# PCOD9438275 Si02
#       4
#     8   8   8   8
#     4  10  21  41  64  92 127 155 217 258 307 386
#     4  12  24  41  65  91 128 173 208 262 320 365
#     4  10  23  41  60  95 128 157 216 261 300 391
#     4  10  20  41  68  89 124 164 199 262 322 364
#
# _framework density 20.477843
#
# number of rings (size 3 to 8) (size 9 to 14) (size 15 to 20)
#    1.500    0.000    2.500    3.000    0.000    2.000 
#    0.000    6.250    0.000    0.000    0.000    0.000 
#    0.000    0.000    0.000    0.000    0.000    0.000 
#
# Total GULP energy -178359.403064 kJ/mol
# GULP energy per Si atom -5573.731346 kJ/mol
# Density = 2.043123 g / cm^3
# Si number density = 20.477843 Si / 1000 Ang^3
#
#
#
# Elastic Constant Matrix: (Units=GPa)
#
#
# Indices 1 2 3 4 5 6 
#
# 1 66.1718 28.9819 33.6703 0.0000 0.0000 0.0000
# 2 28.9819 85.5322 9.1047 0.0000 0.0000 0.0000
# 3 33.6703 9.1047 41.9182 0.0000 0.0000 0.0000
# 4 0.0000 0.0000 0.0000 26.5957 0.0000 0.0000
# 5 0.0000 0.0000 0.0000 0.0000 15.8217 0.0000
# 6 0.0000 0.0000 0.0000 0.0000 0.0000 23.4139
#
#
#
# Elastic Compliance Matrix: (Units=1/GPa)
#
#
# Indices 1 2 3 4 5 6 
#
# 1 0.029844 -0.007740 -0.022291 0.000000 0.000000 0.000000
# 2 -0.007740 0.013975 0.003181 0.000000 0.000000 0.000000
# 3 -0.022291 0.003181 0.041070 0.000000 0.000000 0.000000
# 4 0.000000 0.000000 0.000000 0.037600 0.000000 0.000000
# 5 0.000000 0.000000 0.000000 0.000000 0.063204 0.000000
# 6 0.000000 0.000000 0.000000 0.000000 0.000000 0.042710
#
#
# Mechanical properties :
#
#
# Convention : Reuss Voigt Hill
#
# Bulk Modulus (GPa) = 32.06058 37.45958 34.76008
# Shear Modulus (GPa) = 17.09400 21.29060 19.19230
#
# Velocity S-wave (km/s) = 2.89235 3.22792 3.06473
# Velocity P-wave (km/s) = 5.18116 5.67671 5.43459
#
# Compressibility (1/GPa) = 0.03119096
#
# Stress axis : x y z
#
# Youngs Moduli (GPa) = 33.50703 71.55429 24.34858
#
# Poissons Ratio (x) = 0.55381 0.54276
# Poissons Ratio (y) = 0.25934 -0.07746
# Poissons Ratio (z) = 0.74691 -0.22764
#
# Static dielectric constant tensor:
#      x y z
#    x 1.752870 0.000000 0.000000 
#    y 0.000000 1.753790 0.000000 
#    z 0.000000 0.000000 1.709850 
# 
# From -- ./inp_files/23926.got.cif
#   From: 2010.05.17/outbox.cif.g08.bks.cpg/sg57_12_cif.got.tgz:23926.got - 2010.06.03 13:58:18.
