data_PCOD9438559
_publ_section_title
;
Structure prediction by ZEFSAII (Michael W. Deem and Ramdas Pophale) SiO2 
 PCOD9438559
Probable space group: P B C M
;
_chemical_formula_sum "Si O2"
_cell_formula_units_Z 64
_cell_length_a 14.643333
_cell_length_b 25.869313
_cell_length_c 8.874310
_cell_angle_alpha 90.000000
_cell_angle_beta 90.000000
_cell_angle_gamma 90.000000
_cell_volume 3361.703681
_symmetry_space_group_name_H-M "P B C M"
_symmetry_group_IT_number 57
_symmetry_cell_setting 'orthorhombic'
loop_
_space_group_symop_operation_xyz
x,y,z
-x,-y,1/2+z
x,1/2-y,-z
-x,1/2+y,1/2-z
-x,-y,-z
x,y,1/2-z
-x,1/2+y,z
x,1/2-y,1/2+z
loop_
_atom_site_type_symbol
_atom_site_label
_atom_site_fract_x
_atom_site_fract_y
_atom_site_fract_z
Si Si1 0.739623 0.305606 0.429760
Si Si2 0.708683 0.508016 0.931583
Si Si3 0.084447 0.306810 0.429965
Si Si4 0.913796 0.140499 0.069910
Si Si5 0.906247 0.019701 0.069597
Si Si6 0.296299 0.306383 0.070537
Si Si7 0.621726 0.103370 0.069421
Si Si8 0.592530 0.600463 0.070026
O O1 0.716897 0.250000 0.500000
O O2 0.741477 0.302317 0.250000
O O3 0.838147 0.323819 0.491838
O O4 0.668932 0.349285 0.484587
O O5 0.705431 0.514290 0.750000
O O6 0.814695 0.510015 0.980247
O O7 0.670824 0.450831 0.966266
O O8 0.646182 0.551199 0.005981
O O9 0.069569 0.250000 0.500000
O O10 0.070409 0.305247 0.250000
O O11 0.190126 0.320887 0.458852
O O12 0.012843 0.344848 0.506801
O O13 0.910143 0.147876 0.250000
O O14 0.893640 0.080515 0.036680
O O15 0.912102 0.014585 0.250000
O O16 0.000000 0.000000 0.000000
O O17 0.308500 0.303970 0.250000
O O18 0.311653 0.250000 0.000000
O O19 0.361963 0.348641 0.999353
O O20 0.631748 0.111734 0.250000
O O21 0.514824 0.098577 0.032975
O O22 0.601038 0.601512 0.250000
#
# Coordination Sequence:
#
# PCOD9438559 Si02
#       8
#     8   8   8   8   8   8   8   8
#     4  12  25  41  65  94 125 165 210 258 312 376
#     4  10  21  42  66  89 124 165 203 251 310 364
#     4  10  21  37  58  86 116 154 199 244 294 352
#     4  11  22  40  62  87 123 163 202 250 305 362
#     4  10  23  40  61  89 124 165 201 248 305 361
#     4  10  22  41  63  88 124 163 202 254 308 364
#     4  10  22  44  66  89 124 161 204 259 313 365
#     4  11  24  39  64  96 123 159 206 255 308 371
#
# _framework density 19.037965
#
# number of rings (size 3 to 8) (size 9 to 14) (size 15 to 20)
#    0.000    1.500    1.250    3.375    1.750    5.000 
#    0.000    0.000    0.000    0.000    0.000    0.000 
#    0.000    0.000    0.000    0.000    0.000    0.000 
#
# Total GULP energy -357857.187498 kJ/mol
# GULP energy per Si atom -5591.518555 kJ/mol
# Density = 1.899463 g / cm^3
# Si number density = 19.037965 Si / 1000 Ang^3
#
#
#
# Elastic Constant Matrix: (Units=GPa)
#
#
# Indices 1 2 3 4 5 6 
#
# 1 137.6739 72.4567 61.3639 0.0000 0.0000 0.0000
# 2 72.4567 97.2229 51.5481 0.0000 0.0000 0.0000
# 3 61.3639 51.5481 66.7352 0.0000 0.0000 0.0000
# 4 0.0000 0.0000 0.0000 35.9787 0.0000 0.0000
# 5 0.0000 0.0000 0.0000 0.0000 12.4768 0.0000
# 6 0.0000 0.0000 0.0000 0.0000 0.0000 101.7873
#
#
#
# Elastic Compliance Matrix: (Units=1/GPa)
#
#
# Indices 1 2 3 4 5 6 
#
# 1 0.014222 -0.006208 -0.008282 0.000000 0.000000 0.000000
# 2 -0.006208 0.020130 -0.009840 0.000000 0.000000 0.000000
# 3 -0.008282 -0.009840 0.030201 0.000000 0.000000 0.000000
# 4 0.000000 0.000000 0.000000 0.027794 0.000000 0.000000
# 5 0.000000 0.000000 0.000000 0.000000 0.080149 0.000000
# 6 0.000000 0.000000 0.000000 0.000000 0.000000 0.009824
#
#
# Mechanical properties :
#
#
# Convention : Reuss Voigt Hill
#
# Bulk Modulus (GPa) = 62.92551 74.70771 68.81661
# Shear Modulus (GPa) = 21.16136 37.79945 29.48041
#
# Velocity S-wave (km/s) = 3.33759 4.46070 3.93938
# Velocity P-wave (km/s) = 6.92655 8.11524 7.54434
#
# Compressibility (1/GPa) = 0.01589181
#
# Stress axis : x y z
#
# Youngs Moduli (GPa) = 70.31139 49.67793 33.11110
#
# Poissons Ratio (x) = 0.30840 0.27424
# Poissons Ratio (y) = 0.43650 0.32582
# Poissons Ratio (z) = 0.58235 0.48885
#
# Static dielectric constant tensor:
#      x y z
#    x 1.652590 0.000000 0.000000 
#    y 0.000000 1.636080 0.000000 
#    z 0.000000 0.000000 1.632470 
# 
# From -- ./inp_files/5650.got.cif
#   From: 2010.05.17/outbox.cif.g08.bks.cpg/sg57_3_cif.got.tgz:5650.got - 2010.06.03 13:58:18.
