data_PCOD9438422
_publ_section_title
;
Structure prediction by ZEFSAII (Michael W. Deem and Ramdas Pophale) SiO2 
 PCOD9438422
Probable space group: P B C M
;
_chemical_formula_sum "Si O2"
_cell_formula_units_Z 40
_cell_length_a 12.378335
_cell_length_b 13.735882
_cell_length_c 11.293136
_cell_angle_alpha 90.000000
_cell_angle_beta 90.000000
_cell_angle_gamma 90.000000
_cell_volume 1920.141975
_symmetry_space_group_name_H-M "P B C M"
_symmetry_group_IT_number 57
_symmetry_cell_setting 'orthorhombic'
loop_
_space_group_symop_operation_xyz
x,y,z
-x,-y,1/2+z
x,1/2-y,-z
-x,1/2+y,1/2-z
-x,-y,-z
x,y,1/2-z
-x,1/2+y,z
x,1/2-y,1/2+z
loop_
_atom_site_type_symbol
_atom_site_label
_atom_site_fract_x
_atom_site_fract_y
_atom_site_fract_z
Si Si1 0.480035 0.058312 0.619765
Si Si2 0.707997 0.698689 0.875805
Si Si3 0.942214 0.650074 0.944281
Si Si4 0.311483 0.679711 0.612344
Si Si5 0.138641 0.516460 0.619151
O O1 0.499490 0.010357 0.750000
O O2 0.358801 0.098827 0.620198
O O3 0.563197 0.148881 0.614785
O O4 0.500000 0.000000 0.500000
O O5 0.676805 0.747486 0.750000
O O6 0.836119 0.682042 0.874103
O O7 0.683060 0.750000 0.000000
O O8 0.038215 0.591780 0.882931
O O9 0.987025 0.750000 0.000000
O O10 0.892764 0.573333 0.037628
O O11 0.291809 0.750000 0.500000
O O12 0.283871 0.711573 0.750000
O O13 0.242425 0.581535 0.588398
O O14 0.155748 0.477290 0.750000
#
# Coordination Sequence:
#
# PCOD9438422 Si02
#       5
#     8   8   8   8   8
#     4  10  21  36  55  81 113 148 189 236 284 337
#     4  10  21  36  55  80 109 141 181 227 275 331
#     4  10  21  37  58  83 113 150 191 235 287 344
#     4  10  21  38  59  85 117 154 196 240 288 343
#     4  10  21  37  57  83 115 150 191 238 287 342
#
# _framework density 20.831793000000001
#
# number of rings (size 3 to 8) (size 9 to 14) (size 15 to 20)
#    0.000    2.000    0.000    3.000    0.000    5.600 
#    0.000    7.000    0.000    0.000    0.000    0.000 
#    0.000    0.000    0.000    0.000    0.000    0.000 
#
# Total GULP energy -222864.181332 kJ/mol
# GULP energy per Si atom -5571.604533 kJ/mol
# Density = 2.078438 g / cm^3
# Si number density = 20.831793 Si / 1000 Ang^3
#
#
#
# Elastic Constant Matrix: (Units=GPa)
#
#
# Indices 1 2 3 4 5 6 
#
# 1 36.0350 -7.8586 -6.3775 0.0000 0.0000 0.0000
# 2 -7.8586 54.9183 61.3571 0.0000 0.0000 0.0000
# 3 -6.3775 61.3571 189.2542 0.0000 0.0000 0.0000
# 4 0.0000 0.0000 0.0000 -15.9225 0.0000 0.0000
# 5 0.0000 0.0000 0.0000 0.0000 6.8322 0.0000
# 6 0.0000 0.0000 0.0000 0.0000 0.0000 27.0943
#
#
#
# Elastic Compliance Matrix: (Units=1/GPa)
#
#
# Indices 1 2 3 4 5 6 
#
# 1 0.028684 0.004742 -0.000571 0.000000 0.000000 0.000000
# 2 0.004742 0.029334 -0.009351 0.000000 0.000000 0.000000
# 3 -0.000571 -0.009351 0.008296 0.000000 0.000000 0.000000
# 4 0.000000 0.000000 0.000000 -0.062804 0.000000 0.000000
# 5 0.000000 0.000000 0.000000 0.000000 0.146366 0.000000
# 6 0.000000 0.000000 0.000000 0.000000 0.000000 0.036908
#
#
# Mechanical properties :
#
#
# Convention : Reuss Voigt Hill
#
# Bulk Modulus (GPa) = 17.87105 41.60550 29.73828
# Shear Modulus (GPa) = 23.17014 19.13988 21.15501
#
# Velocity S-wave (km/s) = 3.33866 3.03443 3.19017
# Velocity P-wave (km/s) = 4.84351 5.68265 5.27977
#
# Compressibility (1/GPa) = 0.05595641
#
# Stress axis : x y z
#
# Youngs Moduli (GPa) = 34.86268 34.08977 120.53793
#
# Poissons Ratio (x) = -0.16167 0.06882
# Poissons Ratio (y) = -0.16533 1.12709
# Poissons Ratio (z) = 0.01990 0.31876
#
# Static dielectric constant tensor:
#      x y z
#    x 1.729150 0.000000 0.000000 
#    y 0.000000 1.732400 0.000000 
#    z 0.000000 0.000000 2.067830 
# 
# From -- ./inp_files/12711.got.cif
#   From: 2010.05.17/outbox.cif.g08.bks.cpg/sg57_7_cif.got.tgz:12711.got - 2010.06.03 13:58:18.
