data_PCOD9438430
_publ_section_title
;
Structure prediction by ZEFSAII (Michael W. Deem and Ramdas Pophale) SiO2 
 PCOD9438430
Probable space group: P B C M
;
_chemical_formula_sum "Si O2"
_cell_formula_units_Z 64
_cell_length_a 13.339674
_cell_length_b 28.862573
_cell_length_c 8.590357
_cell_angle_alpha 90.000000
_cell_angle_beta 90.000000
_cell_angle_gamma 90.000000
_cell_volume 3307.436184
_symmetry_space_group_name_H-M "P B C M"
_symmetry_group_IT_number 57
_symmetry_cell_setting 'orthorhombic'
loop_
_space_group_symop_operation_xyz
x,y,z
-x,-y,1/2+z
x,1/2-y,-z
-x,1/2+y,1/2-z
-x,-y,-z
x,y,1/2-z
-x,1/2+y,z
x,1/2-y,1/2+z
loop_
_atom_site_type_symbol
_atom_site_label
_atom_site_fract_x
_atom_site_fract_y
_atom_site_fract_z
Si Si1 0.301226 0.395223 0.561390
Si Si2 0.994161 0.302554 0.936786
Si Si3 0.302090 0.890538 0.935631
Si Si4 0.888343 0.548895 0.562970
Si Si5 0.216285 0.801995 0.065789
Si Si6 0.111888 0.555370 0.564368
Si Si7 0.497043 0.947886 0.938172
Si Si8 0.216765 0.301557 0.563226
O O1 0.294575 0.397362 0.750000
O O2 0.205140 0.421084 0.491992
O O3 0.403146 0.420363 0.513111
O O4 0.294322 0.341189 0.515558
O O5 0.984279 0.303531 0.750000
O O6 0.104844 0.319724 0.981064
O O7 0.995993 0.250000 0.000000
O O8 0.892442 0.321408 0.010326
O O9 0.306597 0.886215 0.750000
O O10 0.397647 0.920389 0.989326
O O11 0.296242 0.839255 0.007122
O O12 0.201123 0.917511 0.982266
O O13 0.886922 0.543125 0.750000
O O14 0.880621 0.498607 0.482986
O O15 0.997906 0.569514 0.520313
O O16 0.215858 0.799123 0.250000
O O17 0.229417 0.750000 0.000000
O O18 0.122899 0.560568 0.750000
O O19 0.495753 0.949514 0.750000
O O20 0.500000 0.000000 0.000000
O O21 0.232978 0.250000 0.500000
O O22 0.216765 0.297890 0.750000
#
# Coordination Sequence:
#
# PCOD9438430 Si02
#       8
#     8   8   8   8   8   8   8   8
#     4  10  21  38  59  84 114 152 193 237 292 350
#     4   9  16  29  49  77 110 150 190 230 276 334
#     4  11  23  39  60  86 116 154 199 246 295 348
#     4  10  21  36  55  84 117 150 188 234 290 353
#     4  11  22  37  57  84 118 157 198 244 293 347
#     4  10  21  37  56  83 117 152 188 235 293 354
#     4  10  23  42  64  87 115 149 193 246 296 349
#     4   9  19  34  54  81 114 152 191 231 282 338
#
# _framework density 19.350335999999999
#
# number of rings (size 3 to 8) (size 9 to 14) (size 15 to 20)
#    0.000    2.000    0.000    4.125    1.750    6.000 
#    0.000    0.625    0.000    1.500    0.000    0.000 
#    0.000    0.000    0.000    0.000    0.000    0.000 
#
# Total GULP energy -357332.976303 kJ/mol
# GULP energy per Si atom -5583.327755 kJ/mol
# Density = 1.930629 g / cm^3
# Si number density = 19.350336 Si / 1000 Ang^3
#
#
#
# Elastic Constant Matrix: (Units=GPa)
#
#
# Indices 1 2 3 4 5 6 
#
# 1 136.2706 89.1864 37.8490 0.0000 0.0000 0.0000
# 2 89.1864 131.9524 28.1192 0.0000 0.0000 0.0000
# 3 37.8490 28.1192 53.7132 0.0000 0.0000 0.0000
# 4 0.0000 0.0000 0.0000 28.2308 0.0000 0.0000
# 5 0.0000 0.0000 0.0000 0.0000 20.6235 0.0000
# 6 0.0000 0.0000 0.0000 0.0000 0.0000 37.3344
#
#
#
# Elastic Compliance Matrix: (Units=1/GPa)
#
#
# Indices 1 2 3 4 5 6 
#
# 1 0.014588 -0.008633 -0.005760 0.000000 0.000000 0.000000
# 2 -0.008633 0.013638 -0.001057 0.000000 0.000000 0.000000
# 3 -0.005760 -0.001057 0.023230 0.000000 0.000000 0.000000
# 4 0.000000 0.000000 0.000000 0.035422 0.000000 0.000000
# 5 0.000000 0.000000 0.000000 0.000000 0.048488 0.000000
# 6 0.000000 0.000000 0.000000 0.000000 0.000000 0.026785
#
#
# Mechanical properties :
#
#
# Convention : Reuss Voigt Hill
#
# Bulk Modulus (GPa) = 48.64583 70.24949 59.44766
# Shear Modulus (GPa) = 25.01207 28.35652 26.68430
#
# Velocity S-wave (km/s) = 3.59916 3.83224 3.71753
# Velocity P-wave (km/s) = 6.51660 7.48093 7.01535
#
# Compressibility (1/GPa) = 0.02055675
#
# Stress axis : x y z
#
# Youngs Moduli (GPa) = 68.54910 73.32219 43.04834
#
# Poissons Ratio (x) = 0.63296 0.24797
# Poissons Ratio (y) = 0.59175 0.04550
# Poissons Ratio (z) = 0.39486 0.07749
#
# Static dielectric constant tensor:
#      x y z
#    x 1.687780 0.000000 0.000000 
#    y 0.000000 1.668670 0.000000 
#    z 0.000000 0.000000 1.656420 
# 
# From -- ./inp_files/3881.got.cif
#   From: 2010.05.17/outbox.cif.g08.bks.cpg/sg57_2_cif.got.tgz:3881.got - 2010.06.03 13:58:18.
