data_PCOD9438754
_publ_section_title
;
Structure prediction by ZEFSAII (Michael W. Deem and Ramdas Pophale) SiO2 
 PCOD9438754
Probable space group: P B C M
;
_chemical_formula_sum "Si O2"
_cell_formula_units_Z 48
_cell_length_a 17.921536
_cell_length_b 15.951776
_cell_length_c 8.529589
_cell_angle_alpha 90.000000
_cell_angle_beta 90.000000
_cell_angle_gamma 90.000000
_cell_volume 2438.441700
_symmetry_space_group_name_H-M "P B C M"
_symmetry_group_IT_number 57
_symmetry_cell_setting 'orthorhombic'
loop_
_space_group_symop_operation_xyz
x,y,z
-x,-y,1/2+z
x,1/2-y,-z
-x,1/2+y,1/2-z
-x,-y,-z
x,y,1/2-z
-x,1/2+y,z
x,1/2-y,1/2+z
loop_
_atom_site_type_symbol
_atom_site_label
_atom_site_fract_x
_atom_site_fract_y
_atom_site_fract_z
Si Si1 0.817082 0.153241 0.562646
Si Si2 0.084289 0.499898 0.438010
Si Si3 0.496697 0.592724 0.937793
Si Si4 0.816684 0.846805 0.937384
Si Si5 0.340003 0.343507 0.061943
Si Si6 0.339503 0.843489 0.936567
O O1 0.827126 0.250000 0.500000
O O2 0.820283 0.157413 0.750000
O O3 0.875379 0.084870 0.498839
O O4 0.735391 0.118334 0.510432
O O5 0.086245 0.499754 0.250000
O O6 0.124810 0.415088 0.499182
O O7 0.000000 0.500000 0.500000
O O8 0.491494 0.599409 0.750000
O O9 0.577157 0.628881 0.985985
O O10 0.500000 0.500000 0.000000
O O11 0.420945 0.627732 0.010565
O O12 0.819687 0.842573 0.750000
O O13 0.826784 0.750000 0.000000
O O14 0.735030 0.881923 0.989910
O O15 0.335149 0.349379 0.250000
O O16 0.334983 0.250000 0.000000
O O17 0.333946 0.848557 0.750000
O O18 0.335276 0.750000 0.000000
#
# Coordination Sequence:
#
# PCOD9438754 Si02
#       6
#     8   8   8   8   8   8
#     4  11  23  43  69  99 132 172 217 265 323 384
#     4  12  26  46  70 100 134 169 212 262 321 387
#     4  11  24  38  55  84 122 163 211 261 316 371
#     4  11  23  42  68  98 131 172 216 265 322 382
#     4  10  21  38  60  86 118 160 208 259 313 371
#     4  11  22  39  62  88 121 163 210 260 314 372
#
# _framework density 19.684704
#
# number of rings (size 3 to 8) (size 9 to 14) (size 15 to 20)
#    0.000    1.000    0.000    9.500    2.333    4.667 
#    0.000    3.333    0.000    0.000    0.000    0.000 
#    0.000    0.000    0.000    0.000    0.000    0.000 
#
# Total GULP energy -267899.587330 kJ/mol
# GULP energy per Si atom -5581.241403 kJ/mol
# Density = 1.963990 g / cm^3
# Si number density = 19.684704 Si / 1000 Ang^3
#
#
#
# Elastic Constant Matrix: (Units=GPa)
#
#
# Indices 1 2 3 4 5 6 
#
# 1 212.8402 86.1126 80.4665 0.0000 0.0000 0.0000
# 2 86.1126 94.1101 47.7936 0.0000 0.0000 0.0000
# 3 80.4665 47.7936 170.3996 0.0000 0.0000 0.0000
# 4 0.0000 0.0000 0.0000 34.1182 0.0000 0.0000
# 5 0.0000 0.0000 0.0000 0.0000 21.5873 0.0000
# 6 0.0000 0.0000 0.0000 0.0000 0.0000 47.9325
#
#
#
# Elastic Compliance Matrix: (Units=1/GPa)
#
#
# Indices 1 2 3 4 5 6 
#
# 1 0.008012 -0.006308 -0.002014 0.000000 0.000000 0.000000
# 2 -0.006308 0.017358 -0.001890 0.000000 0.000000 0.000000
# 3 -0.002014 -0.001890 0.007350 0.000000 0.000000 0.000000
# 4 0.000000 0.000000 0.000000 0.029310 0.000000 0.000000
# 5 0.000000 0.000000 0.000000 0.000000 0.046324 0.000000
# 6 0.000000 0.000000 0.000000 0.000000 0.000000 0.020863
#
#
# Mechanical properties :
#
#
# Convention : Reuss Voigt Hill
#
# Bulk Modulus (GPa) = 81.33106 100.67728 91.00417
# Shear Modulus (GPa) = 32.52283 38.25941 35.39112
#
# Velocity S-wave (km/s) = 4.06912 4.41342 4.24476
# Velocity P-wave (km/s) = 7.96766 8.78789 8.38781
#
# Compressibility (1/GPa) = 0.01229543
#
# Stress axis : x y z
#
# Youngs Moduli (GPa) = 124.81096 57.61120 136.06089
#
# Poissons Ratio (x) = 0.36343 0.27404
# Poissons Ratio (y) = 0.78735 0.25709
# Poissons Ratio (z) = 0.25139 0.10886
#
# Static dielectric constant tensor:
#      x y z
#    x 4.094190 0.000000 0.000000 
#    y 0.000000 1.672840 0.000000 
#    z 0.000000 0.000000 1.660450 
# 
# From -- ./inp_files/6495.got.cif
#   From: 2010.05.17/outbox.cif.g08.bks.cpg/sg57_4_cif.got.tgz:6495.got - 2010.06.03 13:58:18.
