data_PCOD9438438
_publ_section_title
;
Structure prediction by ZEFSAII (Michael W. Deem and Ramdas Pophale) SiO2 
 PCOD9438438
Probable space group: P B C M
;
_chemical_formula_sum "Si O2"
_cell_formula_units_Z 60
_cell_length_a 18.195232
_cell_length_b 5.302938
_cell_length_c 29.462727
_cell_angle_alpha 90.000000
_cell_angle_beta 90.000000
_cell_angle_gamma 90.000000
_cell_volume 2842.805118
_symmetry_space_group_name_H-M "P B C M"
_symmetry_group_IT_number 57
_symmetry_cell_setting 'orthorhombic'
loop_
_space_group_symop_operation_xyz
x,y,z
-x,-y,1/2+z
x,1/2-y,-z
-x,1/2+y,1/2-z
-x,-y,-z
x,y,1/2-z
-x,1/2+y,z
x,1/2-y,1/2+z
loop_
_atom_site_type_symbol
_atom_site_label
_atom_site_fract_x
_atom_site_fract_y
_atom_site_fract_z
Si Si1 0.329536 0.966652 0.604202
Si Si2 0.465222 0.794328 0.553582
Si Si3 0.339996 0.467394 0.665307
Si Si4 0.916160 0.001325 0.480260
Si Si5 0.162395 0.014723 0.890553
Si Si6 0.026132 0.138435 0.301067
Si Si7 0.174363 0.513594 0.833362
Si Si8 0.450007 0.060435 0.250000
O O1 0.385908 0.911590 0.563861
O O2 0.344215 0.730203 0.637880
O O3 0.244455 0.970515 0.589062
O O4 0.344165 0.225851 0.631703
O O5 0.475514 0.750000 0.500000
O O6 0.480678 0.513542 0.572564
O O7 0.256434 0.476455 0.684519
O O8 0.398826 0.448129 0.705248
O O9 0.880104 0.250000 0.500000
O O10 0.902916 0.010280 0.426774
O O11 0.880904 0.750000 0.500000
O O12 0.000000 0.000000 0.500000
O O13 0.160511 0.794015 0.852630
O O14 0.163970 0.299794 0.872050
O O15 0.995943 0.174761 0.250000
O O16 0.109978 0.057981 0.299500
O O17 0.015567 0.407315 0.324214
O O18 0.497335 0.316484 0.250000
#
# Coordination Sequence:
#
# PCOD9438438 Si02
#       8
#     8   8   8   8   8   8   8   4
#     4  10  21  39  61  87 117 159 203 246 300 360
#     4  10  21  36  56  86 117 147 191 240 297 358
#     4  10  23  40  62  87 120 164 204 246 304 363
#     4  10  21  39  56  81 115 155 193 243 301 358
#     4  10  21  39  59  85 118 150 207 249 283 363
#     4  10  21  38  57  87 119 146 191 245 298 353
#     4  10  21  40  61  87 116 159 202 245 302 358
#     4  12  26  42  62  96 130 160 212 260 306 376
#
# _framework density 21.105913000000001
#
# number of rings (size 3 to 8) (size 9 to 14) (size 15 to 20)
#    0.000    1.867    0.000    3.200    0.933    3.733 
#   14.400    2.000    0.000    0.000    0.000    0.000 
#    0.000    0.000    0.000    0.000    0.000    0.000 
#
# Total GULP energy -334477.940656 kJ/mol
# GULP energy per Si atom -5574.632344 kJ/mol
# Density = 2.105787 g / cm^3
# Si number density = 21.105913 Si / 1000 Ang^3
#
#
#
# Elastic Constant Matrix: (Units=GPa)
#
#
# Indices 1 2 3 4 5 6 
#
# 1 92.3112 25.6874 24.5427 0.0000 0.0000 0.0000
# 2 25.6874 162.8485 16.6409 0.0000 0.0000 0.0000
# 3 24.5427 16.6409 31.7301 0.0000 0.0000 0.0000
# 4 0.0000 0.0000 0.0000 17.8281 0.0000 0.0000
# 5 0.0000 0.0000 0.0000 0.0000 26.4035 0.0000
# 6 0.0000 0.0000 0.0000 0.0000 0.0000 24.3625
#
#
#
# Elastic Compliance Matrix: (Units=1/GPa)
#
#
# Indices 1 2 3 4 5 6 
#
# 1 0.013838 -0.001151 -0.010100 0.000000 0.000000 0.000000
# 2 -0.001151 0.006584 -0.002563 0.000000 0.000000 0.000000
# 3 -0.010100 -0.002563 0.040672 0.000000 0.000000 0.000000
# 4 0.000000 0.000000 0.000000 0.056091 0.000000 0.000000
# 5 0.000000 0.000000 0.000000 0.000000 0.037874 0.000000
# 6 0.000000 0.000000 0.000000 0.000000 0.000000 0.041047
#
#
# Mechanical properties :
#
#
# Convention : Reuss Voigt Hill
#
# Bulk Modulus (GPa) = 29.88025 46.73686 38.30855
# Shear Modulus (GPa) = 21.28654 28.38675 24.83664
#
# Velocity S-wave (km/s) = 3.17923 3.67136 3.43412
# Velocity P-wave (km/s) = 5.25972 6.33750 5.82359
#
# Compressibility (1/GPa) = 0.03346693
#
# Stress axis : x y z
#
# Youngs Moduli (GPa) = 72.26223 151.88126 24.58671
#
# Poissons Ratio (x) = 0.17478 0.24833
# Poissons Ratio (y) = 0.08315 0.06301
# Poissons Ratio (z) = 0.72987 0.38927
#
# Static dielectric constant tensor:
#      x y z
#    x 1.781260 0.000000 0.000000 
#    y 0.000000 1.814280 0.000000 
#    z 0.000000 0.000000 1.755950 
# 
# From -- ./inp_files/28858.got.cif
#   From: 2010.05.17/outbox.cif.g08.bks.cpg/sg57_15_cif.got.tgz:28858.got - 2010.06.03 13:58:18.
