data_PCOD9438841
_publ_section_title
;
Structure prediction by ZEFSAII (Michael W. Deem and Ramdas Pophale) SiO2 
 PCOD9438841
Probable space group: P B C M
;
_chemical_formula_sum "Si O2"
_cell_formula_units_Z 64
_cell_length_a 21.380407
_cell_length_b 9.939908
_cell_length_c 15.222629
_cell_angle_alpha 90.000000
_cell_angle_beta 90.000000
_cell_angle_gamma 90.000000
_cell_volume 3235.102133
_symmetry_space_group_name_H-M "P B C M"
_symmetry_group_IT_number 57
_symmetry_cell_setting 'orthorhombic'
loop_
_space_group_symop_operation_xyz
x,y,z
-x,-y,1/2+z
x,1/2-y,-z
-x,1/2+y,1/2-z
-x,-y,-z
x,y,1/2-z
-x,1/2+y,z
x,1/2-y,1/2+z
loop_
_atom_site_type_symbol
_atom_site_label
_atom_site_fract_x
_atom_site_fract_y
_atom_site_fract_z
Si Si1 0.786400 0.493355 0.343267
Si Si2 0.235151 0.389894 0.471233
Si Si3 0.873300 0.557086 0.651966
Si Si4 0.131906 0.755885 0.398354
Si Si5 0.332305 0.932230 0.644299
Si Si6 0.651561 0.380605 0.153311
Si Si7 0.561055 0.409603 0.992718
Si Si8 0.996167 0.870330 0.437163
O O1 0.804677 0.560345 0.250000
O O2 0.795589 0.554159 0.439166
O O3 0.821089 0.350108 0.346458
O O4 0.712084 0.472938 0.342508
O O5 0.266930 0.250000 0.500000
O O6 0.175415 0.368178 0.409870
O O7 0.281730 0.486756 0.415282
O O8 0.853610 0.582458 0.750000
O O9 0.870708 0.396658 0.634149
O O10 0.943868 0.602538 0.634521
O O11 0.152381 0.750000 0.500000
O O12 0.063439 0.825827 0.399559
O O13 0.330711 0.965057 0.750000
O O14 0.323092 0.770848 0.636382
O O15 0.399504 0.946472 0.595221
O O16 0.620797 0.378294 0.250000
O O17 0.606991 0.428300 0.075930
O O18 0.545680 0.250000 0.000000
O O19 0.500000 0.500000 0.000000
O O20 0.975009 0.750000 0.500000
O O21 0.000000 0.000000 0.500000
#
# Coordination Sequence:
#
# PCOD9438841 Si02
#       8
#     8   8   8   8   8   8   8   8
#     4  11  22  38  64  93 119 155 204 258 317 375
#     4  12  25  42  63  88 129 167 208 263 327 391
#     4  12  25  41  64  95 126 165 211 264 326 393
#     4  11  21  39  67  90 122 161 210 261 322 386
#     4  10  21  39  65  93 123 165 213 260 311 377
#     4   9  19  37  63  95 125 159 208 264 316 368
#     4  10  21  38  63  93 131 171 217 261 312 366
#     4  11  21  42  63  87 123 167 214 266 326 385
#
# _framework density 19.782992
#
# number of rings (size 3 to 8) (size 9 to 14) (size 15 to 20)
#    0.000    1.250    5.000    1.875    0.000    4.000 
#    0.000    0.000    0.000    0.000    0.000    0.000 
#    0.000    0.000    0.000    0.000    0.000    0.000 
#
# Total GULP energy -357006.695513 kJ/mol
# GULP energy per Si atom -5578.229617 kJ/mol
# Density = 1.973796 g / cm^3
# Si number density = 19.782992 Si / 1000 Ang^3
#
#
#
# Elastic Constant Matrix: (Units=GPa)
#
#
# Indices 1 2 3 4 5 6 
#
# 1 62.8448 14.9817 38.7798 0.0000 0.0000 0.0000
# 2 14.9817 58.5334 32.1734 0.0000 0.0000 0.0000
# 3 38.7798 32.1734 166.2682 0.0000 0.0000 0.0000
# 4 0.0000 0.0000 0.0000 0.1887 0.0000 0.0000
# 5 0.0000 0.0000 0.0000 0.0000 12.9453 0.0000
# 6 0.0000 0.0000 0.0000 0.0000 0.0000 26.1119
#
#
#
# Elastic Compliance Matrix: (Units=1/GPa)
#
#
# Indices 1 2 3 4 5 6 
#
# 1 0.018964 -0.002711 -0.003899 0.000000 0.000000 0.000000
# 2 -0.002711 0.019505 -0.003142 0.000000 0.000000 0.000000
# 3 -0.003899 -0.003142 0.007532 0.000000 0.000000 0.000000
# 4 0.000000 0.000000 0.000000 5.300340 0.000000 0.000000
# 5 0.000000 0.000000 0.000000 0.000000 0.077248 0.000000
# 6 0.000000 0.000000 0.000000 0.000000 0.000000 0.038297
#
#
# Mechanical properties :
#
#
# Convention : Reuss Voigt Hill
#
# Bulk Modulus (GPa) = 37.73888 51.05736 44.39812
# Shear Modulus (GPa) = 0.91071 21.29660 11.10366
#
# Velocity S-wave (km/s) = 0.67923 3.28458 2.37169
# Velocity P-wave (km/s) = 4.44218 6.34424 5.47642
#
# Compressibility (1/GPa) = 0.02649787
#
# Stress axis : x y z
#
# Youngs Moduli (GPa) = 52.73092 51.26840 132.77300
#
# Poissons Ratio (x) = 0.13899 0.51762
# Poissons Ratio (y) = 0.14295 0.41717
# Poissons Ratio (z) = 0.20557 0.16109
#
# Static dielectric constant tensor:
#      x y z
#    x 1.676050 0.000000 0.000000 
#    y 0.000000 1.756010 0.000000 
#    z 0.000000 0.000000 1.769490 
# 
# From -- ./inp_files/19524.got.cif
#   From: 2010.05.17/outbox.cif.g08.bks.cpg/sg57_10_cif.got.tgz:19524.got - 2010.06.03 13:58:18.
