data_PCOD9438745
_publ_section_title
;
Structure prediction by ZEFSAII (Michael W. Deem and Ramdas Pophale) SiO2 
 PCOD9438745
Probable space group: P B C M
;
_chemical_formula_sum "Si O2"
_cell_formula_units_Z 64
_cell_length_a 12.288567
_cell_length_b 32.107847
_cell_length_c 8.471723
_cell_angle_alpha 90.000000
_cell_angle_beta 90.000000
_cell_angle_gamma 90.000000
_cell_volume 3342.598190
_symmetry_space_group_name_H-M "P B C M"
_symmetry_group_IT_number 57
_symmetry_cell_setting 'orthorhombic'
loop_
_space_group_symop_operation_xyz
x,y,z
-x,-y,1/2+z
x,1/2-y,-z
-x,1/2+y,1/2-z
-x,-y,-z
x,y,1/2-z
-x,1/2+y,z
x,1/2-y,1/2+z
loop_
_atom_site_type_symbol
_atom_site_label
_atom_site_fract_x
_atom_site_fract_y
_atom_site_fract_z
Si Si1 0.494442 0.547463 0.935785
Si Si2 0.259989 0.942821 0.936186
Si Si3 0.909170 0.129628 0.059193
Si Si4 0.756460 0.205055 0.059956
Si Si5 0.634881 0.624194 0.060545
Si Si6 0.135984 0.395963 0.434904
Si Si7 0.506785 0.295709 0.559410
Si Si8 0.117916 0.013042 0.065060
O O1 0.515367 0.546245 0.750000
O O2 0.500000 0.500000 0.000000
O O3 0.372169 0.563169 0.972484
O O4 0.576632 0.580765 0.012865
O O5 0.282118 0.937879 0.750000
O O6 0.164429 0.910650 0.980204
O O7 0.210887 0.987931 0.973563
O O8 0.923216 0.129739 0.250000
O O9 0.838116 0.169142 0.009746
O O10 0.025919 0.128061 0.978539
O O11 0.754460 0.204816 0.250000
O O12 0.632032 0.198062 0.005871
O O13 0.791525 0.250000 0.000000
O O14 0.645091 0.624803 0.250000
O O15 0.563753 0.664365 0.010693
O O16 0.753071 0.626596 0.982117
O O17 0.136333 0.406291 0.250000
O O18 0.132032 0.438346 0.535223
O O19 0.470912 0.250000 0.500000
O O20 0.506091 0.294628 0.750000
O O21 0.124640 0.003210 0.250000
O O22 0.000000 0.000000 0.000000
#
# Coordination Sequence:
#
# PCOD9438745 Si02
#       8
#     8   8   8   8   8   8   8   8
#     4  12  25  41  60  86 121 159 202 251 303 360
#     4  11  22  38  61  87 116 152 195 244 296 348
#     4  10  21  38  60  84 115 152 193 237 287 347
#     4   9  18  35  59  89 119 149 184 230 291 352
#     4  11  23  42  64  87 120 162 206 251 307 367
#     4  12  25  40  59  85 118 156 201 249 298 352
#     4   9  19  37  64  94 122 154 192 244 302 364
#     4  12  23  38  58  84 116 155 199 244 294 347
#
# _framework density 19.146782000000002
#
# number of rings (size 3 to 8) (size 9 to 14) (size 15 to 20)
#    0.000    1.250    1.250    5.625    0.000    4.000 
#    0.000    3.125    0.000    0.000    0.000    0.000 
#    0.000    0.000    0.000    0.000    0.000    0.000 
#
# Total GULP energy -357805.022466 kJ/mol
# GULP energy per Si atom -5590.703476 kJ/mol
# Density = 1.910320 g / cm^3
# Si number density = 19.146782 Si / 1000 Ang^3
#
#
#
# Elastic Constant Matrix: (Units=GPa)
#
#
# Indices 1 2 3 4 5 6 
#
# 1 99.7360 46.6525 9.5294 0.0000 0.0000 0.0000
# 2 46.6525 110.0426 4.7000 0.0000 0.0000 0.0000
# 3 9.5294 4.7000 33.6334 0.0000 0.0000 0.0000
# 4 0.0000 0.0000 0.0000 30.0922 0.0000 0.0000
# 5 0.0000 0.0000 0.0000 0.0000 30.4805 0.0000
# 6 0.0000 0.0000 0.0000 0.0000 0.0000 32.3221
#
#
#
# Elastic Compliance Matrix: (Units=1/GPa)
#
#
# Indices 1 2 3 4 5 6 
#
# 1 0.012778 -0.005294 -0.002881 0.000000 0.000000 0.000000
# 2 -0.005294 0.011335 -0.000084 0.000000 0.000000 0.000000
# 3 -0.002881 -0.000084 0.030560 0.000000 0.000000 0.000000
# 4 0.000000 0.000000 0.000000 0.033231 0.000000 0.000000
# 5 0.000000 0.000000 0.000000 0.000000 0.032808 0.000000
# 6 0.000000 0.000000 0.000000 0.000000 0.000000 0.030939
#
#
# Mechanical properties :
#
#
# Convention : Reuss Voigt Hill
#
# Bulk Modulus (GPa) = 26.20813 40.57508 33.39161
# Shear Modulus (GPa) = 27.64142 30.74764 29.19453
#
# Velocity S-wave (km/s) = 3.80367 4.01170 3.90907
# Velocity P-wave (km/s) = 5.74528 6.53421 6.15241
#
# Compressibility (1/GPa) = 0.03815610
#
# Stress axis : x y z
#
# Youngs Moduli (GPa) = 78.25866 88.21865 32.72223
#
# Poissons Ratio (x) = 0.46705 0.09426
# Poissons Ratio (y) = 0.41432 0.00275
# Poissons Ratio (z) = 0.22543 0.00741
#
# Static dielectric constant tensor:
#      x y z
#    x 1.709710 0.000000 0.000000 
#    y 0.000000 1.654610 0.000000 
#    z 0.000000 0.000000 1.651190 
# 
# From -- ./inp_files/3767.got.cif
#   From: 2010.05.17/outbox.cif.g08.bks.cpg/sg57_2_cif.got.tgz:3767.got - 2010.06.03 13:58:18.
