data_PCOD9438156
_publ_section_title
;
Structure prediction by ZEFSAII (Michael W. Deem and Ramdas Pophale) SiO2 
 PCOD9438156
Probable space group: P B C M
;
_chemical_formula_sum "Si O2"
_cell_formula_units_Z 40
_cell_length_a 15.666077
_cell_length_b 7.635596
_cell_length_c 16.603219
_cell_angle_alpha 90.000000
_cell_angle_beta 90.000000
_cell_angle_gamma 90.000000
_cell_volume 1986.074315
_symmetry_space_group_name_H-M "P B C M"
_symmetry_group_IT_number 57
_symmetry_cell_setting 'orthorhombic'
loop_
_space_group_symop_operation_xyz
x,y,z
-x,-y,1/2+z
x,1/2-y,-z
-x,1/2+y,1/2-z
-x,-y,-z
x,y,1/2-z
-x,1/2+y,z
x,1/2-y,1/2+z
loop_
_atom_site_type_symbol
_atom_site_label
_atom_site_fract_x
_atom_site_fract_y
_atom_site_fract_z
Si Si1 0.434775 0.466022 0.156289
Si Si2 0.045494 0.628439 0.562951
Si Si3 0.298311 0.337394 0.846812
Si Si4 0.108319 0.321294 0.654808
Si Si5 0.392382 0.667372 0.911894
O O1 0.460609 0.446573 0.250000
O O2 0.366748 0.314636 0.136739
O O3 0.397007 0.659794 0.144155
O O4 0.517453 0.432503 0.101563
O O5 0.096146 0.750000 0.500000
O O6 0.099720 0.522238 0.626818
O O7 0.000000 0.500000 0.500000
O O8 0.968321 0.721828 0.610364
O O9 0.298671 0.368381 0.750000
O O10 0.204017 0.268639 0.868875
O O11 0.323504 0.519193 0.889373
O O12 0.097959 0.301544 0.750000
O O13 0.382739 0.750000 0.000000
#
# Coordination Sequence:
#
# PCOD9438156 Si02
#       5
#     8   8   8   8   8
#     4  11  22  40  65  85 120 171 211 253 310 368
#     4   9  19  38  60  87 118 155 192 240 315 376
#     4  10  23  41  61  90 123 163 214 258 304 367
#     4  10  20  39  63  89 119 156 205 253 298 368
#     4  12  24  39  60  93 125 164 210 260 311 365
#
# _framework density 20.140234
#
# number of rings (size 3 to 8) (size 9 to 14) (size 15 to 20)
#    0.000    1.600    2.000    3.000    0.000    0.800 
#   18.000    0.000    0.000    0.000    0.000    0.000 
#    0.000    0.000    0.000    0.000    0.000    0.000 
#
# Total GULP energy -223139.977295 kJ/mol
# GULP energy per Si atom -5578.499432 kJ/mol
# Density = 2.009439 g / cm^3
# Si number density = 20.140234 Si / 1000 Ang^3
#
#
#
# Elastic Constant Matrix: (Units=GPa)
#
#
# Indices 1 2 3 4 5 6 
#
# 1 60.4839 -3.1675 19.7694 0.0000 0.0000 0.0000
# 2 -3.1675 69.4247 11.9055 0.0000 0.0000 0.0000
# 3 19.7694 11.9055 58.7258 0.0000 0.0000 0.0000
# 4 0.0000 0.0000 0.0000 33.6342 0.0000 0.0000
# 5 0.0000 0.0000 0.0000 0.0000 -1.5578 0.0000
# 6 0.0000 0.0000 0.0000 0.0000 0.0000 27.6020
#
#
#
# Elastic Compliance Matrix: (Units=1/GPa)
#
#
# Indices 1 2 3 4 5 6 
#
# 1 0.018846 0.002018 -0.006754 0.000000 0.000000 0.000000
# 2 0.002018 0.015139 -0.003748 0.000000 0.000000 0.000000
# 3 -0.006754 -0.003748 0.020062 0.000000 0.000000 0.000000
# 4 0.000000 0.000000 0.000000 0.029732 0.000000 0.000000
# 5 0.000000 0.000000 0.000000 0.000000 -0.641935 0.000000
# 6 0.000000 0.000000 0.000000 0.000000 0.000000 0.036229
#
#
# Mechanical properties :
#
#
# Convention : Reuss Voigt Hill
#
# Bulk Modulus (GPa) = 26.96934 27.29435 27.13184
# Shear Modulus (GPa) = -10.15025 22.61081 6.23028
#
# Velocity S-wave (km/s) = -2.24738 3.35426 1.76073
# Velocity P-wave (km/s) = 2.58564 5.34631 4.19932
#
# Compressibility (1/GPa) = 0.03707914
#
# Stress axis : x y z
#
# Youngs Moduli (GPa) = 53.06045 66.05458 49.84618
#
# Poissons Ratio (x) = -0.13330 0.33664
# Poissons Ratio (y) = -0.10708 0.18685
# Poissons Ratio (z) = 0.35835 0.24760
#
# Static dielectric constant tensor:
#      x y z
#    x 1.715490 0.000000 0.000000 
#    y 0.000000 1.766920 0.000000 
#    z 0.000000 0.000000 1.723800 
# 
# From -- ./inp_files/18191.got.cif
#   From: 2010.05.17/outbox.cif.g08.bks.cpg/sg57_10_cif.got.tgz:18191.got - 2010.06.03 13:58:18.
