data_PCOD9438762
_publ_section_title
;
Structure prediction by ZEFSAII (Michael W. Deem and Ramdas Pophale) SiO2 
 PCOD9438762
Probable space group: P B C M
;
_chemical_formula_sum "Si O2"
_cell_formula_units_Z 40
_cell_length_a 6.565824
_cell_length_b 23.106948
_cell_length_c 14.590761
_cell_angle_alpha 90.000000
_cell_angle_beta 90.000000
_cell_angle_gamma 90.000000
_cell_volume 2213.654139
_symmetry_space_group_name_H-M "P B C M"
_symmetry_group_IT_number 57
_symmetry_cell_setting 'orthorhombic'
loop_
_space_group_symop_operation_xyz
x,y,z
-x,-y,1/2+z
x,1/2-y,-z
-x,1/2+y,1/2-z
-x,-y,-z
x,y,1/2-z
-x,1/2+y,z
x,1/2-y,1/2+z
loop_
_atom_site_type_symbol
_atom_site_label
_atom_site_fract_x
_atom_site_fract_y
_atom_site_fract_z
Si Si1 0.676587 0.881880 0.853796
Si Si2 0.559244 0.318429 0.497069
Si Si3 0.054247 0.900901 0.513266
Si Si4 0.272768 0.109758 0.855809
Si Si5 0.384217 0.984515 0.592073
O O1 0.721034 0.867161 0.750000
O O2 0.524777 0.937132 0.858444
O O3 0.881616 0.891427 0.910632
O O4 0.558509 0.833230 0.909539
O O5 0.586340 0.250000 0.500000
O O6 0.773333 0.351957 0.502255
O O7 0.422744 0.347433 0.414566
O O8 0.176366 0.956210 0.553326
O O9 0.931523 0.899774 0.417019
O O10 0.242447 0.128609 0.750000
O O11 0.361562 0.044501 0.855066
O O12 0.500000 0.000000 0.500000
#
# Coordination Sequence:
#
# PCOD9438762 Si02
#       5
#     8   8   8   8   8
#     4  10  22  38  62  89 116 151 194 239 289 347
#     4  10  23  43  61  79 116 158 197 246 294 340
#     4  10  21  38  60  88 121 153 194 236 293 345
#     4  11  23  38  61  91 120 152 195 241 291 348
#     4  11  19  39  60  87 124 156 185 228 291 354
#
# _framework density 18.069669999999999
#
# number of rings (size 3 to 8) (size 9 to 14) (size 15 to 20)
#    0.000    1.600    6.000    1.200    0.000    8.800 
#    0.000    0.000    0.000    0.000    0.000    0.000 
#    0.000    0.000    0.000    0.000    0.000    0.000 
#
# Total GULP energy -222778.388285 kJ/mol
# GULP energy per Si atom -5569.459707 kJ/mol
# Density = 1.802854 g / cm^3
# Si number density = 18.069670 Si / 1000 Ang^3
#
#
#
# Elastic Constant Matrix: (Units=GPa)
#
#
# Indices 1 2 3 4 5 6 
#
# 1 101.4214 18.9016 41.6456 0.0000 0.0000 0.0000
# 2 18.9016 86.1053 18.1691 0.0000 0.0000 0.0000
# 3 41.6456 18.1691 157.2384 0.0000 0.0000 0.0000
# 4 0.0000 0.0000 0.0000 11.0613 0.0000 0.0000
# 5 0.0000 0.0000 0.0000 0.0000 -2.4539 0.0000
# 6 0.0000 0.0000 0.0000 0.0000 0.0000 6.3351
#
#
#
# Elastic Compliance Matrix: (Units=1/GPa)
#
#
# Indices 1 2 3 4 5 6 
#
# 1 0.011360 -0.001905 -0.002789 0.000000 0.000000 0.000000
# 2 -0.001905 0.012223 -0.000908 0.000000 0.000000 0.000000
# 3 -0.002789 -0.000908 0.007203 0.000000 0.000000 0.000000
# 4 0.000000 0.000000 0.000000 0.090405 0.000000 0.000000
# 5 0.000000 0.000000 0.000000 0.000000 -0.407507 0.000000
# 6 0.000000 0.000000 0.000000 0.000000 0.000000 0.157850
#
#
# Mechanical properties :
#
#
# Convention : Reuss Voigt Hill
#
# Bulk Modulus (GPa) = 51.06389 55.79975 53.43182
# Shear Modulus (GPa) = -45.15338 20.72507 -12.21415
#
# Velocity S-wave (km/s) = -5.00427 3.39034 -2.60272
# Velocity P-wave (km/s) = 2.25156 6.80245 4.53893
#
# Compressibility (1/GPa) = 0.01958331
#
# Stress axis : x y z
#
# Youngs Moduli (GPa) = 88.02819 81.80964 138.82620
#
# Poissons Ratio (x) = 0.15587 0.38713
# Poissons Ratio (y) = 0.16772 0.12603
# Poissons Ratio (z) = 0.24548 0.07427
#
# Static dielectric constant tensor:
#      x y z
#    x 1.905030 0.000000 0.000000 
#    y 0.000000 1.836980 0.000000 
#    z 0.000000 0.000000 1.653270 
# 
# From -- ./inp_files/14935.got.cif
#   From: 2010.05.17/outbox.cif.g08.bks.cpg/sg57_8_cif.got.tgz:14935.got - 2010.06.03 13:58:18.
