data_PCOD9438108
_publ_section_title
;
Structure prediction by ZEFSAII (Michael W. Deem and Ramdas Pophale) SiO2 
 PCOD9438108
Probable space group: P B C M
;
_chemical_formula_sum "Si O2"
_cell_formula_units_Z 32
_cell_length_a 11.508274
_cell_length_b 8.294962
_cell_length_c 13.645808
_cell_angle_alpha 90.000000
_cell_angle_beta 90.000000
_cell_angle_gamma 90.000000
_cell_volume 1302.638323
_symmetry_space_group_name_H-M "P B C M"
_symmetry_group_IT_number 57
_symmetry_cell_setting 'orthorhombic'
loop_
_space_group_symop_operation_xyz
x,y,z
-x,-y,1/2+z
x,1/2-y,-z
-x,1/2+y,1/2-z
-x,-y,-z
x,y,1/2-z
-x,1/2+y,z
x,1/2-y,1/2+z
loop_
_atom_site_type_symbol
_atom_site_label
_atom_site_fract_x
_atom_site_fract_y
_atom_site_fract_z
Si Si1 0.542746 0.498675 0.132097
Si Si2 0.755193 0.697453 0.365723
Si Si3 0.680174 0.174997 0.131380
Si Si4 0.136740 0.001387 0.517628
O O1 0.536336 0.488619 0.250000
O O2 0.620926 0.657040 0.111092
O O3 0.611862 0.338130 0.103678
O O4 0.411053 0.533068 0.100969
O O5 0.766015 0.713917 0.250000
O O6 0.818082 0.846337 0.417543
O O7 0.815342 0.537664 0.409062
O O8 0.694940 0.172017 0.250000
O O9 0.801541 0.141863 0.077565
O O10 0.000000 0.000000 0.500000
#
# Coordination Sequence:
#
# PCOD9438108 Si02
#       4
#     8   8   8   8
#     4   9  19  37  67 105 139 180 230 279 349 419
#     4  10  23  44  66  91 129 172 220 281 339 401
#     4  10  20  38  67 103 143 180 223 285 344 405
#     4  11  25  42  64  96 131 178 234 277 332 410
#
# _framework density 24.565529999999999
#
# number of rings (size 3 to 8) (size 9 to 14) (size 15 to 20)
#    0.000    2.000    0.000    2.250    0.000   12.000 
#    0.000    2.500    0.000    0.000    0.000    0.000 
#    0.000    0.000    0.000    0.000    0.000    0.000 
#
# Total GULP energy -178882.191295 kJ/mol
# GULP energy per Si atom -5590.068478 kJ/mol
# Density = 2.450962 g / cm^3
# Si number density = 24.565530 Si / 1000 Ang^3
#
#
#
# Elastic Constant Matrix: (Units=GPa)
#
#
# Indices 1 2 3 4 5 6 
#
# 1 212.3851 55.6419 57.5957 0.0000 0.0000 0.0000
# 2 55.6419 130.5701 53.3902 0.0000 0.0000 0.0000
# 3 57.5957 53.3902 137.5125 0.0000 0.0000 0.0000
# 4 0.0000 0.0000 0.0000 41.7907 0.0000 0.0000
# 5 0.0000 0.0000 0.0000 0.0000 65.3102 0.0000
# 6 0.0000 0.0000 0.0000 0.0000 0.0000 20.7987
#
#
#
# Elastic Compliance Matrix: (Units=1/GPa)
#
#
# Indices 1 2 3 4 5 6 
#
# 1 0.005612 -0.001700 -0.001690 0.000000 0.000000 0.000000
# 2 -0.001700 0.009619 -0.003023 0.000000 0.000000 0.000000
# 3 -0.001690 -0.003023 0.009154 0.000000 0.000000 0.000000
# 4 0.000000 0.000000 0.000000 0.023929 0.000000 0.000000
# 5 0.000000 0.000000 0.000000 0.000000 0.015312 0.000000
# 6 0.000000 0.000000 0.000000 0.000000 0.000000 0.048080
#
#
# Mechanical properties :
#
#
# Convention : Reuss Voigt Hill
#
# Bulk Modulus (GPa) = 86.51754 90.41369 88.46562
# Shear Modulus (GPa) = 38.94532 46.50259 42.72395
#
# Velocity S-wave (km/s) = 3.98598 4.35558 4.17488
# Velocity P-wave (km/s) = 7.51529 7.88542 7.70258
#
# Compressibility (1/GPa) = 0.01155835
#
# Stress axis : x y z
#
# Youngs Moduli (GPa) = 178.17843 103.95793 109.24646
#
# Poissons Ratio (x) = 0.17678 0.18468
# Poissons Ratio (y) = 0.30298 0.33020
# Poissons Ratio (z) = 0.30120 0.31422
#
# Static dielectric constant tensor:
#      x y z
#    x 1.950840 0.000000 0.000000 
#    y 0.000000 2.096490 0.000000 
#    z 0.000000 0.000000 1.961600 
# 
# From -- ./inp_files/15489.got.cif
#   From: 2010.05.17/outbox.cif.g08.bks.cpg/sg57_8_cif.got.tgz:15489.got - 2010.06.03 13:58:18.
