data_PCOD9438647
_publ_section_title
;
Structure prediction by ZEFSAII (Michael W. Deem and Ramdas Pophale) SiO2 
 PCOD9438647
Probable space group: P B C M
;
_chemical_formula_sum "Si O2"
_cell_formula_units_Z 64
_cell_length_a 12.010969
_cell_length_b 14.878314
_cell_length_c 17.052538
_cell_angle_alpha 90.000000
_cell_angle_beta 90.000000
_cell_angle_gamma 90.000000
_cell_volume 3047.339156
_symmetry_space_group_name_H-M "P B C M"
_symmetry_group_IT_number 57
_symmetry_cell_setting 'orthorhombic'
loop_
_space_group_symop_operation_xyz
x,y,z
-x,-y,1/2+z
x,1/2-y,-z
-x,1/2+y,1/2-z
-x,-y,-z
x,y,1/2-z
-x,1/2+y,z
x,1/2-y,1/2+z
loop_
_atom_site_type_symbol
_atom_site_label
_atom_site_fract_x
_atom_site_fract_y
_atom_site_fract_z
Si Si1 0.394615 0.419477 0.410351
Si Si2 0.325420 0.774028 0.912112
Si Si3 0.108647 0.679781 0.843654
Si Si4 0.608091 0.537630 0.096381
Si Si5 0.988853 0.637634 0.161185
Si Si6 0.559537 0.733153 0.160652
Si Si7 0.800255 0.458981 0.600052
Si Si8 0.145166 0.996409 0.076768
O O1 0.394850 0.439729 0.503383
O O2 0.506211 0.471531 0.381584
O O3 0.397567 0.314187 0.393179
O O4 0.282059 0.461854 0.374439
O O5 0.221703 0.713634 0.885476
O O6 0.426778 0.766419 0.852998
O O7 0.282524 0.875620 0.914820
O O8 0.362880 0.750000 0.000000
O O9 0.124049 0.672560 0.750000
O O10 0.020737 0.759840 0.857688
O O11 0.079328 0.584545 0.881519
O O12 0.599078 0.633325 0.138864
O O13 0.728053 0.492704 0.108270
O O14 0.946320 0.632474 0.250000
O O15 0.103398 0.579948 0.154909
O O16 0.904913 0.591323 0.101834
O O17 0.587812 0.753620 0.250000
O O18 0.853882 0.483475 0.516258
#
# Coordination Sequence:
#
# PCOD9438647 Si02
#       8
#     8   8   8   8   8   8   8   8
#     4  10  21  41  64  92 125 166 210 257 311 373
#     4  11  19  36  62  90 123 161 209 262 304 362
#     4  10  21  37  61  92 121 159 207 256 316 371
#     4  10  22  40  66  93 122 164 211 261 312 364
#     4  10  23  40  60  89 127 164 199 258 321 375
#     4  12  25  37  57  92 133 170 203 249 314 386
#     4  10  21  39  66  92 119 159 216 260 310 372
#     4  11  21  40  67  94 119 160 214 265 309 372
#
# _framework density 21.001930000000002
#
# number of rings (size 3 to 8) (size 9 to 14) (size 15 to 20)
#    0.000    1.500    2.500    3.000    1.750    2.500 
#    2.250    0.000    2.750    0.000    0.000    0.000 
#    0.000    0.000    0.000    0.000    0.000    0.000 
#
# Total GULP energy -357720.011666 kJ/mol
# GULP energy per Si atom -5589.375182 kJ/mol
# Density = 2.095413 g / cm^3
# Si number density = 21.001930 Si / 1000 Ang^3
#
#
#
# Elastic Constant Matrix: (Units=GPa)
#
#
# Indices 1 2 3 4 5 6 
#
# 1 23.7164 6.6829 3.4303 0.0000 0.0000 0.0000
# 2 6.6829 98.4061 22.4201 0.0000 0.0000 0.0000
# 3 3.4303 22.4201 33.1885 0.0000 0.0000 0.0000
# 4 0.0000 0.0000 0.0000 18.1849 0.0000 0.0000
# 5 0.0000 0.0000 0.0000 0.0000 21.0727 0.0000
# 6 0.0000 0.0000 0.0000 0.0000 0.0000 30.9037
#
#
#
# Elastic Compliance Matrix: (Units=1/GPa)
#
#
# Indices 1 2 3 4 5 6 
#
# 1 0.043228 -0.002267 -0.002937 0.000000 0.000000 0.000000
# 2 -0.002267 0.012129 -0.007960 0.000000 0.000000 0.000000
# 3 -0.002937 -0.007960 0.035811 0.000000 0.000000 0.000000
# 4 0.000000 0.000000 0.000000 0.054991 0.000000 0.000000
# 5 0.000000 0.000000 0.000000 0.000000 0.047455 0.000000
# 6 0.000000 0.000000 0.000000 0.000000 0.000000 0.032359
#
#
# Mechanical properties :
#
#
# Convention : Reuss Voigt Hill
#
# Bulk Modulus (GPa) = 15.42182 24.48639 19.95410
# Shear Modulus (GPa) = 18.25393 22.21745 20.23569
#
# Velocity S-wave (km/s) = 2.95134 3.25603 3.10742
# Velocity P-wave (km/s) = 4.35579 5.08134 4.73249
#
# Compressibility (1/GPa) = 0.06484320
#
# Stress axis : x y z
#
# Youngs Moduli (GPa) = 23.13295 82.44470 27.92400
#
# Poissons Ratio (x) = 0.18687 0.08201
# Poissons Ratio (y) = 0.05243 0.22226
# Poissons Ratio (z) = 0.06794 0.65622
#
# Static dielectric constant tensor:
#      x y z
#    x 1.779840 0.000000 0.000000 
#    y 0.000000 1.753530 0.000000 
#    z 0.000000 0.000000 1.713430 
# 
# From -- ./inp_files/22026.got.cif
#   From: 2010.05.17/outbox.cif.g08.bks.cpg/sg57_12_cif.got.tgz:22026.got - 2010.06.03 13:58:18.
