data_PCOD9438141
_publ_section_title
;
Structure prediction by ZEFSAII (Michael W. Deem and Ramdas Pophale) SiO2 
 PCOD9438141
Probable space group: P B C M
;
_chemical_formula_sum "Si O2"
_cell_formula_units_Z 64
_cell_length_a 13.258817
_cell_length_b 9.310564
_cell_length_c 25.061202
_cell_angle_alpha 90.000000
_cell_angle_beta 90.000000
_cell_angle_gamma 90.000000
_cell_volume 3093.731813
_symmetry_space_group_name_H-M "P B C M"
_symmetry_group_IT_number 57
_symmetry_cell_setting 'orthorhombic'
loop_
_space_group_symop_operation_xyz
x,y,z
-x,-y,1/2+z
x,1/2-y,-z
-x,1/2+y,1/2-z
-x,-y,-z
x,y,1/2-z
-x,1/2+y,z
x,1/2-y,1/2+z
loop_
_atom_site_type_symbol
_atom_site_label
_atom_site_fract_x
_atom_site_fract_y
_atom_site_fract_z
Si Si1 0.575320 0.285847 0.189654
Si Si2 0.049576 0.656428 0.811952
Si Si3 0.231580 0.882078 0.030751
Si Si4 0.736643 0.652867 0.417918
Si Si5 0.528258 0.953313 0.619470
Si Si6 0.139930 0.160155 0.188146
Si Si7 0.322469 0.469983 0.066841
Si Si8 0.765835 0.293924 0.865050
O O1 0.540321 0.269499 0.250000
O O2 0.517005 0.186592 0.147741
O O3 0.561849 0.444952 0.167779
O O4 0.691951 0.241277 0.183548
O O5 0.070954 0.692421 0.750000
O O6 0.076753 0.488782 0.818619
O O7 0.122329 0.750307 0.849211
O O8 0.935244 0.705975 0.820918
O O9 0.266401 0.809451 0.085774
O O10 0.192481 0.038152 0.050840
O O11 0.173892 0.750000 0.000000
O O12 0.310461 0.932523 0.985771
O O13 0.624174 0.587196 0.415727
O O14 0.775346 0.661925 0.357004
O O15 0.722436 0.811925 0.440833
O O16 0.437531 0.026239 0.586468
O O17 0.175510 0.163087 0.250000
O O18 0.256119 0.548362 0.112781
#
# Coordination Sequence:
#
# PCOD9438141 Si02
#       8
#     8   8   8   8   8   8   8   8
#     4  11  21  36  56  84 121 164 204 245 306 382
#     4  10  20  39  64  95 128 163 207 256 315 381
#     4  10  21  40  65  89 117 160 210 264 314 373
#     4  12  22  42  63  91 128 166 210 264 319 377
#     4  11  22  39  57  88 124 161 210 253 311 374
#     4  10  23  39  65  99 129 167 210 257 318 385
#     4  10  24  38  61  90 123 161 212 266 315 369
#     4  10  20  39  62  88 120 163 205 257 318 374
#
# _framework density 20.686992
#
# number of rings (size 3 to 8) (size 9 to 14) (size 15 to 20)
#    0.000    1.500    3.750    1.125    1.750    2.500 
#    0.000    1.875    0.000    8.250    0.000    0.000 
#    0.000    0.000    0.000    0.000    0.000    0.000 
#
# Total GULP energy -356758.200334 kJ/mol
# GULP energy per Si atom -5574.346880 kJ/mol
# Density = 2.063991 g / cm^3
# Si number density = 20.686992 Si / 1000 Ang^3
#
#
#
# Elastic Constant Matrix: (Units=GPa)
#
#
# Indices 1 2 3 4 5 6 
#
# 1 27.1944 10.4892 21.1826 0.0000 0.0000 0.0000
# 2 10.4892 100.7628 11.6242 0.0000 0.0000 0.0000
# 3 21.1826 11.6242 76.6529 0.0000 0.0000 0.0000
# 4 0.0000 0.0000 0.0000 16.4043 0.0000 0.0000
# 5 0.0000 0.0000 0.0000 0.0000 7.3728 0.0000
# 6 0.0000 0.0000 0.0000 0.0000 0.0000 9.2395
#
#
#
# Elastic Compliance Matrix: (Units=1/GPa)
#
#
# Indices 1 2 3 4 5 6 
#
# 1 0.048064 -0.003533 -0.012746 0.000000 0.000000 0.000000
# 2 -0.003533 0.010361 -0.000595 0.000000 0.000000 0.000000
# 3 -0.012746 -0.000595 0.016658 0.000000 0.000000 0.000000
# 4 0.000000 0.000000 0.000000 0.060960 0.000000 0.000000
# 5 0.000000 0.000000 0.000000 0.000000 0.135633 0.000000
# 6 0.000000 0.000000 0.000000 0.000000 0.000000 0.108231
#
#
# Mechanical properties :
#
#
# Convention : Reuss Voigt Hill
#
# Bulk Modulus (GPa) = 24.19288 32.35578 28.27433
# Shear Modulus (GPa) = 11.69775 17.35760 14.52767
#
# Velocity S-wave (km/s) = 2.38053 2.89979 2.65290
# Velocity P-wave (km/s) = 4.39044 5.18520 4.80429
#
# Compressibility (1/GPa) = 0.04133448
#
# Stress axis : x y z
#
# Youngs Moduli (GPa) = 20.80579 96.51864 60.02976
#
# Poissons Ratio (x) = 0.34099 0.76516
# Poissons Ratio (y) = 0.07350 0.03571
# Poissons Ratio (z) = 0.26520 0.05742
#
# Static dielectric constant tensor:
#      x y z
#    x 1.733270 0.000000 0.000000 
#    y 0.000000 1.782610 0.000000 
#    z 0.000000 0.000000 1.736830 
# 
# From -- ./inp_files/27471.got.cif
#   From: 2010.05.17/outbox.cif.g08.bks.cpg/sg57_14_cif.got.tgz:27471.got - 2010.06.03 13:58:18.
