data_PCOD9438252
_publ_section_title
;
Structure prediction by ZEFSAII (Michael W. Deem and Ramdas Pophale) SiO2 
 PCOD9438252
Probable space group: P B C M
;
_chemical_formula_sum "Si O2"
_cell_formula_units_Z 64
_cell_length_a 17.345730
_cell_length_b 8.752524
_cell_length_c 20.989727
_cell_angle_alpha 90.000000
_cell_angle_beta 90.000000
_cell_angle_gamma 90.000000
_cell_volume 3186.637645
_symmetry_space_group_name_H-M "P B C M"
_symmetry_group_IT_number 57
_symmetry_cell_setting 'orthorhombic'
loop_
_space_group_symop_operation_xyz
x,y,z
-x,-y,1/2+z
x,1/2-y,-z
-x,1/2+y,1/2-z
-x,-y,-z
x,y,1/2-z
-x,1/2+y,z
x,1/2-y,1/2+z
loop_
_atom_site_type_symbol
_atom_site_label
_atom_site_fract_x
_atom_site_fract_y
_atom_site_fract_z
Si Si1 0.750469 0.585045 0.490058
Si Si2 0.227676 0.215650 0.822192
Si Si3 0.104244 0.390874 0.905890
Si Si4 0.797185 0.410482 0.617202
Si Si5 0.671356 0.314894 0.073341
Si Si6 0.397409 0.175413 0.826507
Si Si7 0.557449 0.173881 0.327536
Si Si8 0.058062 0.764315 0.424404
O O1 0.715414 0.750000 0.500000
O O2 0.837439 0.601941 0.464769
O O3 0.764609 0.502806 0.556643
O O4 0.699945 0.483762 0.442876
O O5 0.230966 0.266146 0.750000
O O6 0.160617 0.313044 0.854696
O O7 0.314026 0.228666 0.850440
O O8 0.210451 0.033851 0.827269
O O9 0.074917 0.565246 0.898981
O O10 0.029825 0.285772 0.915329
O O11 0.742668 0.263360 0.611630
O O12 0.883836 0.353206 0.609076
O O13 0.602671 0.283419 0.122883
O O14 0.658723 0.250000 0.000000
O O15 0.390527 0.167420 0.750000
O O16 0.467638 0.289741 0.839182
O O17 0.418450 0.000215 0.844745
O O18 0.571722 0.197641 0.250000
O O19 0.075813 0.750000 0.500000
#
# Coordination Sequence:
#
# PCOD9438252 Si02
#       8
#     8   8   8   8   8   8   8   8
#     4  11  21  37  61  95 128 168 210 266 330 384
#     4  11  24  43  65  92 128 174 219 262 322 395
#     4  12  24  39  64  97 128 165 214 272 326 376
#     4  11  20  39  66  91 127 166 214 264 321 383
#     4  10  21  38  62  93 135 173 217 271 337 399
#     4   9  20  39  65  92 124 167 220 272 319 381
#     4  10  20  40  68  96 128 171 222 277 327 389
#     4  12  23  40  65  99 128 162 216 274 323 386
#
# _framework density 20.083864999999999
#
# number of rings (size 3 to 8) (size 9 to 14) (size 15 to 20)
#    0.000    1.250    5.000    1.875    0.000    1.000 
#    0.000    5.625    2.750    0.000    0.000    0.000 
#    0.000    0.000    0.000    0.000    0.000    0.000 
#
# Total GULP energy -356810.512251 kJ/mol
# GULP energy per Si atom -5575.164254 kJ/mol
# Density = 2.003815 g / cm^3
# Si number density = 20.083865 Si / 1000 Ang^3
#
#
#
# Elastic Constant Matrix: (Units=GPa)
#
#
# Indices 1 2 3 4 5 6 
#
# 1 104.1281 33.3248 35.9083 0.0000 0.0000 0.0000
# 2 33.3248 120.8841 23.0520 0.0000 0.0000 0.0000
# 3 35.9083 23.0520 36.3264 0.0000 0.0000 0.0000
# 4 0.0000 0.0000 0.0000 13.3530 0.0000 0.0000
# 5 0.0000 0.0000 0.0000 0.0000 29.9065 0.0000
# 6 0.0000 0.0000 0.0000 0.0000 0.0000 76.0986
#
#
#
# Elastic Compliance Matrix: (Units=1/GPa)
#
#
# Indices 1 2 3 4 5 6 
#
# 1 0.014796 -0.001467 -0.013694 0.000000 0.000000 0.000000
# 2 -0.001467 0.009557 -0.004614 0.000000 0.000000 0.000000
# 3 -0.013694 -0.004614 0.043993 0.000000 0.000000 0.000000
# 4 0.000000 0.000000 0.000000 0.074889 0.000000 0.000000
# 5 0.000000 0.000000 0.000000 0.000000 0.033438 0.000000
# 6 0.000000 0.000000 0.000000 0.000000 0.000000 0.013141
#
#
# Mechanical properties :
#
#
# Convention : Reuss Voigt Hill
#
# Bulk Modulus (GPa) = 34.72953 49.54542 42.13747
# Shear Modulus (GPa) = 20.92385 35.14187 28.03286
#
# Velocity S-wave (km/s) = 3.23123 4.18755 3.74008
# Velocity P-wave (km/s) = 5.59025 6.93567 6.29899
#
# Compressibility (1/GPa) = 0.02879394
#
# Stress axis : x y z
#
# Youngs Moduli (GPa) = 67.58794 104.63775 22.73108
#
# Poissons Ratio (x) = 0.15354 0.31128
# Poissons Ratio (y) = 0.09918 0.10488
# Poissons Ratio (z) = 0.92555 0.48280
#
# Static dielectric constant tensor:
#      x y z
#    x 1.722140 0.000000 0.000000 
#    y 0.000000 1.641920 0.000000 
#    z 0.000000 0.000000 1.734000 
# 
# From -- ./inp_files/25581.got.cif
#   From: 2010.05.17/outbox.cif.g08.bks.cpg/sg57_13_cif.got.tgz:25581.got - 2010.06.03 13:58:18.
