data_PCOD9438670
_publ_section_title
;
Structure prediction by ZEFSAII (Michael W. Deem and Ramdas Pophale) SiO2 
 PCOD9438670
Probable space group: P B C M
;
_chemical_formula_sum "Si O2"
_cell_formula_units_Z 36
_cell_length_a 9.967764
_cell_length_b 11.605396
_cell_length_c 14.821817
_cell_angle_alpha 90.000000
_cell_angle_beta 90.000000
_cell_angle_gamma 90.000000
_cell_volume 1714.585544
_symmetry_space_group_name_H-M "P B C M"
_symmetry_group_IT_number 57
_symmetry_cell_setting 'orthorhombic'
loop_
_space_group_symop_operation_xyz
x,y,z
-x,-y,1/2+z
x,1/2-y,-z
-x,1/2+y,1/2-z
-x,-y,-z
x,y,1/2-z
-x,1/2+y,z
x,1/2-y,1/2+z
loop_
_atom_site_type_symbol
_atom_site_label
_atom_site_fract_x
_atom_site_fract_y
_atom_site_fract_z
Si Si1 0.236578 0.288020 0.854207
Si Si2 0.271298 0.485893 0.346993
Si Si3 0.223554 0.627098 0.973348
Si Si4 0.969331 0.750000 0.000000
Si Si5 0.437961 0.024234 0.401629
O O1 0.208850 0.319875 0.750000
O O2 0.371538 0.352077 0.885673
O O3 0.250910 0.150286 0.858810
O O4 0.121609 0.314921 0.927054
O O5 0.212070 0.522056 0.250000
O O6 0.218979 0.552589 0.434776
O O7 0.431330 0.505932 0.342911
O O8 0.289956 0.750000 0.000000
O O9 0.071998 0.663312 0.949548
O O10 0.311904 0.563202 0.898725
O O11 0.500000 0.000000 0.500000
#
# Coordination Sequence:
#
# PCOD9438670 Si02
#       5
#     8   8   8   4   8
#     4  11  24  40  61  94 127 164 215 265 317 377
#     4  10  22  39  62  90 125 159 199 260 320 375
#     4   9  22  39  61  88 116 162 211 247 304 377
#     4  10  22  42  62  86 126 168 210 262 308 374
#     4  10  21  37  64  90 120 158 202 258 319 377
#
# _framework density 20.996327999999998
#
# number of rings (size 3 to 8) (size 9 to 14) (size 15 to 20)
#    0.667    1.333    0.000    3.333    6.222    4.444 
#    0.000    5.556    0.000    0.000    0.000    0.000 
#    0.000    0.000    0.000    0.000    0.000    0.000 
#
# Total GULP energy -200613.280767 kJ/mol
# GULP energy per Si atom -5572.591132 kJ/mol
# Density = 2.094854 g / cm^3
# Si number density = 20.996328 Si / 1000 Ang^3
#
#
#
# Elastic Constant Matrix: (Units=GPa)
#
#
# Indices 1 2 3 4 5 6 
#
# 1 72.6908 -15.3446 -3.4431 0.0000 0.0000 0.0000
# 2 -15.3446 48.7362 -3.7554 0.0000 0.0000 0.0000
# 3 -3.4431 -3.7554 71.2794 0.0000 0.0000 0.0000
# 4 0.0000 0.0000 0.0000 24.4694 0.0000 0.0000
# 5 0.0000 0.0000 0.0000 0.0000 31.5538 0.0000
# 6 0.0000 0.0000 0.0000 0.0000 0.0000 39.5811
#
#
#
# Elastic Compliance Matrix: (Units=1/GPa)
#
#
# Indices 1 2 3 4 5 6 
#
# 1 0.014802 0.004735 0.000964 0.000000 0.000000 0.000000
# 2 0.004735 0.022117 0.001394 0.000000 0.000000 0.000000
# 3 0.000964 0.001394 0.014149 0.000000 0.000000 0.000000
# 4 0.000000 0.000000 0.000000 0.040867 0.000000 0.000000
# 5 0.000000 0.000000 0.000000 0.000000 0.031692 0.000000
# 6 0.000000 0.000000 0.000000 0.000000 0.000000 0.025265
#
#
# Mechanical properties :
#
#
# Convention : Reuss Voigt Hill
#
# Bulk Modulus (GPa) = 15.32462 16.40224 15.86343
# Shear Modulus (GPa) = 31.95761 33.47082 32.71421
#
# Velocity S-wave (km/s) = 3.90559 3.99698 3.95155
# Velocity P-wave (km/s) = 5.25858 5.39723 5.32836
#
# Compressibility (1/GPa) = 0.06525449
#
# Stress axis : x y z
#
# Youngs Moduli (GPa) = 67.55818 45.21455 70.67471
#
# Poissons Ratio (x) = -0.21408 -0.06816
# Poissons Ratio (y) = -0.31987 -0.09852
# Poissons Ratio (z) = -0.06516 -0.06303
#
# Static dielectric constant tensor:
#      x y z
#    x 1.775090 0.000000 0.000000 
#    y 0.000000 1.786970 0.000000 
#    z 0.000000 0.000000 1.761780 
# 
# From -- ./inp_files/16051.got.cif
#   From: 2010.05.17/outbox.cif.g08.bks.cpg/sg57_9_cif.got.tgz:16051.got - 2010.06.03 13:58:18.
