data_PCOD9438909
_publ_section_title
;
Structure prediction by ZEFSAII (Michael W. Deem and Ramdas Pophale) SiO2 
 PCOD9438909
Probable space group: P B C M
;
_chemical_formula_sum "Si O2"
_cell_formula_units_Z 48
_cell_length_a 10.221350
_cell_length_b 29.266893
_cell_length_c 8.557202
_cell_angle_alpha 90.000000
_cell_angle_beta 90.000000
_cell_angle_gamma 90.000000
_cell_volume 2559.862648
_symmetry_space_group_name_H-M "P B C M"
_symmetry_group_IT_number 57
_symmetry_cell_setting 'orthorhombic'
loop_
_space_group_symop_operation_xyz
x,y,z
-x,-y,1/2+z
x,1/2-y,-z
-x,1/2+y,1/2-z
-x,-y,-z
x,y,1/2-z
-x,1/2+y,z
x,1/2-y,1/2+z
loop_
_atom_site_type_symbol
_atom_site_label
_atom_site_fract_x
_atom_site_fract_y
_atom_site_fract_z
Si Si1 0.493264 0.801860 0.437012
Si Si2 0.633012 0.478501 0.938664
Si Si3 0.991455 0.868979 0.061824
Si Si4 0.224603 0.301251 0.563335
Si Si5 0.287038 0.624410 0.061750
Si Si6 0.887309 0.532564 0.561783
O O1 0.473902 0.750000 0.500000
O O2 0.493775 0.800404 0.250000
O O3 0.635796 0.818368 0.496897
O O4 0.382226 0.836305 0.496972
O O5 0.630584 0.478366 0.750000
O O6 0.662640 0.426192 0.987689
O O7 0.750640 0.511448 0.991990
O O8 0.500000 0.500000 0.000000
O O9 0.995703 0.866674 0.250000
O O10 0.921703 0.916287 0.012848
O O11 0.899017 0.829516 0.996261
O O12 0.139067 0.868596 0.997976
O O13 0.212127 0.250000 0.500000
O O14 0.230494 0.301397 0.750000
O O15 0.287369 0.626010 0.250000
O O16 0.887589 0.531700 0.750000
O O17 0.000000 0.500000 0.500000
#
# Coordination Sequence:
#
# PCOD9438909 Si02
#       6
#     8   8   8   8   8   8
#     4  11  23  42  66  92 123 159 201 250 305 366
#     4  10  23  40  59  88 123 161 204 251 301 359
#     4  11  23  39  62  93 124 162 206 252 305 363
#     4  11  23  42  66  93 124 159 201 250 304 364
#     4  11  23  41  62  90 125 162 206 254 305 363
#     4  10  21  39  61  87 121 161 202 247 300 357
#
# _framework density 18.751006
#
# number of rings (size 3 to 8) (size 9 to 14) (size 15 to 20)
#    0.000    1.333    1.667    5.000    2.333    3.333 
#    0.000    3.333    0.000    0.000    0.000    0.000 
#    0.000    0.000    0.000    0.000    0.000    0.000 
#
# Total GULP energy -268266.311921 kJ/mol
# GULP energy per Si atom -5588.881498 kJ/mol
# Density = 1.870833 g / cm^3
# Si number density = 18.751006 Si / 1000 Ang^3
#
#
#
# Elastic Constant Matrix: (Units=GPa)
#
#
# Indices 1 2 3 4 5 6 
#
# 1 210.3682 104.6485 55.5510 0.0000 0.0000 0.0000
# 2 104.6485 110.6216 46.3775 0.0000 0.0000 0.0000
# 3 55.5510 46.3775 95.8186 0.0000 0.0000 0.0000
# 4 0.0000 0.0000 0.0000 24.9565 0.0000 0.0000
# 5 0.0000 0.0000 0.0000 0.0000 36.3056 0.0000
# 6 0.0000 0.0000 0.0000 0.0000 0.0000 44.5449
#
#
#
# Elastic Compliance Matrix: (Units=1/GPa)
#
#
# Indices 1 2 3 4 5 6 
#
# 1 0.009125 -0.008048 -0.001395 0.000000 0.000000 0.000000
# 2 -0.008048 0.018438 -0.004259 0.000000 0.000000 0.000000
# 3 -0.001395 -0.004259 0.013307 0.000000 0.000000 0.000000
# 4 0.000000 0.000000 0.000000 0.040070 0.000000 0.000000
# 5 0.000000 0.000000 0.000000 0.000000 0.027544 0.000000
# 6 0.000000 0.000000 0.000000 0.000000 0.000000 0.022449
#
#
# Mechanical properties :
#
#
# Convention : Reuss Voigt Hill
#
# Bulk Modulus (GPa) = 74.25594 92.21803 83.23699
# Shear Modulus (GPa) = 30.70765 35.17682 32.94223
#
# Velocity S-wave (km/s) = 4.05118 4.33598 4.19600
# Velocity P-wave (km/s) = 7.84664 8.62291 8.24392
#
# Compressibility (1/GPa) = 0.01346694
#
# Stress axis : x y z
#
# Youngs Moduli (GPa) = 109.58476 54.23452 75.15063
#
# Poissons Ratio (x) = 0.43646 0.10485
# Poissons Ratio (y) = 0.88190 0.32005
# Poissons Ratio (z) = 0.15290 0.23097
#
# Static dielectric constant tensor:
#      x y z
#    x 1.630910 0.000000 0.000000 
#    y 0.000000 1.570440 0.000000 
#    z 0.000000 0.000000 1.635460 
# 
# From -- ./inp_files/2062.got.cif
#   From: 2010.05.17/outbox.cif.g08.bks.cpg/sg57_2_cif.got.tgz:2062.got - 2010.06.03 13:58:18.
