data_PCOD9438652
_publ_section_title
;
Structure prediction by ZEFSAII (Michael W. Deem and Ramdas Pophale) SiO2 
 PCOD9438652
Probable space group: P B C M
;
_chemical_formula_sum "Si O2"
_cell_formula_units_Z 64
_cell_length_a 22.202593
_cell_length_b 5.054359
_cell_length_c 26.395703
_cell_angle_alpha 90.000000
_cell_angle_beta 90.000000
_cell_angle_gamma 90.000000
_cell_volume 2962.122511
_symmetry_space_group_name_H-M "P B C M"
_symmetry_group_IT_number 57
_symmetry_cell_setting 'orthorhombic'
loop_
_space_group_symop_operation_xyz
x,y,z
-x,-y,1/2+z
x,1/2-y,-z
-x,1/2+y,1/2-z
-x,-y,-z
x,y,1/2-z
-x,1/2+y,z
x,1/2-y,1/2+z
loop_
_atom_site_type_symbol
_atom_site_label
_atom_site_fract_x
_atom_site_fract_y
_atom_site_fract_z
Si Si1 0.825717 0.075151 0.341898
Si Si2 0.030470 0.803760 0.060649
Si Si3 0.341573 0.166119 0.892725
Si Si4 0.538675 0.731922 0.059898
Si Si5 0.037677 0.966107 0.689286
Si Si6 0.838311 0.186730 0.558991
Si Si7 0.748551 0.909159 0.809276
Si Si8 0.707864 0.359466 0.056424
O O1 0.895178 0.111744 0.327122
O O2 0.827682 0.067794 0.403223
O O3 0.781591 0.316130 0.325098
O O4 0.799625 0.812617 0.317392
O O5 0.095995 0.922723 0.071909
O O6 0.019792 0.507068 0.078784
O O7 0.025936 0.750000 0.000000
O O8 0.413596 0.164657 0.898123
O O9 0.306952 0.301687 0.844661
O O10 0.330002 0.380193 0.936702
O O11 0.313686 0.880141 0.906944
O O12 0.518426 0.428677 0.066114
O O13 0.556959 0.750000 0.000000
O O14 0.040503 0.964964 0.750000
O O15 0.987291 0.752185 0.674629
O O16 0.841672 0.250000 0.500000
O O17 0.776033 0.037360 0.566308
O O18 0.731328 0.925246 0.750000
O O19 0.705084 0.250000 0.000000
#
# Coordination Sequence:
#
# PCOD9438652 Si02
#       8
#     8   8   8   8   8   8   8   8
#     4  12  24  43  63  91 124 161 203 257 329 383
#     4   9  19  34  51  72 104 151 198 238 286 349
#     4  12  22  41  63  94 127 170 208 250 294 359
#     4  10  21  37  61  95 134 171 203 239 288 350
#     4  10  21  38  61  87 112 147 200 262 323 382
#     4  10  22  39  59  86 123 157 199 250 301 370
#     4  12  25  43  65  91 121 162 211 265 317 367
#     4  11  22  37  60  92 127 163 201 249 303 360
#
# _framework density 21.60613
#
# number of rings (size 3 to 8) (size 9 to 14) (size 15 to 20)
#    0.000    1.250    2.500    3.750    0.000    5.000 
#    0.000    5.625    0.000    0.750    0.000    0.000 
#    0.000    0.000    0.000    0.000    0.000    0.000 
#
# Total GULP energy -356965.608906 kJ/mol
# GULP energy per Si atom -5577.587639 kJ/mol
# Density = 2.155695 g / cm^3
# Si number density = 21.606130 Si / 1000 Ang^3
#
#
#
# Elastic Constant Matrix: (Units=GPa)
#
#
# Indices 1 2 3 4 5 6 
#
# 1 87.3136 8.3581 21.4686 0.0000 0.0000 0.0000
# 2 8.3581 92.6447 8.5183 0.0000 0.0000 0.0000
# 3 21.4686 8.5183 100.5382 0.0000 0.0000 0.0000
# 4 0.0000 0.0000 0.0000 20.9883 0.0000 0.0000
# 5 0.0000 0.0000 0.0000 0.0000 17.6318 0.0000
# 6 0.0000 0.0000 0.0000 0.0000 0.0000 27.1507
#
#
#
# Elastic Compliance Matrix: (Units=1/GPa)
#
#
# Indices 1 2 3 4 5 6 
#
# 1 0.012156 -0.000865 -0.002522 0.000000 0.000000 0.000000
# 2 -0.000865 0.010940 -0.000742 0.000000 0.000000 0.000000
# 3 -0.002522 -0.000742 0.010548 0.000000 0.000000 0.000000
# 4 0.000000 0.000000 0.000000 0.047645 0.000000 0.000000
# 5 0.000000 0.000000 0.000000 0.000000 0.056716 0.000000
# 6 0.000000 0.000000 0.000000 0.000000 0.000000 0.036831
#
#
# Mechanical properties :
#
#
# Convention : Reuss Voigt Hill
#
# Bulk Modulus (GPa) = 39.39307 39.68738 39.54022
# Shear Modulus (GPa) = 26.10182 29.29760 27.69971
#
# Velocity S-wave (km/s) = 3.47951 3.68637 3.58443
# Velocity P-wave (km/s) = 5.86639 6.04380 5.95576
#
# Compressibility (1/GPa) = 0.02538518
#
# Stress axis : x y z
#
# Youngs Moduli (GPa) = 82.26405 91.40609 94.80465
#
# Poissons Ratio (x) = 0.07904 0.23914
# Poissons Ratio (y) = 0.07114 0.07037
# Poissons Ratio (z) = 0.20751 0.06785
#
# Static dielectric constant tensor:
#      x y z
#    x 1.843930 0.000000 0.000000 
#    y 0.000000 1.744720 0.000000 
#    z 0.000000 0.000000 1.851400 
# 
# From -- ./inp_files/28922.got.cif
#   From: 2010.05.17/outbox.cif.g08.bks.cpg/sg57_15_cif.got.tgz:28922.got - 2010.06.03 13:58:18.
