data_PCOD9438833
_publ_section_title
;
Structure prediction by ZEFSAII (Michael W. Deem and Ramdas Pophale) SiO2 
 PCOD9438833
Probable space group: P B C M
;
_chemical_formula_sum "Si O2"
_cell_formula_units_Z 48
_cell_length_a 9.734080
_cell_length_b 15.034786
_cell_length_c 18.120748
_cell_angle_alpha 90.000000
_cell_angle_beta 90.000000
_cell_angle_gamma 90.000000
_cell_volume 2651.968022
_symmetry_space_group_name_H-M "P B C M"
_symmetry_group_IT_number 57
_symmetry_cell_setting 'orthorhombic'
loop_
_space_group_symop_operation_xyz
x,y,z
-x,-y,1/2+z
x,1/2-y,-z
-x,1/2+y,1/2-z
-x,-y,-z
x,y,1/2-z
-x,1/2+y,z
x,1/2-y,1/2+z
loop_
_atom_site_type_symbol
_atom_site_label
_atom_site_fract_x
_atom_site_fract_y
_atom_site_fract_z
Si Si1 0.840054 0.998172 0.422811
Si Si2 0.663847 0.853567 0.838546
Si Si3 0.153432 0.511546 0.596894
Si Si4 0.849683 0.713518 0.583212
Si Si5 0.138940 0.794761 0.161936
Si Si6 0.656169 0.364417 0.838362
O O1 0.823368 0.891965 0.417274
O O2 0.994225 0.018006 0.393523
O O3 0.831212 0.023513 0.508941
O O4 0.729485 0.053157 0.377487
O O5 0.675753 0.855092 0.750000
O O6 0.735698 0.766232 0.871113
O O7 0.503353 0.856643 0.858740
O O8 0.745075 0.937153 0.872495
O O9 0.175289 0.605418 0.636970
O O10 0.851945 0.750000 0.500000
O O11 0.997874 0.729392 0.620498
O O12 0.117114 0.792667 0.250000
O O13 0.257432 0.724252 0.142958
O O14 0.663639 0.375826 0.750000
#
# Coordination Sequence:
#
# PCOD9438833 Si02
#       6
#     8   8   8   8   8   8
#     4  10  22  39  62  90 122 154 199 255 302 350
#     4  11  23  41  62  87 124 165 200 244 299 359
#     4  10  21  38  63  91 118 155 201 252 301 353
#     4  11  22  40  62  90 121 155 204 253 301 358
#     4  10  22  39  62  90 119 157 204 251 300 355
#     4  10  24  41  59  89 126 163 201 243 298 361
#
# _framework density 18.099765000000001
#
# number of rings (size 3 to 8) (size 9 to 14) (size 15 to 20)
#    0.000    1.667    1.667    2.000    4.667    7.333 
#    3.000    3.333    0.000    0.000    0.000    0.000 
#    0.000    0.000    0.000    0.000    0.000    0.000 
#
# Total GULP energy -268233.095028 kJ/mol
# GULP energy per Si atom -5588.189480 kJ/mol
# Density = 1.805857 g / cm^3
# Si number density = 18.099765 Si / 1000 Ang^3
#
#
#
# Elastic Constant Matrix: (Units=GPa)
#
#
# Indices 1 2 3 4 5 6 
#
# 1 131.7497 59.2198 56.6736 0.0000 0.0000 0.0000
# 2 59.2198 68.8687 39.2147 0.0000 0.0000 0.0000
# 3 56.6736 39.2147 56.2035 0.0000 0.0000 0.0000
# 4 0.0000 0.0000 0.0000 24.3270 0.0000 0.0000
# 5 0.0000 0.0000 0.0000 0.0000 10.0446 0.0000
# 6 0.0000 0.0000 0.0000 0.0000 0.0000 -16.0070
#
#
#
# Elastic Compliance Matrix: (Units=1/GPa)
#
#
# Indices 1 2 3 4 5 6 
#
# 1 0.015320 -0.007263 -0.010381 0.000000 0.000000 0.000000
# 2 -0.007263 0.027535 -0.011888 0.000000 0.000000 0.000000
# 3 -0.010381 -0.011888 0.036555 0.000000 0.000000 0.000000
# 4 0.000000 0.000000 0.000000 0.041107 0.000000 0.000000
# 5 0.000000 0.000000 0.000000 0.000000 0.099556 0.000000
# 6 0.000000 0.000000 0.000000 0.000000 0.000000 -0.062473
#
#
# Mechanical properties :
#
#
# Convention : Reuss Voigt Hill
#
# Bulk Modulus (GPa) = 49.14937 63.00422 56.07679
# Shear Modulus (GPa) = 22.37678 10.45383 16.41531
#
# Velocity S-wave (km/s) = 3.51992 2.40587 3.01480
# Velocity P-wave (km/s) = 6.61313 6.52707 6.57024
#
# Compressibility (1/GPa) = 0.02034614
#
# Stress axis : x y z
#
# Youngs Moduli (GPa) = 65.27378 36.31748 27.35595
#
# Poissons Ratio (x) = 0.26376 0.28398
# Poissons Ratio (y) = 0.47406 0.32522
# Poissons Ratio (z) = 0.67760 0.43176
#
# Static dielectric constant tensor:
#      x y z
#    x 1.599630 0.000000 0.000000 
#    y 0.000000 1.602330 0.000000 
#    z 0.000000 0.000000 1.599140 
# 
# From -- ./inp_files/20963.got.cif
#   From: 2010.05.17/outbox.cif.g08.bks.cpg/sg57_11_cif.got.tgz:20963.got - 2010.06.03 13:58:18.
