data_PCOD9438629
_publ_section_title
;
Structure prediction by ZEFSAII (Michael W. Deem and Ramdas Pophale) SiO2 
 PCOD9438629
Probable space group: P B C M
;
_chemical_formula_sum "Si O2"
_cell_formula_units_Z 64
_cell_length_a 9.678080
_cell_length_b 22.474834
_cell_length_c 14.984005
_cell_angle_alpha 90.000000
_cell_angle_beta 90.000000
_cell_angle_gamma 90.000000
_cell_volume 3259.219497
_symmetry_space_group_name_H-M "P B C M"
_symmetry_group_IT_number 57
_symmetry_cell_setting 'orthorhombic'
loop_
_space_group_symop_operation_xyz
x,y,z
-x,-y,1/2+z
x,1/2-y,-z
-x,1/2+y,1/2-z
-x,-y,-z
x,y,1/2-z
-x,1/2+y,z
x,1/2-y,1/2+z
loop_
_atom_site_type_symbol
_atom_site_label
_atom_site_fract_x
_atom_site_fract_y
_atom_site_fract_z
Si Si1 0.631407 0.982480 0.352136
Si Si2 0.985383 0.343179 0.924643
Si Si3 0.936455 0.720514 0.586400
Si Si4 0.688453 0.478310 0.147057
Si Si5 0.260674 0.586102 0.025538
Si Si6 0.501867 0.819545 0.510672
Si Si7 0.286048 0.379726 0.856003
Si Si8 0.304614 0.355136 0.348656
O O1 0.645138 0.003826 0.250000
O O2 0.473144 0.961124 0.362689
O O3 0.727180 0.924689 0.365401
O O4 0.663010 0.033799 0.420990
O O5 0.978770 0.277370 0.878906
O O6 0.135652 0.366389 0.897413
O O7 0.867467 0.391480 0.914609
O O8 0.974772 0.326535 0.030398
O O9 0.855703 0.750000 0.500000
O O10 0.828916 0.686918 0.646472
O O11 0.731218 0.467382 0.250000
O O12 0.689504 0.549651 0.131978
O O13 0.770788 0.442643 0.071379
O O14 0.363780 0.641454 0.014814
O O15 0.471318 0.750000 0.500000
O O16 0.598903 0.840270 0.593695
O O17 0.590866 0.835892 0.424093
O O18 0.285788 0.367067 0.750000
O O19 0.366084 0.351685 0.250000
#
# Coordination Sequence:
#
# PCOD9438629 Si02
#       8
#     8   8   8   8   8   8   8   8
#     4  10  21  37  60  94 127 156 210 264 314 375
#     4   9  22  38  59  85 120 160 206 246 295 378
#     4   8  19  40  59  80 120 159 204 253 294 365
#     4  10  21  39  62  91 126 164 205 254 314 380
#     4  12  23  38  66  88 129 172 200 258 326 364
#     4  12  24  37  59  98 122 157 215 260 305 375
#     4  11  22  41  65  88 123 166 206 259 315 369
#     4  11  20  37  66  93 120 157 207 266 308 357
#
# _framework density 19.636602
#
# number of rings (size 3 to 8) (size 9 to 14) (size 15 to 20)
#    0.750    0.750    3.750    2.250    1.750    3.000 
#    0.000    0.625    0.000    0.000    0.000    0.000 
#    0.000    0.000    0.000    0.000    0.000    0.000 
#
# Total GULP energy -356561.007620 kJ/mol
# GULP energy per Si atom -5571.265744 kJ/mol
# Density = 1.959191 g / cm^3
# Si number density = 19.636602 Si / 1000 Ang^3
#
#
#
# Elastic Constant Matrix: (Units=GPa)
#
#
# Indices 1 2 3 4 5 6 
#
# 1 16.3529 7.2665 7.2166 0.0000 0.0000 0.0000
# 2 7.2665 94.4302 50.0883 0.0000 0.0000 0.0000
# 3 7.2166 50.0883 67.6633 0.0000 0.0000 0.0000
# 4 0.0000 0.0000 0.0000 8.4719 0.0000 0.0000
# 5 0.0000 0.0000 0.0000 0.0000 4.0951 0.0000
# 6 0.0000 0.0000 0.0000 0.0000 0.0000 25.8447
#
#
#
# Elastic Compliance Matrix: (Units=1/GPa)
#
#
# Indices 1 2 3 4 5 6 
#
# 1 0.064439 -0.002162 -0.005272 0.000000 0.000000 0.000000
# 2 -0.002162 0.017509 -0.012730 0.000000 0.000000 0.000000
# 3 -0.005272 -0.012730 0.024765 0.000000 0.000000 0.000000
# 4 0.000000 0.000000 0.000000 0.118037 0.000000 0.000000
# 5 0.000000 0.000000 0.000000 0.000000 0.244193 0.000000
# 6 0.000000 0.000000 0.000000 0.000000 0.000000 0.038693
#
#
# Mechanical properties :
#
#
# Convention : Reuss Voigt Hill
#
# Bulk Modulus (GPa) = 15.06407 34.17657 24.62032
# Shear Modulus (GPa) = 8.77052 15.27401 12.02227
#
# Velocity S-wave (km/s) = 2.11568 2.79199 2.47703
# Velocity P-wave (km/s) = 3.69543 5.27598 4.55479
#
# Compressibility (1/GPa) = 0.06638312
#
# Stress axis : x y z
#
# Youngs Moduli (GPa) = 15.51866 57.11436 40.37939
#
# Poissons Ratio (x) = 0.12349 0.21288
# Poissons Ratio (y) = 0.03355 0.51404
# Poissons Ratio (z) = 0.08182 0.72709
#
# Static dielectric constant tensor:
#      x y z
#    x 1.705650 0.000000 0.000000 
#    y 0.000000 1.748890 0.000000 
#    z 0.000000 0.000000 1.713650 
# 
# From -- ./inp_files/16976.got.cif
#   From: 2010.05.17/outbox.cif.g08.bks.cpg/sg57_9_cif.got.tgz:16976.got - 2010.06.03 13:58:18.
