data_PCOD9438292
_publ_section_title
;
Structure prediction by ZEFSAII (Michael W. Deem and Ramdas Pophale) SiO2 
 PCOD9438292
Probable space group: P B C M
;
_chemical_formula_sum "Si O2"
_cell_formula_units_Z 36
_cell_length_a 6.796605
_cell_length_b 13.648952
_cell_length_c 18.442713
_cell_angle_alpha 90.000000
_cell_angle_beta 90.000000
_cell_angle_gamma 90.000000
_cell_volume 1710.866589
_symmetry_space_group_name_H-M "P B C M"
_symmetry_group_IT_number 57
_symmetry_cell_setting 'orthorhombic'
loop_
_space_group_symop_operation_xyz
x,y,z
-x,-y,1/2+z
x,1/2-y,-z
-x,1/2+y,1/2-z
-x,-y,-z
x,y,1/2-z
-x,1/2+y,z
x,1/2-y,1/2+z
loop_
_atom_site_type_symbol
_atom_site_label
_atom_site_fract_x
_atom_site_fract_y
_atom_site_fract_z
Si Si1 0.307280 0.056441 0.250000
Si Si2 0.029470 0.266332 0.750000
Si Si3 0.311354 0.310270 0.126722
Si Si4 0.530041 0.606462 0.404745
Si Si5 0.223266 0.006424 0.976285
Si Si6 0.364933 0.662787 0.750000
O O1 0.111805 0.122972 0.250000
O O2 0.435041 0.083877 0.179502
O O3 0.259659 0.942250 0.250000
O O4 0.129125 0.217609 0.821032
O O5 0.798423 0.247143 0.750000
O O6 0.380623 0.213847 0.083517
O O7 0.260092 0.401582 0.076745
O O8 0.492961 0.332373 0.180633
O O9 0.655269 0.528109 0.450671
O O10 0.310868 0.588031 0.434429
O O11 0.000000 0.000000 0.000000
#
# Coordination Sequence:
#
# PCOD9438292 Si02
#       6
#     4   4   8   8   8   4
#     4  10  20  42  66  94 137 175 224 278 335 404
#     4   9  23  37  63 102 128 174 232 270 325 403
#     4  10  22  43  64  96 135 177 225 275 338 400
#     4  10  23  43  64  94 136 171 219 281 335 405
#     4  11  24  41  66 102 128 175 225 273 345 407
#     4  11  21  41  69  96 135 183 220 282 340 385
#
# _framework density 21.041969000000002
#
# number of rings (size 3 to 8) (size 9 to 14) (size 15 to 20)
#    0.000    1.778    2.222    1.333    3.111    3.556 
#    0.000    5.556    0.000    0.000    0.000    0.000 
#    0.000    0.000    0.000    0.000    0.000    0.000 
#
# Total GULP energy -201214.146924 kJ/mol
# GULP energy per Si atom -5589.281859 kJ/mol
# Density = 2.099408 g / cm^3
# Si number density = 21.041969 Si / 1000 Ang^3
#
#
#
# Elastic Constant Matrix: (Units=GPa)
#
#
# Indices 1 2 3 4 5 6 
#
# 1 137.8176 27.6307 49.0241 0.0000 0.0000 0.0000
# 2 27.6307 67.6847 28.2626 0.0000 0.0000 0.0000
# 3 49.0241 28.2626 127.7430 0.0000 0.0000 0.0000
# 4 0.0000 0.0000 0.0000 35.4985 0.0000 0.0000
# 5 0.0000 0.0000 0.0000 0.0000 13.0854 0.0000
# 6 0.0000 0.0000 0.0000 0.0000 0.0000 27.9379
#
#
#
# Elastic Compliance Matrix: (Units=1/GPa)
#
#
# Indices 1 2 3 4 5 6 
#
# 1 0.008740 -0.002388 -0.002826 0.000000 0.000000 0.000000
# 2 -0.002388 0.016931 -0.002829 0.000000 0.000000 0.000000
# 3 -0.002826 -0.002829 0.009539 0.000000 0.000000 0.000000
# 4 0.000000 0.000000 0.000000 0.028170 0.000000 0.000000
# 5 0.000000 0.000000 0.000000 0.000000 0.076421 0.000000
# 6 0.000000 0.000000 0.000000 0.000000 0.000000 0.035794
#
#
# Mechanical properties :
#
#
# Convention : Reuss Voigt Hill
#
# Bulk Modulus (GPa) = 52.29319 60.34224 56.31772
# Shear Modulus (GPa) = 25.24556 30.52622 27.88589
#
# Velocity S-wave (km/s) = 3.46753 3.81298 3.64435
# Velocity P-wave (km/s) = 6.39824 6.93718 6.67315
#
# Compressibility (1/GPa) = 0.01912295
#
# Stress axis : x y z
#
# Youngs Moduli (GPa) = 114.41780 59.06446 104.83627
#
# Poissons Ratio (x) = 0.14104 0.29625
# Poissons Ratio (y) = 0.27322 0.29663
# Poissons Ratio (z) = 0.32332 0.16712
#
# Static dielectric constant tensor:
#      x y z
#    x 1.771860 0.000000 0.000000 
#    y 0.000000 1.784950 0.000000 
#    z 0.000000 0.000000 1.754480 
# 
# From -- ./inp_files/23505.got.cif
#   From: 2010.05.17/outbox.cif.g08.bks.cpg/sg57_12_cif.got.tgz:23505.got - 2010.06.03 13:58:18.
