data_PCOD9438912
_publ_section_title
;
Structure prediction by ZEFSAII (Michael W. Deem and Ramdas Pophale) SiO2 
 PCOD9438912
Probable space group: P B C M
;
_chemical_formula_sum "Si O2"
_cell_formula_units_Z 64
_cell_length_a 26.339379
_cell_length_b 14.956427
_cell_length_c 8.746823
_cell_angle_alpha 90.000000
_cell_angle_beta 90.000000
_cell_angle_gamma 90.000000
_cell_volume 3445.749686
_symmetry_space_group_name_H-M "P B C M"
_symmetry_group_IT_number 57
_symmetry_cell_setting 'orthorhombic'
loop_
_space_group_symop_operation_xyz
x,y,z
-x,-y,1/2+z
x,1/2-y,-z
-x,1/2+y,1/2-z
-x,-y,-z
x,y,1/2-z
-x,1/2+y,z
x,1/2-y,1/2+z
loop_
_atom_site_type_symbol
_atom_site_label
_atom_site_fract_x
_atom_site_fract_y
_atom_site_fract_z
Si Si1 0.637665 0.649137 0.434747
Si Si2 0.894723 0.659096 0.931596
Si Si3 0.823305 0.508827 0.429254
Si Si4 0.362362 0.850838 0.065280
Si Si5 0.894688 0.337586 0.427170
Si Si6 0.711586 0.499832 0.566609
Si Si7 0.000491 0.900597 0.567818
Si Si8 0.443945 0.000008 0.066747
O O1 0.636616 0.750000 0.500000
O O2 0.641232 0.652471 0.250000
O O3 0.683294 0.588068 0.500680
O O4 0.588104 0.588967 0.476511
O O5 0.897795 0.661619 0.750000
O O6 0.873228 0.750000 0.000000
O O7 0.858775 0.580505 0.988265
O O8 0.951004 0.646390 0.999666
O O9 0.816620 0.531534 0.250000
O O10 0.855330 0.417855 0.437941
O O11 0.769342 0.500969 0.510241
O O12 0.359029 0.847387 0.250000
O O13 0.411778 0.911258 0.022949
O O14 0.363466 0.750000 0.000000
O O15 0.316511 0.911809 0.000412
O O16 0.870888 0.250000 0.500000
O O17 0.907814 0.323990 0.250000
O O18 0.946677 0.357595 0.516482
O O19 0.708234 0.499559 0.750000
O O20 0.996728 0.902846 0.750000
O O21 0.000000 0.000000 0.500000
O O22 0.446858 0.999811 0.250000
O O23 0.500000 0.000000 0.000000
#
# Coordination Sequence:
#
# PCOD9438912 Si02
#       8
#     8   8   8   8   8   8   8   8
#     4  10  21  39  61  88 120 158 204 250 299 353
#     4  12  25  42  64  90 121 156 197 242 294 356
#     4  11  24  43  64  88 121 156 196 246 299 354
#     4  10  21  39  61  88 120 159 205 251 300 354
#     4  11  24  41  63  89 120 155 195 239 292 351
#     4  11  23  40  63  89 118 155 198 247 304 358
#     4  12  23  39  63  89 120 156 196 239 292 353
#     4   9  20  36  56  85 124 163 202 249 297 351
#
# _framework density 18.573606000000002
#
# number of rings (size 3 to 8) (size 9 to 14) (size 15 to 20)
#    0.000    1.250    1.250    6.000    0.000    6.000 
#    0.000    6.250    0.000    0.000    0.000    0.000 
#    0.000    0.000    0.000    0.000    0.000    0.000 
#
# Total GULP energy -357674.447062 kJ/mol
# GULP energy per Si atom -5588.663235 kJ/mol
# Density = 1.853133 g / cm^3
# Si number density = 18.573606 Si / 1000 Ang^3
#
#
#
# Elastic Constant Matrix: (Units=GPa)
#
#
# Indices 1 2 3 4 5 6 
#
# 1 126.7175 48.4124 60.7742 0.0000 0.0000 0.0000
# 2 48.4124 147.2030 79.2177 0.0000 0.0000 0.0000
# 3 60.7742 79.2177 154.9628 0.0000 0.0000 0.0000
# 4 0.0000 0.0000 0.0000 33.2336 0.0000 0.0000
# 5 0.0000 0.0000 0.0000 0.0000 34.5195 0.0000
# 6 0.0000 0.0000 0.0000 0.0000 0.0000 25.3293
#
#
#
# Elastic Compliance Matrix: (Units=1/GPa)
#
#
# Indices 1 2 3 4 5 6 
#
# 1 0.009994 -0.001624 -0.003089 0.000000 0.000000 0.000000
# 2 -0.001624 0.009636 -0.004289 0.000000 0.000000 0.000000
# 3 -0.003089 -0.004289 0.009857 0.000000 0.000000 0.000000
# 4 0.000000 0.000000 0.000000 0.030090 0.000000 0.000000
# 5 0.000000 0.000000 0.000000 0.000000 0.028969 0.000000
# 6 0.000000 0.000000 0.000000 0.000000 0.000000 0.039480
#
#
# Mechanical properties :
#
#
# Convention : Reuss Voigt Hill
#
# Bulk Modulus (GPa) = 87.09189 89.52131 88.30660
# Shear Modulus (GPa) = 33.36521 34.64842 34.00682
#
# Velocity S-wave (km/s) = 4.24297 4.32379 4.28357
# Velocity P-wave (km/s) = 8.42589 8.55743 8.49192
#
# Compressibility (1/GPa) = 0.01148213
#
# Stress axis : x y z
#
# Youngs Moduli (GPa) = 100.06357 103.78261 101.45087
#
# Poissons Ratio (x) = 0.16858 0.31338
# Poissons Ratio (y) = 0.16254 0.43509
# Poissons Ratio (z) = 0.30909 0.44509
#
# Static dielectric constant tensor:
#      x y z
#    x 1.624220 0.000000 0.000000 
#    y 0.000000 1.646240 0.000000 
#    z 0.000000 0.000000 1.625150 
# 
# From -- ./inp_files/9270.got.cif
#   From: 2010.05.17/outbox.cif.g08.bks.cpg/sg57_5_cif.got.tgz:9270.got - 2010.06.03 13:58:18.
