data_PCOD9438622
_publ_section_title
;
Structure prediction by ZEFSAII (Michael W. Deem and Ramdas Pophale) SiO2 
 PCOD9438622
Probable space group: P B C M
;
_chemical_formula_sum "Si O2"
_cell_formula_units_Z 64
_cell_length_a 9.840609
_cell_length_b 18.516739
_cell_length_c 18.778895
_cell_angle_alpha 90.000000
_cell_angle_beta 90.000000
_cell_angle_gamma 90.000000
_cell_volume 3421.814914
_symmetry_space_group_name_H-M "P B C M"
_symmetry_group_IT_number 57
_symmetry_cell_setting 'orthorhombic'
loop_
_space_group_symop_operation_xyz
x,y,z
-x,-y,1/2+z
x,1/2-y,-z
-x,1/2+y,1/2-z
-x,-y,-z
x,y,1/2-z
-x,1/2+y,z
x,1/2-y,1/2+z
loop_
_atom_site_type_symbol
_atom_site_label
_atom_site_fract_x
_atom_site_fract_y
_atom_site_fract_z
Si Si1 0.914132 0.148085 0.333755
Si Si2 0.781267 0.829555 0.032807
Si Si3 0.688699 0.276006 0.573943
Si Si4 0.264341 0.852405 0.331355
Si Si5 0.935390 0.555744 0.055538
Si Si6 0.650760 0.484753 0.091871
Si Si7 0.958964 0.693871 0.832460
Si Si8 0.493170 0.393551 0.976866
O O1 0.890082 0.133574 0.250000
O O2 0.781990 0.173453 0.377362
O O3 0.976787 0.081249 0.377012
O O4 0.008836 0.220165 0.337209
O O5 0.841072 0.825303 0.112298
O O6 0.763120 0.750000 0.000000
O O7 0.893881 0.871943 0.986712
O O8 0.641348 0.874091 0.022336
O O9 0.757969 0.250000 0.500000
O O10 0.660338 0.204714 0.618874
O O11 0.557333 0.320525 0.551897
O O12 0.271922 0.828882 0.250000
O O13 0.331516 0.929961 0.343231
O O14 0.103010 0.846181 0.350561
O O15 0.797907 0.518519 0.081186
O O16 0.000000 0.500000 0.000000
O O17 0.548883 0.552286 0.086942
O O18 0.602824 0.435123 0.025401
O O19 0.926917 0.677120 0.750000
#
# Coordination Sequence:
#
# PCOD9438622 Si02
#       8
#     8   8   8   8   8   8   8   8
#     4  10  22  38  59  91 128 160 199 257 318 376
#     4  11  21  35  61  89 120 157 203 256 301 358
#     4  11  20  35  66  91 120 159 210 262 304 356
#     4  10  21  37  60  90 120 155 202 258 314 370
#     4  11  22  35  60  92 121 155 201 250 307 369
#     4  10  21  39  57  82 121 160 201 246 297 364
#     4   9  19  36  59  89 124 154 194 254 317 369
#     4  10  22  38  59  88 120 160 211 257 295 357
#
# _framework density 18.703524000000002
#
# number of rings (size 3 to 8) (size 9 to 14) (size 15 to 20)
#    0.000    1.750    2.500    3.000    3.500    0.500 
#    0.000    2.500    0.000    1.500    0.000    0.000 
#    0.000    0.000    0.000    0.000    0.000    0.000 
#
# Total GULP energy -356911.073973 kJ/mol
# GULP energy per Si atom -5576.735531 kJ/mol
# Density = 1.866095 g / cm^3
# Si number density = 18.703524 Si / 1000 Ang^3
#
#
#
# Elastic Constant Matrix: (Units=GPa)
#
#
# Indices 1 2 3 4 5 6 
#
# 1 46.1353 26.5634 39.1378 0.0000 0.0000 0.0000
# 2 26.5634 81.3482 36.1545 0.0000 0.0000 0.0000
# 3 39.1378 36.1545 111.4290 0.0000 0.0000 0.0000
# 4 0.0000 0.0000 0.0000 32.4608 0.0000 0.0000
# 5 0.0000 0.0000 0.0000 0.0000 18.5948 0.0000
# 6 0.0000 0.0000 0.0000 0.0000 0.0000 31.9496
#
#
#
# Elastic Compliance Matrix: (Units=1/GPa)
#
#
# Indices 1 2 3 4 5 6 
#
# 1 0.033752 -0.006722 -0.009674 0.000000 0.000000 0.000000
# 2 -0.006722 0.015703 -0.002734 0.000000 0.000000 0.000000
# 3 -0.009674 -0.002734 0.013259 0.000000 0.000000 0.000000
# 4 0.000000 0.000000 0.000000 0.030806 0.000000 0.000000
# 5 0.000000 0.000000 0.000000 0.000000 0.053778 0.000000
# 6 0.000000 0.000000 0.000000 0.000000 0.000000 0.031299
#
#
# Mechanical properties :
#
#
# Convention : Reuss Voigt Hill
#
# Bulk Modulus (GPa) = 40.89206 49.18042 45.03624
# Shear Modulus (GPa) = 22.22122 25.73817 23.97969
#
# Velocity S-wave (km/s) = 3.45059 3.71362 3.58452
# Velocity P-wave (km/s) = 6.14705 6.68878 6.42363
#
# Compressibility (1/GPa) = 0.02445463
#
# Stress axis : x y z
#
# Youngs Moduli (GPa) = 29.62755 63.68235 75.41900
#
# Poissons Ratio (x) = 0.42807 0.72960
# Poissons Ratio (y) = 0.19915 0.20620
# Poissons Ratio (z) = 0.28662 0.17411
#
# Static dielectric constant tensor:
#      x y z
#    x 1.652340 0.000000 0.000000 
#    y 0.000000 1.683130 0.000000 
#    z 0.000000 0.000000 1.642400 
# 
# From -- ./inp_files/21410.got.cif
#   From: 2010.05.17/outbox.cif.g08.bks.cpg/sg57_11_cif.got.tgz:21410.got - 2010.06.03 13:58:18.
