data_PCOD9438583
_publ_section_title
;
Structure prediction by ZEFSAII (Michael W. Deem and Ramdas Pophale) SiO2 
 PCOD9438583
Probable space group: P B C M
;
_chemical_formula_sum "Si O2"
_cell_formula_units_Z 48
_cell_length_a 31.646522
_cell_length_b 9.233407
_cell_length_c 8.678671
_cell_angle_alpha 90.000000
_cell_angle_beta 90.000000
_cell_angle_gamma 90.000000
_cell_volume 2535.952949
_symmetry_space_group_name_H-M "P B C M"
_symmetry_group_IT_number 57
_symmetry_cell_setting 'orthorhombic'
loop_
_space_group_symop_operation_xyz
x,y,z
-x,-y,1/2+z
x,1/2-y,-z
-x,1/2+y,1/2-z
-x,-y,-z
x,y,1/2-z
-x,1/2+y,z
x,1/2-y,1/2+z
loop_
_atom_site_type_symbol
_atom_site_label
_atom_site_fract_x
_atom_site_fract_y
_atom_site_fract_z
Si Si1 0.038805 0.910868 0.433846
Si Si2 0.212447 0.088218 0.565666
Si Si3 0.376011 0.088055 0.435458
Si Si4 0.460024 0.912613 0.435616
Si Si5 0.866132 0.413365 0.435344
Si Si6 0.708028 0.412241 0.064301
O O1 0.036099 0.750000 0.500000
O O2 0.035877 0.907139 0.250000
O O3 0.086138 0.964902 0.473474
O O4 0.000000 0.000000 0.500000
O O5 0.216035 0.250000 0.500000
O O6 0.213694 0.091336 0.750000
O O7 0.169163 0.015068 0.508169
O O8 0.250965 0.992272 0.501782
O O9 0.376828 0.250000 0.500000
O O10 0.376189 0.096636 0.250000
O O11 0.417356 0.997281 0.482357
O O12 0.333648 0.002752 0.481604
O O13 0.459764 0.750000 0.500000
O O14 0.461975 0.908159 0.250000
O O15 0.500000 0.000000 0.500000
O O16 0.861380 0.250000 0.500000
O O17 0.861621 0.409830 0.250000
O O18 0.710385 0.408143 0.250000
O O19 0.705505 0.250000 0.000000
#
# Coordination Sequence:
#
# PCOD9438583 Si02
#       6
#     8   8   8   8   8   8
#     4  10  21  37  59  85 116 152 193 238 288 343
#     4  12  25  41  61  87 118 153 192 240 291 345
#     4  10  23  40  61  88 120 156 197 243 294 348
#     4  11  23  40  61  89 121 158 201 247 297 352
#     4  10  21  39  61  86 115 152 194 238 287 344
#     4  11  23  41  63  89 119 155 196 240 289 346
#
# _framework density 18.927796000000001
#
# number of rings (size 3 to 8) (size 9 to 14) (size 15 to 20)
#    0.000    1.333    0.000    5.500    0.000    8.000 
#    0.000    0.000    0.000    0.000    0.000    0.000 
#    0.000    0.000    0.000    0.000    0.000    0.000 
#
# Total GULP energy -268445.475365 kJ/mol
# GULP energy per Si atom -5592.614070 kJ/mol
# Density = 1.888472 g / cm^3
# Si number density = 18.927796 Si / 1000 Ang^3
#
#
#
# Elastic Constant Matrix: (Units=GPa)
#
#
# Indices 1 2 3 4 5 6 
#
# 1 211.5243 122.1401 75.9467 0.0000 0.0000 0.0000
# 2 122.1401 177.8047 60.2213 0.0000 0.0000 0.0000
# 3 75.9467 60.2213 92.4833 0.0000 0.0000 0.0000
# 4 0.0000 0.0000 0.0000 42.4267 0.0000 0.0000
# 5 0.0000 0.0000 0.0000 0.0000 30.2487 0.0000
# 6 0.0000 0.0000 0.0000 0.0000 0.0000 43.3003
#
#
#
# Elastic Compliance Matrix: (Units=1/GPa)
#
#
# Indices 1 2 3 4 5 6 
#
# 1 0.009006 -0.004723 -0.004320 0.000000 0.000000 0.000000
# 2 -0.004723 0.009693 -0.002433 0.000000 0.000000 0.000000
# 3 -0.004320 -0.002433 0.015944 0.000000 0.000000 0.000000
# 4 0.000000 0.000000 0.000000 0.023570 0.000000 0.000000
# 5 0.000000 0.000000 0.000000 0.000000 0.033059 0.000000
# 6 0.000000 0.000000 0.000000 0.000000 0.000000 0.023095
#
#
# Mechanical properties :
#
#
# Convention : Reuss Voigt Hill
#
# Bulk Modulus (GPa) = 85.53609 110.93649 98.23629
# Shear Modulus (GPa) = 35.40662 38.09543 36.75103
#
# Velocity S-wave (km/s) = 4.32975 4.49115 4.41119
# Velocity P-wave (km/s) = 8.38359 9.25373 8.82938
#
# Compressibility (1/GPa) = 0.01169097
#
# Stress axis : x y z
#
# Youngs Moduli (GPa) = 111.03544 103.16971 62.71783
#
# Poissons Ratio (x) = 0.48732 0.27095
# Poissons Ratio (y) = 0.52447 0.15257
# Poissons Ratio (z) = 0.47968 0.25098
#
# Static dielectric constant tensor:
#      x y z
#    x 1.651260 0.000000 0.000000 
#    y 0.000000 1.606090 0.000000 
#    z 0.000000 0.000000 1.636100 
# 
# From -- ./inp_files/10008.got.cif
#   From: 2010.05.17/outbox.cif.g08.bks.cpg/sg57_6_cif.got.tgz:10008.got - 2010.06.03 13:58:18.
