data_PCOD9438790
_publ_section_title
;
Structure prediction by ZEFSAII (Michael W. Deem and Ramdas Pophale) SiO2 
 PCOD9438790
Probable space group: P B C M
;
_chemical_formula_sum "Si O2"
_cell_formula_units_Z 40
_cell_length_a 5.460908
_cell_length_b 10.541050
_cell_length_c 28.088946
_cell_angle_alpha 90.000000
_cell_angle_beta 90.000000
_cell_angle_gamma 90.000000
_cell_volume 1616.903781
_symmetry_space_group_name_H-M "P B C M"
_symmetry_group_IT_number 57
_symmetry_cell_setting 'orthorhombic'
loop_
_space_group_symop_operation_xyz
x,y,z
-x,-y,1/2+z
x,1/2-y,-z
-x,1/2+y,1/2-z
-x,-y,-z
x,y,1/2-z
-x,1/2+y,z
x,1/2-y,1/2+z
loop_
_atom_site_type_symbol
_atom_site_label
_atom_site_fract_x
_atom_site_fract_y
_atom_site_fract_z
Si Si1 0.954396 0.296671 0.659055
Si Si2 0.289838 0.426590 0.470816
Si Si3 0.804816 0.671429 0.436847
Si Si4 0.758931 0.046308 0.804749
Si Si5 0.581872 0.473941 0.622118
O O1 0.942945 0.163626 0.685954
O O2 0.690481 0.362824 0.654212
O O3 0.023357 0.272344 0.603769
O O4 0.120178 0.409585 0.681675
O O5 0.500000 0.500000 0.500000
O O6 0.100585 0.384947 0.512866
O O7 0.373068 0.288010 0.451532
O O8 0.228054 0.491127 0.420145
O O9 0.648047 0.567963 0.409341
O O10 0.685320 0.044420 0.750000
O O11 0.530524 0.071174 0.840311
#
# Coordination Sequence:
#
# PCOD9438790 Si02
#       5
#     8   8   8   8   8
#     4  11  23  42  67  94 131 171 217 275 335 405
#     4   9  17  34  58  87 125 166 211 260 313 381
#     4   9  19  35  57  90 127 166 211 262 325 389
#     4  11  25  43  65  95 128 170 223 278 340 403
#     4  10  21  38  61  88 125 167 215 270 323 387
#
# _framework density 24.738638000000002
#
# number of rings (size 3 to 8) (size 9 to 14) (size 15 to 20)
#    0.000    2.000    0.000    3.000    0.000    4.000 
#    0.000   18.000    0.000    0.000    0.000    0.000 
#    0.000    0.000    0.000    0.000    0.000    0.000 
#
# Total GULP energy -222792.381796 kJ/mol
# GULP energy per Si atom -5569.809545 kJ/mol
# Density = 2.468233 g / cm^3
# Si number density = 24.738638 Si / 1000 Ang^3
#
#
#
# Elastic Constant Matrix: (Units=GPa)
#
#
# Indices 1 2 3 4 5 6 
#
# 1 26.9116 -7.6281 12.2781 0.0000 0.0000 0.0000
# 2 -7.6281 88.8938 36.1413 0.0000 0.0000 0.0000
# 3 12.2781 36.1413 172.5500 0.0000 0.0000 0.0000
# 4 0.0000 0.0000 0.0000 28.9047 0.0000 0.0000
# 5 0.0000 0.0000 0.0000 0.0000 33.3121 0.0000
# 6 0.0000 0.0000 0.0000 0.0000 0.0000 30.6743
#
#
#
# Elastic Compliance Matrix: (Units=1/GPa)
#
#
# Indices 1 2 3 4 5 6 
#
# 1 0.040390 0.005066 -0.003935 0.000000 0.000000 0.000000
# 2 0.005066 0.012932 -0.003069 0.000000 0.000000 0.000000
# 3 -0.003935 -0.003069 0.006718 0.000000 0.000000 0.000000
# 4 0.000000 0.000000 0.000000 0.034596 0.000000 0.000000
# 5 0.000000 0.000000 0.000000 0.000000 0.030019 0.000000
# 6 0.000000 0.000000 0.000000 0.000000 0.000000 0.032601
#
#
# Mechanical properties :
#
#
# Convention : Reuss Voigt Hill
#
# Bulk Modulus (GPa) = 17.80524 41.10425 29.45474
# Shear Modulus (GPa) = 27.80031 35.08248 31.44140
#
# Velocity S-wave (km/s) = 3.35589 3.76989 3.56890
# Velocity P-wave (km/s) = 4.71476 5.96665 5.37726
#
# Compressibility (1/GPa) = 0.05616324
#
# Stress axis : x y z
#
# Youngs Moduli (GPa) = 24.75866 77.32827 148.84794
#
# Poissons Ratio (x) = -0.39173 0.58573
# Poissons Ratio (y) = -0.12542 0.45683
# Poissons Ratio (z) = 0.09743 0.23733
#
# Static dielectric constant tensor:
#      x y z
#    x 2.001430 0.000000 0.000000 
#    y 0.000000 2.080720 0.000000 
#    z 0.000000 0.000000 1.992000 
# 
# From -- ./inp_files/27802.got.cif
#   From: 2010.05.17/outbox.cif.g08.bks.cpg/sg57_14_cif.got.tgz:27802.got - 2010.06.03 13:58:18.
