data_PCOD9438538
_publ_section_title
;
Structure prediction by ZEFSAII (Michael W. Deem and Ramdas Pophale) SiO2 
 PCOD9438538
Probable space group: P B C M
;
_chemical_formula_sum "Si O2"
_cell_formula_units_Z 36
_cell_length_a 8.110109
_cell_length_b 20.454076
_cell_length_c 11.145105
_cell_angle_alpha 90.000000
_cell_angle_beta 90.000000
_cell_angle_gamma 90.000000
_cell_volume 1848.803356
_symmetry_space_group_name_H-M "P B C M"
_symmetry_group_IT_number 57
_symmetry_cell_setting 'orthorhombic'
loop_
_space_group_symop_operation_xyz
x,y,z
-x,-y,1/2+z
x,1/2-y,-z
-x,1/2+y,1/2-z
-x,-y,-z
x,y,1/2-z
-x,1/2+y,z
x,1/2-y,1/2+z
loop_
_atom_site_type_symbol
_atom_site_label
_atom_site_fract_x
_atom_site_fract_y
_atom_site_fract_z
Si Si1 0.645492 0.371697 0.110828
Si Si2 0.165754 0.531410 0.053244
Si Si3 0.049999 0.148871 0.120268
Si Si4 0.259518 0.109685 0.884207
Si Si5 0.839335 0.250000 0.500000
O O1 0.690732 0.375613 0.250000
O O2 0.448369 0.368831 0.101250
O O3 0.729404 0.307864 0.054066
O O4 0.716054 0.435617 0.044535
O O5 0.252493 0.469627 0.113727
O O6 0.091013 0.592873 0.123859
O O7 0.000000 0.500000 0.000000
O O8 0.137941 0.147643 0.250000
O O9 0.957236 0.216901 0.098599
O O10 0.157106 0.135038 0.999835
O O11 0.199891 0.130210 0.750000
#
# Coordination Sequence:
#
# PCOD9438538 Si02
#       5
#     8   8   8   8   4
#     4  10  21  38  59  83 115 153 190 235 287 338
#     4   9  19  34  56  85 113 145 184 227 276 334
#     4  10  21  37  58  82 111 149 191 235 282 338
#     4  10  21  37  59  88 118 148 186 234 289 342
#     4  10  22  38  56  80 110 150 196 238 282 338
#
# _framework density 19.472055000000001
#
# number of rings (size 3 to 8) (size 9 to 14) (size 15 to 20)
#    0.000    2.222    0.000    2.000    0.000   13.333 
#    0.000    8.889    0.000    0.000    0.000    0.000 
#    0.000    0.000    0.000    0.000    0.000    0.000 
#
# Total GULP energy -200564.859095 kJ/mol
# GULP energy per Si atom -5571.246086 kJ/mol
# Density = 1.942774 g / cm^3
# Si number density = 19.472055 Si / 1000 Ang^3
#
#
#
# Elastic Constant Matrix: (Units=GPa)
#
#
# Indices 1 2 3 4 5 6 
#
# 1 61.9551 26.4319 59.6601 0.0000 0.0000 0.0000
# 2 26.4319 83.3022 34.6825 0.0000 0.0000 0.0000
# 3 59.6601 34.6825 174.8532 0.0000 0.0000 0.0000
# 4 0.0000 0.0000 0.0000 13.0306 0.0000 0.0000
# 5 0.0000 0.0000 0.0000 0.0000 18.4293 0.0000
# 6 0.0000 0.0000 0.0000 0.0000 0.0000 30.8257
#
#
#
# Elastic Compliance Matrix: (Units=1/GPa)
#
#
# Indices 1 2 3 4 5 6 
#
# 1 0.025766 -0.004922 -0.007815 0.000000 0.000000 0.000000
# 2 -0.004922 0.014025 -0.001103 0.000000 0.000000 0.000000
# 3 -0.007815 -0.001103 0.008604 0.000000 0.000000 0.000000
# 4 0.000000 0.000000 0.000000 0.076742 0.000000 0.000000
# 5 0.000000 0.000000 0.000000 0.000000 0.054261 0.000000
# 6 0.000000 0.000000 0.000000 0.000000 0.000000 0.032440
#
#
# Mechanical properties :
#
#
# Convention : Reuss Voigt Hill
#
# Bulk Modulus (GPa) = 48.27062 62.40661 55.33862
# Shear Modulus (GPa) = 20.29018 25.74620 23.01819
#
# Velocity S-wave (km/s) = 3.23153 3.64017 3.44192
# Velocity P-wave (km/s) = 6.22633 7.05597 6.65409
#
# Compressibility (1/GPa) = 0.02071653
#
# Stress axis : x y z
#
# Youngs Moduli (GPa) = 38.81052 71.30000 116.22034
#
# Poissons Ratio (x) = 0.35093 0.90829
# Poissons Ratio (y) = 0.19102 0.12815
# Poissons Ratio (z) = 0.30331 0.07862
#
# Static dielectric constant tensor:
#      x y z
#    x 1.662910 0.000000 0.000000 
#    y 0.000000 1.692170 0.000000 
#    z 0.000000 0.000000 1.862630 
# 
# From -- ./inp_files/11696.got.cif
#   From: 2010.05.17/outbox.cif.g08.bks.cpg/sg57_6_cif.got.tgz:11696.got - 2010.06.03 13:58:18.
