data_PCOD9438699
_publ_section_title
;
Structure prediction by ZEFSAII (Michael W. Deem and Ramdas Pophale) SiO2 
 PCOD9438699
Probable space group: P B C M
;
_chemical_formula_sum "Si O2"
_cell_formula_units_Z 52
_cell_length_a 19.543150
_cell_length_b 8.946489
_cell_length_c 13.796710
_cell_angle_alpha 90.000000
_cell_angle_beta 90.000000
_cell_angle_gamma 90.000000
_cell_volume 2412.252324
_symmetry_space_group_name_H-M "P B C M"
_symmetry_group_IT_number 57
_symmetry_cell_setting 'orthorhombic'
loop_
_space_group_symop_operation_xyz
x,y,z
-x,-y,1/2+z
x,1/2-y,-z
-x,1/2+y,1/2-z
-x,-y,-z
x,y,1/2-z
-x,1/2+y,z
x,1/2-y,1/2+z
loop_
_atom_site_type_symbol
_atom_site_label
_atom_site_fract_x
_atom_site_fract_y
_atom_site_fract_z
Si Si1 0.533605 0.250000 0.500000
Si Si2 0.049694 0.314419 0.867129
Si Si3 0.177390 0.391915 0.357886
Si Si4 0.222151 0.894234 0.471689
Si Si5 0.557288 0.968315 0.637653
Si Si6 0.300040 0.172276 0.102965
Si Si7 0.914752 0.353722 0.133453
O O1 0.566316 0.378074 0.426837
O O2 0.491881 0.142217 0.424859
O O3 0.051097 0.317875 0.750000
O O4 0.111564 0.202977 0.892460
O O5 0.063492 0.481092 0.900504
O O6 0.974862 0.258524 0.894333
O O7 0.162286 0.450834 0.250000
O O8 0.195528 0.517005 0.434803
O O9 0.243487 0.283265 0.352470
O O10 0.266287 0.750000 0.500000
O O11 0.158881 0.829670 0.411262
O O12 0.260768 0.016667 0.409985
O O13 0.534485 0.999264 0.750000
O O14 0.627768 0.874416 0.645653
O O15 0.315160 0.250000 0.000000
O O16 0.910148 0.353495 0.250000
#
# Coordination Sequence:
#
# PCOD9438699 Si02
#       7
#     4   8   8   8   8   8   8
#     4  10  24  42  68 106 150 172 218 284 298 388
#     4   9  19  35  57  81 109 150 199 257 315 379
#     4  10  21  41  62  85 119 161 210 257 313 382
#     4  11  25  39  58  90 122 159 203 265 319 372
#     4  11  22  42  72 103 138 186 221 261 330 381
#     4  10  21  41  67  92 127 169 215 265 315 384
#     4  10  21  38  58  82 114 153 202 260 325 387
#
# _framework density 21.556618
#
# number of rings (size 3 to 8) (size 9 to 14) (size 15 to 20)
#    0.000    1.846    2.308    0.923    3.231    1.846 
#    0.000    0.000    0.000    0.000    0.000    0.000 
#    0.000    0.000    0.000    0.000    0.000    0.000 
#
# Total GULP energy -290155.795944 kJ/mol
# GULP energy per Si atom -5579.919153 kJ/mol
# Density = 2.150755 g / cm^3
# Si number density = 21.556618 Si / 1000 Ang^3
#
#
#
# Elastic Constant Matrix: (Units=GPa)
#
#
# Indices 1 2 3 4 5 6 
#
# 1 58.3956 11.0803 19.2045 0.0000 0.0000 0.0000
# 2 11.0803 86.5831 6.4781 0.0000 0.0000 0.0000
# 3 19.2045 6.4781 111.9935 0.0000 0.0000 0.0000
# 4 0.0000 0.0000 0.0000 15.8649 0.0000 0.0000
# 5 0.0000 0.0000 0.0000 0.0000 40.0446 0.0000
# 6 0.0000 0.0000 0.0000 0.0000 0.0000 23.3907
#
#
#
# Elastic Compliance Matrix: (Units=1/GPa)
#
#
# Indices 1 2 3 4 5 6 
#
# 1 0.018536 -0.002144 -0.003055 0.000000 0.000000 0.000000
# 2 -0.002144 0.011848 -0.000318 0.000000 0.000000 0.000000
# 3 -0.003055 -0.000318 0.009471 0.000000 0.000000 0.000000
# 4 0.000000 0.000000 0.000000 0.063032 0.000000 0.000000
# 5 0.000000 0.000000 0.000000 0.000000 0.024972 0.000000
# 6 0.000000 0.000000 0.000000 0.000000 0.000000 0.042752
#
#
# Mechanical properties :
#
#
# Convention : Reuss Voigt Hill
#
# Bulk Modulus (GPa) = 34.69430 36.72200 35.70815
# Shear Modulus (GPa) = 26.14369 30.54064 28.34217
#
# Velocity S-wave (km/s) = 3.48629 3.76808 3.62992
# Velocity P-wave (km/s) = 5.68640 6.00028 5.84544
#
# Compressibility (1/GPa) = 0.02882318
#
# Stress axis : x y z
#
# Youngs Moduli (GPa) = 53.94951 84.40464 105.58268
#
# Poissons Ratio (x) = 0.18093 0.32250
# Poissons Ratio (y) = 0.11564 0.03355
# Poissons Ratio (z) = 0.16479 0.02682
#
# Static dielectric constant tensor:
#      x y z
#    x 1.787710 0.000000 0.000000 
#    y 0.000000 1.779330 0.000000 
#    z 0.000000 0.000000 1.782070 
# 
# From -- ./inp_files/19286.got.cif
#   From: 2010.05.17/outbox.cif.g08.bks.cpg/sg57_10_cif.got.tgz:19286.got - 2010.06.03 13:58:18.
