data_PCOD9438831
_publ_section_title
;
Structure prediction by ZEFSAII (Michael W. Deem and Ramdas Pophale) SiO2 
 PCOD9438831
Probable space group: P B C M
;
_chemical_formula_sum "Si O2"
_cell_formula_units_Z 40
_cell_length_a 6.136362
_cell_length_b 21.622312
_cell_length_c 14.282419
_cell_angle_alpha 90.000000
_cell_angle_beta 90.000000
_cell_angle_gamma 90.000000
_cell_volume 1895.024684
_symmetry_space_group_name_H-M "P B C M"
_symmetry_group_IT_number 57
_symmetry_cell_setting 'orthorhombic'
loop_
_space_group_symop_operation_xyz
x,y,z
-x,-y,1/2+z
x,1/2-y,-z
-x,1/2+y,1/2-z
-x,-y,-z
x,y,1/2-z
-x,1/2+y,z
x,1/2-y,1/2+z
loop_
_atom_site_type_symbol
_atom_site_label
_atom_site_fract_x
_atom_site_fract_y
_atom_site_fract_z
Si Si1 0.766427 0.337335 0.983063
Si Si2 0.132033 0.062639 0.515787
Si Si3 0.396946 0.148920 0.638788
Si Si4 0.600169 0.884480 0.644020
Si Si5 0.082133 0.265628 0.855644
O O1 0.630720 0.370187 0.900580
O O2 0.890089 0.283088 0.925995
O O3 0.950610 0.384047 0.016852
O O4 0.594095 0.331109 0.068902
O O5 0.293425 0.084154 0.600525
O O6 0.278602 0.068692 0.423432
O O7 0.000000 0.000000 0.500000
O O8 0.452073 0.146306 0.750000
O O9 0.215134 0.202888 0.626578
O O10 0.587541 0.905253 0.750000
O O11 0.741661 0.821101 0.639676
O O12 0.994283 0.262853 0.750000
#
# Coordination Sequence:
#
# PCOD9438831 Si02
#       5
#     8   8   8   8   8
#     4  10  21  38  63  86 115 158 200 245 303 362
#     4  10  23  40  57  83 120 161 207 255 303 357
#     4  10  23  40  60  90 124 160 205 252 305 369
#     4   9  19  35  58  88 115 145 193 248 304 365
#     4   9  19  37  60  89 121 149 186 241 303 367
#
# _framework density 21.107903
#
# number of rings (size 3 to 8) (size 9 to 14) (size 15 to 20)
#    0.000    2.400    0.000    0.600    0.000   16.000 
#    0.000    6.000    0.000    6.000    0.000    0.000 
#    0.000    0.000    0.000    0.000    0.000    0.000 
#
# Total GULP energy -223114.659041 kJ/mol
# GULP energy per Si atom -5577.866476 kJ/mol
# Density = 2.105986 g / cm^3
# Si number density = 21.107903 Si / 1000 Ang^3
#
#
#
# Elastic Constant Matrix: (Units=GPa)
#
#
# Indices 1 2 3 4 5 6 
#
# 1 78.8578 -13.3492 54.5002 0.0000 0.0000 0.0000
# 2 -13.3492 1.0846 18.6843 0.0000 0.0000 0.0000
# 3 54.5002 18.6843 143.7846 0.0000 0.0000 0.0000
# 4 0.0000 0.0000 0.0000 14.0382 0.0000 0.0000
# 5 0.0000 0.0000 0.0000 0.0000 28.3945 0.0000
# 6 0.0000 0.0000 0.0000 0.0000 0.0000 4.6220
#
#
#
# Elastic Compliance Matrix: (Units=1/GPa)
#
#
# Indices 1 2 3 4 5 6 
#
# 1 0.002710 -0.041224 0.004330 0.000000 0.000000 0.000000
# 2 -0.041224 -0.117429 0.030885 0.000000 0.000000 0.000000
# 3 0.004330 0.030885 0.001300 0.000000 0.000000 0.000000
# 4 0.000000 0.000000 0.000000 0.071234 0.000000 0.000000
# 5 0.000000 0.000000 0.000000 0.000000 0.035218 0.000000
# 6 0.000000 0.000000 0.000000 0.000000 0.000000 0.216355
#
#
# Mechanical properties :
#
#
# Convention : Reuss Voigt Hill
#
# Bulk Modulus (GPa) = -7.97214 38.15529 15.09158
# Shear Modulus (GPa) = 27.84031 20.33704 24.08868
#
# Velocity S-wave (km/s) = 3.63568 3.10736 3.38185
# Velocity P-wave (km/s) = 3.72010 5.56685 4.73440
#
# Compressibility (1/GPa) = -0.12543684
#
# Stress axis : x y z
#
# Youngs Moduli (GPa) = 368.94509 -8.51578 768.99256
#
# Poissons Ratio (x) = -0.35105 -3.32936
# Poissons Ratio (y) = 15.20930 -23.75030
# Poissons Ratio (z) = -1.59735 0.26301
#
# Static dielectric constant tensor:
#      x y z
#    x 1.757280 0.000000 0.000000 
#    y 0.000000 1.794270 0.000000 
#    z 0.000000 0.000000 1.766950 
# 
# From -- ./inp_files/14949.got.cif
#   From: 2010.05.17/outbox.cif.g08.bks.cpg/sg57_8_cif.got.tgz:14949.got - 2010.06.03 13:58:18.
