data_PCOD9438000
_publ_section_title
;
Structure prediction by ZEFSAII (Michael W. Deem and Ramdas Pophale) SiO2 
 PCOD9438000
Probable space group: P B C M
;
_chemical_formula_sum "Si O2"
_cell_formula_units_Z 64
_cell_length_a 12.578569
_cell_length_b 16.156266
_cell_length_c 14.235735
_cell_angle_alpha 90.000000
_cell_angle_beta 90.000000
_cell_angle_gamma 90.000000
_cell_volume 2893.024598
_symmetry_space_group_name_H-M "P B C M"
_symmetry_group_IT_number 57
_symmetry_cell_setting 'orthorhombic'
loop_
_space_group_symop_operation_xyz
x,y,z
-x,-y,1/2+z
x,1/2-y,-z
-x,1/2+y,1/2-z
-x,-y,-z
x,y,1/2-z
-x,1/2+y,z
x,1/2-y,1/2+z
loop_
_atom_site_type_symbol
_atom_site_label
_atom_site_fract_x
_atom_site_fract_y
_atom_site_fract_z
Si Si1 0.738977 0.380418 0.859796
Si Si2 0.660063 0.895132 0.854775
Si Si3 0.892298 0.538052 0.861189
Si Si4 0.893530 0.095005 0.640137
Si Si5 0.937701 0.216485 0.139430
Si Si6 0.142202 0.341258 0.969026
Si Si7 0.471974 0.903349 0.518854
Si Si8 0.339452 0.593953 0.855272
O O1 0.711752 0.370397 0.750000
O O2 0.819625 0.457862 0.868220
O O3 0.816691 0.305222 0.887614
O O4 0.631495 0.395546 0.915544
O O5 0.643998 0.861700 0.750000
O O6 0.777290 0.876490 0.891934
O O7 0.572885 0.864850 0.929462
O O8 0.645934 0.994717 0.849219
O O9 0.889675 0.564181 0.750000
O O10 0.017749 0.528412 0.886812
O O11 0.852372 0.602266 0.938575
O O12 0.870579 0.078989 0.750000
O O13 0.948404 0.184618 0.631943
O O14 0.777075 0.100533 0.596873
O O15 0.950666 0.193796 0.250000
O O16 0.025348 0.171408 0.076638
O O17 0.177288 0.250000 0.000000
O O18 0.431692 0.868786 0.419353
O O19 0.500000 0.000000 0.500000
O O20 0.340552 0.629305 0.750000
#
# Coordination Sequence:
#
# PCOD9438000 Si02
#       8
#     8   8   8   8   8   8   8   8
#     4  10  22  38  61  89 116 154 203 253 305 358
#     4  10  22  40  62  87 117 156 201 255 302 353
#     4  10  21  36  55  84 121 157 192 236 290 353
#     4   9  18  35  56  85 126 160 187 231 294 358
#     4  10  22  39  59  88 124 157 192 241 300 363
#     4  12  24  38  59  84 118 160 204 238 301 364
#     4  10  20  38  61  87 119 153 202 253 305 352
#     4   9  19  35  61  90 118 155 197 242 298 356
#
# _framework density 22.122177000000001
#
# number of rings (size 3 to 8) (size 9 to 14) (size 15 to 20)
#    0.000    2.000    1.250    2.250    3.500    1.500 
#    0.000    1.875    0.000    1.500    0.000    0.000 
#    0.000    0.000    0.000    0.000    0.000    0.000 
#
# Total GULP energy -357426.214739 kJ/mol
# GULP energy per Si atom -5584.784605 kJ/mol
# Density = 2.207183 g / cm^3
# Si number density = 22.122177 Si / 1000 Ang^3
#
#
#
# Elastic Constant Matrix: (Units=GPa)
#
#
# Indices 1 2 3 4 5 6 
#
# 1 102.4392 -8.8038 36.3854 0.0000 0.0000 0.0000
# 2 -8.8038 19.6658 1.6635 0.0000 0.0000 0.0000
# 3 36.3854 1.6635 104.0321 0.0000 0.0000 0.0000
# 4 0.0000 0.0000 0.0000 12.8370 0.0000 0.0000
# 5 0.0000 0.0000 0.0000 0.0000 41.8181 0.0000
# 6 0.0000 0.0000 0.0000 0.0000 0.0000 17.5314
#
#
#
# Elastic Compliance Matrix: (Units=1/GPa)
#
#
# Indices 1 2 3 4 5 6 
#
# 1 0.011733 0.005607 -0.004193 0.000000 0.000000 0.000000
# 2 0.005607 0.053598 -0.002818 0.000000 0.000000 0.000000
# 3 -0.004193 -0.002818 0.011124 0.000000 0.000000 0.000000
# 4 0.000000 0.000000 0.000000 0.077900 0.000000 0.000000
# 5 0.000000 0.000000 0.000000 0.000000 0.023913 0.000000
# 6 0.000000 0.000000 0.000000 0.000000 0.000000 0.057041
#
#
# Mechanical properties :
#
#
# Convention : Reuss Voigt Hill
#
# Bulk Modulus (GPa) = 13.57823 31.62525 22.60174
# Shear Modulus (GPa) = 19.03551 27.56342 23.29947
#
# Velocity S-wave (km/s) = 2.93656 3.53365 3.24885
# Velocity P-wave (km/s) = 4.20107 5.56558 4.93076
#
# Compressibility (1/GPa) = 0.07364732
#
# Stress axis : x y z
#
# Youngs Moduli (GPa) = 85.22784 18.65725 89.89467
#
# Poissons Ratio (x) = -0.10462 0.37696
# Poissons Ratio (y) = -0.47790 0.25334
# Poissons Ratio (z) = 0.35739 0.05258
#
# Static dielectric constant tensor:
#      x y z
#    x 1.821580 0.000000 0.000000 
#    y 0.000000 1.852940 0.000000 
#    z 0.000000 0.000000 1.856660 
# 
# From -- ./inp_files/18007.got.cif
#   From: 2010.05.17/outbox.cif.g08.bks.cpg/sg57_10_cif.got.tgz:18007.got - 2010.06.03 13:58:18.
