data_PCOD9438586
_publ_section_title
;
Structure prediction by ZEFSAII (Michael W. Deem and Ramdas Pophale) SiO2 
 PCOD9438586
Probable space group: P B C M
;
_chemical_formula_sum "Si O2"
_cell_formula_units_Z 48
_cell_length_a 31.476567
_cell_length_b 9.443780
_cell_length_c 8.596062
_cell_angle_alpha 90.000000
_cell_angle_beta 90.000000
_cell_angle_gamma 90.000000
_cell_volume 2555.246254
_symmetry_space_group_name_H-M "P B C M"
_symmetry_group_IT_number 57
_symmetry_cell_setting 'orthorhombic'
loop_
_space_group_symop_operation_xyz
x,y,z
-x,-y,1/2+z
x,1/2-y,-z
-x,1/2+y,1/2-z
-x,-y,-z
x,y,1/2-z
-x,1/2+y,z
x,1/2-y,1/2+z
loop_
_atom_site_type_symbol
_atom_site_label
_atom_site_fract_x
_atom_site_fract_y
_atom_site_fract_z
Si Si1 0.365644 0.410193 0.562657
Si Si2 0.208952 0.090367 0.063575
Si Si3 0.287968 0.590465 0.436077
Si Si4 0.130558 0.910030 0.563369
Si Si5 0.961102 0.091038 0.936541
Si Si6 0.538211 0.592360 0.435586
O O1 0.359494 0.250000 0.500000
O O2 0.361396 0.408921 0.750000
O O3 0.331199 0.513924 0.489364
O O4 0.413916 0.455453 0.521634
O O5 0.208179 0.092365 0.250000
O O6 0.211352 0.250000 0.000000
O O7 0.249318 0.001023 0.005101
O O8 0.167229 0.011776 0.999081
O O9 0.286155 0.750000 0.500000
O O10 0.285012 0.592330 0.250000
O O11 0.137388 0.750000 0.500000
O O12 0.130565 0.906262 0.750000
O O13 0.084509 0.958716 0.501507
O O14 0.960272 0.090865 0.750000
O O15 0.966244 0.250000 0.000000
O O16 0.000000 0.000000 0.000000
O O17 0.533645 0.750000 0.500000
O O18 0.500000 0.500000 0.500000
O O19 0.536048 0.594652 0.250000
#
# Coordination Sequence:
#
# PCOD9438586 Si02
#       6
#     8   8   8   8   8   8
#     4  10  21  39  61  87 117 154 195 241 292 348
#     4  12  25  43  64  90 121 156 196 242 292 349
#     4  12  25  42  63  89 119 155 195 241 291 347
#     4  11  22  40  63  90 121 158 199 244 295 351
#     4  11  22  39  61  89 121 159 201 247 298 352
#     4  10  21  37  59  85 117 154 196 241 292 347
#
# _framework density 18.784882
#
# number of rings (size 3 to 8) (size 9 to 14) (size 15 to 20)
#    0.000    1.000    0.000    9.000    0.000    3.333 
#    0.000    3.333    0.000    0.000    0.000    0.000 
#    0.000    0.000    0.000    0.000    0.000    0.000 
#
# Total GULP energy -268531.445694 kJ/mol
# GULP energy per Si atom -5594.405119 kJ/mol
# Density = 1.874213 g / cm^3
# Si number density = 18.784882 Si / 1000 Ang^3
#
#
#
# Elastic Constant Matrix: (Units=GPa)
#
#
# Indices 1 2 3 4 5 6 
#
# 1 210.5267 123.6092 96.9773 0.0000 0.0000 0.0000
# 2 123.6092 126.9875 72.9972 0.0000 0.0000 0.0000
# 3 96.9773 72.9972 198.6211 0.0000 0.0000 0.0000
# 4 0.0000 0.0000 0.0000 39.1972 0.0000 0.0000
# 5 0.0000 0.0000 0.0000 0.0000 37.8620 0.0000
# 6 0.0000 0.0000 0.0000 0.0000 0.0000 44.7528
#
#
#
# Elastic Compliance Matrix: (Units=1/GPa)
#
#
# Indices 1 2 3 4 5 6 
#
# 1 0.011639 -0.010222 -0.001926 0.000000 0.000000 0.000000
# 2 -0.010222 0.018962 -0.001978 0.000000 0.000000 0.000000
# 3 -0.001926 -0.001978 0.006702 0.000000 0.000000 0.000000
# 4 0.000000 0.000000 0.000000 0.025512 0.000000 0.000000
# 5 0.000000 0.000000 0.000000 0.000000 0.026412 0.000000
# 6 0.000000 0.000000 0.000000 0.000000 0.000000 0.022345
#
#
# Mechanical properties :
#
#
# Convention : Reuss Voigt Hill
#
# Bulk Modulus (GPa) = 110.48595 124.81142 117.64868
# Shear Modulus (GPa) = 35.00382 40.53250 37.76816
#
# Velocity S-wave (km/s) = 4.32140 4.65017 4.48879
# Velocity P-wave (km/s) = 9.15661 9.76825 9.46737
#
# Compressibility (1/GPa) = 0.00905092
#
# Stress axis : x y z
#
# Youngs Moduli (GPa) = 85.91665 52.73633 149.21046
#
# Poissons Ratio (x) = 0.53910 0.28737
# Poissons Ratio (y) = 0.87828 0.29512
# Poissons Ratio (z) = 0.16547 0.10431
#
# Static dielectric constant tensor:
#      x y z
#    x 1.648630 0.000000 0.000000 
#    y 0.000000 1.598640 0.000000 
#    z 0.000000 0.000000 1.625910 
# 
# From -- ./inp_files/9995.got.cif
#   From: 2010.05.17/outbox.cif.g08.bks.cpg/sg57_5_cif.got.tgz:9995.got - 2010.06.03 13:58:18.
