data_PCOD9438758
_publ_section_title
;
Structure prediction by ZEFSAII (Michael W. Deem and Ramdas Pophale) SiO2 
 PCOD9438758
Probable space group: P B C M
;
_chemical_formula_sum "Si O2"
_cell_formula_units_Z 56
_cell_length_a 17.471403
_cell_length_b 9.304293
_cell_length_c 14.778429
_cell_angle_alpha 90.000000
_cell_angle_beta 90.000000
_cell_angle_gamma 90.000000
_cell_volume 2402.367418
_symmetry_space_group_name_H-M "P B C M"
_symmetry_group_IT_number 57
_symmetry_cell_setting 'orthorhombic'
loop_
_space_group_symop_operation_xyz
x,y,z
-x,-y,1/2+z
x,1/2-y,-z
-x,1/2+y,1/2-z
-x,-y,-z
x,y,1/2-z
-x,1/2+y,z
x,1/2-y,1/2+z
loop_
_atom_site_type_symbol
_atom_site_label
_atom_site_fract_x
_atom_site_fract_y
_atom_site_fract_z
Si Si1 0.629352 0.849076 0.358083
Si Si2 0.914215 0.886945 0.105548
Si Si3 0.817671 0.355062 0.140960
Si Si4 0.048148 0.071028 0.394219
Si Si5 0.535032 0.120590 0.935990
Si Si6 0.237884 0.543570 0.140400
Si Si7 0.677903 0.959021 0.858493
O O1 0.637682 0.850943 0.250000
O O2 0.539365 0.839414 0.377555
O O3 0.665207 0.701141 0.394131
O O4 0.678841 0.986064 0.391733
O O5 0.929566 0.727824 0.144100
O O6 0.825827 0.925580 0.116437
O O7 0.941561 0.897116 0.001170
O O8 0.966353 0.017734 0.142605
O O9 0.812603 0.348341 0.250000
O O10 0.897477 0.432629 0.120924
O O11 0.794928 0.196497 0.106846
O O12 0.753434 0.464937 0.105616
O O13 0.604708 0.056406 0.880238
O O14 0.560166 0.250000 0.000000
O O15 0.500000 0.000000 0.000000
O O16 0.241862 0.554447 0.250000
O O17 0.685126 0.949009 0.750000
#
# Coordination Sequence:
#
# PCOD9438758 Si02
#       7
#     8   8   8   8   8   8   8
#     4  10  22  42  64  87 120 163 204 247 304 367
#     4  10  21  38  60  87 120 159 200 245 302 359
#     4  10  22  39  61  90 119 154 202 248 295 356
#     4  10  21  38  60  87 121 158 200 248 300 361
#     4  12  25  42  61  92 126 154 199 253 304 364
#     4  10  22  39  61  89 119 156 202 247 296 355
#     4  10  22  42  64  86 120 163 204 247 305 368
#
# _framework density 23.310338000000002
#
# number of rings (size 3 to 8) (size 9 to 14) (size 15 to 20)
#    0.000    1.714    1.429    2.143    2.000    5.143 
#    2.571    0.000    0.000    0.000    0.000    0.000 
#    0.000    0.000    0.000    0.000    0.000    0.000 
#
# Total GULP energy -312826.714048 kJ/mol
# GULP energy per Si atom -5586.191322 kJ/mol
# Density = 2.325728 g / cm^3
# Si number density = 23.310338 Si / 1000 Ang^3
#
#
#
# Elastic Constant Matrix: (Units=GPa)
#
#
# Indices 1 2 3 4 5 6 
#
# 1 78.8840 -1.3959 -8.4651 0.0000 0.0000 0.0000
# 2 -1.3959 110.7709 14.3535 0.0000 0.0000 0.0000
# 3 -8.4651 14.3535 43.8956 0.0000 0.0000 0.0000
# 4 0.0000 0.0000 0.0000 23.2501 0.0000 0.0000
# 5 0.0000 0.0000 0.0000 0.0000 19.5276 0.0000
# 6 0.0000 0.0000 0.0000 0.0000 0.0000 30.8554
#
#
#
# Elastic Compliance Matrix: (Units=1/GPa)
#
#
# Indices 1 2 3 4 5 6 
#
# 1 0.012948 -0.000167 0.002552 0.000000 0.000000 0.000000
# 2 -0.000167 0.009429 -0.003116 0.000000 0.000000 0.000000
# 3 0.002552 -0.003116 0.024292 0.000000 0.000000 0.000000
# 4 0.000000 0.000000 0.000000 0.043011 0.000000 0.000000
# 5 0.000000 0.000000 0.000000 0.000000 0.051210 0.000000
# 6 0.000000 0.000000 0.000000 0.000000 0.000000 0.032409
#
#
# Mechanical properties :
#
#
# Convention : Reuss Voigt Hill
#
# Bulk Modulus (GPa) = 22.12077 26.94837 24.53457
# Shear Modulus (GPa) = 26.33936 29.99716 28.16826
#
# Velocity S-wave (km/s) = 3.36511 3.59118 3.47998
# Velocity P-wave (km/s) = 4.96074 5.36481 5.16672
#
# Compressibility (1/GPa) = 0.04520639
#
# Stress axis : x y z
#
# Youngs Moduli (GPa) = 77.23377 106.05298 41.16549
#
# Poissons Ratio (x) = 0.01776 -0.10504
# Poissons Ratio (y) = 0.01293 0.12825
# Poissons Ratio (z) = -0.19708 0.33042
#
# Static dielectric constant tensor:
#      x y z
#    x 2.110670 0.000000 0.000000 
#    y 0.000000 1.917330 0.000000 
#    z 0.000000 0.000000 1.960740 
# 
# From -- ./inp_files/25423.got.cif
#   From: 2010.05.17/outbox.cif.g08.bks.cpg/sg57_13_cif.got.tgz:25423.got - 2010.06.03 13:58:18.
