data_PCOD9438232
_publ_section_title
;
Structure prediction by ZEFSAII (Michael W. Deem and Ramdas Pophale) SiO2 
 PCOD9438232
Probable space group: P B C M
;
_chemical_formula_sum "Si O2"
_cell_formula_units_Z 36
_cell_length_a 7.878145
_cell_length_b 16.280590
_cell_length_c 14.319050
_cell_angle_alpha 90.000000
_cell_angle_beta 90.000000
_cell_angle_gamma 90.000000
_cell_volume 1836.573506
_symmetry_space_group_name_H-M "P B C M"
_symmetry_group_IT_number 57
_symmetry_cell_setting 'orthorhombic'
loop_
_space_group_symop_operation_xyz
x,y,z
-x,-y,1/2+z
x,1/2-y,-z
-x,1/2+y,1/2-z
-x,-y,-z
x,y,1/2-z
-x,1/2+y,z
x,1/2-y,1/2+z
loop_
_atom_site_type_symbol
_atom_site_label
_atom_site_fract_x
_atom_site_fract_y
_atom_site_fract_z
Si Si1 0.267452 0.252837 0.750000
Si Si2 0.052909 0.522749 0.896655
Si Si3 0.958457 0.387712 0.750000
Si Si4 0.392724 0.448067 0.927496
Si Si5 0.572568 0.131405 0.250000
Si Si6 0.836055 0.671738 0.939942
O O1 0.452755 0.290689 0.750000
O O2 0.254256 0.204457 0.653005
O O3 0.116813 0.323690 0.750000
O O4 0.969089 0.451891 0.834889
O O5 0.981069 0.614277 0.893501
O O6 0.251495 0.508307 0.883214
O O7 0.000000 0.500000 0.000000
O O8 0.771721 0.349445 0.750000
O O9 0.511792 0.415132 0.844524
O O10 0.500000 0.500000 0.000000
O O11 0.286719 0.379320 0.988087
O O12 0.899978 0.750000 0.000000
#
# Coordination Sequence:
#
# PCOD9438232 Si02
#       6
#     4   8   4   8   4   8
#     4  12  23  44  66  96 141 169 220 288 337 400
#     4  10  20  40  65  92 128 176 225 267 332 404
#     4  12  23  43  70  96 128 184 226 269 335 411
#     4  11  23  42  68 101 134 176 233 279 334 417
#     4  12  22  41  70  94 137 175 220 275 342 391
#     4  11  22  40  66  96 136 179 217 288 345 391
#
# _framework density 19.601721000000001
#
# number of rings (size 3 to 8) (size 9 to 14) (size 15 to 20)
#    0.000    0.889    4.444    4.667    0.000    0.889 
#    4.000    1.111    4.889    0.000    0.000    0.000 
#    0.000    0.000    0.000    0.000    0.000    0.000 
#
# Total GULP energy -200593.276820 kJ/mol
# GULP energy per Si atom -5572.035467 kJ/mol
# Density = 1.955711 g / cm^3
# Si number density = 19.601721 Si / 1000 Ang^3
#
#
#
# Elastic Constant Matrix: (Units=GPa)
#
#
# Indices 1 2 3 4 5 6 
#
# 1 109.5950 39.9319 5.6975 0.0000 0.0000 0.0000
# 2 39.9319 88.3190 19.2633 0.0000 0.0000 0.0000
# 3 5.6975 19.2633 108.7994 0.0000 0.0000 0.0000
# 4 0.0000 0.0000 0.0000 41.0777 0.0000 0.0000
# 5 0.0000 0.0000 0.0000 0.0000 23.6034 0.0000
# 6 0.0000 0.0000 0.0000 0.0000 0.0000 24.0134
#
#
#
# Elastic Compliance Matrix: (Units=1/GPa)
#
#
# Indices 1 2 3 4 5 6 
#
# 1 0.010934 -0.005013 0.000315 0.000000 0.000000 0.000000
# 2 -0.005013 0.014075 -0.002230 0.000000 0.000000 0.000000
# 3 0.000315 -0.002230 0.009569 0.000000 0.000000 0.000000
# 4 0.000000 0.000000 0.000000 0.024344 0.000000 0.000000
# 5 0.000000 0.000000 0.000000 0.000000 0.042367 0.000000
# 6 0.000000 0.000000 0.000000 0.000000 0.000000 0.041643
#
#
# Mechanical properties :
#
#
# Convention : Reuss Voigt Hill
#
# Bulk Modulus (GPa) = 48.25146 48.49987 48.37566
# Shear Modulus (GPa) = 30.54441 33.86029 32.20235
#
# Velocity S-wave (km/s) = 3.95175 4.16073 4.05758
# Velocity P-wave (km/s) = 6.74471 6.91943 6.83263
#
# Compressibility (1/GPa) = 0.02072476
#
# Stress axis : x y z
#
# Youngs Moduli (GPa) = 91.45372 71.04690 104.49873
#
# Poissons Ratio (x) = 0.35612 -0.03290
# Poissons Ratio (y) = 0.45841 0.23299
# Poissons Ratio (z) = -0.02880 0.15840
#
# Static dielectric constant tensor:
#      x y z
#    x 1.711250 0.000000 0.000000 
#    y 0.000000 1.900210 0.000000 
#    z 0.000000 0.000000 1.706580 
# 
# From -- ./inp_files/15847.got.cif
#   From: 2010.05.17/outbox.cif.g08.bks.cpg/sg57_8_cif.got.tgz:15847.got - 2010.06.03 13:58:18.
