data_PCOD9438015
_publ_section_title
;
Structure prediction by ZEFSAII (Michael W. Deem and Ramdas Pophale) SiO2 
 PCOD9438015
Probable space group: P B C M
;
_chemical_formula_sum "Si O2"
_cell_formula_units_Z 40
_cell_length_a 9.559423
_cell_length_b 14.844830
_cell_length_c 13.642824
_cell_angle_alpha 90.000000
_cell_angle_beta 90.000000
_cell_angle_gamma 90.000000
_cell_volume 1936.025996
_symmetry_space_group_name_H-M "P B C M"
_symmetry_group_IT_number 57
_symmetry_cell_setting 'orthorhombic'
loop_
_space_group_symop_operation_xyz
x,y,z
-x,-y,1/2+z
x,1/2-y,-z
-x,1/2+y,1/2-z
-x,-y,-z
x,y,1/2-z
-x,1/2+y,z
x,1/2-y,1/2+z
loop_
_atom_site_type_symbol
_atom_site_label
_atom_site_fract_x
_atom_site_fract_y
_atom_site_fract_z
Si Si1 0.345079 0.971535 0.471864
Si Si2 0.885203 0.679206 0.858690
Si Si3 0.847476 0.880035 0.576117
Si Si4 0.159255 0.900619 0.633344
Si Si5 0.783356 0.192714 0.636868
O O1 0.261729 0.963654 0.574028
O O2 0.316802 0.874875 0.421043
O O3 0.500000 0.000000 0.500000
O O4 0.270122 0.046200 0.403355
O O5 0.842483 0.646113 0.750000
O O6 0.851087 0.786288 0.864563
O O7 0.053044 0.663579 0.867558
O O8 0.827874 0.643502 0.961319
O O9 0.002284 0.918165 0.595886
O O10 0.163034 0.909672 0.750000
O O11 0.204328 0.797708 0.607617
O O12 0.740137 0.191183 0.750000
#
# Coordination Sequence:
#
# PCOD9438015 Si02
#       5
#     8   8   8   8   8
#     4  12  25  39  58  90 133 168 200 250 317 384
#     4   9  18  36  64  91 116 150 202 261 307 355
#     4  10  20  38  61  92 119 152 207 261 309 355
#     4  10  21  41  66  90 117 159 215 266 308 366
#     4   9  19  38  64  87 114 159 205 250 310 368
#
# _framework density 20.660879000000001
#
# number of rings (size 3 to 8) (size 9 to 14) (size 15 to 20)
#    0.000    2.000    2.000    3.000    0.000    3.200 
#    7.200    0.000    0.000    0.000    0.000    0.000 
#    0.000    0.000    0.000    0.000    0.000    0.000 
#
# Total GULP energy -223138.007847 kJ/mol
# GULP energy per Si atom -5578.450196 kJ/mol
# Density = 2.061385 g / cm^3
# Si number density = 20.660879 Si / 1000 Ang^3
#
#
#
# Elastic Constant Matrix: (Units=GPa)
#
#
# Indices 1 2 3 4 5 6 
#
# 1 94.7792 61.4652 8.5801 0.0000 0.0000 0.0000
# 2 61.4652 83.2679 16.0698 0.0000 0.0000 0.0000
# 3 8.5801 16.0698 76.0808 0.0000 0.0000 0.0000
# 4 0.0000 0.0000 0.0000 19.3676 0.0000 0.0000
# 5 0.0000 0.0000 0.0000 0.0000 1.0771 0.0000
# 6 0.0000 0.0000 0.0000 0.0000 0.0000 -17.4536
#
#
#
# Elastic Compliance Matrix: (Units=1/GPa)
#
#
# Indices 1 2 3 4 5 6 
#
# 1 0.020300 -0.015161 0.000913 0.000000 0.000000 0.000000
# 2 -0.015161 0.023843 -0.003326 0.000000 0.000000 0.000000
# 3 0.000913 -0.003326 0.013744 0.000000 0.000000 0.000000
# 4 0.000000 0.000000 0.000000 0.051633 0.000000 0.000000
# 5 0.000000 0.000000 0.000000 0.000000 0.928448 0.000000
# 6 0.000000 0.000000 0.000000 0.000000 0.000000 -0.057295
#
#
# Mechanical properties :
#
#
# Convention : Reuss Voigt Hill
#
# Bulk Modulus (GPa) = 43.97977 47.37312 45.67644
# Shear Modulus (GPa) = 4.88567 11.79906 8.34237
#
# Velocity S-wave (km/s) = 1.53943 2.39233 2.01160
# Velocity P-wave (km/s) = 4.94899 5.53260 5.24891
#
# Compressibility (1/GPa) = 0.02273773
#
# Stress axis : x y z
#
# Youngs Moduli (GPa) = 49.26034 41.94152 72.76151
#
# Poissons Ratio (x) = 0.63588 -0.06643
# Poissons Ratio (y) = 0.74684 0.24202
# Poissons Ratio (z) = -0.04497 0.13951
#
# Static dielectric constant tensor:
#      x y z
#    x 1.692810 0.000000 0.000000 
#    y 0.000000 1.807460 0.000000 
#    z 0.000000 0.000000 1.768330 
# 
# From -- ./inp_files/15888.got.cif
#   From: 2010.05.17/outbox.cif.g08.bks.cpg/sg57_8_cif.got.tgz:15888.got - 2010.06.03 13:58:18.
