data_PCOD9438722
_publ_section_title
;
Structure prediction by ZEFSAII (Michael W. Deem and Ramdas Pophale) SiO2 
 PCOD9438722
Probable space group: P B C M
;
_chemical_formula_sum "Si O2"
_cell_formula_units_Z 56
_cell_length_a 4.966718
_cell_length_b 25.037281
_cell_length_c 22.721998
_cell_angle_alpha 90.000000
_cell_angle_beta 90.000000
_cell_angle_gamma 90.000000
_cell_volume 2825.551212
_symmetry_space_group_name_H-M "P B C M"
_symmetry_group_IT_number 57
_symmetry_cell_setting 'orthorhombic'
loop_
_space_group_symop_operation_xyz
x,y,z
-x,-y,1/2+z
x,1/2-y,-z
-x,1/2+y,1/2-z
-x,-y,-z
x,y,1/2-z
-x,1/2+y,z
x,1/2-y,1/2+z
loop_
_atom_site_type_symbol
_atom_site_label
_atom_site_fract_x
_atom_site_fract_y
_atom_site_fract_z
Si Si1 0.556475 0.438292 0.680355
Si Si2 0.118047 0.107029 0.473084
Si Si3 0.727926 0.789738 0.897218
Si Si4 0.376394 0.614081 0.548214
Si Si5 0.972384 0.865544 0.684999
Si Si6 0.375465 0.497762 0.567398
Si Si7 0.767039 0.268221 0.066934
O O1 0.617535 0.454997 0.750000
O O2 0.774585 0.395359 0.656717
O O3 0.535569 0.480951 0.626856
O O4 0.272417 0.407695 0.684129
O O5 0.225671 0.157115 0.436181
O O6 0.311115 0.108688 0.530595
O O7 0.162817 0.050171 0.442041
O O8 0.809589 0.115566 0.489712
O O9 0.424929 0.770006 0.895132
O O10 0.855836 0.810273 0.837518
O O11 0.919949 0.743666 0.922967
O O12 0.285725 0.558686 0.577898
O O13 0.312147 0.670572 0.577440
O O14 0.073251 0.856191 0.750000
O O15 0.500000 0.500000 0.500000
O O16 0.703685 0.250000 0.000000
#
# Coordination Sequence:
#
# PCOD9438722 Si02
#       7
#     8   8   8   8   8   8   8
#     4  10  21  38  59  84 116 151 190 236 295 358
#     4  11  20  34  54  82 113 150 183 238 297 338
#     4  12  21  34  60  78 114 148 187 241 288 345
#     4  11  23  36  50  79 122 152 193 228 281 354
#     4  10  22  38  60  87 114 145 192 245 297 350
#     4  10  23  36  58  87 120 153 190 244 300 353
#     4  12  22  35  53  81 114 158 191 230 282 351
#
# _framework density 19.819140999999998
#
# number of rings (size 3 to 8) (size 9 to 14) (size 15 to 20)
#    0.000    1.143    4.286    2.571    4.000    2.286 
#    0.000    0.000    0.000    1.714    0.000    0.000 
#    0.000    0.000    0.000    0.000    0.000    0.000 
#
# Total GULP energy -312049.080139 kJ/mol
# GULP energy per Si atom -5572.305002 kJ/mol
# Density = 1.977403 g / cm^3
# Si number density = 19.819141 Si / 1000 Ang^3
#
#
#
# Elastic Constant Matrix: (Units=GPa)
#
#
# Indices 1 2 3 4 5 6 
#
# 1 55.2229 -4.8838 -0.3376 0.0000 0.0000 0.0000
# 2 -4.8838 109.4735 12.3506 0.0000 0.0000 0.0000
# 3 -0.3376 12.3506 64.1753 0.0000 0.0000 0.0000
# 4 0.0000 0.0000 0.0000 15.0900 0.0000 0.0000
# 5 0.0000 0.0000 0.0000 0.0000 15.0973 0.0000
# 6 0.0000 0.0000 0.0000 0.0000 0.0000 28.9587
#
#
#
# Elastic Compliance Matrix: (Units=1/GPa)
#
#
# Indices 1 2 3 4 5 6 
#
# 1 0.018180 0.000818 -0.000062 0.000000 0.000000 0.000000
# 2 0.000818 0.009374 -0.001800 0.000000 0.000000 0.000000
# 3 -0.000062 -0.001800 0.015928 0.000000 0.000000 0.000000
# 4 0.000000 0.000000 0.000000 0.066269 0.000000 0.000000
# 5 0.000000 0.000000 0.000000 0.000000 0.066237 0.000000
# 6 0.000000 0.000000 0.000000 0.000000 0.000000 0.034532
#
#
# Mechanical properties :
#
#
# Convention : Reuss Voigt Hill
#
# Bulk Modulus (GPa) = 24.15701 27.01446 25.58574
# Shear Modulus (GPa) = 22.08415 26.61203 24.34809
#
# Velocity S-wave (km/s) = 3.34171 3.66832 3.50882
# Velocity P-wave (km/s) = 5.20620 5.62158 5.41788
#
# Compressibility (1/GPa) = 0.04139585
#
# Stress axis : x y z
#
# Youngs Moduli (GPa) = 55.00434 106.67613 62.78111
#
# Poissons Ratio (x) = -0.08726 0.00388
# Poissons Ratio (y) = -0.04500 0.11299
# Poissons Ratio (z) = 0.00340 0.19199
#
# Static dielectric constant tensor:
#      x y z
#    x 1.718740 0.000000 0.000000 
#    y 0.000000 1.736230 0.000000 
#    z 0.000000 0.000000 1.812100 
# 
# From -- ./inp_files/26375.got.cif
#   From: 2010.05.17/outbox.cif.g08.bks.cpg/sg57_14_cif.got.tgz:26375.got - 2010.06.03 13:58:18.
