data_PCOD9438271
_publ_section_title
;
Structure prediction by ZEFSAII (Michael W. Deem and Ramdas Pophale) SiO2 
 PCOD9438271
Probable space group: P B C M
;
_chemical_formula_sum "Si O2"
_cell_formula_units_Z 64
_cell_length_a 14.081026
_cell_length_b 12.255687
_cell_length_c 18.267066
_cell_angle_alpha 90.000000
_cell_angle_beta 90.000000
_cell_angle_gamma 90.000000
_cell_volume 3152.395938
_symmetry_space_group_name_H-M "P B C M"
_symmetry_group_IT_number 57
_symmetry_cell_setting 'orthorhombic'
loop_
_space_group_symop_operation_xyz
x,y,z
-x,-y,1/2+z
x,1/2-y,-z
-x,1/2+y,1/2-z
-x,-y,-z
x,y,1/2-z
-x,1/2+y,z
x,1/2-y,1/2+z
loop_
_atom_site_type_symbol
_atom_site_label
_atom_site_fract_x
_atom_site_fract_y
_atom_site_fract_z
Si Si1 0.668748 0.033957 0.970563
Si Si2 0.709917 0.178494 0.666189
Si Si3 0.916963 0.319929 0.390260
Si Si4 0.394441 0.604200 0.120704
Si Si5 0.876316 0.085291 0.037956
Si Si6 0.680206 0.630930 0.831431
Si Si7 0.098555 0.417030 0.167546
Si Si8 0.578770 0.692010 0.072730
O O1 0.663579 0.102999 0.896137
O O2 0.642741 0.910494 0.951837
O O3 0.601625 0.079421 0.033829
O O4 0.770473 0.053578 0.010249
O O5 0.681358 0.158045 0.750000
O O6 0.822888 0.156794 0.657282
O O7 0.679626 0.302027 0.644619
O O8 0.891285 0.203547 0.425540
O O9 0.926746 0.402524 0.459292
O O10 0.014939 0.329795 0.346688
O O11 0.362476 0.490271 0.155854
O O12 0.499823 0.651051 0.130795
O O13 0.905384 0.004195 0.102248
O O14 0.653388 0.666079 0.750000
O O15 0.794351 0.627464 0.836023
O O16 0.640635 0.714952 0.889393
O O17 0.085921 0.463134 0.250000
O O18 0.537978 0.750000 0.000000
#
# Coordination Sequence:
#
# PCOD9438271 Si02
#       8
#     8   8   8   8   8   8   8   8
#     4  11  22  43  70  95 133 174 229 274 332 398
#     4  11  23  39  64 101 139 173 219 281 342 398
#     4  10  21  39  65  95 129 169 219 274 329 389
#     4  12  23  43  72  97 130 179 223 279 332 400
#     4  10  20  41  65  95 129 169 220 276 322 393
#     4  11  26  46  65  97 135 172 225 272 334 405
#     4  11  22  41  65  90 130 175 216 267 326 396
#     4  12  25  43  70  98 130 176 224 282 334 398
#
# _framework density 20.302018
#
# number of rings (size 3 to 8) (size 9 to 14) (size 15 to 20)
#    0.000    1.000    3.750    2.625    1.750    3.500 
#   11.250    0.000    0.000    0.000    0.000    0.000 
#    0.000    0.000    0.000    0.000    0.000    0.000 
#
# Total GULP energy -356985.916251 kJ/mol
# GULP energy per Si atom -5577.904941 kJ/mol
# Density = 2.025581 g / cm^3
# Si number density = 20.302018 Si / 1000 Ang^3
#
#
#
# Elastic Constant Matrix: (Units=GPa)
#
#
# Indices 1 2 3 4 5 6 
#
# 1 59.1118 27.1496 10.0949 0.0000 0.0000 0.0000
# 2 27.1496 81.5816 25.9577 0.0000 0.0000 0.0000
# 3 10.0949 25.9577 98.5808 0.0000 0.0000 0.0000
# 4 0.0000 0.0000 0.0000 14.2914 0.0000 0.0000
# 5 0.0000 0.0000 0.0000 0.0000 10.0646 0.0000
# 6 0.0000 0.0000 0.0000 0.0000 0.0000 -4.5908
#
#
#
# Elastic Compliance Matrix: (Units=1/GPa)
#
#
# Indices 1 2 3 4 5 6 
#
# 1 0.019979 -0.006546 -0.000322 0.000000 0.000000 0.000000
# 2 -0.006546 0.015523 -0.003417 0.000000 0.000000 0.000000
# 3 -0.000322 -0.003417 0.011077 0.000000 0.000000 0.000000
# 4 0.000000 0.000000 0.000000 0.069972 0.000000 0.000000
# 5 0.000000 0.000000 0.000000 0.000000 0.099359 0.000000
# 6 0.000000 0.000000 0.000000 0.000000 0.000000 -0.217825
#
#
# Mechanical properties :
#
#
# Convention : Reuss Voigt Hill
#
# Bulk Modulus (GPa) = 38.45002 40.63096 39.54049
# Shear Modulus (GPa) = 182.98478 15.69117 99.33798
#
# Velocity S-wave (km/s) = 9.50405 2.78310 7.00259
# Velocity P-wave (km/s) = 11.80746 5.51219 9.21413
#
# Compressibility (1/GPa) = 0.02600779
#
# Stress axis : x y z
#
# Youngs Moduli (GPa) = 50.05320 64.41856 90.27924
#
# Poissons Ratio (x) = 0.42170 0.02908
# Poissons Ratio (y) = 0.32766 0.30850
# Poissons Ratio (z) = 0.01612 0.22013
#
# Static dielectric constant tensor:
#      x y z
#    x 1.750300 0.000000 0.000000 
#    y 0.000000 1.698320 0.000000 
#    z 0.000000 0.000000 1.731380 
# 
# From -- ./inp_files/22672.got.cif
#   From: 2010.05.17/outbox.cif.g08.bks.cpg/sg57_12_cif.got.tgz:22672.got - 2010.06.03 13:58:18.
