data_PCOD9438297
_publ_section_title
;
Structure prediction by ZEFSAII (Michael W. Deem and Ramdas Pophale) SiO2 
 PCOD9438297
Probable space group: P B C M
;
_chemical_formula_sum "Si O2"
_cell_formula_units_Z 40
_cell_length_a 6.721063
_cell_length_b 15.581526
_cell_length_c 17.762799
_cell_angle_alpha 90.000000
_cell_angle_beta 90.000000
_cell_angle_gamma 90.000000
_cell_volume 1860.198785
_symmetry_space_group_name_H-M "P B C M"
_symmetry_group_IT_number 57
_symmetry_cell_setting 'orthorhombic'
loop_
_space_group_symop_operation_xyz
x,y,z
-x,-y,1/2+z
x,1/2-y,-z
-x,1/2+y,1/2-z
-x,-y,-z
x,y,1/2-z
-x,1/2+y,z
x,1/2-y,1/2+z
loop_
_atom_site_type_symbol
_atom_site_label
_atom_site_fract_x
_atom_site_fract_y
_atom_site_fract_z
Si Si1 0.210251 0.250000 0.000000
Si Si2 0.123010 0.124093 0.874621
Si Si3 0.787877 0.090220 0.750000
Si Si4 0.514781 0.886199 0.918908
Si Si5 0.606161 0.706272 0.750000
Si Si6 0.431023 0.403987 0.750000
Si Si7 0.229506 0.511068 0.485882
O O1 0.086724 0.187149 0.945591
O O2 0.353510 0.306453 0.945784
O O3 0.281222 0.168843 0.821294
O O4 0.242602 0.044036 0.909445
O O5 0.931256 0.100966 0.823729
O O6 0.617943 0.165498 0.750000
O O7 0.692493 0.993697 0.750000
O O8 0.464806 0.896993 0.831425
O O9 0.315963 0.896156 0.968108
O O10 0.648114 0.966904 0.947306
O O11 0.659218 0.807583 0.750000
O O12 0.000000 0.500000 0.500000
#
# Coordination Sequence:
#
# PCOD9438297 Si02
#       7
#     4   8   4   8   4   4   8
#     4  10  20  42  68  96 140 182 224 294 338 420
#     4  10  22  43  67  98 137 178 227 289 352 413
#     4  11  25  43  71  98 137 185 225 296 356 412
#     4  10  22  40  66  95 133 178 223 278 346 403
#     4  11  23  45  67 100 142 180 234 285 358 419
#     4  12  22  44  72 100 137 183 233 291 348 425
#     4  10  21  41  65  98 131 173 228 279 338 419
#
# _framework density 21.503077999999999
#
# number of rings (size 3 to 8) (size 9 to 14) (size 15 to 20)
#    0.000    1.600    2.000    2.400    0.000    4.000 
#    7.200    9.000    0.000    0.000    0.000    0.000 
#    0.000    0.000    0.000    0.000    0.000    0.000 
#
# Total GULP energy -222725.848824 kJ/mol
# GULP energy per Si atom -5568.146221 kJ/mol
# Density = 2.145414 g / cm^3
# Si number density = 21.503078 Si / 1000 Ang^3
#
#
#
# Elastic Constant Matrix: (Units=GPa)
#
#
# Indices 1 2 3 4 5 6 
#
# 1 78.1411 17.1715 15.5979 0.0000 0.0000 0.0000
# 2 17.1715 88.4225 22.8395 0.0000 0.0000 0.0000
# 3 15.5979 22.8395 103.6425 0.0000 0.0000 0.0000
# 4 0.0000 0.0000 0.0000 44.2647 0.0000 0.0000
# 5 0.0000 0.0000 0.0000 0.0000 17.4911 0.0000
# 6 0.0000 0.0000 0.0000 0.0000 0.0000 20.1703
#
#
#
# Elastic Compliance Matrix: (Units=1/GPa)
#
#
# Indices 1 2 3 4 5 6 
#
# 1 0.013600 -0.002240 -0.001553 0.000000 0.000000 0.000000
# 2 -0.002240 0.012361 -0.002387 0.000000 0.000000 0.000000
# 3 -0.001553 -0.002387 0.010408 0.000000 0.000000 0.000000
# 4 0.000000 0.000000 0.000000 0.022591 0.000000 0.000000
# 5 0.000000 0.000000 0.000000 0.000000 0.057172 0.000000
# 6 0.000000 0.000000 0.000000 0.000000 0.000000 0.049578
#
#
# Mechanical properties :
#
#
# Convention : Reuss Voigt Hill
#
# Bulk Modulus (GPa) = 41.65087 42.38042 42.01564
# Shear Modulus (GPa) = 26.87126 30.69171 28.78149
#
# Velocity S-wave (km/s) = 3.53887 3.78208 3.66250
# Velocity P-wave (km/s) = 6.00915 6.23089 6.12103
#
# Compressibility (1/GPa) = 0.02400910
#
# Stress axis : x y z
#
# Youngs Moduli (GPa) = 73.53159 80.90064 96.07742
#
# Poissons Ratio (x) = 0.18121 0.14922
# Poissons Ratio (y) = 0.16470 0.22932
# Poissons Ratio (z) = 0.11420 0.19310
#
# Static dielectric constant tensor:
#      x y z
#    x 1.808940 0.000000 0.000000 
#    y 0.000000 1.903580 0.000000 
#    z 0.000000 0.000000 1.500610 
# 
# From -- ./inp_files/20050.got.cif
#   From: 2010.05.17/outbox.cif.g08.bks.cpg/sg57_11_cif.got.tgz:20050.got - 2010.06.03 13:58:18.
