data_PCOD9438246
_publ_section_title
;
Structure prediction by ZEFSAII (Michael W. Deem and Ramdas Pophale) SiO2 
 PCOD9438246
Probable space group: P B C M
;
_chemical_formula_sum "Si O2"
_cell_formula_units_Z 48
_cell_length_a 14.448261
_cell_length_b 9.524188
_cell_length_c 17.430481
_cell_angle_alpha 90.000000
_cell_angle_beta 90.000000
_cell_angle_gamma 90.000000
_cell_volume 2398.572828
_symmetry_space_group_name_H-M "P B C M"
_symmetry_group_IT_number 57
_symmetry_cell_setting 'orthorhombic'
loop_
_space_group_symop_operation_xyz
x,y,z
-x,-y,1/2+z
x,1/2-y,-z
-x,1/2+y,1/2-z
-x,-y,-z
x,y,1/2-z
-x,1/2+y,z
x,1/2-y,1/2+z
loop_
_atom_site_type_symbol
_atom_site_label
_atom_site_fract_x
_atom_site_fract_y
_atom_site_fract_z
Si Si1 0.337053 0.770931 0.838537
Si Si2 0.715964 0.503859 0.065841
Si Si3 0.575073 0.000725 0.066655
Si Si4 0.095266 0.082617 0.508823
Si Si5 0.363881 0.240608 0.836665
Si Si6 0.193337 0.023499 0.832727
O O1 0.359040 0.734165 0.750000
O O2 0.308520 0.639039 0.890094
O O3 0.417281 0.863817 0.879001
O O4 0.249791 0.877718 0.836543
O O5 0.665454 0.626557 0.113424
O O6 0.670193 0.503561 0.981715
O O7 0.824236 0.533293 0.050791
O O8 0.566706 0.863341 0.119086
O O9 0.500000 0.000000 0.000000
O O10 0.084045 0.250000 0.500000
O O11 0.130893 0.048147 0.594157
O O12 0.000000 0.000000 0.500000
O O13 0.392735 0.275922 0.750000
O O14 0.271804 0.144015 0.831732
O O15 0.144032 0.028611 0.750000
#
# Coordination Sequence:
#
# PCOD9438246 Si02
#       6
#     8   8   8   8   8   8
#     4  10  22  40  65  95 129 172 217 273 334 390
#     4  12  22  40  64  96 131 167 224 279 325 394
#     4  11  23  40  65  94 126 172 221 266 329 397
#     4  12  25  41  65  99 133 177 225 275 338 406
#     4  10  20  40  67  90 126 174 215 269 333 393
#     4   9  19  40  64  87 122 170 214 264 331 388
#
# _framework density 20.011899
#
# number of rings (size 3 to 8) (size 9 to 14) (size 15 to 20)
#    0.000    1.333    5.000    3.000    2.333    2.667 
#    0.000    7.500    0.000    0.000    0.000    0.000 
#    0.000    0.000    0.000    0.000    0.000    0.000 
#
# Total GULP energy -268227.965575 kJ/mol
# GULP energy per Si atom -5588.082616 kJ/mol
# Density = 1.996635 g / cm^3
# Si number density = 20.011899 Si / 1000 Ang^3
#
#
#
# Elastic Constant Matrix: (Units=GPa)
#
#
# Indices 1 2 3 4 5 6 
#
# 1 81.3549 25.3009 32.4821 0.0000 0.0000 0.0000
# 2 25.3009 137.8046 57.9390 0.0000 0.0000 0.0000
# 3 32.4821 57.9390 170.2188 0.0000 0.0000 0.0000
# 4 0.0000 0.0000 0.0000 26.0972 0.0000 0.0000
# 5 0.0000 0.0000 0.0000 0.0000 22.5911 0.0000
# 6 0.0000 0.0000 0.0000 0.0000 0.0000 28.0691
#
#
#
# Elastic Compliance Matrix: (Units=1/GPa)
#
#
# Indices 1 2 3 4 5 6 
#
# 1 0.013617 -0.001643 -0.002039 0.000000 0.000000 0.000000
# 2 -0.001643 0.008667 -0.002637 0.000000 0.000000 0.000000
# 3 -0.002039 -0.002637 0.007161 0.000000 0.000000 0.000000
# 4 0.000000 0.000000 0.000000 0.038318 0.000000 0.000000
# 5 0.000000 0.000000 0.000000 0.000000 0.044265 0.000000
# 6 0.000000 0.000000 0.000000 0.000000 0.000000 0.035626
#
#
# Mechanical properties :
#
#
# Convention : Reuss Voigt Hill
#
# Bulk Modulus (GPa) = 59.49536 68.98025 64.23781
# Shear Modulus (GPa) = 30.13961 33.59522 31.86742
#
# Velocity S-wave (km/s) = 3.88504 4.10172 3.99485
# Velocity P-wave (km/s) = 7.06536 7.54828 7.31081
#
# Compressibility (1/GPa) = 0.01680803
#
# Stress axis : x y z
#
# Youngs Moduli (GPa) = 73.43809 115.38349 139.63801
#
# Poissons Ratio (x) = 0.18953 0.28477
# Poissons Ratio (y) = 0.12063 0.36816
# Poissons Ratio (z) = 0.14977 0.30421
#
# Static dielectric constant tensor:
#      x y z
#    x 1.734700 0.000000 0.000000 
#    y 0.000000 1.704820 0.000000 
#    z 0.000000 0.000000 1.706640 
# 
# From -- ./inp_files/22402.got.cif
#   From: 2010.05.17/outbox.cif.g08.bks.cpg/sg57_12_cif.got.tgz:22402.got - 2010.06.03 13:58:18.
