data_PCOD9438440
_publ_section_title
;
Structure prediction by ZEFSAII (Michael W. Deem and Ramdas Pophale) SiO2 
 PCOD9438440
Probable space group: P B C M
;
_chemical_formula_sum "Si O2"
_cell_formula_units_Z 64
_cell_length_a 7.246408
_cell_length_b 14.190476
_cell_length_c 28.058483
_cell_angle_alpha 90.000000
_cell_angle_beta 90.000000
_cell_angle_gamma 90.000000
_cell_volume 2885.253212
_symmetry_space_group_name_H-M "P B C M"
_symmetry_group_IT_number 57
_symmetry_cell_setting 'orthorhombic'
loop_
_space_group_symop_operation_xyz
x,y,z
-x,-y,1/2+z
x,1/2-y,-z
-x,1/2+y,1/2-z
-x,-y,-z
x,y,1/2-z
-x,1/2+y,z
x,1/2-y,1/2+z
loop_
_atom_site_type_symbol
_atom_site_label
_atom_site_fract_x
_atom_site_fract_y
_atom_site_fract_z
Si Si1 0.378491 0.625942 0.696370
Si Si2 0.212934 0.295476 0.884250
Si Si3 0.825284 0.477786 0.697080
Si Si4 0.696623 0.499223 0.973917
Si Si5 0.607667 0.919322 0.803598
Si Si6 0.047845 0.733611 0.303206
Si Si7 0.018764 0.145349 0.022223
Si Si8 0.696330 0.602401 0.879767
O O1 0.456453 0.633734 0.750000
O O2 0.291231 0.521078 0.693675
O O3 0.237496 0.710750 0.690263
O O4 0.534380 0.626885 0.657119
O O5 0.340858 0.357858 0.849573
O O6 0.096594 0.350061 0.923628
O O7 0.292520 0.201432 0.908316
O O8 0.085529 0.242825 0.845631
O O9 0.861241 0.517489 0.750000
O O10 0.609442 0.444865 0.695728
O O11 0.931473 0.379318 0.693059
O O12 0.847719 0.550288 0.654080
O O13 0.817898 0.404133 0.978720
O O14 0.655945 0.523514 0.919051
O O15 0.500000 0.500000 0.000000
O O16 0.835876 0.579238 0.994225
O O17 0.644048 0.879058 0.750000
O O18 0.983081 0.756524 0.250000
O O19 0.010102 0.250000 0.000000
#
# Coordination Sequence:
#
# PCOD9438440 Si02
#       8
#     8   8   8   8   8   8   8   8
#     4   9  20  38  60  90 132 172 218 275 322 397
#     4  12  24  38  62  91 130 170 208 276 336 406
#     4   9  19  36  58  88 127 167 217 271 313 385
#     4  11  27  49  78 102 130 184 232 286 352 429
#     4   9  19  36  59  89 126 173 217 266 327 388
#     4  10  21  36  56  90 130 173 217 258 327 400
#     4  11  26  52  70 103 146 170 226 300 359 405
#     4  11  22  40  64  96 123 164 227 261 336 404
#
# _framework density 22.181763
#
# number of rings (size 3 to 8) (size 9 to 14) (size 15 to 20)
#    0.000    1.750    1.250    3.000    3.500    6.500 
#    2.250    2.500    0.000    0.000    0.000    0.000 
#    0.000    0.000    0.000    0.000    0.000    0.000 
#
# Total GULP energy -357114.082651 kJ/mol
# GULP energy per Si atom -5579.907541 kJ/mol
# Density = 2.213128 g / cm^3
# Si number density = 22.181763 Si / 1000 Ang^3
#
#
#
# Elastic Constant Matrix: (Units=GPa)
#
#
# Indices 1 2 3 4 5 6 
#
# 1 49.4277 10.1704 -0.8978 0.0000 0.0000 0.0000
# 2 10.1704 107.8032 9.2557 0.0000 0.0000 0.0000
# 3 -0.8978 9.2557 66.0974 0.0000 0.0000 0.0000
# 4 0.0000 0.0000 0.0000 25.8461 0.0000 0.0000
# 5 0.0000 0.0000 0.0000 0.0000 71.1339 0.0000
# 6 0.0000 0.0000 0.0000 0.0000 0.0000 31.1586
#
#
#
# Elastic Compliance Matrix: (Units=1/GPa)
#
#
# Indices 1 2 3 4 5 6 
#
# 1 0.020653 -0.001997 0.000560 0.000000 0.000000 0.000000
# 2 -0.001997 0.009582 -0.001369 0.000000 0.000000 0.000000
# 3 0.000560 -0.001369 0.015328 0.000000 0.000000 0.000000
# 4 0.000000 0.000000 0.000000 0.038691 0.000000 0.000000
# 5 0.000000 0.000000 0.000000 0.000000 0.014058 0.000000
# 6 0.000000 0.000000 0.000000 0.000000 0.000000 0.032094
#
#
# Mechanical properties :
#
#
# Convention : Reuss Voigt Hill
#
# Bulk Modulus (GPa) = 25.02977 28.93169 26.98073
# Shear Modulus (GPa) = 33.48209 39.28106 36.38158
#
# Velocity S-wave (km/s) = 3.88937 4.21274 4.05428
# Velocity P-wave (km/s) = 5.61053 6.06087 5.84004
#
# Compressibility (1/GPa) = 0.03995242
#
# Stress axis : x y z
#
# Youngs Moduli (GPa) = 48.42019 104.36183 65.23805
#
# Poissons Ratio (x) = 0.20836 -0.03654
# Poissons Ratio (y) = 0.09667 0.08930
# Poissons Ratio (z) = -0.02712 0.14286
#
# Static dielectric constant tensor:
#      x y z
#    x 1.874720 0.000000 0.000000 
#    y 0.000000 1.963060 0.000000 
#    z 0.000000 0.000000 1.796560 
# 
# From -- ./inp_files/29660.got.cif
#   From: 2010.05.17/outbox.cif.g08.bks.cpg/sg57_15_cif.got.tgz:29660.got - 2010.06.03 13:58:18.
