data_PCOD9438323
_publ_section_title
;
Structure prediction by ZEFSAII (Michael W. Deem and Ramdas Pophale) SiO2 
 PCOD9438323
Probable space group: P B C M
;
_chemical_formula_sum "Si O2"
_cell_formula_units_Z 64
_cell_length_a 5.913419
_cell_length_b 17.310419
_cell_length_c 23.669235
_cell_angle_alpha 90.000000
_cell_angle_beta 90.000000
_cell_angle_gamma 90.000000
_cell_volume 2422.871905
_symmetry_space_group_name_H-M "P B C M"
_symmetry_group_IT_number 57
_symmetry_cell_setting 'orthorhombic'
loop_
_space_group_symop_operation_xyz
x,y,z
-x,-y,1/2+z
x,1/2-y,-z
-x,1/2+y,1/2-z
-x,-y,-z
x,y,1/2-z
-x,1/2+y,z
x,1/2-y,1/2+z
loop_
_atom_site_type_symbol
_atom_site_label
_atom_site_fract_x
_atom_site_fract_y
_atom_site_fract_z
Si Si1 0.673153 0.009490 0.810546
Si Si2 0.960573 0.855547 0.690508
Si Si3 0.786893 0.698080 0.685367
Si Si4 0.379843 0.423486 0.522960
Si Si5 0.583472 0.795784 0.426754
Si Si6 0.309381 0.566711 0.125064
Si Si7 0.068901 0.964777 0.422273
Si Si8 0.076426 0.792384 0.415441
O O1 0.680221 0.051871 0.750000
O O2 0.849055 0.938722 0.806623
O O3 0.432821 0.968667 0.820452
O O4 0.752018 0.043275 0.870451
O O5 0.078902 0.837113 0.750000
O O6 0.767430 0.791285 0.686236
O O7 0.139468 0.864686 0.641094
O O8 0.779354 0.669510 0.750000
O O9 0.613619 0.669880 0.637425
O O10 0.026748 0.691312 0.651834
O O11 0.500000 0.500000 0.500000
O O12 0.405297 0.357896 0.476804
O O13 0.506333 0.403705 0.581041
O O14 0.143728 0.461695 0.540751
O O15 0.327916 0.763090 0.428673
O O16 0.832511 0.752949 0.432046
O O17 0.170622 0.493866 0.100633
O O18 0.064711 0.877627 0.444499
#
# Coordination Sequence:
#
# PCOD9438323 Si02
#       8
#     8   8   8   8   8   8   8   8
#     4   9  19  34  55  85 120 157 201 255 316 377
#     4   9  18  39  63  88 118 161 215 269 321 386
#     4   9  22  40  64  90 124 168 216 267 325 388
#     4  11  21  36  63  89 122 168 215 258 319 392
#     4  10  23  39  61  93 124 161 214 262 310 379
#     4  10  21  33  59  91 121 158 212 263 319 382
#     4  10  21  35  57  89 124 160 206 256 317 388
#     4  10  22  39  60  92 125 158 209 259 315 378
#
# _framework density 26.414933999999999
#
# number of rings (size 3 to 8) (size 9 to 14) (size 15 to 20)
#    0.750    1.500    1.250    1.125    3.500    3.500 
#    0.000    3.750    0.000   18.000    0.000    0.000 
#    0.000    0.000    0.000    0.000    0.000    0.000 
#
# Total GULP energy -356769.135571 kJ/mol
# GULP energy per Si atom -5574.517743 kJ/mol
# Density = 2.635481 g / cm^3
# Si number density = 26.414934 Si / 1000 Ang^3
#
#
#
# Elastic Constant Matrix: (Units=GPa)
#
#
# Indices 1 2 3 4 5 6 
#
# 1 158.7142 17.3530 33.1242 0.0000 0.0000 0.0000
# 2 17.3530 44.5029 3.3763 0.0000 0.0000 0.0000
# 3 33.1242 3.3763 118.9562 0.0000 0.0000 0.0000
# 4 0.0000 0.0000 0.0000 17.7207 0.0000 0.0000
# 5 0.0000 0.0000 0.0000 0.0000 14.1288 0.0000
# 6 0.0000 0.0000 0.0000 0.0000 0.0000 24.0537
#
#
#
# Elastic Compliance Matrix: (Units=1/GPa)
#
#
# Indices 1 2 3 4 5 6 
#
# 1 0.006972 -0.002577 -0.001868 0.000000 0.000000 0.000000
# 2 -0.002577 0.023471 0.000051 0.000000 0.000000 0.000000
# 3 -0.001868 0.000051 0.008925 0.000000 0.000000 0.000000
# 4 0.000000 0.000000 0.000000 0.056431 0.000000 0.000000
# 5 0.000000 0.000000 0.000000 0.000000 0.070777 0.000000
# 6 0.000000 0.000000 0.000000 0.000000 0.000000 0.041574
#
#
# Mechanical properties :
#
#
# Convention : Reuss Voigt Hill
#
# Bulk Modulus (GPa) = 32.69992 47.76447 40.23219
# Shear Modulus (GPa) = 22.01355 29.06861 25.54108
#
# Velocity S-wave (km/s) = 2.88996 3.32092 3.11290
# Velocity P-wave (km/s) = 4.85201 5.72942 5.30887
#
# Compressibility (1/GPa) = 0.03058111
#
# Stress axis : x y z
#
# Youngs Moduli (GPa) = 143.42431 42.60507 112.04159
#
# Poissons Ratio (x) = 0.10979 0.20933
# Poissons Ratio (y) = 0.36960 -0.00576
# Poissons Ratio (z) = 0.26797 -0.00219
#
# Static dielectric constant tensor:
#      x y z
#    x 2.150370 0.000000 0.000000 
#    y 0.000000 2.155940 0.000000 
#    z 0.000000 0.000000 2.616800 
# 
# From -- ./inp_files/28152.got.cif
#   From: 2010.05.17/outbox.cif.g08.bks.cpg/sg57_15_cif.got.tgz:28152.got - 2010.06.03 13:58:18.
