data_PCOD9438837
_publ_section_title
;
Structure prediction by ZEFSAII (Michael W. Deem and Ramdas Pophale) SiO2 
 PCOD9438837
Probable space group: P B C M
;
_chemical_formula_sum "Si O2"
_cell_formula_units_Z 40
_cell_length_a 12.199219
_cell_length_b 9.654299
_cell_length_c 14.536594
_cell_angle_alpha 90.000000
_cell_angle_beta 90.000000
_cell_angle_gamma 90.000000
_cell_volume 1712.046018
_symmetry_space_group_name_H-M "P B C M"
_symmetry_group_IT_number 57
_symmetry_cell_setting 'orthorhombic'
loop_
_space_group_symop_operation_xyz
x,y,z
-x,-y,1/2+z
x,1/2-y,-z
-x,1/2+y,1/2-z
-x,-y,-z
x,y,1/2-z
-x,1/2+y,z
x,1/2-y,1/2+z
loop_
_atom_site_type_symbol
_atom_site_label
_atom_site_fract_x
_atom_site_fract_y
_atom_site_fract_z
Si Si1 0.820303 0.205606 0.358783
Si Si2 0.174256 0.060455 0.520589
Si Si3 0.584381 0.922922 0.436177
Si Si4 0.068380 0.284479 0.643861
Si Si5 0.583775 0.283842 0.645610
O O1 0.808140 0.159972 0.250000
O O2 0.703948 0.278769 0.380869
O O3 0.942312 0.266661 0.360314
O O4 0.832630 0.091484 0.438328
O O5 0.302153 0.095345 0.510418
O O6 0.137122 0.156842 0.605490
O O7 0.102463 0.097280 0.430671
O O8 0.520430 0.786557 0.402858
O O9 0.500000 0.000000 0.500000
O O10 0.600770 0.049724 0.363174
O O11 0.091615 0.323005 0.750000
O O12 0.565405 0.247241 0.750000
#
# Coordination Sequence:
#
# PCOD9438837 Si02
#       5
#     8   8   8   8   8
#     4   9  19  40  64  94 131 171 216 268 328 392
#     4  10  22  40  62  90 128 172 215 268 338 385
#     4  11  24  43  65  94 134 171 219 271 330 396
#     4  10  21  38  63  92 126 166 220 270 324 397
#     4  10  22  42  69  97 130 173 220 273 332 392
#
# _framework density 23.363858
#
# number of rings (size 3 to 8) (size 9 to 14) (size 15 to 20)
#    0.000    2.000    0.000    2.400    5.600    2.400 
#   18.000    1.000    0.000    0.000    0.000    0.000 
#    0.000    0.000    0.000    0.000    0.000    0.000 
#
# Total GULP energy -222917.637178 kJ/mol
# GULP energy per Si atom -5572.940929 kJ/mol
# Density = 2.331068 g / cm^3
# Si number density = 23.363858 Si / 1000 Ang^3
#
#
#
# Elastic Constant Matrix: (Units=GPa)
#
#
# Indices 1 2 3 4 5 6 
#
# 1 157.5487 8.6784 39.5006 0.0000 0.0000 0.0000
# 2 8.6784 51.6593 8.9040 0.0000 0.0000 0.0000
# 3 39.5006 8.9040 83.7594 0.0000 0.0000 0.0000
# 4 0.0000 0.0000 0.0000 24.5056 0.0000 0.0000
# 5 0.0000 0.0000 0.0000 0.0000 39.0387 0.0000
# 6 0.0000 0.0000 0.0000 0.0000 0.0000 30.5669
#
#
#
# Elastic Compliance Matrix: (Units=1/GPa)
#
#
# Indices 1 2 3 4 5 6 
#
# 1 0.007219 -0.000638 -0.003337 0.000000 0.000000 0.000000
# 2 -0.000638 0.019775 -0.001801 0.000000 0.000000 0.000000
# 3 -0.003337 -0.001801 0.013704 0.000000 0.000000 0.000000
# 4 0.000000 0.000000 0.000000 0.040807 0.000000 0.000000
# 5 0.000000 0.000000 0.000000 0.000000 0.025616 0.000000
# 6 0.000000 0.000000 0.000000 0.000000 0.000000 0.032715
#
#
# Mechanical properties :
#
#
# Convention : Reuss Voigt Hill
#
# Bulk Modulus (GPa) = 34.30924 45.23703 39.77313
# Shear Modulus (GPa) = 31.03605 34.54787 32.79196
#
# Velocity S-wave (km/s) = 3.64865 3.84954 3.75044
# Velocity P-wave (km/s) = 5.69796 6.25801 5.98454
#
# Compressibility (1/GPa) = 0.02914667
#
# Stress axis : x y z
#
# Youngs Moduli (GPa) = 138.52473 50.56831 72.97135
#
# Poissons Ratio (x) = 0.03224 0.24348
# Poissons Ratio (y) = 0.08833 0.13146
# Poissons Ratio (z) = 0.46221 0.09110
#
# Static dielectric constant tensor:
#      x y z
#    x 1.937130 0.000000 0.000000 
#    y 0.000000 2.093200 0.000000 
#    z 0.000000 0.000000 1.903040 
# 
# From -- ./inp_files/17424.got.cif
#   From: 2010.05.17/outbox.cif.g08.bks.cpg/sg57_9_cif.got.tgz:17424.got - 2010.06.03 13:58:18.
