data_PCOD9438458
_publ_section_title
;
Structure prediction by ZEFSAII (Michael W. Deem and Ramdas Pophale) SiO2 
 PCOD9438458
Probable space group: P B C M
;
_chemical_formula_sum "Si O2"
_cell_formula_units_Z 40
_cell_length_a 5.516093
_cell_length_b 21.738587
_cell_length_c 17.371871
_cell_angle_alpha 90.000000
_cell_angle_beta 90.000000
_cell_angle_gamma 90.000000
_cell_volume 2083.096969
_symmetry_space_group_name_H-M "P B C M"
_symmetry_group_IT_number 57
_symmetry_cell_setting 'orthorhombic'
loop_
_space_group_symop_operation_xyz
x,y,z
-x,-y,1/2+z
x,1/2-y,-z
-x,1/2+y,1/2-z
-x,-y,-z
x,y,1/2-z
-x,1/2+y,z
x,1/2-y,1/2+z
loop_
_atom_site_type_symbol
_atom_site_label
_atom_site_fract_x
_atom_site_fract_y
_atom_site_fract_z
Si Si1 0.035102 0.465890 0.337181
Si Si2 0.799999 0.619584 0.955769
Si Si3 0.323068 0.476518 0.566932
Si Si4 0.714402 0.322688 0.508711
Si Si5 0.696654 0.402826 0.660553
O O1 0.982485 0.451087 0.250000
O O2 0.211413 0.416331 0.375154
O O3 0.132455 0.536208 0.341362
O O4 0.798876 0.467337 0.390091
O O5 0.855145 0.566443 0.018704
O O6 0.538659 0.647717 0.977689
O O7 0.036025 0.662316 0.962923
O O8 0.500000 0.500000 0.500000
O O9 0.447290 0.433782 0.630992
O O10 0.680277 0.250000 0.500000
O O11 0.748218 0.350548 0.596038
O O12 0.688386 0.381975 0.750000
#
# Coordination Sequence:
#
# PCOD9438458 Si02
#       5
#     8   8   8   8   8
#     4  11  21  35  57  94 128 157 192 254 328 387
#     4  11  22  39  63  89 120 159 203 259 311 371
#     4  11  19  34  57  90 126 163 198 245 316 390
#     4  11  24  43  64  85 117 168 224 257 295 361
#     4  10  21  36  58  90 124 159 200 259 318 371
#
# _framework density 19.202178
#
# number of rings (size 3 to 8) (size 9 to 14) (size 15 to 20)
#    0.000    1.200    4.000    4.200    0.000    0.000 
#    0.000    2.000    0.000    0.000    0.000    0.000 
#    0.000    0.000    0.000    0.000    0.000    0.000 
#
# Total GULP energy -222873.470782 kJ/mol
# GULP energy per Si atom -5571.836770 kJ/mol
# Density = 1.915847 g / cm^3
# Si number density = 19.202178 Si / 1000 Ang^3
#
#
#
# Elastic Constant Matrix: (Units=GPa)
#
#
# Indices 1 2 3 4 5 6 
#
# 1 84.8411 31.2186 54.5535 0.0000 0.0000 0.0000
# 2 31.2186 98.9169 56.2213 0.0000 0.0000 0.0000
# 3 54.5535 56.2213 134.3284 0.0000 0.0000 0.0000
# 4 0.0000 0.0000 0.0000 18.8000 0.0000 0.0000
# 5 0.0000 0.0000 0.0000 0.0000 19.4544 0.0000
# 6 0.0000 0.0000 0.0000 0.0000 0.0000 31.5483
#
#
#
# Elastic Compliance Matrix: (Units=1/GPa)
#
#
# Indices 1 2 3 4 5 6 
#
# 1 0.016194 -0.001801 -0.005823 0.000000 0.000000 0.000000
# 2 -0.001801 0.013465 -0.004904 0.000000 0.000000 0.000000
# 3 -0.005823 -0.004904 0.011862 0.000000 0.000000 0.000000
# 4 0.000000 0.000000 0.000000 0.053192 0.000000 0.000000
# 5 0.000000 0.000000 0.000000 0.000000 0.051402 0.000000
# 6 0.000000 0.000000 0.000000 0.000000 0.000000 0.031697
#
#
# Mechanical properties :
#
#
# Convention : Reuss Voigt Hill
#
# Bulk Modulus (GPa) = 60.73728 66.89702 63.81715
# Shear Modulus (GPa) = 23.99737 25.70008 24.84873
#
# Velocity S-wave (km/s) = 3.53897 3.66238 3.60120
# Velocity P-wave (km/s) = 6.95688 7.26621 7.11323
#
# Compressibility (1/GPa) = 0.01646435
#
# Stress axis : x y z
#
# Youngs Moduli (GPa) = 61.75294 74.26433 84.30497
#
# Poissons Ratio (x) = 0.13378 0.49087
# Poissons Ratio (y) = 0.11124 0.41345
# Poissons Ratio (z) = 0.35956 0.36421
#
# Static dielectric constant tensor:
#      x y z
#    x 1.770240 0.000000 0.000000 
#    y 0.000000 1.690060 0.000000 
#    z 0.000000 0.000000 1.682240 
# 
# From -- ./inp_files/14936.got.cif
#   From: 2010.05.17/outbox.cif.g08.bks.cpg/sg57_8_cif.got.tgz:14936.got - 2010.06.03 13:58:18.
