data_PCOD9438798
_publ_section_title
;
Structure prediction by ZEFSAII (Michael W. Deem and Ramdas Pophale) SiO2 
 PCOD9438798
Probable space group: P B C M
;
_chemical_formula_sum "Si O2"
_cell_formula_units_Z 64
_cell_length_a 12.248617
_cell_length_b 31.500124
_cell_length_c 8.755019
_cell_angle_alpha 90.000000
_cell_angle_beta 90.000000
_cell_angle_gamma 90.000000
_cell_volume 3377.974846
_symmetry_space_group_name_H-M "P B C M"
_symmetry_group_IT_number 57
_symmetry_cell_setting 'orthorhombic'
loop_
_space_group_symop_operation_xyz
x,y,z
-x,-y,1/2+z
x,1/2-y,-z
-x,1/2+y,1/2-z
-x,-y,-z
x,y,1/2-z
-x,1/2+y,z
x,1/2-y,1/2+z
loop_
_atom_site_type_symbol
_atom_site_label
_atom_site_fract_x
_atom_site_fract_y
_atom_site_fract_z
Si Si1 0.013420 0.794463 0.067850
Si Si2 0.023699 0.953914 0.433210
Si Si3 0.527492 0.045915 0.933144
Si Si4 0.512082 0.294680 0.933556
Si Si5 0.126731 0.375864 0.064027
Si Si6 0.243632 0.818099 0.929884
Si Si7 0.621028 0.625955 0.934734
Si Si8 0.247843 0.580180 0.430004
O O1 0.007272 0.792829 0.250000
O O2 0.942261 0.834746 0.013501
O O3 0.973735 0.750000 0.000000
O O4 0.138924 0.801188 0.018743
O O5 0.021842 0.955707 0.250000
O O6 0.141012 0.938112 0.489770
O O7 0.934826 0.918782 0.484162
O O8 0.000000 0.000000 0.500000
O O9 0.530253 0.043574 0.750000
O O10 0.439024 0.081991 0.976672
O O11 0.643619 0.061310 0.996042
O O12 0.500000 0.000000 0.000000
O O13 0.508487 0.294388 0.750000
O O14 0.639082 0.300568 0.981046
O O15 0.471754 0.250000 0.000000
O O16 0.443500 0.334394 0.995105
O O17 0.125738 0.375632 0.250000
O O18 0.252617 0.374287 0.016182
O O19 0.229556 0.808106 0.750000
O O20 0.248185 0.868951 0.946538
O O21 0.617420 0.629536 0.750000
O O22 0.245429 0.570091 0.250000
#
# Coordination Sequence:
#
# PCOD9438798 Si02
#       8
#     8   8   8   8   8   8   8   8
#     4  11  22  38  61  88 120 157 199 248 301 364
#     4  11  23  41  64  94 126 163 207 253 308 368
#     4  11  24  40  64  94 126 164 208 256 310 372
#     4  11  23  40  61  90 122 158 200 251 305 364
#     4   9  21  41  62  85 120 160 201 248 302 360
#     4  10  21  38  61  90 123 157 199 250 305 358
#     4  10  22  42  64  87 119 162 205 251 305 361
#     4  11  22  40  65  92 127 163 203 258 309 362
#
# _framework density 18.946262000000001
#
# number of rings (size 3 to 8) (size 9 to 14) (size 15 to 20)
#    0.000    1.500    2.500    2.250    1.750    3.500 
#    0.000    3.750    0.000    0.000    0.000    0.000 
#    0.000    0.000    0.000    0.000    0.000    0.000 
#
# Total GULP energy -357751.168561 kJ/mol
# GULP energy per Si atom -5589.862009 kJ/mol
# Density = 1.890314 g / cm^3
# Si number density = 18.946262 Si / 1000 Ang^3
#
#
#
# Elastic Constant Matrix: (Units=GPa)
#
#
# Indices 1 2 3 4 5 6 
#
# 1 151.9790 86.2837 37.6887 0.0000 0.0000 0.0000
# 2 86.2837 172.0107 55.0343 0.0000 0.0000 0.0000
# 3 37.6887 55.0343 50.9841 0.0000 0.0000 0.0000
# 4 0.0000 0.0000 0.0000 34.0448 0.0000 0.0000
# 5 0.0000 0.0000 0.0000 0.0000 16.4124 0.0000
# 6 0.0000 0.0000 0.0000 0.0000 0.0000 69.4981
#
#
#
# Elastic Compliance Matrix: (Units=1/GPa)
#
#
# Indices 1 2 3 4 5 6 
#
# 1 0.009465 -0.003833 -0.002859 0.000000 0.000000 0.000000
# 2 -0.003833 0.010433 -0.008428 0.000000 0.000000 0.000000
# 3 -0.002859 -0.008428 0.030825 0.000000 0.000000 0.000000
# 4 0.000000 0.000000 0.000000 0.029373 0.000000 0.000000
# 5 0.000000 0.000000 0.000000 0.000000 0.060929 0.000000
# 6 0.000000 0.000000 0.000000 0.000000 0.000000 0.014389
#
#
# Mechanical properties :
#
#
# Convention : Reuss Voigt Hill
#
# Bulk Modulus (GPa) = 48.82270 81.44303 65.13286
# Shear Modulus (GPa) = 25.97630 37.05553 31.51592
#
# Velocity S-wave (km/s) = 3.70679 4.42727 4.08295
# Velocity P-wave (km/s) = 6.64420 8.31949 7.52859
#
# Compressibility (1/GPa) = 0.02048228
#
# Stress axis : x y z
#
# Youngs Moduli (GPa) = 105.65172 95.85069 32.44081
#
# Poissons Ratio (x) = 0.36740 0.09276
# Poissons Ratio (y) = 0.40497 0.27342
# Poissons Ratio (z) = 0.30209 0.80785
#
# Static dielectric constant tensor:
#      x y z
#    x 1.628250 0.000000 0.000000 
#    y 0.000000 1.641190 0.000000 
#    z 0.000000 0.000000 1.643260 
# 
# From -- ./inp_files/3819.got.cif
#   From: 2010.05.17/outbox.cif.g08.bks.cpg/sg57_2_cif.got.tgz:3819.got - 2010.06.03 13:58:18.
