data_PCOD9438802
_publ_section_title
;
Structure prediction by ZEFSAII (Michael W. Deem and Ramdas Pophale) SiO2 
 PCOD9438802
Probable space group: P B C M
;
_chemical_formula_sum "Si O2"
_cell_formula_units_Z 40
_cell_length_a 10.124878
_cell_length_b 9.140918
_cell_length_c 21.218277
_cell_angle_alpha 90.000000
_cell_angle_beta 90.000000
_cell_angle_gamma 90.000000
_cell_volume 1963.765955
_symmetry_space_group_name_H-M "P B C M"
_symmetry_group_IT_number 57
_symmetry_cell_setting 'orthorhombic'
loop_
_space_group_symop_operation_xyz
x,y,z
-x,-y,1/2+z
x,1/2-y,-z
-x,1/2+y,1/2-z
-x,-y,-z
x,y,1/2-z
-x,1/2+y,z
x,1/2-y,1/2+z
loop_
_atom_site_type_symbol
_atom_site_label
_atom_site_fract_x
_atom_site_fract_y
_atom_site_fract_z
Si Si1 0.625410 0.256977 0.574592
Si Si2 0.892818 0.843876 0.446116
Si Si3 0.025305 0.092485 0.135795
Si Si4 0.814882 0.326798 0.319105
Si Si5 0.604892 0.563569 0.550936
O O1 0.667488 0.250000 0.500000
O O2 0.717076 0.167194 0.621267
O O3 0.629171 0.425315 0.595409
O O4 0.476104 0.198463 0.578007
O O5 0.966003 0.750000 0.500000
O O6 0.881455 0.720958 0.391672
O O7 0.749762 0.892286 0.471400
O O8 0.966759 0.985203 0.418930
O O9 0.909266 0.186592 0.168078
O O10 0.100366 0.975667 0.178454
O O11 0.752620 0.312415 0.250000
O O12 0.500000 0.500000 0.500000
#
# Coordination Sequence:
#
# PCOD9438802 Si02
#       5
#     8   8   8   8   8
#     4  10  22  38  64  91 122 159 209 257 306 367
#     4  11  21  37  61  95 127 160 204 263 313 367
#     4  10  24  38  61  89 123 165 211 254 313 376
#     4  11  23  43  64  88 126 167 209 258 314 372
#     4  10  21  38  61  91 124 168 201 248 314 374
#
# _framework density 20.369025000000001
#
# number of rings (size 3 to 8) (size 9 to 14) (size 15 to 20)
#    0.000    1.600    2.000    3.000    8.400    3.200 
#    0.000    1.000    0.000    0.000    0.000    0.000 
#    0.000    0.000    0.000    0.000    0.000    0.000 
#
# Total GULP energy -222831.043378 kJ/mol
# GULP energy per Si atom -5570.776084 kJ/mol
# Density = 2.032266 g / cm^3
# Si number density = 20.369025 Si / 1000 Ang^3
#
#
#
# Elastic Constant Matrix: (Units=GPa)
#
#
# Indices 1 2 3 4 5 6 
#
# 1 52.5067 -0.1688 17.7490 0.0000 0.0000 0.0000
# 2 -0.1688 113.6602 1.7625 0.0000 0.0000 0.0000
# 3 17.7490 1.7625 81.2866 0.0000 0.0000 0.0000
# 4 0.0000 0.0000 0.0000 10.7331 0.0000 0.0000
# 5 0.0000 0.0000 0.0000 0.0000 0.6339 0.0000
# 6 0.0000 0.0000 0.0000 0.0000 0.0000 33.1239
#
#
#
# Elastic Compliance Matrix: (Units=1/GPa)
#
#
# Indices 1 2 3 4 5 6 
#
# 1 0.020564 0.000100 -0.004492 0.000000 0.000000 0.000000
# 2 0.000100 0.008802 -0.000213 0.000000 0.000000 0.000000
# 3 -0.004492 -0.000213 0.013288 0.000000 0.000000 0.000000
# 4 0.000000 0.000000 0.000000 0.093170 0.000000 0.000000
# 5 0.000000 0.000000 0.000000 0.000000 1.577529 0.000000
# 6 0.000000 0.000000 0.000000 0.000000 0.000000 0.030190
#
#
# Mechanical properties :
#
#
# Convention : Reuss Voigt Hill
#
# Bulk Modulus (GPa) = 29.90108 31.79320 30.84714
# Shear Modulus (GPa) = 2.83463 24.10555 13.47009
#
# Velocity S-wave (km/s) = 1.18096 3.44385 2.57437
# Velocity P-wave (km/s) = 4.07076 5.60856 4.90036
#
# Compressibility (1/GPa) = 0.03344361
#
# Stress axis : x y z
#
# Youngs Moduli (GPa) = 48.62843 113.61570 75.25767
#
# Poissons Ratio (x) = -0.01138 0.33809
# Poissons Ratio (y) = -0.00487 0.01601
# Poissons Ratio (z) = 0.21846 0.02417
#
# Static dielectric constant tensor:
#      x y z
#    x 1.746050 0.000000 0.000000 
#    y 0.000000 1.796960 0.000000 
#    z 0.000000 0.000000 1.810920 
# 
# From -- ./inp_files/24859.got.cif
#   From: 2010.05.17/outbox.cif.g08.bks.cpg/sg57_13_cif.got.tgz:24859.got - 2010.06.03 13:58:18.
