data_PCOD9438058
_publ_section_title
;
Structure prediction by ZEFSAII (Michael W. Deem and Ramdas Pophale) SiO2 
 PCOD9438058
Probable space group: P B C M
;
_chemical_formula_sum "Si O2"
_cell_formula_units_Z 40
_cell_length_a 8.638325
_cell_length_b 7.845596
_cell_length_c 25.931888
_cell_angle_alpha 90.000000
_cell_angle_beta 90.000000
_cell_angle_gamma 90.000000
_cell_volume 1757.476868
_symmetry_space_group_name_H-M "P B C M"
_symmetry_group_IT_number 57
_symmetry_cell_setting 'orthorhombic'
loop_
_space_group_symop_operation_xyz
x,y,z
-x,-y,1/2+z
x,1/2-y,-z
-x,1/2+y,1/2-z
-x,-y,-z
x,y,1/2-z
-x,1/2+y,z
x,1/2-y,1/2+z
loop_
_atom_site_type_symbol
_atom_site_label
_atom_site_fract_x
_atom_site_fract_y
_atom_site_fract_z
Si Si1 0.294081 0.367462 0.427556
Si Si2 0.771208 0.039969 0.693589
Si Si3 0.643591 0.028591 0.917771
Si Si4 0.074427 0.225335 0.846823
Si Si5 0.107946 0.683460 0.051611
O O1 0.467491 0.436119 0.432256
O O2 0.212168 0.387879 0.371043
O O3 0.186384 0.501015 0.457716
O O4 0.309914 0.163136 0.435124
O O5 0.709432 0.084023 0.750000
O O6 0.657761 0.044940 0.644641
O O7 0.924875 0.147218 0.679711
O O8 0.840643 0.851027 0.691386
O O9 0.758565 0.175684 0.937649
O O10 0.003978 0.316307 0.898678
O O11 0.027905 0.750000 0.000000
#
# Coordination Sequence:
#
# PCOD9438058 Si02
#       5
#     8   8   8   8   8
#     4  11  21  43  64  87 131 164 207 261 314 370
#     4  10  20  38  63  91 121 161 209 257 322 381
#     4  10  23  41  63  89 128 170 206 265 316 373
#     4  10  21  40  63  91 126 163 206 270 311 369
#     4  11  24  42  64  94 127 171 218 257 320 378
#
# _framework density 22.759900999999999
#
# number of rings (size 3 to 8) (size 9 to 14) (size 15 to 20)
#    0.000    1.600    4.000    0.600    0.000    2.400 
#    0.000    5.000    0.000    0.000    0.000    0.000 
#    0.000    0.000    0.000    0.000    0.000    0.000 
#
# Total GULP energy -223242.402310 kJ/mol
# GULP energy per Si atom -5581.060058 kJ/mol
# Density = 2.270810 g / cm^3
# Si number density = 22.759901 Si / 1000 Ang^3
#
#
#
# Elastic Constant Matrix: (Units=GPa)
#
#
# Indices 1 2 3 4 5 6 
#
# 1 83.0882 39.3920 4.3948 0.0000 0.0000 0.0000
# 2 39.3920 117.7439 34.5445 0.0000 0.0000 0.0000
# 3 4.3948 34.5445 109.3180 0.0000 0.0000 0.0000
# 4 0.0000 0.0000 0.0000 16.7691 0.0000 0.0000
# 5 0.0000 0.0000 0.0000 0.0000 4.8018 0.0000
# 6 0.0000 0.0000 0.0000 0.0000 0.0000 25.6586
#
#
#
# Elastic Compliance Matrix: (Units=1/GPa)
#
#
# Indices 1 2 3 4 5 6 
#
# 1 0.014411 -0.005127 0.001041 0.000000 0.000000 0.000000
# 2 -0.005127 0.011185 -0.003328 0.000000 0.000000 0.000000
# 3 0.001041 -0.003328 0.010158 0.000000 0.000000 0.000000
# 4 0.000000 0.000000 0.000000 0.059634 0.000000 0.000000
# 5 0.000000 0.000000 0.000000 0.000000 0.208254 0.000000
# 6 0.000000 0.000000 0.000000 0.000000 0.000000 0.038973
#
#
# Mechanical properties :
#
#
# Convention : Reuss Voigt Hill
#
# Bulk Modulus (GPa) = 47.79049 51.86809 49.82929
# Shear Modulus (GPa) = 13.72053 24.90047 19.31050
#
# Velocity S-wave (km/s) = 2.45794 3.31123 2.91597
# Velocity P-wave (km/s) = 5.39431 6.12027 5.76872
#
# Compressibility (1/GPa) = 0.02092466
#
# Stress axis : x y z
#
# Youngs Moduli (GPa) = 69.39214 89.40871 98.44927
#
# Poissons Ratio (x) = 0.45836 -0.10245
# Poissons Ratio (y) = 0.35574 0.32766
# Poissons Ratio (z) = -0.07221 0.29757
#
# Static dielectric constant tensor:
#      x y z
#    x 1.798250 0.000000 0.000000 
#    y 0.000000 1.915730 0.000000 
#    z 0.000000 0.000000 1.874130 
# 
# From -- ./inp_files/26516.got.cif
#   From: 2010.05.17/outbox.cif.g08.bks.cpg/sg57_14_cif.got.tgz:26516.got - 2010.06.03 13:58:18.
