data_PCOD9438004
_publ_section_title
;
Structure prediction by ZEFSAII (Michael W. Deem and Ramdas Pophale) SiO2 
 PCOD9438004
Probable space group: P B C M
;
_chemical_formula_sum "Si O2"
_cell_formula_units_Z 40
_cell_length_a 26.042198
_cell_length_b 9.369908
_cell_length_c 8.581447
_cell_angle_alpha 90.000000
_cell_angle_beta 90.000000
_cell_angle_gamma 90.000000
_cell_volume 2093.984621
_symmetry_space_group_name_H-M "P B C M"
_symmetry_group_IT_number 57
_symmetry_cell_setting 'orthorhombic'
loop_
_space_group_symop_operation_xyz
x,y,z
-x,-y,1/2+z
x,1/2-y,-z
-x,1/2+y,1/2-z
-x,-y,-z
x,y,1/2-z
-x,1/2+y,z
x,1/2-y,1/2+z
loop_
_atom_site_type_symbol
_atom_site_label
_atom_site_fract_x
_atom_site_fract_y
_atom_site_fract_z
Si Si1 0.048408 0.588753 0.936641
Si Si2 0.144507 0.410373 0.436300
Si Si3 0.452366 0.090719 0.437274
Si Si4 0.237910 0.590380 0.562193
Si Si5 0.355445 0.907511 0.437475
O O1 0.047340 0.591280 0.750000
O O2 0.046959 0.750000 0.000000
O O3 0.099430 0.508911 0.994964
O O4 0.000000 0.500000 0.000000
O O5 0.139366 0.250000 0.500000
O O6 0.141173 0.409262 0.250000
O O7 0.198060 0.479566 0.490631
O O8 0.455719 0.250000 0.500000
O O9 0.453761 0.091285 0.250000
O O10 0.500000 0.000000 0.500000
O O11 0.398973 0.017355 0.489123
O O12 0.226625 0.750000 0.500000
O O13 0.233871 0.589726 0.750000
O O14 0.296918 0.556711 0.516586
O O15 0.367434 0.750000 0.500000
O O16 0.356287 0.902082 0.250000
#
# Coordination Sequence:
#
# PCOD9438004 Si02
#       5
#     8   8   8   8   8
#     4  12  25  44  67  94 125 161 201 246 296 352
#     4  12  25  42  62  89 122 160 201 247 297 351
#     4  11  23  39  58  84 115 152 193 240 292 350
#     4  10  20  38  61  88 119 156 197 242 292 349
#     4   9  20  37  59  85 116 151 193 239 291 348
#
# _framework density 19.102339000000001
#
# number of rings (size 3 to 8) (size 9 to 14) (size 15 to 20)
#    0.000    1.200    0.000    6.600    0.000    4.800 
#    0.000    2.000    0.000    0.000    0.000    0.000 
#    0.000    0.000    0.000    0.000    0.000    0.000 
#
# Total GULP energy -223765.758139 kJ/mol
# GULP energy per Si atom -5594.143953 kJ/mol
# Density = 1.905886 g / cm^3
# Si number density = 19.102339 Si / 1000 Ang^3
#
#
#
# Elastic Constant Matrix: (Units=GPa)
#
#
# Indices 1 2 3 4 5 6 
#
# 1 138.6092 121.4123 58.3905 0.0000 0.0000 0.0000
# 2 121.4123 195.4836 70.1493 0.0000 0.0000 0.0000
# 3 58.3905 70.1493 132.5852 0.0000 0.0000 0.0000
# 4 0.0000 0.0000 0.0000 40.0430 0.0000 0.0000
# 5 0.0000 0.0000 0.0000 0.0000 31.1890 0.0000
# 6 0.0000 0.0000 0.0000 0.0000 0.0000 44.3446
#
#
#
# Elastic Compliance Matrix: (Units=1/GPa)
#
#
# Indices 1 2 3 4 5 6 
#
# 1 0.016352 -0.009346 -0.002256 0.000000 0.000000 0.000000
# 2 -0.009346 0.011656 -0.002051 0.000000 0.000000 0.000000
# 3 -0.002256 -0.002051 0.009621 0.000000 0.000000 0.000000
# 4 0.000000 0.000000 0.000000 0.024973 0.000000 0.000000
# 5 0.000000 0.000000 0.000000 0.000000 0.032063 0.000000
# 6 0.000000 0.000000 0.000000 0.000000 0.000000 0.022551
#
#
# Mechanical properties :
#
#
# Convention : Reuss Voigt Hill
#
# Bulk Modulus (GPa) = 96.88106 107.39802 102.13954
# Shear Modulus (GPa) = 33.79216 37.56371 35.67794
#
# Velocity S-wave (km/s) = 4.21052 4.43927 4.32641
# Velocity P-wave (km/s) = 8.62931 9.08959 8.86244
#
# Compressibility (1/GPa) = 0.01032194
#
# Stress axis : x y z
#
# Youngs Moduli (GPa) = 61.15643 85.79060 103.93622
#
# Poissons Ratio (x) = 0.80180 0.23451
# Poissons Ratio (y) = 0.57157 0.21320
# Poissons Ratio (z) = 0.13799 0.17598
#
# Static dielectric constant tensor:
#      x y z
#    x 1.663410 0.000000 0.000000 
#    y 0.000000 1.614360 0.000000 
#    z 0.000000 0.000000 1.643500 
# 
# From -- ./inp_files/8862.got.cif
#   From: 2010.05.17/outbox.cif.g08.bks.cpg/sg57_5_cif.got.tgz:8862.got - 2010.06.03 13:58:18.
