data_PCOD9438035
_publ_section_title
;
Structure prediction by ZEFSAII (Michael W. Deem and Ramdas Pophale) SiO2 
 PCOD9438035
Probable space group: P B C M
;
_chemical_formula_sum "Si O2"
_cell_formula_units_Z 48
_cell_length_a 19.296709
_cell_length_b 15.498994
_cell_length_c 8.594235
_cell_angle_alpha 90.000000
_cell_angle_beta 90.000000
_cell_angle_gamma 90.000000
_cell_volume 2570.360169
_symmetry_space_group_name_H-M "P B C M"
_symmetry_group_IT_number 57
_symmetry_cell_setting 'orthorhombic'
loop_
_space_group_symop_operation_xyz
x,y,z
-x,-y,1/2+z
x,1/2-y,-z
-x,1/2+y,1/2-z
-x,-y,-z
x,y,1/2-z
-x,1/2+y,z
x,1/2-y,1/2+z
loop_
_atom_site_type_symbol
_atom_site_label
_atom_site_fract_x
_atom_site_fract_y
_atom_site_fract_z
Si Si1 0.922236 0.997217 0.435916
Si Si2 0.167574 0.845041 0.437389
Si Si3 0.422268 0.495286 0.562427
Si Si4 0.327987 0.843892 0.436983
Si Si5 0.173467 0.346141 0.563673
Si Si6 0.325484 0.345917 0.436210
O O1 0.922850 0.993488 0.250000
O O2 0.882043 0.914318 0.502829
O O3 0.880929 0.081758 0.492270
O O4 0.000000 0.000000 0.500000
O O5 0.149306 0.750000 0.500000
O O6 0.163071 0.846509 0.250000
O O7 0.248059 0.861289 0.483119
O O8 0.500000 0.500000 0.500000
O O9 0.422350 0.491612 0.750000
O O10 0.378863 0.580016 0.512634
O O11 0.382370 0.412621 0.495855
O O12 0.347909 0.750000 0.500000
O O13 0.329251 0.840543 0.250000
O O14 0.159402 0.250000 0.500000
O O15 0.174536 0.344781 0.750000
O O16 0.249846 0.371375 0.502022
O O17 0.339716 0.250000 0.500000
O O18 0.322858 0.344130 0.250000
#
# Coordination Sequence:
#
# PCOD9438035 Si02
#       6
#     8   8   8   8   8   8
#     4  12  25  41  60  87 120 158 198 241 293 351
#     4  10  20  38  62  89 117 151 193 242 293 348
#     4  11  23  39  57  84 120 159 198 243 296 353
#     4   9  20  37  60  85 113 147 189 237 287 339
#     4  11  22  40  64  91 120 154 195 244 295 351
#     4  11  22  39  63  90 117 153 197 245 296 352
#
# _framework density 18.674426
#
# number of rings (size 3 to 8) (size 9 to 14) (size 15 to 20)
#    0.000    1.333    0.000    7.500    0.000    4.667 
#    0.000    5.000    0.000    0.000    0.000    0.000 
#    0.000    0.000    0.000    0.000    0.000    0.000 
#
# Total GULP energy -268463.707240 kJ/mol
# GULP energy per Si atom -5592.993901 kJ/mol
# Density = 1.863192 g / cm^3
# Si number density = 18.674426 Si / 1000 Ang^3
#
#
#
# Elastic Constant Matrix: (Units=GPa)
#
#
# Indices 1 2 3 4 5 6 
#
# 1 167.0846 127.4723 73.2601 0.0000 0.0000 0.0000
# 2 127.4723 131.8581 65.3008 0.0000 0.0000 0.0000
# 3 73.2601 65.3008 151.2134 0.0000 0.0000 0.0000
# 4 0.0000 0.0000 0.0000 37.5615 0.0000 0.0000
# 5 0.0000 0.0000 0.0000 0.0000 34.2872 0.0000
# 6 0.0000 0.0000 0.0000 0.0000 0.0000 -28.3811
#
#
#
# Elastic Compliance Matrix: (Units=1/GPa)
#
#
# Indices 1 2 3 4 5 6 
#
# 1 0.023262 -0.021506 -0.001983 0.000000 0.000000 0.000000
# 2 -0.021506 0.029530 -0.002333 0.000000 0.000000 0.000000
# 3 -0.001983 -0.002333 0.008581 0.000000 0.000000 0.000000
# 4 0.000000 0.000000 0.000000 0.026623 0.000000 0.000000
# 5 0.000000 0.000000 0.000000 0.000000 0.029165 0.000000
# 6 0.000000 0.000000 0.000000 0.000000 0.000000 -0.035235
#
#
# Mechanical properties :
#
#
# Convention : Reuss Voigt Hill
#
# Bulk Modulus (GPa) = 102.78059 109.13583 105.95821
# Shear Modulus (GPa) = 36.54590 20.96837 28.75714
#
# Velocity S-wave (km/s) = 4.42860 3.35451 3.92844
# Velocity P-wave (km/s) = 9.01708 8.57741 8.79999
#
# Compressibility (1/GPa) = 0.00972946
#
# Stress axis : x y z
#
# Youngs Moduli (GPa) = 42.98884 33.86350 116.53344
#
# Poissons Ratio (x) = 0.72828 0.23103
# Poissons Ratio (y) = 0.92453 0.27189
# Poissons Ratio (z) = 0.08523 0.07901
#
# Static dielectric constant tensor:
#      x y z
#    x 1.617690 0.000000 0.000000 
#    y 0.000000 1.621670 0.000000 
#    z 0.000000 0.000000 1.625760 
# 
# From -- ./inp_files/6471.got.cif
#   From: 2010.05.17/outbox.cif.g08.bks.cpg/sg57_4_cif.got.tgz:6471.got - 2010.06.03 13:58:18.
