data_PCOD9438552
_publ_section_title
;
Structure prediction by ZEFSAII (Michael W. Deem and Ramdas Pophale) SiO2 
 PCOD9438552
Probable space group: P B C M
;
_chemical_formula_sum "Si O2"
_cell_formula_units_Z 48
_cell_length_a 30.946950
_cell_length_b 9.639617
_cell_length_c 8.654259
_cell_angle_alpha 90.000000
_cell_angle_beta 90.000000
_cell_angle_gamma 90.000000
_cell_volume 2581.710378
_symmetry_space_group_name_H-M "P B C M"
_symmetry_group_IT_number 57
_symmetry_cell_setting 'orthorhombic'
loop_
_space_group_symop_operation_xyz
x,y,z
-x,-y,1/2+z
x,1/2-y,-z
-x,1/2+y,1/2-z
-x,-y,-z
x,y,1/2-z
-x,1/2+y,z
x,1/2-y,1/2+z
loop_
_atom_site_type_symbol
_atom_site_label
_atom_site_fract_x
_atom_site_fract_y
_atom_site_fract_z
Si Si1 0.135409 0.095082 0.564837
Si Si2 0.386403 0.097162 0.935313
Si Si3 0.461031 0.906114 0.435442
Si Si4 0.709413 0.600470 0.064178
Si Si5 0.962571 0.903980 0.065223
Si Si6 0.788995 0.095664 0.934725
O O1 0.142498 0.250000 0.500000
O O2 0.138332 0.099940 0.750000
O O3 0.086349 0.051735 0.521934
O O4 0.170786 0.991051 0.499541
O O5 0.389335 0.098300 0.750000
O O6 0.398633 0.250000 0.000000
O O7 0.337167 0.072214 0.988959
O O8 0.417599 0.981493 0.006067
O O9 0.464009 0.750000 0.500000
O O10 0.462444 0.903302 0.250000
O O11 0.500000 0.000000 0.500000
O O12 0.704659 0.608587 0.250000
O O13 0.744972 0.485945 0.024684
O O14 0.724031 0.750000 0.000000
O O15 0.964962 0.901230 0.250000
O O16 0.968354 0.750000 0.000000
O O17 0.000000 0.000000 0.000000
O O18 0.791953 0.099771 0.750000
O O19 0.788649 0.250000 0.000000
#
# Coordination Sequence:
#
# PCOD9438552 Si02
#       6
#     8   8   8   8   8   8
#     4  10  21  38  60  84 112 147 190 234 282 339
#     4  11  22  39  63  91 121 157 197 241 290 343
#     4  12  25  43  64  90 122 158 199 244 293 347
#     4  10  21  38  60  87 116 152 195 239 287 344
#     4  10  21  37  58  84 113 148 187 232 282 338
#     4  11  24  39  58  84 116 152 192 238 290 341
#
# _framework density 18.592326
#
# number of rings (size 3 to 8) (size 9 to 14) (size 15 to 20)
#    0.000    1.333    0.000    7.000    0.000    7.333 
#    0.000    1.667    0.000    0.000    0.000    0.000 
#    0.000    0.000    0.000    0.000    0.000    0.000 
#
# Total GULP energy -268419.663544 kJ/mol
# GULP energy per Si atom -5592.076324 kJ/mol
# Density = 1.855001 g / cm^3
# Si number density = 18.592326 Si / 1000 Ang^3
#
#
#
# Elastic Constant Matrix: (Units=GPa)
#
#
# Indices 1 2 3 4 5 6 
#
# 1 123.3040 118.7441 68.8602 0.0000 0.0000 0.0000
# 2 118.7441 167.9055 76.2079 0.0000 0.0000 0.0000
# 3 68.8602 76.2079 126.9663 0.0000 0.0000 0.0000
# 4 0.0000 0.0000 0.0000 38.2051 0.0000 0.0000
# 5 0.0000 0.0000 0.0000 0.0000 32.7075 0.0000
# 6 0.0000 0.0000 0.0000 0.0000 0.0000 38.0052
#
#
#
# Elastic Compliance Matrix: (Units=1/GPa)
#
#
# Indices 1 2 3 4 5 6 
#
# 1 0.027098 -0.017172 -0.004390 0.000000 0.000000 0.000000
# 2 -0.017172 0.019067 -0.002131 0.000000 0.000000 0.000000
# 3 -0.004390 -0.002131 0.011536 0.000000 0.000000 0.000000
# 4 0.000000 0.000000 0.000000 0.026175 0.000000 0.000000
# 5 0.000000 0.000000 0.000000 0.000000 0.030574 0.000000
# 6 0.000000 0.000000 0.000000 0.000000 0.000000 0.026312
#
#
# Mechanical properties :
#
#
# Convention : Reuss Voigt Hill
#
# Bulk Modulus (GPa) = 96.94040 105.08889 101.01465
# Shear Modulus (GPa) = 26.09787 32.07448 29.08617
#
# Velocity S-wave (km/s) = 3.75065 4.15799 3.95956
# Velocity P-wave (km/s) = 8.42673 8.92734 8.68064
#
# Compressibility (1/GPa) = 0.01031562
#
# Stress axis : x y z
#
# Youngs Moduli (GPa) = 36.90286 52.44672 86.68277
#
# Poissons Ratio (x) = 0.90059 0.38053
# Poissons Ratio (y) = 0.63368 0.18476
# Poissons Ratio (z) = 0.16200 0.11179
#
# Static dielectric constant tensor:
#      x y z
#    x 1.640080 0.000000 0.000000 
#    y 0.000000 1.599970 0.000000 
#    z 0.000000 0.000000 1.621580 
# 
# From -- ./inp_files/9917.got.cif
#   From: 2010.05.17/outbox.cif.g08.bks.cpg/sg57_5_cif.got.tgz:9917.got - 2010.06.03 13:58:18.
