data_PCOD9438627
_publ_section_title
;
Structure prediction by ZEFSAII (Michael W. Deem and Ramdas Pophale) SiO2 
 PCOD9438627
Probable space group: P B C M
;
_chemical_formula_sum "Si O2"
_cell_formula_units_Z 56
_cell_length_a 5.472873
_cell_length_b 32.197837
_cell_length_c 14.518803
_cell_angle_alpha 90.000000
_cell_angle_beta 90.000000
_cell_angle_gamma 90.000000
_cell_volume 2558.426120
_symmetry_space_group_name_H-M "P B C M"
_symmetry_group_IT_number 57
_symmetry_cell_setting 'orthorhombic'
loop_
_space_group_symop_operation_xyz
x,y,z
-x,-y,1/2+z
x,1/2-y,-z
-x,1/2+y,1/2-z
-x,-y,-z
x,y,1/2-z
-x,1/2+y,z
x,1/2-y,1/2+z
loop_
_atom_site_type_symbol
_atom_site_label
_atom_site_fract_x
_atom_site_fract_y
_atom_site_fract_z
Si Si1 0.829007 0.298538 0.498637
Si Si2 0.060268 0.350365 0.351191
Si Si3 0.367372 0.014811 0.093227
Si Si4 0.450982 0.370913 0.993613
Si Si5 0.334622 0.577203 0.649160
Si Si6 0.126807 0.941948 0.643591
Si Si7 0.063579 0.355231 0.858080
O O1 0.783753 0.250000 0.500000
O O2 0.915053 0.312447 0.397048
O O3 0.605381 0.329200 0.515861
O O4 0.010870 0.314916 0.579344
O O5 0.150148 0.340027 0.250000
O O6 0.894806 0.391715 0.346512
O O7 0.260702 0.359802 0.425832
O O8 0.102313 0.038084 0.086254
O O9 0.600718 0.038941 0.137610
O O10 0.298615 0.971863 0.144796
O O11 0.500000 0.000000 0.000000
O O12 0.566651 0.410006 0.047270
O O13 0.308862 0.375877 0.898448
O O14 0.465342 0.584982 0.750000
O O15 0.044753 0.946022 0.750000
O O16 0.131412 0.892375 0.623407
O O17 0.072451 0.346439 0.750000
#
# Coordination Sequence:
#
# PCOD9438627 Si02
#       7
#     8   8   8   8   8   8   8
#     4  10  23  42  64  92 126 160 204 265 330 399
#     4   9  20  38  63  90 126 164 205 257 322 395
#     4  12  26  40  65  98 137 180 235 288 338 393
#     4  10  21  38  65  92 128 161 216 263 331 391
#     4  10  21  37  60  93 131 175 216 266 331 390
#     4  11  25  44  64  93 134 182 231 283 334 395
#     4  10  24  43  67  91 126 174 218 266 330 395
#
# _framework density 21.888458
#
# number of rings (size 3 to 8) (size 9 to 14) (size 15 to 20)
#    0.000    1.714    0.000    3.000   10.000    4.000 
#    0.000    0.000    0.000    0.000    0.000    0.000 
#    0.000    0.000    0.000    0.000    0.000    0.000 
#
# Total GULP energy -311868.759941 kJ/mol
# GULP energy per Si atom -5569.084999 kJ/mol
# Density = 2.183864 g / cm^3
# Si number density = 21.888458 Si / 1000 Ang^3
#
#
#
# Elastic Constant Matrix: (Units=GPa)
#
#
# Indices 1 2 3 4 5 6 
#
# 1 102.5955 37.2012 30.6903 0.0000 0.0000 0.0000
# 2 37.2012 159.3178 31.1105 0.0000 0.0000 0.0000
# 3 30.6903 31.1105 128.1942 0.0000 0.0000 0.0000
# 4 0.0000 0.0000 0.0000 -33.9872 0.0000 0.0000
# 5 0.0000 0.0000 0.0000 0.0000 25.8385 0.0000
# 6 0.0000 0.0000 0.0000 0.0000 0.0000 -28.6181
#
#
#
# Elastic Compliance Matrix: (Units=1/GPa)
#
#
# Indices 1 2 3 4 5 6 
#
# 1 0.011184 -0.002193 -0.002145 0.000000 0.000000 0.000000
# 2 -0.002193 0.007019 -0.001178 0.000000 0.000000 0.000000
# 3 -0.002145 -0.001178 0.008600 0.000000 0.000000 0.000000
# 4 0.000000 0.000000 0.000000 -0.029423 0.000000 0.000000
# 5 0.000000 0.000000 0.000000 0.000000 0.038702 0.000000
# 6 0.000000 0.000000 0.000000 0.000000 0.000000 -0.034943
#
#
# Mechanical properties :
#
#
# Convention : Reuss Voigt Hill
#
# Bulk Modulus (GPa) = 63.41064 65.34573 64.37819
# Shear Modulus (GPa) = 286.88529 12.05365 149.46947
#
# Velocity S-wave (km/s) = 11.46087 2.34921 8.27255
# Velocity P-wave (km/s) = 14.28874 6.10550 10.98739
#
# Compressibility (1/GPa) = 0.01577022
#
# Stress axis : x y z
#
# Youngs Moduli (GPa) = 89.41508 142.47361 116.27545
#
# Poissons Ratio (x) = 0.31238 0.24945
# Poissons Ratio (y) = 0.19604 0.13702
# Poissons Ratio (z) = 0.19183 0.16790
#
# Static dielectric constant tensor:
#      x y z
#    x 1.931940 0.000000 0.000000 
#    y 0.000000 1.813740 0.000000 
#    z 0.000000 0.000000 1.902940 
# 
# From -- ./inp_files/15256.got.cif
#   From: 2010.05.17/outbox.cif.g08.bks.cpg/sg57_8_cif.got.tgz:15256.got - 2010.06.03 13:58:18.
