data_PCOD9438057
_publ_section_title
;
Structure prediction by ZEFSAII (Michael W. Deem and Ramdas Pophale) SiO2 
 PCOD9438057
Probable space group: P B C M
;
_chemical_formula_sum "Si O2"
_cell_formula_units_Z 64
_cell_length_a 12.687963
_cell_length_b 14.610114
_cell_length_c 17.661659
_cell_angle_alpha 90.000000
_cell_angle_beta 90.000000
_cell_angle_gamma 90.000000
_cell_volume 3273.987399
_symmetry_space_group_name_H-M "P B C M"
_symmetry_group_IT_number 57
_symmetry_cell_setting 'orthorhombic'
loop_
_space_group_symop_operation_xyz
x,y,z
-x,-y,1/2+z
x,1/2-y,-z
-x,1/2+y,1/2-z
-x,-y,-z
x,y,1/2-z
-x,1/2+y,z
x,1/2-y,1/2+z
loop_
_atom_site_type_symbol
_atom_site_label
_atom_site_fract_x
_atom_site_fract_y
_atom_site_fract_z
Si Si1 0.262626 0.041825 0.569986
Si Si2 0.885087 0.311106 0.340758
Si Si3 0.490861 0.844327 0.660316
Si Si4 0.275439 0.960546 0.098910
Si Si5 0.738080 0.355218 0.841118
Si Si6 0.506120 0.961003 0.414192
Si Si7 0.279211 0.337967 0.660998
Si Si8 0.107859 0.211507 0.582182
O O1 0.263682 0.998554 0.486192
O O2 0.245190 0.955535 0.624924
O O3 0.378746 0.083824 0.588744
O O4 0.175259 0.118958 0.575199
O O5 0.881208 0.321532 0.250000
O O6 0.815086 0.390900 0.377840
O O7 0.829316 0.215161 0.361277
O O8 0.004015 0.308110 0.369574
O O9 0.493793 0.827665 0.750000
O O10 0.375695 0.815640 0.631519
O O11 0.603816 0.811165 0.629800
O O12 0.489403 0.952597 0.642306
O O13 0.393251 0.916248 0.103421
O O14 0.271088 0.052618 0.149332
O O15 0.732932 0.361947 0.750000
O O16 0.500000 0.000000 0.500000
O O17 0.274723 0.316933 0.750000
O O18 0.185603 0.285904 0.619667
O O19 0.077528 0.250000 0.500000
#
# Coordination Sequence:
#
# PCOD9438057 Si02
#       8
#     8   8   8   8   8   8   8   8
#     4  10  21  39  64  91 123 158 195 242 302 364
#     4  11  26  43  61  86 119 158 210 257 293 347
#     4   8  15  31  58  88 118 152 190 235 294 359
#     4  10  20  38  65  92 122 156 195 243 304 362
#     4   9  20  39  61  89 124 158 194 244 298 353
#     4   8  16  32  57  91 124 149 186 236 294 364
#     4  10  20  38  63  90 121 157 196 245 302 357
#     4  12  26  42  59  84 121 160 209 255 298 353
#
# _framework density 19.548027999999999
#
# number of rings (size 3 to 8) (size 9 to 14) (size 15 to 20)
#    0.000    2.250    1.250    0.750    1.750    4.000 
#    0.000    1.250    0.000    0.000    0.000    0.000 
#    0.000    0.000    0.000    0.000    0.000    0.000 
#
# Total GULP energy -356805.154377 kJ/mol
# GULP energy per Si atom -5575.080537 kJ/mol
# Density = 1.950354 g / cm^3
# Si number density = 19.548028 Si / 1000 Ang^3
#
#
#
# Elastic Constant Matrix: (Units=GPa)
#
#
# Indices 1 2 3 4 5 6 
#
# 1 151.4075 44.7324 21.9325 0.0000 0.0000 0.0000
# 2 44.7324 71.4593 13.9898 0.0000 0.0000 0.0000
# 3 21.9325 13.9898 32.6183 0.0000 0.0000 0.0000
# 4 0.0000 0.0000 0.0000 19.9560 0.0000 0.0000
# 5 0.0000 0.0000 0.0000 0.0000 85.2862 0.0000
# 6 0.0000 0.0000 0.0000 0.0000 0.0000 27.4541
#
#
#
# Elastic Compliance Matrix: (Units=1/GPa)
#
#
# Indices 1 2 3 4 5 6 
#
# 1 0.008504 -0.004589 -0.003750 0.000000 0.000000 0.000000
# 2 -0.004589 0.017753 -0.004529 0.000000 0.000000 0.000000
# 3 -0.003750 -0.004529 0.035121 0.000000 0.000000 0.000000
# 4 0.000000 0.000000 0.000000 0.050110 0.000000 0.000000
# 5 0.000000 0.000000 0.000000 0.000000 0.011725 0.000000
# 6 0.000000 0.000000 0.000000 0.000000 0.000000 0.036424
#
#
# Mechanical properties :
#
#
# Convention : Reuss Voigt Hill
#
# Bulk Modulus (GPa) = 28.05562 46.31051 37.18306
# Shear Modulus (GPa) = 25.34805 38.19461 31.77133
#
# Velocity S-wave (km/s) = 3.60489 4.42507 4.03587
# Velocity P-wave (km/s) = 5.63119 7.06048 6.38595
#
# Compressibility (1/GPa) = 0.03564349
#
# Stress axis : x y z
#
# Youngs Moduli (GPa) = 117.59623 56.32771 28.47288
#
# Poissons Ratio (x) = 0.25849 0.10676
# Poissons Ratio (y) = 0.53966 0.12894
# Poissons Ratio (z) = 0.44094 0.25508
#
# Static dielectric constant tensor:
#      x y z
#    x 1.716140 0.000000 0.000000 
#    y 0.000000 1.658220 0.000000 
#    z 0.000000 0.000000 1.683440 
# 
# From -- ./inp_files/21992.got.cif
#   From: 2010.05.17/outbox.cif.g08.bks.cpg/sg57_11_cif.got.tgz:21992.got - 2010.06.03 13:58:18.
