data_PCOD9438224
_publ_section_title
;
Structure prediction by ZEFSAII (Michael W. Deem and Ramdas Pophale) SiO2 
 PCOD9438224
Probable space group: P B C M
;
_chemical_formula_sum "Si O2"
_cell_formula_units_Z 36
_cell_length_a 11.672397
_cell_length_b 14.007720
_cell_length_c 12.211804
_cell_angle_alpha 90.000000
_cell_angle_beta 90.000000
_cell_angle_gamma 90.000000
_cell_volume 1996.674758
_symmetry_space_group_name_H-M "P B C M"
_symmetry_group_IT_number 57
_symmetry_cell_setting 'orthorhombic'
loop_
_space_group_symop_operation_xyz
x,y,z
-x,-y,1/2+z
x,1/2-y,-z
-x,1/2+y,1/2-z
-x,-y,-z
x,y,1/2-z
-x,1/2+y,z
x,1/2-y,1/2+z
loop_
_atom_site_type_symbol
_atom_site_label
_atom_site_fract_x
_atom_site_fract_y
_atom_site_fract_z
Si Si1 0.123329 0.147953 0.250000
Si Si2 0.898355 0.022486 0.918274
Si Si3 0.646863 0.481112 0.382418
Si Si4 0.011560 0.341679 0.250000
Si Si5 0.434998 0.356313 0.456714
Si Si6 0.728830 0.672483 0.750000
O O1 0.114914 0.076474 0.350854
O O2 0.023323 0.227648 0.250000
O O3 0.235966 0.214906 0.250000
O O4 0.766169 0.045497 0.942486
O O5 0.946037 0.112155 0.850710
O O6 0.000000 0.000000 0.000000
O O7 0.663765 0.489084 0.250000
O O8 0.549107 0.403538 0.406818
O O9 0.605328 0.577931 0.441746
O O10 0.144884 0.375402 0.250000
O O11 0.453983 0.250000 0.500000
O O12 0.340967 0.352917 0.359162
#
# Coordination Sequence:
#
# PCOD9438224 Si02
#       6
#     4   8   8   4   8   4
#     4   9  21  37  60  93 111 169 200 255 313 358
#     4  11  21  40  62  87 130 160 204 260 315 374
#     4  11  23  43  65  93 131 171 207 266 327 376
#     4   9  21  35  58  93 114 159 206 245 311 366
#     4  11  24  39  67  97 122 171 217 262 319 382
#     4  10  20  40  64  96 127 154 226 262 306 390
#
# _framework density 18.029978
#
# number of rings (size 3 to 8) (size 9 to 14) (size 15 to 20)
#    0.667    0.889    3.333    2.667    1.556    0.889 
#    4.000    0.000    0.000    0.000    0.000    0.000 
#    0.000    0.000    0.000    0.000    0.000    0.000 
#
# Total GULP energy -200456.844530 kJ/mol
# GULP energy per Si atom -5568.245681 kJ/mol
# Density = 1.798894 g / cm^3
# Si number density = 18.029978 Si / 1000 Ang^3
#
#
#
# Elastic Constant Matrix: (Units=GPa)
#
#
# Indices 1 2 3 4 5 6 
#
# 1 145.9938 44.4437 31.4452 0.0000 0.0000 0.0000
# 2 44.4437 82.8993 1.3131 0.0000 0.0000 0.0000
# 3 31.4452 1.3131 55.0441 0.0000 0.0000 0.0000
# 4 0.0000 0.0000 0.0000 53.8892 0.0000 0.0000
# 5 0.0000 0.0000 0.0000 0.0000 34.9586 0.0000
# 6 0.0000 0.0000 0.0000 0.0000 0.0000 37.1216
#
#
#
# Elastic Compliance Matrix: (Units=1/GPa)
#
#
# Indices 1 2 3 4 5 6 
#
# 1 0.009525 -0.005022 -0.005321 0.000000 0.000000 0.000000
# 2 -0.005022 0.014715 0.002518 0.000000 0.000000 0.000000
# 3 -0.005321 0.002518 0.021147 0.000000 0.000000 0.000000
# 4 0.000000 0.000000 0.000000 0.018557 0.000000 0.000000
# 5 0.000000 0.000000 0.000000 0.000000 0.028605 0.000000
# 6 0.000000 0.000000 0.000000 0.000000 0.000000 0.026938
#
#
# Mechanical properties :
#
#
# Convention : Reuss Voigt Hill
#
# Bulk Modulus (GPa) = 33.62913 48.70460 41.16686
# Shear Modulus (GPa) = 34.47083 38.97623 36.72353
#
# Velocity S-wave (km/s) = 4.37723 4.65450 4.51799
# Velocity P-wave (km/s) = 6.65125 7.48048 7.07802
#
# Compressibility (1/GPa) = 0.02973613
#
# Stress axis : x y z
#
# Youngs Moduli (GPa) = 104.99183 67.95644 47.28781
#
# Poissons Ratio (x) = 0.34128 0.25163
# Poissons Ratio (y) = 0.52727 -0.11907
# Poissons Ratio (z) = 0.55870 -0.17111
#
# Static dielectric constant tensor:
#      x y z
#    x 1.637030 0.000000 0.000000 
#    y 0.000000 1.587190 0.000000 
#    z 0.000000 0.000000 1.631890 
# 
# From -- ./inp_files/12673.got.cif
#   From: 2010.05.17/outbox.cif.g08.bks.cpg/sg57_7_cif.got.tgz:12673.got - 2010.06.03 13:58:18.
