data_PCOD9438753
_publ_section_title
;
Structure prediction by ZEFSAII (Michael W. Deem and Ramdas Pophale) SiO2 
 PCOD9438753
Probable space group: P B C M
;
_chemical_formula_sum "Si O2"
_cell_formula_units_Z 20
_cell_length_a 4.720756
_cell_length_b 26.748740
_cell_length_c 5.275153
_cell_angle_alpha 90.000000
_cell_angle_beta 90.000000
_cell_angle_gamma 90.000000
_cell_volume 666.116120
_symmetry_space_group_name_H-M "P B C M"
_symmetry_group_IT_number 57
_symmetry_cell_setting 'orthorhombic'
loop_
_space_group_symop_operation_xyz
x,y,z
-x,-y,1/2+z
x,1/2-y,-z
-x,1/2+y,1/2-z
-x,-y,-z
x,y,1/2-z
-x,1/2+y,z
x,1/2-y,1/2+z
loop_
_atom_site_type_symbol
_atom_site_label
_atom_site_fract_x
_atom_site_fract_y
_atom_site_fract_z
Si Si1 0.235394 0.263050 0.250000
Si Si2 0.417901 0.062265 0.250000
Si Si3 0.012368 0.859295 0.250000
Si Si4 0.214035 0.961135 0.250000
Si Si5 0.378705 0.665660 0.250000
O O1 0.068007 0.250000 0.500000
O O2 0.482331 0.221181 0.250000
O O3 0.259459 0.322624 0.250000
O O4 0.601495 0.050489 0.500295
O O5 0.378143 0.121969 0.250000
O O6 0.166649 0.020963 0.250000
O O7 0.969653 0.919009 0.250000
O O8 0.191693 0.845293 0.500705
#
# Coordination Sequence:
#
# PCOD9438753 Si02
#       5
#     4   4   4   4   4
#     4  12  26  40  58  84 118 156 202 242 282 346
#     4   8  14  27  51  82 111 141 180 228 288 351
#     4  10  21  38  60  86 118 154 191 238 293 345
#     4   8  14  27  51  82 111 141 180 228 288 351
#     4  10  21  38  60  86 118 154 191 238 293 345
#
# _framework density 30.024795999999998
#
# number of rings (size 3 to 8) (size 9 to 14) (size 15 to 20)
#    0.000    2.400    0.000    2.400    0.000    4.800 
#    0.000    0.000    0.000    2.400    0.000    0.000 
#    0.000    3.200    0.000    0.000    0.000    0.000 
#
# Total GULP energy -112081.112557 kJ/mol
# GULP energy per Si atom -5604.055628 kJ/mol
# Density = 2.995646 g / cm^3
# Si number density = 30.024796 Si / 1000 Ang^3
#
#
#
# Elastic Constant Matrix: (Units=GPa)
#
#
# Indices 1 2 3 4 5 6 
#
# 1 126.0985 98.7212 51.6474 0.0000 0.0000 0.0000
# 2 98.7212 237.6514 63.2675 0.0000 0.0000 0.0000
# 3 51.6474 63.2675 264.3931 0.0000 0.0000 0.0000
# 4 0.0000 0.0000 0.0000 57.6695 0.0000 0.0000
# 5 0.0000 0.0000 0.0000 0.0000 15.2635 0.0000
# 6 0.0000 0.0000 0.0000 0.0000 0.0000 61.1966
#
#
#
# Elastic Compliance Matrix: (Units=1/GPa)
#
#
# Indices 1 2 3 4 5 6 
#
# 1 0.012123 -0.004705 -0.001242 0.000000 0.000000 0.000000
# 2 -0.004705 0.006320 -0.000593 0.000000 0.000000 0.000000
# 3 -0.001242 -0.000593 0.004167 0.000000 0.000000 0.000000
# 4 0.000000 0.000000 0.000000 0.017340 0.000000 0.000000
# 5 0.000000 0.000000 0.000000 0.000000 0.065516 0.000000
# 6 0.000000 0.000000 0.000000 0.000000 0.000000 0.016341
#
#
# Mechanical properties :
#
#
# Convention : Reuss Voigt Hill
#
# Bulk Modulus (GPa) = 104.94636 117.26836 111.10736
# Shear Modulus (GPa) = 36.21514 54.45971 45.33742
#
# Velocity S-wave (km/s) = 3.47677 4.26352 3.89009
# Velocity P-wave (km/s) = 7.15167 7.96108 7.56720
#
# Compressibility (1/GPa) = 0.00952868
#
# Stress axis : x y z
#
# Youngs Moduli (GPa) = 82.49012 158.22009 239.98828
#
# Poissons Ratio (x) = 0.74444 0.29811
# Poissons Ratio (y) = 0.38812 0.14238
# Poissons Ratio (z) = 0.10247 0.09387
#
# Static dielectric constant tensor:
#      x y z
#    x 2.206760 0.000000 0.000000 
#    y 0.000000 2.384920 0.000000 
#    z 0.000000 0.000000 2.403320 
# 
# From -- ./inp_files/54.got.cif
#   From: 2010.05.17/outbox.cif.g08.bks.cpg/sg57_1_cif.got.tgz:54.got - 2010.06.03 13:58:18.
