data_PCOD9438195
_publ_section_title
;
Structure prediction by ZEFSAII (Michael W. Deem and Ramdas Pophale) SiO2 
 PCOD9438195
Probable space group: P B C M
;
_chemical_formula_sum "Si O2"
_cell_formula_units_Z 40
_cell_length_a 24.154605
_cell_length_b 9.231754
_cell_length_c 9.026889
_cell_angle_alpha 90.000000
_cell_angle_beta 90.000000
_cell_angle_gamma 90.000000
_cell_volume 2012.900303
_symmetry_space_group_name_H-M "P B C M"
_symmetry_group_IT_number 57
_symmetry_cell_setting 'orthorhombic'
loop_
_space_group_symop_operation_xyz
x,y,z
-x,-y,1/2+z
x,1/2-y,-z
-x,1/2+y,1/2-z
-x,-y,-z
x,y,1/2-z
-x,1/2+y,z
x,1/2-y,1/2+z
loop_
_atom_site_type_symbol
_atom_site_label
_atom_site_fract_x
_atom_site_fract_y
_atom_site_fract_z
Si Si1 0.237061 0.398064 0.582157
Si Si2 0.132255 0.915916 0.027981
Si Si3 0.927516 0.995764 0.250000
Si Si4 0.448965 0.910373 0.069163
Si Si5 0.960988 0.330179 0.250000
Si Si6 0.651478 0.588749 0.929522
O O1 0.220752 0.250000 0.500000
O O2 0.256894 0.367310 0.750000
O O3 0.184441 0.501823 0.592170
O O4 0.287476 0.459688 0.484040
O O5 0.074893 0.894986 0.116233
O O6 0.149872 0.750000 0.000000
O O7 0.112896 0.006856 0.888021
O O8 0.955082 0.156859 0.250000
O O9 0.976246 0.880459 0.250000
O O10 0.450462 0.908702 0.250000
O O11 0.451629 0.750000 0.000000
O O12 0.500000 0.000000 0.000000
O O13 0.394000 0.987680 0.006344
O O14 0.646596 0.590153 0.750000
O O15 0.644835 0.750000 0.000000
#
# Coordination Sequence:
#
# PCOD9438195 Si02
#       6
#     8   8   4   8   4   8
#     4  11  23  40  62  90 123 159 207 257 310 370
#     4  10  22  39  59  84 118 156 198 247 308 368
#     4  10  22  34  62  80 120 146 199 238 311 364
#     4  12  25  44  68  99 136 176 222 268 320 375
#     4  10  20  40  54  88 110 156 189 252 297 374
#     4  11  23  42  66  95 130 169 214 263 320 376
#
# _framework density 19.871825000000001
#
# number of rings (size 3 to 8) (size 9 to 14) (size 15 to 20)
#    0.000    1.200    1.000    6.600    2.800    2.400 
#    0.000    2.000    0.000    0.000    0.000    0.000 
#    0.000    0.000    0.000    0.000    0.000    0.000 
#
# Total GULP energy -223251.256332 kJ/mol
# GULP energy per Si atom -5581.281408 kJ/mol
# Density = 1.982660 g / cm^3
# Si number density = 19.871825 Si / 1000 Ang^3
#
#
#
# Elastic Constant Matrix: (Units=GPa)
#
#
# Indices 1 2 3 4 5 6 
#
# 1 118.7388 64.2888 47.0401 0.0000 0.0000 0.0000
# 2 64.2888 65.1545 37.1997 0.0000 0.0000 0.0000
# 3 47.0401 37.1997 183.6281 0.0000 0.0000 0.0000
# 4 0.0000 0.0000 0.0000 29.6757 0.0000 0.0000
# 5 0.0000 0.0000 0.0000 0.0000 35.1377 0.0000
# 6 0.0000 0.0000 0.0000 0.0000 0.0000 24.0782
#
#
#
# Elastic Compliance Matrix: (Units=1/GPa)
#
#
# Indices 1 2 3 4 5 6 
#
# 1 0.018299 -0.017391 -0.001165 0.000000 0.000000 0.000000
# 2 -0.017391 0.033884 -0.002409 0.000000 0.000000 0.000000
# 3 -0.001165 -0.002409 0.006232 0.000000 0.000000 0.000000
# 4 0.000000 0.000000 0.000000 0.033698 0.000000 0.000000
# 5 0.000000 0.000000 0.000000 0.000000 0.028459 0.000000
# 6 0.000000 0.000000 0.000000 0.000000 0.000000 0.041531
#
#
# Mechanical properties :
#
#
# Convention : Reuss Voigt Hill
#
# Bulk Modulus (GPa) = 60.65991 73.84207 67.25099
# Shear Modulus (GPa) = 23.86301 32.37783 28.12042
#
# Velocity S-wave (km/s) = 3.46908 4.04088 3.76585
# Velocity P-wave (km/s) = 6.82919 7.68189 7.26806
#
# Compressibility (1/GPa) = 0.01648535
#
# Stress axis : x y z
#
# Youngs Moduli (GPa) = 54.64644 29.51253 160.45781
#
# Poissons Ratio (x) = 0.51326 0.18687
# Poissons Ratio (y) = 0.95038 0.38656
# Poissons Ratio (z) = 0.06364 0.07110
#
# Static dielectric constant tensor:
#      x y z
#    x 1.666900 0.000000 0.000000 
#    y 0.000000 1.450210 0.000000 
#    z 0.000000 0.000000 1.842540 
# 
# From -- ./inp_files/8972.got.cif
#   From: 2010.05.17/outbox.cif.g08.bks.cpg/sg57_5_cif.got.tgz:8972.got - 2010.06.03 13:58:18.
