data_PCOD9438484
_publ_section_title
;
Structure prediction by ZEFSAII (Michael W. Deem and Ramdas Pophale) SiO2 
 PCOD9438484
Probable space group: P B C M
;
_chemical_formula_sum "Si O2"
_cell_formula_units_Z 64
_cell_length_a 20.106841
_cell_length_b 20.529429
_cell_length_c 8.815799
_cell_angle_alpha 90.000000
_cell_angle_beta 90.000000
_cell_angle_gamma 90.000000
_cell_volume 3639.002832
_symmetry_space_group_name_H-M "P B C M"
_symmetry_group_IT_number 57
_symmetry_cell_setting 'orthorhombic'
loop_
_space_group_symop_operation_xyz
x,y,z
-x,-y,1/2+z
x,1/2-y,-z
-x,1/2+y,1/2-z
-x,-y,-z
x,y,1/2-z
-x,1/2+y,z
x,1/2-y,1/2+z
loop_
_atom_site_type_symbol
_atom_site_label
_atom_site_fract_x
_atom_site_fract_y
_atom_site_fract_z
Si Si1 0.313912 0.043732 0.432802
Si Si2 0.798601 0.040635 0.433516
Si Si3 0.056496 0.683349 0.075636
Si Si4 0.781467 0.183402 0.422498
Si Si5 0.435793 0.962718 0.933466
Si Si6 0.628390 0.817833 0.567928
Si Si7 0.945480 0.452392 0.430400
Si Si8 0.527228 0.318218 0.932091
O O1 0.313009 0.039866 0.250000
O O2 0.331429 0.117904 0.476915
O O3 0.246123 0.016953 0.502773
O O4 0.371962 0.998199 0.498778
O O5 0.799878 0.041703 0.250000
O O6 0.768086 0.111008 0.485733
O O7 0.873203 0.035325 0.495944
O O8 0.035123 0.676796 0.250000
O O9 0.137535 0.685595 0.077684
O O10 0.033193 0.750000 0.000000
O O11 0.036604 0.621256 0.977882
O O12 0.758146 0.250000 0.500000
O O13 0.757453 0.184680 0.250000
O O14 0.436694 0.966881 0.750000
O O15 0.438056 0.886027 0.975440
O O16 0.500000 0.000000 0.000000
O O17 0.653191 0.750000 0.500000
O O18 0.629473 0.813749 0.750000
O O19 0.550705 0.825358 0.522266
O O20 0.941753 0.458924 0.250000
O O21 0.000000 0.500000 0.500000
O O22 0.529717 0.313280 0.750000
O O23 0.552388 0.250000 0.000000
#
# Coordination Sequence:
#
# PCOD9438484 Si02
#       8
#     8   8   8   8   8   8   8   8
#     4  11  22  37  55  80 110 141 179 223 271 325
#     4  10  21  37  54  79 110 143 182 224 271 327
#     4   9  16  28  47  75 107 139 176 220 263 314
#     4   8  15  27  46  70  99 131 170 213 252 300
#     4  11  21  35  54  78 107 139 176 220 268 318
#     4   9  18  33  52  77 105 133 174 223 266 317
#     4  11  21  35  56  82 111 146 183 227 278 329
#     4   9  18  33  51  75 105 137 176 223 267 316
#
# _framework density 17.587236000000001
#
# number of rings (size 3 to 8) (size 9 to 14) (size 15 to 20)
#    0.000    2.250    1.250    3.375    0.000    5.500 
#    0.000    0.625    0.000    0.750    0.000    3.500 
#    0.000    0.000    0.000    0.000    0.000    0.000 
#
# Total GULP energy -356964.865769 kJ/mol
# GULP energy per Si atom -5577.576028 kJ/mol
# Density = 1.754721 g / cm^3
# Si number density = 17.587236 Si / 1000 Ang^3
#
#
#
# Elastic Constant Matrix: (Units=GPa)
#
#
# Indices 1 2 3 4 5 6 
#
# 1 53.3700 55.7896 26.4813 0.0000 0.0000 0.0000
# 2 55.7896 178.2529 52.9790 0.0000 0.0000 0.0000
# 3 26.4813 52.9790 73.5963 0.0000 0.0000 0.0000
# 4 0.0000 0.0000 0.0000 33.6349 0.0000 0.0000
# 5 0.0000 0.0000 0.0000 0.0000 22.3056 0.0000
# 6 0.0000 0.0000 0.0000 0.0000 0.0000 20.5787
#
#
#
# Elastic Compliance Matrix: (Units=1/GPa)
#
#
# Indices 1 2 3 4 5 6 
#
# 1 0.029227 -0.007661 -0.005002 0.000000 0.000000 0.000000
# 2 -0.007661 0.009145 -0.003827 0.000000 0.000000 0.000000
# 3 -0.005002 -0.003827 0.018142 0.000000 0.000000 0.000000
# 4 0.000000 0.000000 0.000000 0.029731 0.000000 0.000000
# 5 0.000000 0.000000 0.000000 0.000000 0.044832 0.000000
# 6 0.000000 0.000000 0.000000 0.000000 0.000000 0.048594
#
#
# Mechanical properties :
#
#
# Convention : Reuss Voigt Hill
#
# Bulk Modulus (GPa) = 42.48860 63.96876 53.22868
# Shear Modulus (GPa) = 22.67630 26.63513 24.65572
#
# Velocity S-wave (km/s) = 3.59466 3.89583 3.74827
# Velocity P-wave (km/s) = 6.43739 7.52913 7.00456
#
# Compressibility (1/GPa) = 0.02353572
#
# Stress axis : x y z
#
# Youngs Moduli (GPa) = 34.21477 109.34889 55.12096
#
# Poissons Ratio (x) = 0.83772 0.27570
# Poissons Ratio (y) = 0.26212 0.21093
# Poissons Ratio (z) = 0.17113 0.41843
#
# Static dielectric constant tensor:
#      x y z
#    x 1.603100 0.000000 0.000000 
#    y 0.000000 1.615650 0.000000 
#    z 0.000000 0.000000 1.591220 
# 
# From -- ./inp_files/8535.got.cif
#   From: 2010.05.17/outbox.cif.g08.bks.cpg/sg57_5_cif.got.tgz:8535.got - 2010.06.03 13:58:18.
