data_PCOD9438269
_publ_section_title
;
Structure prediction by ZEFSAII (Michael W. Deem and Ramdas Pophale) SiO2 
 PCOD9438269
Probable space group: P B C M
;
_chemical_formula_sum "Si O2"
_cell_formula_units_Z 56
_cell_length_a 5.509468
_cell_length_b 14.177054
_cell_length_c 30.861754
_cell_angle_alpha 90.000000
_cell_angle_beta 90.000000
_cell_angle_gamma 90.000000
_cell_volume 2410.550664
_symmetry_space_group_name_H-M "P B C M"
_symmetry_group_IT_number 57
_symmetry_cell_setting 'orthorhombic'
loop_
_space_group_symop_operation_xyz
x,y,z
-x,-y,1/2+z
x,1/2-y,-z
-x,1/2+y,1/2-z
-x,-y,-z
x,y,1/2-z
-x,1/2+y,z
x,1/2-y,1/2+z
loop_
_atom_site_type_symbol
_atom_site_label
_atom_site_fract_x
_atom_site_fract_y
_atom_site_fract_z
Si Si1 0.923136 0.421680 0.250000
Si Si2 0.289609 0.985075 0.963131
Si Si3 0.392233 0.300433 0.342673
Si Si4 0.953614 0.688240 0.462589
Si Si5 0.729515 0.475047 0.341193
Si Si6 0.453012 0.363349 0.606911
Si Si7 0.004336 0.358790 0.411386
Si Si8 0.581603 0.808341 0.250000
O O1 0.882085 0.471174 0.296759
O O2 0.698730 0.345137 0.250000
O O3 0.197788 0.384212 0.250000
O O4 0.095046 0.905160 0.978288
O O5 0.376372 0.932047 0.919577
O O6 0.180527 0.081433 0.943461
O O7 0.500000 0.000000 0.000000
O O8 0.506495 0.402935 0.335077
O O9 0.554139 0.232308 0.372366
O O10 0.152423 0.313969 0.371004
O O11 0.371798 0.256782 0.295196
O O12 0.829264 0.750000 0.500000
O O13 0.756537 0.658003 0.427770
O O14 0.107250 0.772813 0.439560
O O15 0.652442 0.579279 0.352856
O O16 0.842471 0.434758 0.386215
#
# Coordination Sequence:
#
# PCOD9438269 Si02
#       8
#     4   8   8   8   8   8   8   4
#     4  10  22  37  72 105 139 185 238 287 356 430
#     4  12  26  42  68  98 134 177 233 290 351 424
#     4  10  22  40  67  94 139 179 229 285 347 422
#     4  11  26  42  63  96 131 174 229 287 347 418
#     4  11  21  41  68  96 136 180 222 289 344 422
#     4  11  24  42  66  99 131 178 235 277 356 418
#     4  11  22  41  67  92 131 180 224 283 351 411
#     4  10  20  41  64 107 139 191 236 289 360 428
#
# _framework density 23.231204000000002
#
# number of rings (size 3 to 8) (size 9 to 14) (size 15 to 20)
#    0.000    1.143    4.286    1.714    2.000    4.571 
#    0.000    0.000    0.000    1.714    0.000    0.000 
#    0.000    0.000    0.000    0.000    0.000    0.000 
#
# Total GULP energy -312141.443338 kJ/mol
# GULP energy per Si atom -5573.954345 kJ/mol
# Density = 2.317833 g / cm^3
# Si number density = 23.231204 Si / 1000 Ang^3
#
#
#
# Elastic Constant Matrix: (Units=GPa)
#
#
# Indices 1 2 3 4 5 6 
#
# 1 25.9445 -1.6719 9.8982 0.0000 0.0000 0.0000
# 2 -1.6719 83.7720 35.5327 0.0000 0.0000 0.0000
# 3 9.8982 35.5327 112.2110 0.0000 0.0000 0.0000
# 4 0.0000 0.0000 0.0000 48.3221 0.0000 0.0000
# 5 0.0000 0.0000 0.0000 0.0000 22.5063 0.0000
# 6 0.0000 0.0000 0.0000 0.0000 0.0000 8.9471
#
#
#
# Elastic Compliance Matrix: (Units=1/GPa)
#
#
# Indices 1 2 3 4 5 6 
#
# 1 0.040399 0.002677 -0.004412 0.000000 0.000000 0.000000
# 2 0.002677 0.013967 -0.004659 0.000000 0.000000 0.000000
# 3 -0.004412 -0.004659 0.010776 0.000000 0.000000 0.000000
# 4 0.000000 0.000000 0.000000 0.020694 0.000000 0.000000
# 5 0.000000 0.000000 0.000000 0.000000 0.044432 0.000000
# 6 0.000000 0.000000 0.000000 0.000000 0.000000 0.111768
#
#
# Mechanical properties :
#
#
# Convention : Reuss Voigt Hill
#
# Bulk Modulus (GPa) = 19.09982 34.38282 26.74132
# Shear Modulus (GPa) = 18.36378 27.83300 23.09839
#
# Velocity S-wave (km/s) = 2.81460 3.46509 3.15665
# Velocity P-wave (km/s) = 4.33614 5.55352 4.98215
#
# Compressibility (1/GPa) = 0.05235653
#
# Stress axis : x y z
#
# Youngs Moduli (GPa) = 24.75284 71.59882 92.79709
#
# Poissons Ratio (x) = -0.19170 0.40937
# Poissons Ratio (y) = -0.06628 0.43233
# Poissons Ratio (z) = 0.10920 0.33357
#
# Static dielectric constant tensor:
#      x y z
#    x 1.996420 0.000000 0.000000 
#    y 0.000000 2.273290 0.000000 
#    z 0.000000 0.000000 1.955890 
# 
# From -- ./inp_files/29225.got.cif
#   From: 2010.05.17/outbox.cif.g08.bks.cpg/sg57_15_cif.got.tgz:29225.got - 2010.06.03 13:58:18.
