data_PCOD9438385
_publ_section_title
;
Structure prediction by ZEFSAII (Michael W. Deem and Ramdas Pophale) SiO2 
 PCOD9438385
Probable space group: P B C M
;
_chemical_formula_sum "Si O2"
_cell_formula_units_Z 40
_cell_length_a 11.760434
_cell_length_b 13.150101
_cell_length_c 13.573026
_cell_angle_alpha 90.000000
_cell_angle_beta 90.000000
_cell_angle_gamma 90.000000
_cell_volume 2099.080617
_symmetry_space_group_name_H-M "P B C M"
_symmetry_group_IT_number 57
_symmetry_cell_setting 'orthorhombic'
loop_
_space_group_symop_operation_xyz
x,y,z
-x,-y,1/2+z
x,1/2-y,-z
-x,1/2+y,1/2-z
-x,-y,-z
x,y,1/2-z
-x,1/2+y,z
x,1/2-y,1/2+z
loop_
_atom_site_type_symbol
_atom_site_label
_atom_site_fract_x
_atom_site_fract_y
_atom_site_fract_z
Si Si1 0.560388 0.847066 0.543273
Si Si2 0.399194 0.001449 0.639561
Si Si3 0.912176 0.955246 0.638871
Si Si4 0.789089 0.749521 0.636134
Si Si5 0.839497 0.979351 0.427962
O O1 0.495245 0.750000 0.500000
O O2 0.487488 0.911496 0.619463
O O3 0.676200 0.802665 0.591193
O O4 0.583507 0.917709 0.448354
O O5 0.414789 0.041809 0.750000
O O6 0.268380 0.969886 0.623859
O O7 0.878508 0.986900 0.750000
O O8 0.887484 0.834490 0.632504
O O9 0.042591 0.984060 0.618969
O O10 0.843911 0.000274 0.545390
O O11 0.765450 0.726663 0.750000
O O12 0.825443 0.642883 0.587860
#
# Coordination Sequence:
#
# PCOD9438385 Si02
#       5
#     8   8   8   8   8
#     4  11  22  39  60  89 121 156 209 254 304 365
#     4  11  23  38  61  89 121 158 201 256 309 360
#     4  10  21  35  58  88 119 153 197 252 299 354
#     4  11  20  37  64  89 117 158 204 248 302 365
#     4  11  21  39  60  87 121 157 203 247 302 363
#
# _framework density 19.055962000000001
#
# number of rings (size 3 to 8) (size 9 to 14) (size 15 to 20)
#    0.000    1.200    4.000    3.000    0.000    0.800 
#    0.000    4.000    0.000    2.400    0.000    0.000 
#    0.000    0.000    0.000    0.000    0.000    0.000 
#
# Total GULP energy -223061.243085 kJ/mol
# GULP energy per Si atom -5576.531077 kJ/mol
# Density = 1.901259 g / cm^3
# Si number density = 19.055962 Si / 1000 Ang^3
#
#
#
# Elastic Constant Matrix: (Units=GPa)
#
#
# Indices 1 2 3 4 5 6 
#
# 1 89.6105 57.0839 28.6208 0.0000 0.0000 0.0000
# 2 57.0839 73.2771 17.2340 0.0000 0.0000 0.0000
# 3 28.6208 17.2340 159.5306 0.0000 0.0000 0.0000
# 4 0.0000 0.0000 0.0000 20.7132 0.0000 0.0000
# 5 0.0000 0.0000 0.0000 0.0000 19.9267 0.0000
# 6 0.0000 0.0000 0.0000 0.0000 0.0000 37.3940
#
#
#
# Elastic Compliance Matrix: (Units=1/GPa)
#
#
# Indices 1 2 3 4 5 6 
#
# 1 0.022906 -0.017318 -0.002239 0.000000 0.000000 0.000000
# 2 -0.017318 0.027095 0.000180 0.000000 0.000000 0.000000
# 3 -0.002239 0.000180 0.006651 0.000000 0.000000 0.000000
# 4 0.000000 0.000000 0.000000 0.048278 0.000000 0.000000
# 5 0.000000 0.000000 0.000000 0.000000 0.050184 0.000000
# 6 0.000000 0.000000 0.000000 0.000000 0.000000 0.026742
#
#
# Mechanical properties :
#
#
# Convention : Reuss Voigt Hill
#
# Bulk Modulus (GPa) = 55.86941 58.69953 57.28447
# Shear Modulus (GPa) = 22.06766 30.23877 26.15321
#
# Velocity S-wave (km/s) = 3.40670 3.98784 3.70867
# Velocity P-wave (km/s) = 6.69749 7.21626 6.96171
#
# Compressibility (1/GPa) = 0.01789888
#
# Stress axis : x y z
#
# Youngs Moduli (GPa) = 43.65631 36.90678 150.36239
#
# Poissons Ratio (x) = 0.63914 0.33662
# Poissons Ratio (y) = 0.75603 -0.02704
# Poissons Ratio (z) = 0.09773 -0.00664
#
# Static dielectric constant tensor:
#      x y z
#    x 1.669930 0.000000 0.000000 
#    y 0.000000 1.664100 0.000000 
#    z 0.000000 0.000000 1.720670 
# 
# From -- ./inp_files/17403.got.cif
#   From: 2010.05.17/outbox.cif.g08.bks.cpg/sg57_9_cif.got.tgz:17403.got - 2010.06.03 13:58:18.
