data_PCOD9438036
_publ_section_title
;
Structure prediction by ZEFSAII (Michael W. Deem and Ramdas Pophale) SiO2 
 PCOD9438036
Probable space group: P B C M
;
_chemical_formula_sum "Si O2"
_cell_formula_units_Z 40
_cell_length_a 10.208548
_cell_length_b 23.272850
_cell_length_c 8.430319
_cell_angle_alpha 90.000000
_cell_angle_beta 90.000000
_cell_angle_gamma 90.000000
_cell_volume 2002.892102
_symmetry_space_group_name_H-M "P B C M"
_symmetry_group_IT_number 57
_symmetry_cell_setting 'orthorhombic'
loop_
_space_group_symop_operation_xyz
x,y,z
-x,-y,1/2+z
x,1/2-y,-z
-x,1/2+y,1/2-z
-x,-y,-z
x,y,1/2-z
-x,1/2+y,z
x,1/2-y,1/2+z
loop_
_atom_site_type_symbol
_atom_site_label
_atom_site_fract_x
_atom_site_fract_y
_atom_site_fract_z
Si Si1 0.273945 0.642049 0.439543
Si Si2 0.996577 0.813992 0.439466
Si Si3 0.646642 0.485703 0.557941
Si Si4 0.542363 0.689431 0.939695
Si Si5 0.231711 0.397885 0.442910
O O1 0.261118 0.641845 0.250000
O O2 0.304328 0.576850 0.494978
O O3 0.400095 0.678869 0.487708
O O4 0.142187 0.667729 0.511358
O O5 0.966245 0.750000 0.500000
O O6 0.987728 0.812523 0.250000
O O7 0.894104 0.862259 0.499272
O O8 0.500000 0.500000 0.500000
O O9 0.643090 0.485398 0.750000
O O10 0.743870 0.536836 0.504941
O O11 0.533158 0.689996 0.750000
O O12 0.639766 0.638494 0.987818
O O13 0.595989 0.750000 0.000000
O O14 0.226005 0.398786 0.250000
#
# Coordination Sequence:
#
# PCOD9438036 Si02
#       5
#     8   8   8   8   8
#     4  11  23  38  59  88 120 155 196 243 291 350
#     4  11  23  41  62  85 119 159 198 244 296 353
#     4  10  20  38  62  89 121 153 194 244 294 350
#     4  11  21  36  59  85 116 152 197 246 295 351
#     4   9  20  38  61  87 117 154 193 242 299 349
#
# _framework density 19.971121
#
# number of rings (size 3 to 8) (size 9 to 14) (size 15 to 20)
#    0.000    1.600    2.000    3.000    0.000    1.600 
#    0.000    5.000    0.000    0.000    0.000    0.000 
#    0.000    0.000    0.000    0.000    0.000    0.000 
#
# Total GULP energy -223527.912689 kJ/mol
# GULP energy per Si atom -5588.197817 kJ/mol
# Density = 1.992567 g / cm^3
# Si number density = 19.971121 Si / 1000 Ang^3
#
#
#
# Elastic Constant Matrix: (Units=GPa)
#
#
# Indices 1 2 3 4 5 6 
#
# 1 55.9619 -14.5296 3.6163 0.0000 0.0000 0.0000
# 2 -14.5296 92.6090 10.8053 0.0000 0.0000 0.0000
# 3 3.6163 10.8053 30.1002 0.0000 0.0000 0.0000
# 4 0.0000 0.0000 0.0000 22.1138 0.0000 0.0000
# 5 0.0000 0.0000 0.0000 0.0000 4.0095 0.0000
# 6 0.0000 0.0000 0.0000 0.0000 0.0000 35.9547
#
#
#
# Elastic Compliance Matrix: (Units=1/GPa)
#
#
# Indices 1 2 3 4 5 6 
#
# 1 0.018974 0.003385 -0.003495 0.000000 0.000000 0.000000
# 2 0.003385 0.011874 -0.004669 0.000000 0.000000 0.000000
# 3 -0.003495 -0.004669 0.035318 0.000000 0.000000 0.000000
# 4 0.000000 0.000000 0.000000 0.045221 0.000000 0.000000
# 5 0.000000 0.000000 0.000000 0.000000 0.249410 0.000000
# 6 0.000000 0.000000 0.000000 0.000000 0.000000 0.027813
#
#
# Mechanical properties :
#
#
# Convention : Reuss Voigt Hill
#
# Bulk Modulus (GPa) = 17.66537 19.82834 18.74686
# Shear Modulus (GPa) = 11.98934 24.33419 18.16177
#
# Velocity S-wave (km/s) = 2.45283 3.49444 3.01890
# Velocity P-wave (km/s) = 4.10932 5.12168 4.64317
#
# Compressibility (1/GPa) = 0.05660792
#
# Stress axis : x y z
#
# Youngs Moduli (GPa) = 52.70402 84.21842 28.31390
#
# Poissons Ratio (x) = -0.28505 0.09895
# Poissons Ratio (y) = -0.17838 0.13220
# Poissons Ratio (z) = 0.18418 0.39323
#
# Static dielectric constant tensor:
#      x y z
#    x 1.669740 0.000000 0.000000 
#    y 0.000000 1.734950 0.000000 
#    z 0.000000 0.000000 1.679820 
# 
# From -- ./inp_files/1504.got.cif
#   From: 2010.05.17/outbox.cif.g08.bks.cpg/sg57_1_cif.got.tgz:1504.got - 2010.06.03 13:58:18.
