data_PCOD9438572
_publ_section_title
;
Structure prediction by ZEFSAII (Michael W. Deem and Ramdas Pophale) SiO2 
 PCOD9438572
Probable space group: P B C M
;
_chemical_formula_sum "Si O2"
_cell_formula_units_Z 64
_cell_length_a 5.653466
_cell_length_b 28.734935
_cell_length_c 17.655270
_cell_angle_alpha 90.000000
_cell_angle_beta 90.000000
_cell_angle_gamma 90.000000
_cell_volume 2868.133534
_symmetry_space_group_name_H-M "P B C M"
_symmetry_group_IT_number 57
_symmetry_cell_setting 'orthorhombic'
loop_
_space_group_symop_operation_xyz
x,y,z
-x,-y,1/2+z
x,1/2-y,-z
-x,1/2+y,1/2-z
-x,-y,-z
x,y,1/2-z
-x,1/2+y,z
x,1/2-y,1/2+z
loop_
_atom_site_type_symbol
_atom_site_label
_atom_site_fract_x
_atom_site_fract_y
_atom_site_fract_z
Si Si1 0.867802 0.771139 0.881292
Si Si2 0.487886 0.533909 0.668799
Si Si3 0.193033 0.594326 0.584766
Si Si4 0.141526 0.324317 0.040811
Si Si5 0.822124 0.558613 0.334013
Si Si6 0.113982 0.006012 0.580839
Si Si7 0.503561 0.113215 0.046793
Si Si8 0.641283 0.313042 0.834037
O O1 0.822015 0.717127 0.899832
O O2 0.121552 0.781205 0.841391
O O3 0.620570 0.789819 0.845294
O O4 0.902998 0.798121 0.961161
O O5 0.618899 0.534524 0.750000
O O6 0.380154 0.584311 0.651069
O O7 0.307863 0.490948 0.674714
O O8 0.618074 0.518483 0.592544
O O9 0.068505 0.643327 0.571530
O O10 0.001363 0.555271 0.605561
O O11 0.317202 0.583621 0.503850
O O12 0.358859 0.357565 0.016888
O O13 0.837871 0.580470 0.250000
O O14 0.067055 0.539514 0.367744
O O15 0.682919 0.588037 0.397304
O O16 0.000000 0.000000 0.500000
O O17 0.647664 0.147938 0.101079
O O18 0.646047 0.333942 0.750000
#
# Coordination Sequence:
#
# PCOD9438572 Si02
#       8
#     8   8   8   8   8   8   8   8
#     4  10  23  41  69  96 129 175 220 269 335 404
#     4  10  22  39  58  84 123 172 216 264 327 393
#     4  11  21  37  61  89 119 159 217 270 319 381
#     4  10  22  38  64  93 121 163 217 274 328 388
#     4  10  21  37  58  88 127 171 209 258 328 396
#     4  11  21  36  59  86 122 165 216 268 316 385
#     4  11  22  38  63  97 129 161 215 271 328 394
#     4  11  23  43  67  98 138 175 213 268 336 405
#
# _framework density 22.314160999999999
#
# number of rings (size 3 to 8) (size 9 to 14) (size 15 to 20)
#    0.000    1.500    1.250    4.125    1.750    3.500 
#    0.000    1.250    0.000    0.000    0.000    0.000 
#    0.000    0.000    0.000    0.000    0.000    0.000 
#
# Total GULP energy -356513.595865 kJ/mol
# GULP energy per Si atom -5570.524935 kJ/mol
# Density = 2.226337 g / cm^3
# Si number density = 22.314161 Si / 1000 Ang^3
#
#
#
# Elastic Constant Matrix: (Units=GPa)
#
#
# Indices 1 2 3 4 5 6 
#
# 1 69.3526 18.7207 22.3786 0.0000 0.0000 0.0000
# 2 18.7207 67.3882 17.2657 0.0000 0.0000 0.0000
# 3 22.3786 17.2657 65.0120 0.0000 0.0000 0.0000
# 4 0.0000 0.0000 0.0000 12.6277 0.0000 0.0000
# 5 0.0000 0.0000 0.0000 0.0000 18.3950 0.0000
# 6 0.0000 0.0000 0.0000 0.0000 0.0000 31.7133
#
#
#
# Elastic Compliance Matrix: (Units=1/GPa)
#
#
# Indices 1 2 3 4 5 6 
#
# 1 0.016935 -0.003445 -0.004914 0.000000 0.000000 0.000000
# 2 -0.003445 0.016624 -0.003229 0.000000 0.000000 0.000000
# 3 -0.004914 -0.003229 0.017931 0.000000 0.000000 0.000000
# 4 0.000000 0.000000 0.000000 0.079191 0.000000 0.000000
# 5 0.000000 0.000000 0.000000 0.000000 0.054363 0.000000
# 6 0.000000 0.000000 0.000000 0.000000 0.000000 0.031533
#
#
# Mechanical properties :
#
#
# Convention : Reuss Voigt Hill
#
# Bulk Modulus (GPa) = 35.32042 35.38699 35.35371
# Shear Modulus (GPa) = 20.06497 22.10638 21.08567
#
# Velocity S-wave (km/s) = 3.00192 3.15093 3.07733
# Velocity P-wave (km/s) = 5.28001 5.39730 5.33897
#
# Compressibility (1/GPa) = 0.02831223
#
# Stress axis : x y z
#
# Youngs Moduli (GPa) = 59.04976 60.15453 55.76958
#
# Poissons Ratio (x) = 0.20726 0.27407
# Poissons Ratio (y) = 0.20345 0.18008
# Poissons Ratio (z) = 0.29019 0.19423
#
# Static dielectric constant tensor:
#      x y z
#    x 1.930730 0.000000 0.000000 
#    y 0.000000 1.826840 0.000000 
#    z 0.000000 0.000000 1.953580 
# 
# From -- ./inp_files/20337.got.cif
#   From: 2010.05.17/outbox.cif.g08.bks.cpg/sg57_11_cif.got.tgz:20337.got - 2010.06.03 13:58:18.
