data_PCOD9438137
_publ_section_title
;
Structure prediction by ZEFSAII (Michael W. Deem and Ramdas Pophale) SiO2 
 PCOD9438137
Probable space group: P B C M
;
_chemical_formula_sum "Si O2"
_cell_formula_units_Z 32
_cell_length_a 4.913851
_cell_length_b 17.870993
_cell_length_c 13.491386
_cell_angle_alpha 90.000000
_cell_angle_beta 90.000000
_cell_angle_gamma 90.000000
_cell_volume 1184.751415
_symmetry_space_group_name_H-M "P B C M"
_symmetry_group_IT_number 57
_symmetry_cell_setting 'orthorhombic'
loop_
_space_group_symop_operation_xyz
x,y,z
-x,-y,1/2+z
x,1/2-y,-z
-x,1/2+y,1/2-z
-x,-y,-z
x,y,1/2-z
-x,1/2+y,z
x,1/2-y,1/2+z
loop_
_atom_site_type_symbol
_atom_site_label
_atom_site_fract_x
_atom_site_fract_y
_atom_site_fract_z
Si Si1 0.162872 0.564641 0.858873
Si Si2 0.253578 0.952093 0.590064
Si Si3 0.738071 0.851843 0.902055
Si Si4 0.536902 0.206688 0.912074
O O1 0.259135 0.539687 0.750000
O O2 0.262524 0.540906 0.969716
O O3 0.256786 0.651461 0.859997
O O4 0.858815 0.529065 0.865072
O O5 0.527452 0.915907 0.628698
O O6 0.029836 0.887383 0.613508
O O7 0.635651 0.772163 0.859911
O O8 0.299324 0.750000 0.000000
O O9 0.680587 0.838306 0.019773
#
# Coordination Sequence:
#
# PCOD9438137 Si02
#       4
#     8   8   8   8
#     4  10  21  37  62  93 124 159 208 253 299 363
#     4  10  20  39  61  86 121 163 198 246 309 352
#     4   8  18  36  62  83 114 159 200 240 306 363
#     4   7  17  35  59  87 109 159 196 248 298 362
#
# _framework density 27.009886000000002
#
# number of rings (size 3 to 8) (size 9 to 14) (size 15 to 20)
#    1.500    1.500    0.000    0.000    0.000   17.000 
#    0.000   13.750    0.000    0.000    0.000    0.000 
#    0.000    0.000    0.000    0.000    0.000    0.000 
#
# Total GULP energy -178231.139747 kJ/mol
# GULP energy per Si atom -5569.723117 kJ/mol
# Density = 2.694841 g / cm^3
# Si number density = 27.009886 Si / 1000 Ang^3
#
#
#
# Elastic Constant Matrix: (Units=GPa)
#
#
# Indices 1 2 3 4 5 6 
#
# 1 96.3989 58.5435 26.9347 0.0000 0.0000 0.0000
# 2 58.5435 182.7279 47.1872 0.0000 0.0000 0.0000
# 3 26.9347 47.1872 155.8956 0.0000 0.0000 0.0000
# 4 0.0000 0.0000 0.0000 12.8245 0.0000 0.0000
# 5 0.0000 0.0000 0.0000 0.0000 -9.5256 0.0000
# 6 0.0000 0.0000 0.0000 0.0000 0.0000 59.1552
#
#
#
# Elastic Compliance Matrix: (Units=1/GPa)
#
#
# Indices 1 2 3 4 5 6 
#
# 1 0.013043 -0.003902 -0.001072 0.000000 0.000000 0.000000
# 2 -0.003902 0.007104 -0.001476 0.000000 0.000000 0.000000
# 3 -0.001072 -0.001476 0.007047 0.000000 0.000000 0.000000
# 4 0.000000 0.000000 0.000000 0.077976 0.000000 0.000000
# 5 0.000000 0.000000 0.000000 0.000000 -0.104980 0.000000
# 6 0.000000 0.000000 0.000000 0.000000 0.000000 0.016905
#
#
# Mechanical properties :
#
#
# Convention : Reuss Voigt Hill
#
# Bulk Modulus (GPa) = 69.96611 77.81700 73.89156
# Shear Modulus (GPa) = 143.85027 32.64794 88.24911
#
# Velocity S-wave (km/s) = 7.30575 3.48047 5.72222
# Velocity P-wave (km/s) = 9.85522 6.71004 8.43060
#
# Compressibility (1/GPa) = 0.01429263
#
# Stress axis : x y z
#
# Youngs Moduli (GPa) = 76.67073 140.76808 141.91165
#
# Poissons Ratio (x) = 0.54925 0.15219
# Poissons Ratio (y) = 0.29915 0.20948
# Poissons Ratio (z) = 0.08223 0.20779
#
# Static dielectric constant tensor:
#      x y z
#    x 2.156560 0.000000 0.000000 
#    y 0.000000 2.210050 0.000000 
#    z 0.000000 0.000000 2.131130 
# 
# From -- ./inp_files/14715.got.cif
#   From: 2010.05.17/outbox.cif.g08.bks.cpg/sg57_8_cif.got.tgz:14715.got - 2010.06.03 13:58:18.
