data_PCOD9438871
_publ_section_title
;
Structure prediction by ZEFSAII (Michael W. Deem and Ramdas Pophale) SiO2 
 PCOD9438871
Probable space group: P B C M
;
_chemical_formula_sum "Si O2"
_cell_formula_units_Z 60
_cell_length_a 18.869941
_cell_length_b 5.547106
_cell_length_c 26.341614
_cell_angle_alpha 90.000000
_cell_angle_beta 90.000000
_cell_angle_gamma 90.000000
_cell_volume 2757.270591
_symmetry_space_group_name_H-M "P B C M"
_symmetry_group_IT_number 57
_symmetry_cell_setting 'orthorhombic'
loop_
_space_group_symop_operation_xyz
x,y,z
-x,-y,1/2+z
x,1/2-y,-z
-x,1/2+y,1/2-z
-x,-y,-z
x,y,1/2-z
-x,1/2+y,z
x,1/2-y,1/2+z
loop_
_atom_site_type_symbol
_atom_site_label
_atom_site_fract_x
_atom_site_fract_y
_atom_site_fract_z
Si Si1 0.766140 0.415463 0.124508
Si Si2 0.958871 0.593444 0.571632
Si Si3 0.124158 0.267916 0.335592
Si Si4 0.738106 0.468406 0.806382
Si Si5 0.681442 0.800470 0.411738
Si Si6 0.190559 0.553245 0.456922
Si Si7 0.473330 0.032645 0.558445
Si Si8 0.042278 0.010491 0.250000
O O1 0.824126 0.623266 0.126765
O O2 0.743640 0.313248 0.178888
O O3 0.697188 0.517155 0.096014
O O4 0.804664 0.202714 0.095338
O O5 0.935247 0.600754 0.631134
O O6 0.885599 0.567813 0.541241
O O7 0.003147 0.349322 0.561651
O O8 0.180710 0.434922 0.307092
O O9 0.089096 0.072975 0.298963
O O10 0.708897 0.509837 0.750000
O O11 0.696446 0.588738 0.854601
O O12 0.607356 0.884243 0.433988
O O13 0.741846 0.885665 0.450733
O O14 0.198550 0.750000 0.500000
O O15 0.515649 0.263924 0.580639
O O16 0.500000 0.000000 0.500000
O O17 0.985860 0.236454 0.250000
#
# Coordination Sequence:
#
# PCOD9438871 Si02
#       8
#     8   8   8   8   8   8   8   4
#     4  10  21  40  66  92 133 174 232 287 345 407
#     4  12  25  43  63  84 129 179 232 296 362 412
#     4  11  22  40  60  90 125 176 229 295 361 419
#     4  10  21  38  69  97 131 176 236 285 337 407
#     4  10  23  43  69 101 142 181 226 278 347 418
#     4  11  25  41  65  94 126 179 241 296 346 416
#     4  10  24  42  71 111 151 182 218 269 343 414
#     4  12  28  38  58  94 128 174 226 290 376 442
#
# _framework density 21.760649999999998
#
# number of rings (size 3 to 8) (size 9 to 14) (size 15 to 20)
#    0.000    1.333    4.667    1.600    8.400    2.667 
#    0.000    0.000    0.000    0.800    0.000    0.000 
#    0.000    0.000    0.000    0.000    0.000    0.000 
#
# Total GULP energy -334862.776301 kJ/mol
# GULP energy per Si atom -5581.046272 kJ/mol
# Density = 2.171112 g / cm^3
# Si number density = 21.760650 Si / 1000 Ang^3
#
#
#
# Elastic Constant Matrix: (Units=GPa)
#
#
# Indices 1 2 3 4 5 6 
#
# 1 132.6692 45.1780 27.3232 0.0000 0.0000 0.0000
# 2 45.1780 112.6569 11.4375 0.0000 0.0000 0.0000
# 3 27.3232 11.4375 93.0901 0.0000 0.0000 0.0000
# 4 0.0000 0.0000 0.0000 25.7641 0.0000 0.0000
# 5 0.0000 0.0000 0.0000 0.0000 -24.0113 0.0000
# 6 0.0000 0.0000 0.0000 0.0000 0.0000 23.8973
#
#
#
# Elastic Compliance Matrix: (Units=1/GPa)
#
#
# Indices 1 2 3 4 5 6 
#
# 1 0.009180 -0.003451 -0.002271 0.000000 0.000000 0.000000
# 2 -0.003451 0.010286 -0.000251 0.000000 0.000000 0.000000
# 3 -0.002271 -0.000251 0.011440 0.000000 0.000000 0.000000
# 4 0.000000 0.000000 0.000000 0.038814 0.000000 0.000000
# 5 0.000000 0.000000 0.000000 0.000000 -0.041647 0.000000
# 6 0.000000 0.000000 0.000000 0.000000 0.000000 0.041846
#
#
# Mechanical properties :
#
#
# Convention : Reuss Voigt Hill
#
# Bulk Modulus (GPa) = 52.73995 56.25485 54.49740
# Shear Modulus (GPa) = 56.70012 22.09519 39.39766
#
# Velocity S-wave (km/s) = 5.11007 3.18995 4.25961
# Velocity P-wave (km/s) = 7.68805 6.28295 7.02074
#
# Compressibility (1/GPa) = 0.01896096
#
# Stress axis : x y z
#
# Youngs Moduli (GPa) = 108.92842 97.22040 87.41608
#
# Poissons Ratio (x) = 0.33551 0.19848
# Poissons Ratio (y) = 0.37591 0.02193
# Poissons Ratio (z) = 0.24733 0.02439
#
# Static dielectric constant tensor:
#      x y z
#    x 1.787370 0.000000 0.000000 
#    y 0.000000 2.276960 0.000000 
#    z 0.000000 0.000000 2.907450 
# 
# From -- ./inp_files/28863.got.cif
#   From: 2010.05.17/outbox.cif.g08.bks.cpg/sg57_15_cif.got.tgz:28863.got - 2010.06.03 13:58:18.
