data_PCOD9438922
_publ_section_title
;
Structure prediction by ZEFSAII (Michael W. Deem and Ramdas Pophale) SiO2 
 PCOD9438922
Probable space group: P B C M
;
_chemical_formula_sum "Si O2"
_cell_formula_units_Z 64
_cell_length_a 12.192867
_cell_length_b 31.590524
_cell_length_c 8.627766
_cell_angle_alpha 90.000000
_cell_angle_beta 90.000000
_cell_angle_gamma 90.000000
_cell_volume 3323.234777
_symmetry_space_group_name_H-M "P B C M"
_symmetry_group_IT_number 57
_symmetry_cell_setting 'orthorhombic'
loop_
_space_group_symop_operation_xyz
x,y,z
-x,-y,1/2+z
x,1/2-y,-z
-x,1/2+y,1/2-z
-x,-y,-z
x,y,1/2-z
-x,1/2+y,z
x,1/2-y,1/2+z
loop_
_atom_site_type_symbol
_atom_site_label
_atom_site_fract_x
_atom_site_fract_y
_atom_site_fract_z
Si Si1 0.874163 0.376103 0.061462
Si Si2 0.971671 0.953864 0.063112
Si Si3 0.490787 0.294736 0.566231
Si Si4 0.483917 0.046710 0.433840
Si Si5 0.752469 0.912609 0.934247
Si Si6 0.986472 0.794586 0.062957
Si Si7 0.257962 0.181087 0.934475
Si Si8 0.378554 0.624574 0.563961
O O1 0.874171 0.375341 0.250000
O O2 0.748086 0.374788 0.011052
O O3 0.937272 0.418925 0.016376
O O4 0.942782 0.334950 0.009998
O O5 0.965805 0.954472 0.250000
O O6 0.856738 0.938318 0.993843
O O7 0.000000 0.000000 0.000000
O O8 0.531742 0.250000 0.500000
O O9 0.499491 0.294793 0.750000
O O10 0.363532 0.299825 0.517990
O O11 0.556069 0.334901 0.499702
O O12 0.503200 0.046443 0.250000
O O13 0.359377 0.061861 0.460984
O O14 0.562920 0.081637 0.509323
O O15 0.500000 0.000000 0.500000
O O16 0.761638 0.904145 0.750000
O O17 0.745904 0.868538 0.025299
O O18 0.988394 0.794163 0.250000
O O19 0.859446 0.800446 0.014891
O O20 0.028501 0.750000 0.000000
O O21 0.269943 0.187134 0.750000
O O22 0.381035 0.626224 0.750000
#
# Coordination Sequence:
#
# PCOD9438922 Si02
#       8
#     8   8   8   8   8   8   8   8
#     4   9  21  42  63  86 123 164 203 252 308 366
#     4  11  23  42  65  93 127 164 208 258 311 374
#     4  12  25  42  63  92 128 164 209 261 312 376
#     4  11  25  43  64  93 128 165 210 261 312 372
#     4  11  23  40  64  94 128 164 206 258 313 369
#     4  10  21  39  61  90 123 159 201 248 303 363
#     4  11  21  38  65  93 126 165 205 254 316 374
#     4  11  23  42  67  91 123 166 210 259 315 372
#
# _framework density 19.258344999999998
#
# number of rings (size 3 to 8) (size 9 to 14) (size 15 to 20)
#    0.000    1.250    2.500    3.375    1.750    4.000 
#    0.000    4.375    0.000    0.000    0.000    0.000 
#    0.000    0.000    0.000    0.000    0.000    0.000 
#
# Total GULP energy -357887.779000 kJ/mol
# GULP energy per Si atom -5591.996547 kJ/mol
# Density = 1.921451 g / cm^3
# Si number density = 19.258345 Si / 1000 Ang^3
#
#
#
# Elastic Constant Matrix: (Units=GPa)
#
#
# Indices 1 2 3 4 5 6 
#
# 1 139.9956 72.6698 46.5212 0.0000 0.0000 0.0000
# 2 72.6698 176.8934 38.4744 0.0000 0.0000 0.0000
# 3 46.5212 38.4744 55.6078 0.0000 0.0000 0.0000
# 4 0.0000 0.0000 0.0000 36.1925 0.0000 0.0000
# 5 0.0000 0.0000 0.0000 0.0000 4.3850 0.0000
# 6 0.0000 0.0000 0.0000 0.0000 0.0000 35.2349
#
#
#
# Elastic Compliance Matrix: (Units=1/GPa)
#
#
# Indices 1 2 3 4 5 6 
#
# 1 0.011090 -0.002988 -0.007211 0.000000 0.000000 0.000000
# 2 -0.002988 0.007459 -0.002662 0.000000 0.000000 0.000000
# 3 -0.007211 -0.002662 0.025857 0.000000 0.000000 0.000000
# 4 0.000000 0.000000 0.000000 0.027630 0.000000 0.000000
# 5 0.000000 0.000000 0.000000 0.000000 0.228051 0.000000
# 6 0.000000 0.000000 0.000000 0.000000 0.000000 0.028381
#
#
# Mechanical properties :
#
#
# Convention : Reuss Voigt Hill
#
# Bulk Modulus (GPa) = 53.51452 76.42529 64.96991
# Shear Modulus (GPa) = 13.87278 29.48458 21.67868
#
# Velocity S-wave (km/s) = 2.68685 3.91705 3.35875
# Velocity P-wave (km/s) = 6.12157 7.76068 6.98934
#
# Compressibility (1/GPa) = 0.01868652
#
# Stress axis : x y z
#
# Youngs Moduli (GPa) = 90.17060 134.05971 38.67390
#
# Poissons Ratio (x) = 0.40051 0.27887
# Poissons Ratio (y) = 0.26939 0.10294
# Poissons Ratio (z) = 0.65021 0.35682
#
# Static dielectric constant tensor:
#      x y z
#    x 1.660140 0.000000 0.000000 
#    y 0.000000 1.658780 0.000000 
#    z 0.000000 0.000000 1.646630 
# 
# From -- ./inp_files/3911.got.cif
#   From: 2010.05.17/outbox.cif.g08.bks.cpg/sg57_2_cif.got.tgz:3911.got - 2010.06.03 13:58:18.
