data_PCOD9438533
_publ_section_title
;
Structure prediction by ZEFSAII (Michael W. Deem and Ramdas Pophale) SiO2 
 PCOD9438533
Probable space group: P B C M
;
_chemical_formula_sum "Si O2"
_cell_formula_units_Z 48
_cell_length_a 9.316593
_cell_length_b 10.251874
_cell_length_c 27.396187
_cell_angle_alpha 90.000000
_cell_angle_beta 90.000000
_cell_angle_gamma 90.000000
_cell_volume 2616.679339
_symmetry_space_group_name_H-M "P B C M"
_symmetry_group_IT_number 57
_symmetry_cell_setting 'orthorhombic'
loop_
_space_group_symop_operation_xyz
x,y,z
-x,-y,1/2+z
x,1/2-y,-z
-x,1/2+y,1/2-z
-x,-y,-z
x,y,1/2-z
-x,1/2+y,z
x,1/2-y,1/2+z
loop_
_atom_site_type_symbol
_atom_site_label
_atom_site_fract_x
_atom_site_fract_y
_atom_site_fract_z
Si Si1 0.811475 0.023079 0.620586
Si Si2 0.074307 0.056809 0.691121
Si Si3 0.219765 0.280972 0.108216
Si Si4 0.513771 0.151385 0.851322
Si Si5 0.993896 0.126524 0.966381
Si Si6 0.355951 0.588417 0.193724
O O1 0.655458 0.078609 0.631233
O O2 0.880105 0.104521 0.576584
O O3 0.919106 0.032123 0.667166
O O4 0.799989 0.873122 0.604886
O O5 0.070213 0.077147 0.750000
O O6 0.143962 0.173599 0.659139
O O7 0.188890 0.939739 0.680502
O O8 0.385500 0.321704 0.110885
O O9 0.140853 0.349397 0.063254
O O10 0.439334 0.048492 0.814116
O O11 0.566287 0.292725 0.833016
O O12 0.962008 0.250000 0.000000
O O13 0.000000 0.000000 0.000000
O O14 0.357507 0.623302 0.250000
#
# Coordination Sequence:
#
# PCOD9438533 Si02
#       6
#     8   8   8   8   8   8
#     4  11  23  40  65  93 124 167 209 261 320 371
#     4   9  22  38  59  91 127 168 217 262 303 367
#     4  10  22  42  63  91 129 164 207 263 316 373
#     4  11  22  40  61  87 127 169 209 258 320 374
#     4  11  23  43  72  96 123 158 205 260 318 380
#     4  10  21  37  57  87 126 172 219 260 304 365
#
# _framework density 18.343858999999998
#
# number of rings (size 3 to 8) (size 9 to 14) (size 15 to 20)
#    0.000    1.667    3.333    0.500    4.667    4.000 
#    0.000    1.667    0.000    0.000    0.000    0.000 
#    0.000    0.000    0.000    0.000    0.000    0.000 
#
# Total GULP energy -267667.678227 kJ/mol
# GULP energy per Si atom -5576.409963 kJ/mol
# Density = 1.830211 g / cm^3
# Si number density = 18.343859 Si / 1000 Ang^3
#
#
#
# Elastic Constant Matrix: (Units=GPa)
#
#
# Indices 1 2 3 4 5 6 
#
# 1 147.9145 38.4920 54.2134 0.0000 0.0000 0.0000
# 2 38.4920 106.3186 41.3423 0.0000 0.0000 0.0000
# 3 54.2134 41.3423 88.3917 0.0000 0.0000 0.0000
# 4 0.0000 0.0000 0.0000 13.7153 0.0000 0.0000
# 5 0.0000 0.0000 0.0000 0.0000 15.2165 0.0000
# 6 0.0000 0.0000 0.0000 0.0000 0.0000 26.1097
#
#
#
# Elastic Compliance Matrix: (Units=1/GPa)
#
#
# Indices 1 2 3 4 5 6 
#
# 1 0.008875 -0.001340 -0.004816 0.000000 0.000000 0.000000
# 2 -0.001340 0.011699 -0.004650 0.000000 0.000000 0.000000
# 3 -0.004816 -0.004650 0.016442 0.000000 0.000000 0.000000
# 4 0.000000 0.000000 0.000000 0.072911 0.000000 0.000000
# 5 0.000000 0.000000 0.000000 0.000000 0.065718 0.000000
# 6 0.000000 0.000000 0.000000 0.000000 0.000000 0.038300
#
#
# Mechanical properties :
#
#
# Convention : Reuss Voigt Hill
#
# Bulk Modulus (GPa) = 64.92193 67.85778 66.38986
# Shear Modulus (GPa) = 20.77342 24.91343 22.84343
#
# Velocity S-wave (km/s) = 3.36883 3.68929 3.53270
# Velocity P-wave (km/s) = 7.11340 7.43103 7.27395
#
# Compressibility (1/GPa) = 0.01540311
#
# Stress axis : x y z
#
# Youngs Moduli (GPa) = 112.68006 85.47735 60.81959
#
# Poissons Ratio (x) = 0.11456 0.29292
# Poissons Ratio (y) = 0.15101 0.28280
# Poissons Ratio (z) = 0.54270 0.39746
#
# Static dielectric constant tensor:
#      x y z
#    x 1.644860 0.000000 0.000000 
#    y 0.000000 1.636510 0.000000 
#    z 0.000000 0.000000 1.612900 
# 
# From -- ./inp_files/29482.got.cif
#   From: 2010.05.17/outbox.cif.g08.bks.cpg/sg57_15_cif.got.tgz:29482.got - 2010.06.03 13:58:18.
