data_PCOD9438998
_publ_section_title
;
Structure prediction by ZEFSAII (Michael W. Deem and Ramdas Pophale) SiO2 
 PCOD9438998
Probable space group: P B C M
;
_chemical_formula_sum "Si O2"
_cell_formula_units_Z 48
_cell_length_a 9.758806
_cell_length_b 17.578069
_cell_length_c 13.810438
_cell_angle_alpha 90.000000
_cell_angle_beta 90.000000
_cell_angle_gamma 90.000000
_cell_volume 2369.055865
_symmetry_space_group_name_H-M "P B C M"
_symmetry_group_IT_number 57
_symmetry_cell_setting 'orthorhombic'
loop_
_space_group_symop_operation_xyz
x,y,z
-x,-y,1/2+z
x,1/2-y,-z
-x,1/2+y,1/2-z
-x,-y,-z
x,y,1/2-z
-x,1/2+y,z
x,1/2-y,1/2+z
loop_
_atom_site_type_symbol
_atom_site_label
_atom_site_fract_x
_atom_site_fract_y
_atom_site_fract_z
Si Si1 0.350260 0.335191 0.971176
Si Si2 0.114902 0.413710 0.638816
Si Si3 0.260546 0.925382 0.139298
Si Si4 0.121106 0.667178 0.028190
Si Si5 0.415282 0.047845 0.863500
Si Si6 0.376757 0.629658 0.362438
O O1 0.247701 0.364921 0.889511
O O2 0.502759 0.337571 0.927983
O O3 0.314659 0.250000 0.000000
O O4 0.348011 0.392855 0.062528
O O5 0.072392 0.400254 0.750000
O O6 0.165495 0.500234 0.630417
O O7 0.996861 0.388823 0.565247
O O8 0.252513 0.897486 0.250000
O O9 0.419553 0.948225 0.122423
O O10 0.204532 0.865909 0.062703
O O11 0.234985 0.669948 0.112268
O O12 0.066327 0.750000 0.000000
O O13 0.387958 0.065202 0.750000
O O14 0.367118 0.961365 0.882313
O O15 0.412327 0.637827 0.250000
#
# Coordination Sequence:
#
# PCOD9438998 Si02
#       6
#     8   8   8   8   8   8
#     4  12  23  39  62  95 125 164 204 257 319 372
#     4  11  24  44  65  86 123 168 214 255 305 371
#     4  10  21  40  66  93 122 167 213 256 306 366
#     4  12  25  42  61  96 128 167 202 259 320 368
#     4  10  21  39  64  95 128 163 207 261 309 362
#     4  11  22  39  64  90 122 163 212 255 303 368
#
# _framework density 20.261234999999999
#
# number of rings (size 3 to 8) (size 9 to 14) (size 15 to 20)
#    0.000    1.000    3.333    4.000    0.000    2.667 
#    0.000    2.500    0.000    0.000    0.000    0.000 
#    0.000    0.000    0.000    0.000    0.000    0.000 
#
# Total GULP energy -268441.935392 kJ/mol
# GULP energy per Si atom -5592.540321 kJ/mol
# Density = 2.021512 g / cm^3
# Si number density = 20.261235 Si / 1000 Ang^3
#
#
#
# Elastic Constant Matrix: (Units=GPa)
#
#
# Indices 1 2 3 4 5 6 
#
# 1 38.9270 -14.6256 -10.9750 0.0000 0.0000 0.0000
# 2 -14.6256 50.9829 30.8405 0.0000 0.0000 0.0000
# 3 -10.9750 30.8405 79.0489 0.0000 0.0000 0.0000
# 4 0.0000 0.0000 0.0000 8.8153 0.0000 0.0000
# 5 0.0000 0.0000 0.0000 0.0000 29.3412 0.0000
# 6 0.0000 0.0000 0.0000 0.0000 0.0000 -26.2108
#
#
#
# Elastic Compliance Matrix: (Units=1/GPa)
#
#
# Indices 1 2 3 4 5 6 
#
# 1 0.028855 0.007663 0.001017 0.000000 0.000000 0.000000
# 2 0.007663 0.027708 -0.009746 0.000000 0.000000 0.000000
# 3 0.001017 -0.009746 0.016594 0.000000 0.000000 0.000000
# 4 0.000000 0.000000 0.000000 0.113439 0.000000 0.000000
# 5 0.000000 0.000000 0.000000 0.000000 0.034082 0.000000
# 6 0.000000 0.000000 0.000000 0.000000 0.000000 -0.038152
#
#
# Mechanical properties :
#
#
# Convention : Reuss Voigt Hill
#
# Bulk Modulus (GPa) = 14.07996 19.93761 17.00879
# Shear Modulus (GPa) = 23.99987 13.30373 18.65180
#
# Velocity S-wave (km/s) = 3.44542 2.56522 3.03737
# Velocity P-wave (km/s) = 4.77412 4.31688 4.55124
#
# Compressibility (1/GPa) = 0.07102292
#
# Stress axis : x y z
#
# Youngs Moduli (GPa) = 34.65636 36.09006 60.26248
#
# Poissons Ratio (x) = -0.27655 -0.06126
# Poissons Ratio (y) = -0.26556 0.58734
# Poissons Ratio (z) = -0.03523 0.35175
#
# Static dielectric constant tensor:
#      x y z
#    x 1.696520 0.000000 0.000000 
#    y 0.000000 1.713160 0.000000 
#    z 0.000000 0.000000 1.716740 
# 
# From -- ./inp_files/16351.got.cif
#   From: 2010.05.17/outbox.cif.g08.bks.cpg/sg57_9_cif.got.tgz:16351.got - 2010.06.03 13:58:18.
