data_PCOD9438349
_publ_section_title
;
Structure prediction by ZEFSAII (Michael W. Deem and Ramdas Pophale) SiO2 
 PCOD9438349
Probable space group: P B C M
;
_chemical_formula_sum "Si O2"
_cell_formula_units_Z 64
_cell_length_a 18.226718
_cell_length_b 22.863129
_cell_length_c 8.707420
_cell_angle_alpha 90.000000
_cell_angle_beta 90.000000
_cell_angle_gamma 90.000000
_cell_volume 3628.554363
_symmetry_space_group_name_H-M "P B C M"
_symmetry_group_IT_number 57
_symmetry_cell_setting 'orthorhombic'
loop_
_space_group_symop_operation_xyz
x,y,z
-x,-y,1/2+z
x,1/2-y,-z
-x,1/2+y,1/2-z
-x,-y,-z
x,y,1/2-z
-x,1/2+y,z
x,1/2-y,1/2+z
loop_
_atom_site_type_symbol
_atom_site_label
_atom_site_fract_x
_atom_site_fract_y
_atom_site_fract_z
Si Si1 0.150929 0.581368 0.564157
Si Si2 0.420887 0.515123 0.930920
Si Si3 0.990687 0.934848 0.434887
Si Si4 0.326582 0.414254 0.066593
Si Si5 0.746192 0.311392 0.064178
Si Si6 0.831428 0.950327 0.435723
Si Si7 0.584747 0.346082 0.068436
Si Si8 0.571631 0.812514 0.931956
O O1 0.154865 0.577381 0.750000
O O2 0.206392 0.632300 0.514785
O O3 0.168769 0.516868 0.499152
O O4 0.066400 0.596705 0.519704
O O5 0.419665 0.500823 0.750000
O O6 0.408058 0.583999 0.947679
O O7 0.500000 0.500000 0.000000
O O8 0.361678 0.475888 0.016961
O O9 0.990847 0.936411 0.250000
O O10 0.907820 0.918870 0.482628
O O11 0.000000 0.000000 0.500000
O O12 0.330346 0.408402 0.250000
O O13 0.241770 0.416344 0.016510
O O14 0.375894 0.363583 0.994006
O O15 0.747076 0.310317 0.250000
O O16 0.661435 0.319016 0.014589
O O17 0.774688 0.250000 0.000000
O O18 0.830345 0.954373 0.250000
O O19 0.575110 0.333194 0.250000
O O20 0.512051 0.325240 0.983073
O O21 0.575170 0.811031 0.750000
O O22 0.593670 0.750000 0.000000
#
# Coordination Sequence:
#
# PCOD9438349 Si02
#       8
#     8   8   8   8   8   8   8   8
#     4   9  17  31  52  76 105 138 171 209 257 312
#     4  11  21  34  54  79 107 137 170 212 262 314
#     4   8  14  27  48  75 104 133 163 198 246 302
#     4  11  22  36  53  77 109 140 174 214 259 310
#     4  10  21  35  50  72 100 137 177 215 255 300
#     4   9  18  31  51  80 109 136 168 210 259 310
#     4  10  21  37  55  75 104 135 171 215 258 308
#     4  12  25  40  58  75  96 130 175 220 265 312
#
# _framework density 17.637878000000001
#
# number of rings (size 3 to 8) (size 9 to 14) (size 15 to 20)
#    0.000    2.000    1.250    3.000    0.000    4.500 
#    0.000    0.000    0.000    0.750    0.000    1.750 
#    0.000    0.000    0.000    0.000    0.000    0.000 
#
# Total GULP energy -357004.771631 kJ/mol
# GULP energy per Si atom -5578.199557 kJ/mol
# Density = 1.759773 g / cm^3
# Si number density = 17.637878 Si / 1000 Ang^3
#
#
#
# Elastic Constant Matrix: (Units=GPa)
#
#
# Indices 1 2 3 4 5 6 
#
# 1 134.0119 35.1342 26.4486 0.0000 0.0000 0.0000
# 2 35.1342 57.4544 24.2359 0.0000 0.0000 0.0000
# 3 26.4486 24.2359 38.8476 0.0000 0.0000 0.0000
# 4 0.0000 0.0000 0.0000 25.5454 0.0000 0.0000
# 5 0.0000 0.0000 0.0000 0.0000 13.6603 0.0000
# 6 0.0000 0.0000 0.0000 0.0000 0.0000 10.0891
#
#
#
# Elastic Compliance Matrix: (Units=1/GPa)
#
#
# Indices 1 2 3 4 5 6 
#
# 1 0.009276 -0.004083 -0.003768 0.000000 0.000000 0.000000
# 2 -0.004083 0.025419 -0.013078 0.000000 0.000000 0.000000
# 3 -0.003768 -0.013078 0.036466 0.000000 0.000000 0.000000
# 4 0.000000 0.000000 0.000000 0.039146 0.000000 0.000000
# 5 0.000000 0.000000 0.000000 0.000000 0.073205 0.000000
# 6 0.000000 0.000000 0.000000 0.000000 0.000000 0.099117
#
#
# Mechanical properties :
#
#
# Convention : Reuss Voigt Hill
#
# Bulk Modulus (GPa) = 34.12701 44.66125 39.39413
# Shear Modulus (GPa) = 14.95863 19.49197 17.22530
#
# Velocity S-wave (km/s) = 2.91537 3.32794 3.12846
# Velocity P-wave (km/s) = 5.54285 6.33586 5.95258
#
# Compressibility (1/GPa) = 0.02930230
#
# Stress axis : x y z
#
# Youngs Moduli (GPa) = 107.80327 39.34114 27.42260
#
# Poissons Ratio (x) = 0.16063 0.10333
# Poissons Ratio (y) = 0.44016 0.35864
# Poissons Ratio (z) = 0.40623 0.51451
#
# Static dielectric constant tensor:
#      x y z
#    x 1.640630 0.000000 0.000000 
#    y 0.000000 1.558610 0.000000 
#    z 0.000000 0.000000 1.594550 
# 
# From -- ./inp_files/7290.got.cif
#   From: 2010.05.17/outbox.cif.g08.bks.cpg/sg57_4_cif.got.tgz:7290.got - 2010.06.03 13:58:18.
