data_PCOD9438414
_publ_section_title
;
Structure prediction by ZEFSAII (Michael W. Deem and Ramdas Pophale) SiO2 
 PCOD9438414
Probable space group: P B C M
;
_chemical_formula_sum "Si O2"
_cell_formula_units_Z 56
_cell_length_a 31.748121
_cell_length_b 5.355218
_cell_length_c 14.601420
_cell_angle_alpha 90.000000
_cell_angle_beta 90.000000
_cell_angle_gamma 90.000000
_cell_volume 2482.505818
_symmetry_space_group_name_H-M "P B C M"
_symmetry_group_IT_number 57
_symmetry_cell_setting 'orthorhombic'
loop_
_space_group_symop_operation_xyz
x,y,z
-x,-y,1/2+z
x,1/2-y,-z
-x,1/2+y,1/2-z
-x,-y,-z
x,y,1/2-z
-x,1/2+y,z
x,1/2-y,1/2+z
loop_
_atom_site_type_symbol
_atom_site_label
_atom_site_fract_x
_atom_site_fract_y
_atom_site_fract_z
Si Si1 0.250098 0.498817 0.557101
Si Si2 0.840067 0.608351 0.139840
Si Si3 0.385744 0.384550 0.138171
Si Si4 0.339497 0.884020 0.359749
Si Si5 0.016607 0.699661 0.104851
Si Si6 0.887249 0.392155 0.638584
Si Si7 0.517602 0.980545 0.103420
O O1 0.260872 0.250000 0.500000
O O2 0.208232 0.424276 0.611847
O O3 0.291243 0.568859 0.614927
O O4 0.240337 0.750000 0.500000
O O5 0.842182 0.612486 0.250000
O O6 0.865833 0.365761 0.108261
O O7 0.860962 0.866601 0.106978
O O8 0.386623 0.384119 0.250000
O O9 0.367491 0.118056 0.107670
O O10 0.433014 0.429347 0.105025
O O11 0.356589 0.616267 0.107487
O O12 0.342905 0.880348 0.250000
O O13 0.064514 0.608588 0.107800
O O14 0.989040 0.475723 0.146399
O O15 0.003144 0.750000 0.000000
O O16 0.887463 0.395178 0.750000
O O17 0.493649 0.745959 0.146498
O O18 0.500000 0.000000 0.000000
#
# Coordination Sequence:
#
# PCOD9438414 Si02
#       7
#     8   8   8   8   8   8   8
#     4  12  25  42  61  97 126 154 200 247 302 360
#     4  10  22  41  63  86 121 163 198 248 307 372
#     4  10  21  39  64  88 115 158 207 245 287 353
#     4  10  22  43  65  89 122 162 201 244 300 359
#     4  10  21  36  54  80 118 160 201 247 305 366
#     4  10  21  37  60  89 114 153 211 253 304 361
#     4  10  21  38  54  85 119 155 195 238 298 352
#
# _framework density 22.557853000000001
#
# number of rings (size 3 to 8) (size 9 to 14) (size 15 to 20)
#    0.000    1.714    0.000    3.857    0.000    2.857 
#   15.429    5.714    0.000    0.000    0.000    0.000 
#    0.000    0.000    0.000    0.000    0.000    0.000 
#
# Total GULP energy -313295.836101 kJ/mol
# GULP energy per Si atom -5594.568502 kJ/mol
# Density = 2.250651 g / cm^3
# Si number density = 22.557853 Si / 1000 Ang^3
#
#
#
# Elastic Constant Matrix: (Units=GPa)
#
#
# Indices 1 2 3 4 5 6 
#
# 1 139.1810 53.8505 -0.3217 0.0000 0.0000 0.0000
# 2 53.8505 200.5982 30.0601 0.0000 0.0000 0.0000
# 3 -0.3217 30.0601 54.3795 0.0000 0.0000 0.0000
# 4 0.0000 0.0000 0.0000 5.9140 0.0000 0.0000
# 5 0.0000 0.0000 0.0000 0.0000 -9.0517 0.0000
# 6 0.0000 0.0000 0.0000 0.0000 0.0000 49.0944
#
#
#
# Elastic Compliance Matrix: (Units=1/GPa)
#
#
# Indices 1 2 3 4 5 6 
#
# 1 0.008109 -0.002381 0.001364 0.000000 0.000000 0.000000
# 2 -0.002381 0.006135 -0.003405 0.000000 0.000000 0.000000
# 3 0.001364 -0.003405 0.020280 0.000000 0.000000 0.000000
# 4 0.000000 0.000000 0.000000 0.169090 0.000000 0.000000
# 5 0.000000 0.000000 0.000000 0.000000 -0.110476 0.000000
# 6 0.000000 0.000000 0.000000 0.000000 0.000000 0.020369
#
#
# Mechanical properties :
#
#
# Convention : Reuss Voigt Hill
#
# Bulk Modulus (GPa) = 38.94189 62.37072 50.65630
# Shear Modulus (GPa) = 38.19377 29.89599 34.04488
#
# Velocity S-wave (km/s) = 4.11925 3.64442 3.88909
# Velocity P-wave (km/s) = 6.31862 6.73931 6.53235
#
# Compressibility (1/GPa) = 0.02567929
#
# Stress axis : x y z
#
# Youngs Moduli (GPa) = 123.31307 163.00795 49.31030
#
# Poissons Ratio (x) = 0.38819 -0.06728
# Poissons Ratio (y) = 0.29366 0.16791
# Poissons Ratio (z) = -0.16825 0.55508
#
# Static dielectric constant tensor:
#      x y z
#    x 1.762580 0.000000 0.000000 
#    y 0.000000 1.952950 0.000000 
#    z 0.000000 0.000000 1.856410 
# 
# From -- ./inp_files/19631.got.cif
#   From: 2010.05.17/outbox.cif.g08.bks.cpg/sg57_10_cif.got.tgz:19631.got - 2010.06.03 13:58:18.
