data_PCOD9438457
_publ_section_title
;
Structure prediction by ZEFSAII (Michael W. Deem and Ramdas Pophale) SiO2 
 PCOD9438457
Probable space group: P B C M
;
_chemical_formula_sum "Si O2"
_cell_formula_units_Z 32
_cell_length_a 7.570403
_cell_length_b 13.584398
_cell_length_c 15.718460
_cell_angle_alpha 90.000000
_cell_angle_beta 90.000000
_cell_angle_gamma 90.000000
_cell_volume 1616.476482
_symmetry_space_group_name_H-M "P B C M"
_symmetry_group_IT_number 57
_symmetry_cell_setting 'orthorhombic'
loop_
_space_group_symop_operation_xyz
x,y,z
-x,-y,1/2+z
x,1/2-y,-z
-x,1/2+y,1/2-z
-x,-y,-z
x,y,1/2-z
-x,1/2+y,z
x,1/2-y,1/2+z
loop_
_atom_site_type_symbol
_atom_site_label
_atom_site_fract_x
_atom_site_fract_y
_atom_site_fract_z
Si Si1 0.535014 0.113538 0.019886
Si Si2 0.243356 0.409582 0.847628
Si Si3 0.330645 0.641083 0.656204
Si Si4 0.099557 0.804948 0.913809
O O1 0.383434 0.137304 0.087297
O O2 0.727869 0.131783 0.059969
O O3 0.546319 0.161660 0.926012
O O4 0.500000 0.000000 0.000000
O O5 0.282717 0.382937 0.750000
O O6 0.260361 0.528856 0.852864
O O7 0.051071 0.371438 0.873702
O O8 0.412909 0.649703 0.750000
O O9 0.172161 0.718879 0.647094
O O10 0.037078 0.750000 0.000000
#
# Coordination Sequence:
#
# PCOD9438457 Si02
#       4
#     8   8   8   8
#     4   9  20  37  57  81 113 150 190 235 283 335
#     4  10  21  38  60  85 115 152 193 235 285 346
#     4   9  19  37  59  85 117 150 188 236 286 339
#     4  10  21  36  58  85 117 153 188 236 289 338
#
# _framework density 19.796144000000002
#
# number of rings (size 3 to 8) (size 9 to 14) (size 15 to 20)
#    0.000    2.500    0.000    0.750    0.000   14.000 
#    0.000    2.500    0.000   12.000    0.000    0.000 
#    0.000    0.000    0.000    0.000    0.000    0.000 
#
# Total GULP energy -178390.303752 kJ/mol
# GULP energy per Si atom -5574.696992 kJ/mol
# Density = 1.975109 g / cm^3
# Si number density = 19.796144 Si / 1000 Ang^3
#
#
#
# Elastic Constant Matrix: (Units=GPa)
#
#
# Indices 1 2 3 4 5 6 
#
# 1 99.1328 50.0930 87.0959 0.0000 0.0000 0.0000
# 2 50.0930 89.1598 45.1615 0.0000 0.0000 0.0000
# 3 87.0959 45.1615 177.8927 0.0000 0.0000 0.0000
# 4 0.0000 0.0000 0.0000 -1.7082 0.0000 0.0000
# 5 0.0000 0.0000 0.0000 0.0000 18.9151 0.0000
# 6 0.0000 0.0000 0.0000 0.0000 0.0000 29.3400
#
#
#
# Elastic Compliance Matrix: (Units=1/GPa)
#
#
# Indices 1 2 3 4 5 6 
#
# 1 0.021546 -0.007760 -0.008579 0.000000 0.000000 0.000000
# 2 -0.007760 0.015666 -0.000178 0.000000 0.000000 0.000000
# 3 -0.008579 -0.000178 0.009867 0.000000 0.000000 0.000000
# 4 0.000000 0.000000 0.000000 -0.585398 0.000000 0.000000
# 5 0.000000 0.000000 0.000000 0.000000 0.052868 0.000000
# 6 0.000000 0.000000 0.000000 0.000000 0.000000 0.034083
#
#
# Mechanical properties :
#
#
# Convention : Reuss Voigt Hill
#
# Bulk Modulus (GPa) = 71.19869 81.20958 76.20413
# Shear Modulus (GPa) = -12.08738 21.56501 4.73882
#
# Velocity S-wave (km/s) = -2.47370 3.30412 1.54887
# Velocity P-wave (km/s) = 5.28064 7.46112 6.46349
#
# Compressibility (1/GPa) = 0.01404520
#
# Stress axis : x y z
#
# Youngs Moduli (GPa) = 46.41297 63.83410 101.35132
#
# Poissons Ratio (x) = 0.49534 0.86947
# Poissons Ratio (y) = 0.36015 0.01803
# Poissons Ratio (z) = 0.39817 0.01135
#
# Static dielectric constant tensor:
#      x y z
#    x 1.654290 0.000000 0.000000 
#    y 0.000000 1.729600 0.000000 
#    z 0.000000 0.000000 1.742020 
# 
# From -- ./inp_files/14773.got.cif
#   From: 2010.05.17/outbox.cif.g08.bks.cpg/sg57_8_cif.got.tgz:14773.got - 2010.06.03 13:58:18.
