data_PCOD9438776
_publ_section_title
;
Structure prediction by ZEFSAII (Michael W. Deem and Ramdas Pophale) SiO2 
 PCOD9438776
Probable space group: P B C M
;
_chemical_formula_sum "Si O2"
_cell_formula_units_Z 40
_cell_length_a 12.194619
_cell_length_b 9.869071
_cell_length_c 16.891883
_cell_angle_alpha 90.000000
_cell_angle_beta 90.000000
_cell_angle_gamma 90.000000
_cell_volume 2032.930699
_symmetry_space_group_name_H-M "P B C M"
_symmetry_group_IT_number 57
_symmetry_cell_setting 'orthorhombic'
loop_
_space_group_symop_operation_xyz
x,y,z
-x,-y,1/2+z
x,1/2-y,-z
-x,1/2+y,1/2-z
-x,-y,-z
x,y,1/2-z
-x,1/2+y,z
x,1/2-y,1/2+z
loop_
_atom_site_type_symbol
_atom_site_label
_atom_site_fract_x
_atom_site_fract_y
_atom_site_fract_z
Si Si1 0.877855 0.088156 0.582906
Si Si2 0.721228 0.015421 0.338094
Si Si3 0.344670 0.830429 0.158025
Si Si4 0.060119 0.614458 0.397702
Si Si5 0.552262 0.617617 0.946584
O O1 0.751207 0.096717 0.607725
O O2 0.932639 0.225320 0.618634
O O3 0.897113 0.097728 0.488513
O O4 0.942227 0.954622 0.609959
O O5 0.692875 0.967003 0.250000
O O6 0.677051 0.169310 0.347723
O O7 0.851192 0.032541 0.347156
O O8 0.664846 0.927300 0.405628
O O9 0.336330 0.869495 0.250000
O O10 0.462959 0.858221 0.122057
O O11 0.564989 0.750000 0.000000
O O12 0.500000 0.500000 0.000000
#
# Coordination Sequence:
#
# PCOD9438776 Si02
#       5
#     8   8   8   8   8
#     4   9  18  34  58  83 115 152 194 235 281 340
#     4  10  21  39  60  86 120 154 191 243 299 348
#     4  10  21  38  61  86 118 156 195 239 296 355
#     4   9  18  35  57  84 115 152 193 236 282 340
#     4  12  23  40  63  86 113 152 198 243 290 353
#
# _framework density 19.676029
#
# number of rings (size 3 to 8) (size 9 to 14) (size 15 to 20)
#    0.000    2.000    2.000    1.800    2.800    0.800 
#   10.800    0.000    0.000    0.000    0.000    0.000 
#    0.000    0.000    0.000    0.000    0.000    0.000 
#
# Total GULP energy -223328.262693 kJ/mol
# GULP energy per Si atom -5583.206567 kJ/mol
# Density = 1.963125 g / cm^3
# Si number density = 19.676029 Si / 1000 Ang^3
#
#
#
# Elastic Constant Matrix: (Units=GPa)
#
#
# Indices 1 2 3 4 5 6 
#
# 1 41.6797 8.6136 15.2630 0.0000 0.0000 0.0000
# 2 8.6136 45.3665 26.9906 0.0000 0.0000 0.0000
# 3 15.2630 26.9906 64.9380 0.0000 0.0000 0.0000
# 4 0.0000 0.0000 0.0000 18.5792 0.0000 0.0000
# 5 0.0000 0.0000 0.0000 0.0000 20.6826 0.0000
# 6 0.0000 0.0000 0.0000 0.0000 0.0000 30.4456
#
#
#
# Elastic Compliance Matrix: (Units=1/GPa)
#
#
# Indices 1 2 3 4 5 6 
#
# 1 0.026356 -0.001752 -0.005467 0.000000 0.000000 0.000000
# 2 -0.001752 0.029401 -0.011808 0.000000 0.000000 0.000000
# 3 -0.005467 -0.011808 0.021592 0.000000 0.000000 0.000000
# 4 0.000000 0.000000 0.000000 0.053824 0.000000 0.000000
# 5 0.000000 0.000000 0.000000 0.000000 0.048350 0.000000
# 6 0.000000 0.000000 0.000000 0.000000 0.000000 0.032845
#
#
# Mechanical properties :
#
#
# Convention : Reuss Voigt Hill
#
# Bulk Modulus (GPa) = 25.44811 28.19095 26.81953
# Shear Modulus (GPa) = 18.97392 20.68263 19.82827
#
# Velocity S-wave (km/s) = 3.10871 3.24568 3.17793
# Velocity P-wave (km/s) = 5.08400 5.32959 5.20825
#
# Compressibility (1/GPa) = 0.03929565
#
# Stress axis : x y z
#
# Youngs Moduli (GPa) = 37.94141 34.01302 46.31324
#
# Poissons Ratio (x) = 0.05959 0.25318
# Poissons Ratio (y) = 0.06647 0.54687
# Poissons Ratio (z) = 0.20741 0.40163
#
# Static dielectric constant tensor:
#      x y z
#    x 1.687420 0.000000 0.000000 
#    y 0.000000 1.680440 0.000000 
#    z 0.000000 0.000000 1.699170 
# 
# From -- ./inp_files/21605.got.cif
#   From: 2010.05.17/outbox.cif.g08.bks.cpg/sg57_11_cif.got.tgz:21605.got - 2010.06.03 13:58:18.
