data_PCOD9438945
_publ_section_title
;
Structure prediction by ZEFSAII (Michael W. Deem and Ramdas Pophale) SiO2 
 PCOD9438945
Probable space group: P B C M
;
_chemical_formula_sum "Si O2"
_cell_formula_units_Z 48
_cell_length_a 32.089039
_cell_length_b 7.763525
_cell_length_c 9.727003
_cell_angle_alpha 90.000000
_cell_angle_beta 90.000000
_cell_angle_gamma 90.000000
_cell_volume 2423.230445
_symmetry_space_group_name_H-M "P B C M"
_symmetry_group_IT_number 57
_symmetry_cell_setting 'orthorhombic'
loop_
_space_group_symop_operation_xyz
x,y,z
-x,-y,1/2+z
x,1/2-y,-z
-x,1/2+y,1/2-z
-x,-y,-z
x,y,1/2-z
-x,1/2+y,z
x,1/2-y,1/2+z
loop_
_atom_site_type_symbol
_atom_site_label
_atom_site_fract_x
_atom_site_fract_y
_atom_site_fract_z
Si Si1 0.632059 0.931611 0.915149
Si Si2 0.537793 0.578922 0.087034
Si Si3 0.178466 0.041260 0.250000
Si Si4 0.807277 0.575547 0.750000
Si Si5 0.311752 0.750000 0.500000
Si Si6 0.750808 0.256142 0.750000
Si Si7 0.869896 0.041657 0.483627
Si Si8 0.038908 0.925027 0.584391
O O1 0.641649 0.907641 0.750000
O O2 0.584075 0.001267 0.918116
O O3 0.635907 0.750000 0.000000
O O4 0.660089 0.078533 0.986082
O O5 0.527209 0.600841 0.250000
O O6 0.544904 0.750000 0.000000
O O7 0.500000 0.500000 0.000000
O O8 0.210935 0.881399 0.250000
O O9 0.146724 0.033236 0.375803
O O10 0.202329 0.222664 0.250000
O O11 0.768685 0.448642 0.750000
O O12 0.836096 0.522625 0.623321
O O13 0.279795 0.763168 0.375871
O O14 0.868160 0.250000 0.500000
O O15 0.916210 0.985221 0.437558
O O16 0.045234 0.750000 0.500000
O O17 0.031371 0.907785 0.750000
O O18 0.000000 0.000000 0.500000
#
# Coordination Sequence:
#
# PCOD9438945 Si02
#       8
#     8   8   4   4   4   4   8   8
#     4  10  24  45  70 101 138 184 239 288 351 422
#     4  10  21  39  62  98 137 177 227 288 346 411
#     4  12  26  42  73 103 135 179 223 288 347 418
#     4  12  24  46  71 103 131 177 227 286 349 412
#     4  12  26  46  72  98 138 190 230 284 358 428
#     4  12  26  46  70 104 140 174 236 296 352 418
#     4  11  22  44  71  97 140 181 225 279 352 405
#     4  11  25  43  68  99 139 185 228 279 338 406
#
# _framework density 19.808268999999999
#
# number of rings (size 3 to 8) (size 9 to 14) (size 15 to 20)
#    0.000    1.000    3.333    2.500    7.000    3.333 
#    0.000    0.000    0.000    0.000    0.000    0.000 
#    0.000    0.000    0.000    0.000    0.000    0.000 
#
# Total GULP energy -267431.345371 kJ/mol
# GULP energy per Si atom -5571.486362 kJ/mol
# Density = 1.976318 g / cm^3
# Si number density = 19.808269 Si / 1000 Ang^3
#
#
#
# Elastic Constant Matrix: (Units=GPa)
#
#
# Indices 1 2 3 4 5 6 
#
# 1 92.6864 24.0202 38.4544 0.0000 0.0000 0.0000
# 2 24.0202 83.0831 8.1395 0.0000 0.0000 0.0000
# 3 38.4544 8.1395 165.2045 0.0000 0.0000 0.0000
# 4 0.0000 0.0000 0.0000 37.1338 0.0000 0.0000
# 5 0.0000 0.0000 0.0000 0.0000-1007.6629 0.0000
# 6 0.0000 0.0000 0.0000 0.0000 0.0000 62.6975
#
#
#
# Elastic Compliance Matrix: (Units=1/GPa)
#
#
# Indices 1 2 3 4 5 6 
#
# 1 0.012851 -0.003439 -0.002822 0.000000 0.000000 0.000000
# 2 -0.003439 0.013015 0.000159 0.000000 0.000000 0.000000
# 3 -0.002822 0.000159 0.006702 0.000000 0.000000 0.000000
# 4 0.000000 0.000000 0.000000 0.026930 0.000000 0.000000
# 5 0.000000 0.000000 0.000000 0.000000 -0.000992 0.000000
# 6 0.000000 0.000000 0.000000 0.000000 0.000000 0.015950
#
#
# Mechanical properties :
#
#
# Convention : Reuss Voigt Hill
#
# Bulk Modulus (GPa) = 49.10434 53.57802 51.34118
# Shear Modulus (GPa) = 53.50674 -163.54234 -55.01780
#
# Velocity S-wave (km/s) = 5.20298 -9.09626 -5.27593
# Velocity P-wave (km/s) = 7.80630 9.12225 3.33746
#
# Compressibility (1/GPa) = 0.02036480
#
# Stress axis : x y z
#
# Youngs Moduli (GPa) = 77.81464 76.83577 149.20685
#
# Poissons Ratio (x) = 0.26423 0.42104
# Poissons Ratio (y) = 0.26760 -0.02376
# Poissons Ratio (z) = 0.21958 -0.01224
#
# Static dielectric constant tensor:
#      x y z
#    x 1.786490 0.000000 0.000000 
#    y 0.000000 1.800200 0.000000 
#    z 0.000000 0.000000 1.606070 
# 
# From -- ./inp_files/10224.got.cif
#   From: 2010.05.17/outbox.cif.g08.bks.cpg/sg57_6_cif.got.tgz:10224.got - 2010.06.03 13:58:18.
