data_PCOD9438654
_publ_section_title
;
Structure prediction by ZEFSAII (Michael W. Deem and Ramdas Pophale) SiO2 
 PCOD9438654
Probable space group: P B C M
;
_chemical_formula_sum "Si O2"
_cell_formula_units_Z 56
_cell_length_a 5.185199
_cell_length_b 30.403549
_cell_length_c 13.514018
_cell_angle_alpha 90.000000
_cell_angle_beta 90.000000
_cell_angle_gamma 90.000000
_cell_volume 2130.464016
_symmetry_space_group_name_H-M "P B C M"
_symmetry_group_IT_number 57
_symmetry_cell_setting 'orthorhombic'
loop_
_space_group_symop_operation_xyz
x,y,z
-x,-y,1/2+z
x,1/2-y,-z
-x,1/2+y,1/2-z
-x,-y,-z
x,y,1/2-z
-x,1/2+y,z
x,1/2-y,1/2+z
loop_
_atom_site_type_symbol
_atom_site_label
_atom_site_fract_x
_atom_site_fract_y
_atom_site_fract_z
Si Si1 0.007260 0.900967 0.362105
Si Si2 0.617303 0.674886 0.869537
Si Si3 0.385633 0.561212 0.996948
Si Si4 0.275784 0.118509 0.368438
Si Si5 0.737992 0.506212 0.862086
Si Si6 0.115102 0.772995 0.371106
Si Si7 0.775428 0.325936 0.630741
O O1 0.083216 0.888049 0.250000
O O2 0.763898 0.871119 0.391906
O O3 0.925822 0.952077 0.360172
O O4 0.243616 0.900823 0.436442
O O5 0.603834 0.674468 0.750000
O O6 0.338403 0.692569 0.901176
O O7 0.832961 0.710465 0.900292
O O8 0.488972 0.527433 0.914562
O O9 0.615620 0.577981 0.067757
O O10 0.193031 0.535148 0.070246
O O11 0.279752 0.108687 0.250000
O O12 0.491259 0.155892 0.390102
O O13 0.000209 0.139285 0.394391
O O14 0.691597 0.492073 0.750000
O O15 0.115799 0.772609 0.250000
O O16 0.171790 0.723438 0.404235
O O17 0.789116 0.323516 0.750000
#
# Coordination Sequence:
#
# PCOD9438654 Si02
#       7
#     8   8   8   8   8   8   8
#     4  10  22  39  61  93 133 177 227 285 350 418
#     4   9  18  30  54  89 127 167 217 270 322 391
#     4  11  23  39  66  93 131 177 230 280 353 422
#     4  10  21  37  61  95 134 178 227 283 337 404
#     4  10  23  43  65  93 128 171 228 289 351 422
#     4   9  16  30  54  89 127 170 217 265 320 392
#     4   9  18  34  58  91 133 175 222 275 334 398
#
# _framework density 26.285354999999999
#
# number of rings (size 3 to 8) (size 9 to 14) (size 15 to 20)
#    0.000    2.286    0.000    2.143    4.000    3.429 
#    0.000    0.000    0.000    0.857    0.000    0.000 
#    0.000    0.000    0.000    4.571    0.286    1.143 
#
# Total GULP energy -313758.775411 kJ/mol
# GULP energy per Si atom -5602.835275 kJ/mol
# Density = 2.622553 g / cm^3
# Si number density = 26.285355 Si / 1000 Ang^3
#
#
#
# Elastic Constant Matrix: (Units=GPa)
#
#
# Indices 1 2 3 4 5 6 
#
# 1 96.6167 17.7667 13.5893 0.0000 0.0000 0.0000
# 2 17.7667 100.5152 21.4076 0.0000 0.0000 0.0000
# 3 13.5893 21.4076 128.5188 0.0000 0.0000 0.0000
# 4 0.0000 0.0000 0.0000 35.7829 0.0000 0.0000
# 5 0.0000 0.0000 0.0000 0.0000 31.7264 0.0000
# 6 0.0000 0.0000 0.0000 0.0000 0.0000 38.3710
#
#
#
# Elastic Compliance Matrix: (Units=1/GPa)
#
#
# Indices 1 2 3 4 5 6 
#
# 1 0.010787 -0.001725 -0.000853 0.000000 0.000000 0.000000
# 2 -0.001725 0.010591 -0.001582 0.000000 0.000000 0.000000
# 3 -0.000853 -0.001582 0.008135 0.000000 0.000000 0.000000
# 4 0.000000 0.000000 0.000000 0.027946 0.000000 0.000000
# 5 0.000000 0.000000 0.000000 0.000000 0.031519 0.000000
# 6 0.000000 0.000000 0.000000 0.000000 0.000000 0.026061
#
#
# Mechanical properties :
#
#
# Convention : Reuss Voigt Hill
#
# Bulk Modulus (GPa) = 47.18628 47.90864 47.54746
# Shear Modulus (GPa) = 38.33655 39.36855 38.85255
#
# Velocity S-wave (km/s) = 3.82314 3.87426 3.84879
# Velocity P-wave (km/s) = 6.12202 6.18701 6.15460
#
# Compressibility (1/GPa) = 0.02119260
#
# Stress axis : x y z
#
# Youngs Moduli (GPa) = 92.70073 94.42418 122.93090
#
# Poissons Ratio (x) = 0.16288 0.10490
# Poissons Ratio (y) = 0.15991 0.19444
# Poissons Ratio (z) = 0.07910 0.14935
#
# Static dielectric constant tensor:
#      x y z
#    x 2.010220 0.000000 0.000000 
#    y 0.000000 2.048120 0.000000 
#    z 0.000000 0.000000 2.097600 
# 
# From -- ./inp_files/15269.got.cif
#   From: 2010.05.17/outbox.cif.g08.bks.cpg/sg57_8_cif.got.tgz:15269.got - 2010.06.03 13:58:18.
