data_PCOD9438260
_publ_section_title
;
Structure prediction by ZEFSAII (Michael W. Deem and Ramdas Pophale) SiO2 
 PCOD9438260
Probable space group: P B C M
;
_chemical_formula_sum "Si O2"
_cell_formula_units_Z 56
_cell_length_a 13.253524
_cell_length_b 14.616964
_cell_length_c 14.108400
_cell_angle_alpha 90.000000
_cell_angle_beta 90.000000
_cell_angle_gamma 90.000000
_cell_volume 2733.167894
_symmetry_space_group_name_H-M "P B C M"
_symmetry_group_IT_number 57
_symmetry_cell_setting 'orthorhombic'
loop_
_space_group_symop_operation_xyz
x,y,z
-x,-y,1/2+z
x,1/2-y,-z
-x,1/2+y,1/2-z
-x,-y,-z
x,y,1/2-z
-x,1/2+y,z
x,1/2-y,1/2+z
loop_
_atom_site_type_symbol
_atom_site_label
_atom_site_fract_x
_atom_site_fract_y
_atom_site_fract_z
Si Si1 0.254935 0.967449 0.027800
Si Si2 0.574582 0.145092 0.862629
Si Si3 0.395578 0.011556 0.638609
Si Si4 0.948794 0.751984 0.862296
Si Si5 0.483402 0.329245 0.864312
Si Si6 0.038653 0.603841 0.499586
Si Si7 0.744244 0.653927 0.364084
O O1 0.342039 0.911274 0.081587
O O2 0.158401 0.904065 0.012323
O O3 0.228074 0.057060 0.089132
O O4 0.300431 0.003382 0.928920
O O5 0.597346 0.139146 0.750000
O O6 0.464033 0.100531 0.875878
O O7 0.559761 0.249586 0.892854
O O8 0.369732 0.005183 0.750000
O O9 0.470371 0.927543 0.613505
O O10 0.962239 0.745533 0.750000
O O11 0.830851 0.772113 0.883405
O O12 0.988415 0.662590 0.916049
O O13 0.008095 0.838874 0.906323
O O14 0.478244 0.322714 0.750000
O O15 0.368397 0.320866 0.897911
O O16 0.000000 0.500000 0.500000
O O17 0.740901 0.641975 0.250000
#
# Coordination Sequence:
#
# PCOD9438260 Si02
#       7
#     8   8   8   8   8   8   8
#     4  12  23  39  67  94 126 177 218 266 335 396
#     4  10  21  38  61  95 132 166 213 262 320 397
#     4  10  22  40  57  88 134 168 210 265 317 390
#     4  10  24  46  71  97 132 176 225 282 347 401
#     4   9  19  36  59  89 129 165 205 262 311 382
#     4  11  25  45  66 100 137 166 226 291 338 399
#     4  10  20  40  69  95 124 171 226 273 327 395
#
# _framework density 20.489045000000001
#
# number of rings (size 3 to 8) (size 9 to 14) (size 15 to 20)
#    0.000    1.714    2.857    0.857    0.000    6.286 
#    0.000    2.857    0.000    0.000    0.000    0.000 
#    0.000    0.000    0.000    0.000    0.000    0.000 
#
# Total GULP energy -313071.445640 kJ/mol
# GULP energy per Si atom -5590.561529 kJ/mol
# Density = 2.044241 g / cm^3
# Si number density = 20.489045 Si / 1000 Ang^3
#
#
#
# Elastic Constant Matrix: (Units=GPa)
#
#
# Indices 1 2 3 4 5 6 
#
# 1 76.6774 5.8119 34.5376 0.0000 0.0000 0.0000
# 2 5.8119 60.1837 -4.6517 0.0000 0.0000 0.0000
# 3 34.5376 -4.6517 82.1983 0.0000 0.0000 0.0000
# 4 0.0000 0.0000 0.0000 19.0645 0.0000 0.0000
# 5 0.0000 0.0000 0.0000 0.0000 27.6573 0.0000
# 6 0.0000 0.0000 0.0000 0.0000 0.0000 26.0430
#
#
#
# Elastic Compliance Matrix: (Units=1/GPa)
#
#
# Indices 1 2 3 4 5 6 
#
# 1 0.016351 -0.002119 -0.006990 0.000000 0.000000 0.000000
# 2 -0.002119 0.016963 0.001850 0.000000 0.000000 0.000000
# 3 -0.006990 0.001850 0.015207 0.000000 0.000000 0.000000
# 4 0.000000 0.000000 0.000000 0.052454 0.000000 0.000000
# 5 0.000000 0.000000 0.000000 0.000000 0.036157 0.000000
# 6 0.000000 0.000000 0.000000 0.000000 0.000000 0.038398
#
#
# Mechanical properties :
#
#
# Convention : Reuss Voigt Hill
#
# Bulk Modulus (GPa) = 29.40839 32.27277 30.84058
# Shear Modulus (GPa) = 24.82833 26.77706 25.80269
#
# Velocity S-wave (km/s) = 3.48485 3.61902 3.55257
# Velocity P-wave (km/s) = 5.52961 5.76615 5.64912
#
# Compressibility (1/GPa) = 0.03400390
#
# Stress axis : x y z
#
# Youngs Moduli (GPa) = 61.15899 58.95021 65.75707
#
# Poissons Ratio (x) = 0.12493 0.45965
# Poissons Ratio (y) = 0.12961 -0.12168
# Poissons Ratio (z) = 0.42751 -0.10908
#
# Static dielectric constant tensor:
#      x y z
#    x 1.717090 0.000000 0.000000 
#    y 0.000000 1.711190 0.000000 
#    z 0.000000 0.000000 1.751580 
# 
# From -- ./inp_files/17765.got.cif
#   From: 2010.05.17/outbox.cif.g08.bks.cpg/sg57_9_cif.got.tgz:17765.got - 2010.06.03 13:58:18.
