data_PCOD9438096
_publ_section_title
;
Structure prediction by ZEFSAII (Michael W. Deem and Ramdas Pophale) SiO2 
 PCOD9438096
Probable space group: P B C M
;
_chemical_formula_sum "Si O2"
_cell_formula_units_Z 48
_cell_length_a 19.021220
_cell_length_b 13.514770
_cell_length_c 9.983750
_cell_angle_alpha 90.000000
_cell_angle_beta 90.000000
_cell_angle_gamma 90.000000
_cell_volume 2566.496789
_symmetry_space_group_name_H-M "P B C M"
_symmetry_group_IT_number 57
_symmetry_cell_setting 'orthorhombic'
loop_
_space_group_symop_operation_xyz
x,y,z
-x,-y,1/2+z
x,1/2-y,-z
-x,1/2+y,1/2-z
-x,-y,-z
x,y,1/2-z
-x,1/2+y,z
x,1/2-y,1/2+z
loop_
_atom_site_type_symbol
_atom_site_label
_atom_site_fract_x
_atom_site_fract_y
_atom_site_fract_z
Si Si1 0.966836 0.894389 0.250000
Si Si2 0.801727 0.250000 0.000000
Si Si3 0.238605 0.966978 0.590162
Si Si4 0.133295 0.361825 0.999537
Si Si5 0.029521 0.391170 0.750000
Si Si6 0.902646 0.254117 0.250000
Si Si7 0.399783 0.030120 0.596791
Si Si8 0.504248 0.844782 0.908687
O O1 0.918292 0.871575 0.375219
O O2 0.036452 0.832020 0.250000
O O3 0.001365 0.999743 0.250000
O O4 0.763404 0.355100 0.969925
O O5 0.852681 0.235901 0.875367
O O6 0.219403 0.961833 0.750000
O O7 0.187714 0.046434 0.515895
O O8 0.317683 0.007998 0.581599
O O9 0.165442 0.250000 0.000000
O O10 0.080527 0.369867 0.874543
O O11 0.953174 0.339896 0.750000
O O12 0.412482 0.067191 0.750000
O O13 0.429766 0.103772 0.484256
O O14 0.442759 0.927199 0.584886
O O15 0.516091 0.822895 0.750000
O O16 0.486030 0.750000 0.000000
#
# Coordination Sequence:
#
# PCOD9438096 Si02
#       8
#     4   4   8   8   4   4   8   8
#     4  12  22  40  64  86 116 164 206 272 330 382
#     4  12  24  42  64  96 132 168 218 270 324 402
#     4  11  24  45  67  93 136 178 214 268 333 388
#     4  12  23  43  63  93 125 166 218 268 329 403
#     4  12  24  40  62  90 122 156 216 270 332 386
#     4  12  22  40  62  94 122 158 212 272 326 382
#     4   9  21  41  65  94 132 178 217 265 319 381
#     4  10  20  38  66 101 134 168 222 266 315 378
#
# _framework density 18.702535999999998
#
# number of rings (size 3 to 8) (size 9 to 14) (size 15 to 20)
#    0.000    1.000    3.333    4.000    1.167    1.333 
#    3.000    0.000    0.000    0.000    0.000    0.000 
#    0.000    0.000    0.000    0.000    0.000    0.000 
#
# Total GULP energy -267615.413861 kJ/mol
# GULP energy per Si atom -5575.321122 kJ/mol
# Density = 1.865997 g / cm^3
# Si number density = 18.702536 Si / 1000 Ang^3
#
#
#
# Elastic Constant Matrix: (Units=GPa)
#
#
# Indices 1 2 3 4 5 6 
#
# 1 59.4948 -5.7613 25.9080 0.0000 0.0000 0.0000
# 2 -5.7613 98.3282 13.3516 0.0000 0.0000 0.0000
# 3 25.9080 13.3516 148.1169 0.0000 0.0000 0.0000
# 4 0.0000 0.0000 0.0000 32.5966 0.0000 0.0000
# 5 0.0000 0.0000 0.0000 0.0000 28.7598 0.0000
# 6 0.0000 0.0000 0.0000 0.0000 0.0000 17.1945
#
#
#
# Elastic Compliance Matrix: (Units=1/GPa)
#
#
# Indices 1 2 3 4 5 6 
#
# 1 0.018420 0.001536 -0.003360 0.000000 0.000000 0.000000
# 2 0.001536 0.010424 -0.001208 0.000000 0.000000 0.000000
# 3 -0.003360 -0.001208 0.007448 0.000000 0.000000 0.000000
# 4 0.000000 0.000000 0.000000 0.030678 0.000000 0.000000
# 5 0.000000 0.000000 0.000000 0.000000 0.034771 0.000000
# 6 0.000000 0.000000 0.000000 0.000000 0.000000 0.058158
#
#
# Mechanical properties :
#
#
# Convention : Reuss Voigt Hill
#
# Bulk Modulus (GPa) = 33.08380 41.43738 37.26059
# Shear Modulus (GPa) = 28.40246 33.87293 31.13770
#
# Velocity S-wave (km/s) = 3.90120 4.26037 4.08473
# Velocity P-wave (km/s) = 6.16607 6.81213 6.49713
#
# Compressibility (1/GPa) = 0.03022628
#
# Stress axis : x y z
#
# Youngs Moduli (GPa) = 54.28812 95.93188 134.26194
#
# Poissons Ratio (x) = -0.14731 0.45117
# Poissons Ratio (y) = -0.08336 0.16222
# Poissons Ratio (z) = 0.18243 0.11591
#
# Static dielectric constant tensor:
#      x y z
#    x 1.600690 0.000000 0.000000 
#    y 0.000000 1.662320 0.000000 
#    z 0.000000 0.000000 1.613800 
# 
# From -- ./inp_files/6648.got.cif
#   From: 2010.05.17/outbox.cif.g08.bks.cpg/sg57_4_cif.got.tgz:6648.got - 2010.06.03 13:58:18.
