data_PCOD9438321
_publ_section_title
;
Structure prediction by ZEFSAII (Michael W. Deem and Ramdas Pophale) SiO2 
 PCOD9438321
Probable space group: P B C M
;
_chemical_formula_sum "Si O2"
_cell_formula_units_Z 44
_cell_length_a 8.292009
_cell_length_b 15.429764
_cell_length_c 16.013263
_cell_angle_alpha 90.000000
_cell_angle_beta 90.000000
_cell_angle_gamma 90.000000
_cell_volume 2048.796789
_symmetry_space_group_name_H-M "P B C M"
_symmetry_group_IT_number 57
_symmetry_cell_setting 'orthorhombic'
loop_
_space_group_symop_operation_xyz
x,y,z
-x,-y,1/2+z
x,1/2-y,-z
-x,1/2+y,1/2-z
-x,-y,-z
x,y,1/2-z
-x,1/2+y,z
x,1/2-y,1/2+z
loop_
_atom_site_type_symbol
_atom_site_label
_atom_site_fract_x
_atom_site_fract_y
_atom_site_fract_z
Si Si1 0.939047 0.192029 0.250000
Si Si2 0.744332 0.075418 0.750000
Si Si3 0.496308 0.649945 0.612596
Si Si4 0.750339 0.296576 0.575718
Si Si5 0.707468 0.769263 0.250000
Si Si6 0.670078 0.484975 0.896753
Si Si7 0.446299 0.414621 0.750000
Si Si8 0.917477 0.988313 0.250000
O O1 0.107481 0.242246 0.250000
O O2 0.836419 0.209454 0.334243
O O3 0.967997 0.089123 0.250000
O O4 0.647454 0.112152 0.829193
O O5 0.936078 0.079767 0.750000
O O6 0.709519 0.973608 0.750000
O O7 0.412749 0.738198 0.581011
O O8 0.645007 0.678850 0.670329
O O9 0.576346 0.567698 0.563602
O O10 0.844730 0.250000 0.500000
O O11 0.726259 0.398775 0.553585
O O12 0.598987 0.683623 0.250000
O O13 0.548363 0.441507 0.830215
O O14 0.813906 0.517802 0.835587
#
# Coordination Sequence:
#
# PCOD9438321 Si02
#       8
#     4   4   8   8   4   8   4   4
#     4  10  22  37  64  88 122 163 201 248 304 363
#     4   9  17  29  54  90 115 153 200 233 303 356
#     4  10  21  33  58  88 118 157 201 254 296 359
#     4  11  23  41  62  87 123 161 201 251 307 363
#     4  11  17  33  62  90 119 156 207 245 297 358
#     4   9  19  34  53  84 122 149 198 250 295 353
#     4   9  14  29  55  85 114 144 193 242 282 353
#     4   9  16  30  55  89 118 158 193 244 298 358
#
# _framework density 21.476020999999999
#
# number of rings (size 3 to 8) (size 9 to 14) (size 15 to 20)
#    0.000    2.182    2.727    3.273    0.000    3.636 
#    0.000    0.909    0.000    9.818    0.000    0.000 
#    0.000    0.000    0.000    0.000    0.000    0.000 
#
# Total GULP energy -245054.946131 kJ/mol
# GULP energy per Si atom -5569.430594 kJ/mol
# Density = 2.142714 g / cm^3
# Si number density = 21.476021 Si / 1000 Ang^3
#
#
#
# Elastic Constant Matrix: (Units=GPa)
#
#
# Indices 1 2 3 4 5 6 
#
# 1 120.5976 50.8565 25.8351 0.0000 0.0000 0.0000
# 2 50.8565 96.2041 3.1204 0.0000 0.0000 0.0000
# 3 25.8351 3.1204 60.6234 0.0000 0.0000 0.0000
# 4 0.0000 0.0000 0.0000 15.3252 0.0000 0.0000
# 5 0.0000 0.0000 0.0000 0.0000 1.9993 0.0000
# 6 0.0000 0.0000 0.0000 0.0000 0.0000 40.8162
#
#
#
# Elastic Compliance Matrix: (Units=1/GPa)
#
#
# Indices 1 2 3 4 5 6 
#
# 1 0.011898 -0.006135 -0.004755 0.000000 0.000000 0.000000
# 2 -0.006135 0.013576 0.001916 0.000000 0.000000 0.000000
# 3 -0.004755 0.001916 0.018423 0.000000 0.000000 0.000000
# 4 0.000000 0.000000 0.000000 0.065252 0.000000 0.000000
# 5 0.000000 0.000000 0.000000 0.000000 0.500178 0.000000
# 6 0.000000 0.000000 0.000000 0.000000 0.000000 0.024500
#
#
# Mechanical properties :
#
#
# Convention : Reuss Voigt Hill
#
# Bulk Modulus (GPa) = 38.53809 48.56102 43.54955
# Shear Modulus (GPa) = 7.57089 24.80235 16.18662
#
# Velocity S-wave (km/s) = 1.87961 3.40205 2.74835
# Velocity P-wave (km/s) = 4.76385 6.17193 5.51303
#
# Compressibility (1/GPa) = 0.02594835
#
# Stress axis : x y z
#
# Youngs Moduli (GPa) = 84.04833 73.66058 54.28036
#
# Poissons Ratio (x) = 0.45194 0.25808
# Poissons Ratio (y) = 0.51567 -0.10399
# Poissons Ratio (z) = 0.39961 -0.14112
#
# Static dielectric constant tensor:
#      x y z
#    x 1.775230 0.000000 0.000000 
#    y 0.000000 1.840310 0.000000 
#    z 0.000000 0.000000 1.826910 
# 
# From -- ./inp_files/20884.got.cif
#   From: 2010.05.17/outbox.cif.g08.bks.cpg/sg57_11_cif.got.tgz:20884.got - 2010.06.03 13:58:18.
