data_PCOD9438080
_publ_section_title
;
Structure prediction by ZEFSAII (Michael W. Deem and Ramdas Pophale) SiO2 
 PCOD9438080
Probable space group: P B C M
;
_chemical_formula_sum "Si O2"
_cell_formula_units_Z 56
_cell_length_a 11.378424
_cell_length_b 14.546772
_cell_length_c 16.461036
_cell_angle_alpha 90.000000
_cell_angle_beta 90.000000
_cell_angle_gamma 90.000000
_cell_volume 2724.619809
_symmetry_space_group_name_H-M "P B C M"
_symmetry_group_IT_number 57
_symmetry_cell_setting 'orthorhombic'
loop_
_space_group_symop_operation_xyz
x,y,z
-x,-y,1/2+z
x,1/2-y,-z
-x,1/2+y,1/2-z
-x,-y,-z
x,y,1/2-z
-x,1/2+y,z
x,1/2-y,1/2+z
loop_
_atom_site_type_symbol
_atom_site_label
_atom_site_fract_x
_atom_site_fract_y
_atom_site_fract_z
Si Si1 0.096503 0.116841 0.657939
Si Si2 0.067157 0.020629 0.416843
Si Si3 0.328875 0.973775 0.039696
Si Si4 0.276985 0.812913 0.578048
Si Si5 0.975776 0.307801 0.654444
Si Si6 0.455527 0.832032 0.346617
Si Si7 0.682812 0.657209 0.548607
O O1 0.141378 0.125626 0.750000
O O2 0.202803 0.118305 0.594555
O O3 0.013856 0.028713 0.649604
O O4 0.011840 0.202905 0.639504
O O5 0.197155 0.982093 0.424732
O O6 0.000000 0.000000 0.500000
O O7 0.062615 0.127644 0.396425
O O8 0.404415 0.922279 0.107860
O O9 0.324682 0.907256 0.960644
O O10 0.362972 0.075840 0.010703
O O11 0.246315 0.750000 0.500000
O O12 0.157561 0.826896 0.627575
O O13 0.372486 0.753884 0.627696
O O14 0.989460 0.324954 0.750000
O O15 0.457479 0.842017 0.250000
O O16 0.583484 0.818913 0.385495
O O17 0.709741 0.750000 0.500000
#
# Coordination Sequence:
#
# PCOD9438080 Si02
#       7
#     8   8   8   8   8   8   8
#     4  11  24  39  61  92 130 167 204 259 320 371
#     4  12  22  38  63  95 127 164 206 253 310 385
#     4  11  23  41  67  94 123 166 215 257 313 380
#     4  10  20  38  65  91 121 159 209 258 312 380
#     4  11  23  37  59  93 127 161 203 255 315 373
#     4  11  25  44  65  92 126 161 210 270 324 369
#     4  12  24  43  66  90 126 169 221 262 309 379
#
# _framework density 20.553325999999998
#
# number of rings (size 3 to 8) (size 9 to 14) (size 15 to 20)
#    0.000    0.857    2.857    5.571    0.000    2.286 
#    0.000    5.000    0.000    0.000    0.000    0.000 
#    0.000    0.000    0.000    0.000    0.000    0.000 
#
# Total GULP energy -313218.452263 kJ/mol
# GULP energy per Si atom -5593.186648 kJ/mol
# Density = 2.050655 g / cm^3
# Si number density = 20.553326 Si / 1000 Ang^3
#
#
#
# Elastic Constant Matrix: (Units=GPa)
#
#
# Indices 1 2 3 4 5 6 
#
# 1 82.7300 -3.0828 31.9518 0.0000 0.0000 0.0000
# 2 -3.0828 93.4641 16.8627 0.0000 0.0000 0.0000
# 3 31.9518 16.8627 85.8517 0.0000 0.0000 0.0000
# 4 0.0000 0.0000 0.0000 24.2530 0.0000 0.0000
# 5 0.0000 0.0000 0.0000 0.0000 30.1592 0.0000
# 6 0.0000 0.0000 0.0000 0.0000 0.0000 24.3229
#
#
#
# Elastic Compliance Matrix: (Units=1/GPa)
#
#
# Indices 1 2 3 4 5 6 
#
# 1 0.014313 0.001486 -0.005619 0.000000 0.000000 0.000000
# 2 0.001486 0.011247 -0.002762 0.000000 0.000000 0.000000
# 3 -0.005619 -0.002762 0.014282 0.000000 0.000000 0.000000
# 4 0.000000 0.000000 0.000000 0.041232 0.000000 0.000000
# 5 0.000000 0.000000 0.000000 0.000000 0.033157 0.000000
# 6 0.000000 0.000000 0.000000 0.000000 0.000000 0.041114
#
#
# Mechanical properties :
#
#
# Convention : Reuss Voigt Hill
#
# Bulk Modulus (GPa) = 38.38571 39.27878 38.83224
# Shear Modulus (GPa) = 28.11866 30.16795 29.14331
#
# Velocity S-wave (km/s) = 3.70277 3.83533 3.76963
# Velocity P-wave (km/s) = 6.08255 6.22617 6.15478
#
# Compressibility (1/GPa) = 0.02605136
#
# Stress axis : x y z
#
# Youngs Moduli (GPa) = 69.86680 88.91553 70.01986
#
# Poissons Ratio (x) = -0.13211 0.39342
# Poissons Ratio (y) = -0.10381 0.19340
# Poissons Ratio (z) = 0.39256 0.24559
#
# Static dielectric constant tensor:
#      x y z
#    x 1.713600 0.000000 0.000000 
#    y 0.000000 1.737250 0.000000 
#    z 0.000000 0.000000 1.714660 
# 
# From -- ./inp_files/17741.got.cif
#   From: 2010.05.17/outbox.cif.g08.bks.cpg/sg57_9_cif.got.tgz:17741.got - 2010.06.03 13:58:18.
