data_PCOD9438979
_publ_section_title
;
Structure prediction by ZEFSAII (Michael W. Deem and Ramdas Pophale) SiO2 
 PCOD9438979
Probable space group: P B C M
;
_chemical_formula_sum "Si O2"
_cell_formula_units_Z 36
_cell_length_a 23.797019
_cell_length_b 5.273692
_cell_length_c 14.152354
_cell_angle_alpha 90.000000
_cell_angle_beta 90.000000
_cell_angle_gamma 90.000000
_cell_volume 1776.094227
_symmetry_space_group_name_H-M "P B C M"
_symmetry_group_IT_number 57
_symmetry_cell_setting 'orthorhombic'
loop_
_space_group_symop_operation_xyz
x,y,z
-x,-y,1/2+z
x,1/2-y,-z
-x,1/2+y,1/2-z
-x,-y,-z
x,y,1/2-z
-x,1/2+y,z
x,1/2-y,1/2+z
loop_
_atom_site_type_symbol
_atom_site_label
_atom_site_fract_x
_atom_site_fract_y
_atom_site_fract_z
Si Si1 0.021877 0.459906 0.890513
Si Si2 0.462845 0.328781 0.750000
Si Si3 0.707106 0.251527 0.612660
Si Si4 0.883756 0.688824 0.250000
Si Si5 0.361715 0.250506 0.887307
Si Si6 0.808557 0.190647 0.250000
O O1 0.078540 0.338946 0.846451
O O2 0.021296 0.747153 0.854292
O O3 0.000000 0.500000 0.000000
O O4 0.492401 0.601232 0.750000
O O5 0.421055 0.296705 0.838434
O O6 0.713671 0.250000 0.500000
O O7 0.665061 0.480122 0.638919
O O8 0.766235 0.305191 0.661379
O O9 0.680191 0.980730 0.639074
O O10 0.843007 0.449316 0.250000
O O11 0.849045 0.948280 0.250000
O O12 0.367999 0.250000 0.000000
#
# Coordination Sequence:
#
# PCOD9438979 Si02
#       6
#     8   4   8   4   8   4
#     4  10  21  41  65  86 116 161 207 240 284 363
#     4  12  24  36  56  92 128 156 204 268 314 350
#     4  10  21  41  64  87 119 162 210 247 302 384
#     4  12  24  40  62  96 124 156 202 252 316 364
#     4  10  21  39  64  85 115 171 214 243 300 379
#     4  12  24  40  62  96 130 154 188 270 326 354
#
# _framework density 20.269195
#
# number of rings (size 3 to 8) (size 9 to 14) (size 15 to 20)
#    0.000    1.333    0.000    6.000    0.000    0.889 
#   12.000    0.000    0.000    0.000    0.000    0.000 
#    0.000    0.000    0.000    0.000    0.000    0.000 
#
# Total GULP energy -200650.629627 kJ/mol
# GULP energy per Si atom -5573.628601 kJ/mol
# Density = 2.022306 g / cm^3
# Si number density = 20.269195 Si / 1000 Ang^3
#
#
#
# Elastic Constant Matrix: (Units=GPa)
#
#
# Indices 1 2 3 4 5 6 
#
# 1 87.9407 22.3484 35.1634 0.0000 0.0000 0.0000
# 2 22.3484 139.3721 14.8979 0.0000 0.0000 0.0000
# 3 35.1634 14.8979 129.8505 0.0000 0.0000 0.0000
# 4 0.0000 0.0000 0.0000 -13.5548 0.0000 0.0000
# 5 0.0000 0.0000 0.0000 0.0000 59.8967 0.0000
# 6 0.0000 0.0000 0.0000 0.0000 0.0000 56.4506
#
#
#
# Elastic Compliance Matrix: (Units=1/GPa)
#
#
# Indices 1 2 3 4 5 6 
#
# 1 0.013161 -0.001751 -0.003363 0.000000 0.000000 0.000000
# 2 -0.001751 0.007497 -0.000386 0.000000 0.000000 0.000000
# 3 -0.003363 -0.000386 0.008656 0.000000 0.000000 0.000000
# 4 0.000000 0.000000 0.000000 -0.073775 0.000000 0.000000
# 5 0.000000 0.000000 0.000000 0.000000 0.016695 0.000000
# 6 0.000000 0.000000 0.000000 0.000000 0.000000 0.017715
#
#
# Mechanical properties :
#
#
# Convention : Reuss Voigt Hill
#
# Bulk Modulus (GPa) = 54.60231 55.77584 55.18908
# Shear Modulus (GPa) = 708.77108 39.54207 374.15657
#
# Velocity S-wave (km/s) = 18.71999 4.42163 13.60127
# Velocity P-wave (km/s) = 22.23168 7.32428 16.55133
#
# Compressibility (1/GPa) = 0.01831424
#
# Stress axis : x y z
#
# Youngs Moduli (GPa) = 75.98204 133.38576 115.52439
#
# Poissons Ratio (x) = 0.23354 0.38852
# Poissons Ratio (y) = 0.13304 0.04459
# Poissons Ratio (z) = 0.25554 0.05149
#
# Static dielectric constant tensor:
#      x y z
#    x 1.687500 0.000000 0.000000 
#    y 0.000000 1.763890 0.000000 
#    z 0.000000 0.000000 1.751170 
# 
# From -- ./inp_files/19254.got.cif
#   From: 2010.05.17/outbox.cif.g08.bks.cpg/sg57_10_cif.got.tgz:19254.got - 2010.06.03 13:58:18.
