data_PCOD9438176
_publ_section_title
;
Structure prediction by ZEFSAII (Michael W. Deem and Ramdas Pophale) SiO2 
 PCOD9438176
Probable space group: P B C M
;
_chemical_formula_sum "Si O2"
_cell_formula_units_Z 56
_cell_length_a 13.103513
_cell_length_b 14.456378
_cell_length_c 14.179196
_cell_angle_alpha 90.000000
_cell_angle_beta 90.000000
_cell_angle_gamma 90.000000
_cell_volume 2685.955698
_symmetry_space_group_name_H-M "P B C M"
_symmetry_group_IT_number 57
_symmetry_cell_setting 'orthorhombic'
loop_
_space_group_symop_operation_xyz
x,y,z
-x,-y,1/2+z
x,1/2-y,-z
-x,1/2+y,1/2-z
-x,-y,-z
x,y,1/2-z
-x,1/2+y,z
x,1/2-y,1/2+z
loop_
_atom_site_type_symbol
_atom_site_label
_atom_site_fract_x
_atom_site_fract_y
_atom_site_fract_z
Si Si1 0.352873 0.267193 0.135477
Si Si2 0.172575 0.367398 0.643394
Si Si3 0.653365 0.979743 0.363836
Si Si4 0.552940 0.338251 0.863950
Si Si5 0.956731 0.178680 0.080952
Si Si6 0.184786 0.955151 0.489428
Si Si7 0.247960 0.783320 0.360217
O O1 0.355486 0.269298 0.250000
O O2 0.248560 0.214300 0.110655
O O3 0.362413 0.373942 0.106889
O O4 0.449554 0.208302 0.101890
O O5 0.203762 0.393053 0.750000
O O6 0.178885 0.455402 0.575909
O O7 0.055257 0.335636 0.643753
O O8 0.666730 0.983036 0.250000
O O9 0.566588 0.054398 0.390262
O O10 0.750735 0.017833 0.418869
O O11 0.549205 0.336826 0.750000
O O12 0.653290 0.277692 0.887555
O O13 0.854964 0.222014 0.128007
O O14 0.988123 0.250000 0.000000
O O15 0.920755 0.085716 0.028660
O O16 0.234372 0.871772 0.427809
O O17 0.258133 0.809840 0.250000
#
# Coordination Sequence:
#
# PCOD9438176 Si02
#       7
#     8   8   8   8   8   8   8
#     4   9  21  40  62  93 128 167 213 258 310 378
#     4  11  24  42  62  89 130 171 206 255 324 381
#     4  10  21  39  65  94 124 168 216 257 313 378
#     4   9  18  37  66  91 124 166 209 261 312 366
#     4  10  22  39  64  88 124 163 212 266 311 373
#     4  11  23  39  63  96 127 159 209 268 315 378
#     4  10  20  39  65  94 124 163 209 259 316 374
#
# _framework density 20.849191000000001
#
# number of rings (size 3 to 8) (size 9 to 14) (size 15 to 20)
#    0.000    2.000    1.429    1.286    2.000    1.714 
#    0.000    8.571    0.000    0.000    0.000    0.000 
#    0.000    0.000    0.000    0.000    0.000    0.000 
#
# Total GULP energy -312740.727068 kJ/mol
# GULP energy per Si atom -5584.655840 kJ/mol
# Density = 2.080174 g / cm^3
# Si number density = 20.849191 Si / 1000 Ang^3
#
#
#
# Elastic Constant Matrix: (Units=GPa)
#
#
# Indices 1 2 3 4 5 6 
#
# 1 116.6379 90.8107 24.5848 0.0000 0.0000 0.0000
# 2 90.8107 176.2541 36.5707 0.0000 0.0000 0.0000
# 3 24.5848 36.5707 76.3402 0.0000 0.0000 0.0000
# 4 0.0000 0.0000 0.0000 30.4846 0.0000 0.0000
# 5 0.0000 0.0000 0.0000 0.0000 -154.1217 0.0000
# 6 0.0000 0.0000 0.0000 0.0000 0.0000 5.1037
#
#
#
# Elastic Compliance Matrix: (Units=1/GPa)
#
#
# Indices 1 2 3 4 5 6 
#
# 1 0.014415 -0.007177 -0.001204 0.000000 0.000000 0.000000
# 2 -0.007177 0.009873 -0.002418 0.000000 0.000000 0.000000
# 3 -0.001204 -0.002418 0.014646 0.000000 0.000000 0.000000
# 4 0.000000 0.000000 0.000000 0.032803 0.000000 0.000000
# 5 0.000000 0.000000 0.000000 0.000000 -0.006488 0.000000
# 6 0.000000 0.000000 0.000000 0.000000 0.000000 0.195936
#
#
# Mechanical properties :
#
#
# Convention : Reuss Voigt Hill
#
# Bulk Modulus (GPa) = 57.68791 74.79606 66.24198
# Shear Modulus (GPa) = 17.32725 -9.22228 4.05249
#
# Velocity S-wave (km/s) = 2.88597 -2.10545 1.39568
# Velocity P-wave (km/s) = 6.23171 5.48107 5.86841
#
# Compressibility (1/GPa) = 0.01733466
#
# Stress axis : x y z
#
# Youngs Moduli (GPa) = 69.37019 101.28242 68.28007
#
# Poissons Ratio (x) = 0.72694 0.08221
# Poissons Ratio (y) = 0.49790 0.16513
# Poissons Ratio (z) = 0.08353 0.24494
#
# Static dielectric constant tensor:
#      x y z
#    x 1.731830 0.000000 0.000000 
#    y 0.000000 1.733860 0.000000 
#    z 0.000000 0.000000 1.764160 
# 
# From -- ./inp_files/17709.got.cif
#   From: 2010.05.17/outbox.cif.g08.bks.cpg/sg57_9_cif.got.tgz:17709.got - 2010.06.03 13:58:18.
