data_PCOD9438395
_publ_section_title
;
Structure prediction by ZEFSAII (Michael W. Deem and Ramdas Pophale) SiO2 
 PCOD9438395
Probable space group: P B C M
;
_chemical_formula_sum "Si O2"
_cell_formula_units_Z 40
_cell_length_a 7.375014
_cell_length_b 7.376162
_cell_length_c 28.203918
_cell_angle_alpha 90.000000
_cell_angle_beta 90.000000
_cell_angle_gamma 90.000000
_cell_volume 1534.273341
_symmetry_space_group_name_H-M "P B C M"
_symmetry_group_IT_number 57
_symmetry_cell_setting 'orthorhombic'
loop_
_space_group_symop_operation_xyz
x,y,z
-x,-y,1/2+z
x,1/2-y,-z
-x,1/2+y,1/2-z
-x,-y,-z
x,y,1/2-z
-x,1/2+y,z
x,1/2-y,1/2+z
loop_
_atom_site_type_symbol
_atom_site_label
_atom_site_fract_x
_atom_site_fract_y
_atom_site_fract_z
Si Si1 0.053579 0.619727 0.750000
Si Si2 0.802258 0.265287 0.348191
Si Si3 0.431002 0.363863 0.651580
Si Si4 0.704310 0.743276 0.250000
Si Si5 0.404282 0.349553 0.548697
Si Si6 0.801116 0.267580 0.450160
O O1 0.087247 0.724016 0.799849
O O2 0.179249 0.443856 0.750000
O O3 0.839594 0.588875 0.750000
O O4 0.647835 0.112821 0.348562
O O5 0.687182 0.453350 0.348355
O O6 0.899275 0.247185 0.399481
O O7 0.401452 0.262753 0.701194
O O8 0.379881 0.268263 0.601619
O O9 0.355490 0.250000 0.500000
O O10 0.625258 0.365552 0.546894
O O11 0.296071 0.536776 0.550202
O O12 0.905248 0.250000 0.500000
#
# Coordination Sequence:
#
# PCOD9438395 Si02
#       6
#     4   8   8   4   8   8
#     4  10  21  36  50  68  94 124 157 196 236 278
#     4   9  18  31  49  72  97 122 154 193 232 274
#     4   9  18  31  49  72  97 122 154 193 232 274
#     4  10  21  36  50  68  94 124 157 196 236 278
#     4   9  15  24  40  65  94 121 147 182 225 270
#     4   9  15  24  40  65  94 121 147 182 225 270
#
# _framework density 26.070975000000001
#
# number of rings (size 3 to 8) (size 9 to 14) (size 15 to 20)
#    0.000    2.800    0.000    3.000    0.000    3.200 
#    0.000    0.000    0.000    1.200    0.000    8.400 
#    0.000    0.000    0.000    0.000    0.000    0.000 
#
# Total GULP energy -223211.458791 kJ/mol
# GULP energy per Si atom -5580.286470 kJ/mol
# Density = 2.601164 g / cm^3
# Si number density = 26.070975 Si / 1000 Ang^3
#
#
#
# Elastic Constant Matrix: (Units=GPa)
#
#
# Indices 1 2 3 4 5 6 
#
# 1 24.2038 -8.2262 30.1086 0.0000 0.0000 0.0000
# 2 -8.2262 56.5790 39.4322 0.0000 0.0000 0.0000
# 3 30.1086 39.4322 314.1965 0.0000 0.0000 0.0000
# 4 0.0000 0.0000 0.0000 41.0252 0.0000 0.0000
# 5 0.0000 0.0000 0.0000 0.0000 -18.6485 0.0000
# 6 0.0000 0.0000 0.0000 0.0000 0.0000 15.9079
#
#
#
# Elastic Compliance Matrix: (Units=1/GPa)
#
#
# Indices 1 2 3 4 5 6 
#
# 1 0.053975 0.012550 -0.006747 0.000000 0.000000 0.000000
# 2 0.012550 0.022287 -0.004000 0.000000 0.000000 0.000000
# 3 -0.006747 -0.004000 0.004331 0.000000 0.000000 0.000000
# 4 0.000000 0.000000 0.000000 0.024375 0.000000 0.000000
# 5 0.000000 0.000000 0.000000 0.000000 -0.053623 0.000000
# 6 0.000000 0.000000 0.000000 0.000000 0.000000 0.062862
#
#
# Mechanical properties :
#
#
# Convention : Reuss Voigt Hill
#
# Bulk Modulus (GPa) = 11.87668 57.51205 34.69437
# Shear Modulus (GPa) = 36.05781 29.90121 32.97951
#
# Velocity S-wave (km/s) = 3.72299 3.39029 3.56053
# Velocity P-wave (km/s) = 4.80065 6.11826 5.49906
#
# Compressibility (1/GPa) = 0.08419859
#
# Stress axis : x y z
#
# Youngs Moduli (GPa) = 18.52722 44.87001 230.87984
#
# Poissons Ratio (x) = -0.56312 1.55781
# Poissons Ratio (y) = -0.23252 0.92344
# Poissons Ratio (z) = 0.12501 0.17946
#
# Static dielectric constant tensor:
#      x y z
#    x 1.977980 0.000000 0.000000 
#    y 0.000000 2.094660 0.000000 
#    z 0.000000 0.000000 2.091360 
# 
# From -- ./inp_files/1707.got.cif
#   From: 2010.05.17/outbox.cif.g08.bks.cpg/sg57_1_cif.got.tgz:1707.got - 2010.06.03 13:58:18.
