data_PCOD9438584
_publ_section_title
;
Structure prediction by ZEFSAII (Michael W. Deem and Ramdas Pophale) SiO2 
 PCOD9438584
Probable space group: P B C M
;
_chemical_formula_sum "Si O2"
_cell_formula_units_Z 48
_cell_length_a 31.415853
_cell_length_b 9.457257
_cell_length_c 8.708838
_cell_angle_alpha 90.000000
_cell_angle_beta 90.000000
_cell_angle_gamma 90.000000
_cell_volume 2587.463661
_symmetry_space_group_name_H-M "P B C M"
_symmetry_group_IT_number 57
_symmetry_cell_setting 'orthorhombic'
loop_
_space_group_symop_operation_xyz
x,y,z
-x,-y,1/2+z
x,1/2-y,-z
-x,1/2+y,1/2-z
-x,-y,-z
x,y,1/2-z
-x,1/2+y,z
x,1/2-y,1/2+z
loop_
_atom_site_type_symbol
_atom_site_label
_atom_site_fract_x
_atom_site_fract_y
_atom_site_fract_z
Si Si1 0.211868 0.092018 0.066118
Si Si2 0.710723 0.091982 0.433602
Si Si3 0.961733 0.407940 0.566255
Si Si4 0.537548 0.593660 0.433177
Si Si5 0.365683 0.091297 0.065453
Si Si6 0.871365 0.093034 0.933769
O O1 0.217591 0.097073 0.250000
O O2 0.167593 0.011371 0.033374
O O3 0.211766 0.250000 0.000000
O O4 0.249757 0.000964 0.993034
O O5 0.713516 0.250000 0.500000
O O6 0.710918 0.097232 0.250000
O O7 0.668308 0.014280 0.493311
O O8 0.966023 0.250000 0.500000
O O9 0.962743 0.405946 0.750000
O O10 0.915488 0.458797 0.508068
O O11 0.000000 0.500000 0.500000
O O12 0.533153 0.750000 0.500000
O O13 0.500000 0.500000 0.500000
O O14 0.534322 0.597580 0.250000
O O15 0.585768 0.546088 0.471776
O O16 0.360921 0.095337 0.250000
O O17 0.359425 0.250000 0.000000
O O18 0.876709 0.104463 0.750000
O O19 0.862582 0.250000 0.000000
#
# Coordination Sequence:
#
# PCOD9438584 Si02
#       6
#     8   8   8   8   8   8
#     4  11  24  41  62  88 119 154 193 237 286 342
#     4  12  25  41  62  87 117 152 192 238 287 342
#     4  11  22  38  60  86 118 155 196 241 290 344
#     4  10  21  37  59  85 116 153 193 238 287 342
#     4  10  21  39  61  86 116 152 193 237 288 342
#     4  10  21  38  60  86 116 152 194 239 290 344
#
# _framework density 18.550984
#
# number of rings (size 3 to 8) (size 9 to 14) (size 15 to 20)
#    0.000    1.333    0.000    7.000    0.000    7.333 
#    0.000    1.667    0.000    0.000    0.000    0.000 
#    0.000    0.000    0.000    0.000    0.000    0.000 
#
# Total GULP energy -268402.192965 kJ/mol
# GULP energy per Si atom -5591.712353 kJ/mol
# Density = 1.850876 g / cm^3
# Si number density = 18.550984 Si / 1000 Ang^3
#
#
#
# Elastic Constant Matrix: (Units=GPa)
#
#
# Indices 1 2 3 4 5 6 
#
# 1 200.1331 121.8502 112.2911 0.0000 0.0000 0.0000
# 2 121.8502 129.4568 79.5795 0.0000 0.0000 0.0000
# 3 112.2911 79.5795 144.5491 0.0000 0.0000 0.0000
# 4 0.0000 0.0000 0.0000 38.1608 0.0000 0.0000
# 5 0.0000 0.0000 0.0000 0.0000 34.7974 0.0000
# 6 0.0000 0.0000 0.0000 0.0000 0.0000 40.2555
#
#
#
# Elastic Compliance Matrix: (Units=1/GPa)
#
#
# Indices 1 2 3 4 5 6 
#
# 1 0.014119 -0.009896 -0.005520 0.000000 0.000000 0.000000
# 2 -0.009896 0.018612 -0.002559 0.000000 0.000000 0.000000
# 3 -0.005520 -0.002559 0.012615 0.000000 0.000000 0.000000
# 4 0.000000 0.000000 0.000000 0.026205 0.000000 0.000000
# 5 0.000000 0.000000 0.000000 0.000000 0.028738 0.000000
# 6 0.000000 0.000000 0.000000 0.000000 0.000000 0.024841
#
#
# Mechanical properties :
#
#
# Convention : Reuss Voigt Hill
#
# Bulk Modulus (GPa) = 106.42818 122.39785 114.41301
# Shear Modulus (GPa) = 30.44816 33.33729 31.89272
#
# Velocity S-wave (km/s) = 4.05572 4.24378 4.15081
# Velocity P-wave (km/s) = 8.91218 9.49396 9.20767
#
# Compressibility (1/GPa) = 0.00939601
#
# Stress axis : x y z
#
# Youngs Moduli (GPa) = 70.82548 53.72738 79.27022
#
# Poissons Ratio (x) = 0.53170 0.43758
# Poissons Ratio (y) = 0.70091 0.20285
# Poissons Ratio (z) = 0.39096 0.13749
#
# Static dielectric constant tensor:
#      x y z
#    x 1.639800 0.000000 0.000000 
#    y 0.000000 1.663900 0.000000 
#    z 0.000000 0.000000 1.618990 
# 
# From -- ./inp_files/9931.got.cif
#   From: 2010.05.17/outbox.cif.g08.bks.cpg/sg57_5_cif.got.tgz:9931.got - 2010.06.03 13:58:18.
