data_PCOD9438605
_publ_section_title
;
Structure prediction by ZEFSAII (Michael W. Deem and Ramdas Pophale) SiO2 
 PCOD9438605
Probable space group: P B C M
;
_chemical_formula_sum "Si O2"
_cell_formula_units_Z 40
_cell_length_a 9.271975
_cell_length_b 26.236115
_cell_length_c 8.826164
_cell_angle_alpha 90.000000
_cell_angle_beta 90.000000
_cell_angle_gamma 90.000000
_cell_volume 2147.057971
_symmetry_space_group_name_H-M "P B C M"
_symmetry_group_IT_number 57
_symmetry_cell_setting 'orthorhombic'
loop_
_space_group_symop_operation_xyz
x,y,z
-x,-y,1/2+z
x,1/2-y,-z
-x,1/2+y,1/2-z
-x,-y,-z
x,y,1/2-z
-x,1/2+y,z
x,1/2-y,1/2+z
loop_
_atom_site_type_symbol
_atom_site_label
_atom_site_fract_x
_atom_site_fract_y
_atom_site_fract_z
Si Si1 0.166185 0.599970 0.068065
Si Si2 0.331405 0.804570 0.069567
Si Si3 0.170422 0.097956 0.432055
Si Si4 0.670792 0.804932 0.068401
Si Si5 0.659809 0.997858 0.067743
O O1 0.174836 0.605218 0.250000
O O2 0.254032 0.549236 0.025447
O O3 0.998386 0.594667 0.027166
O O4 0.237422 0.649468 0.994420
O O5 0.317893 0.802093 0.250000
O O6 0.500858 0.813389 0.033017
O O7 0.289914 0.750000 0.000000
O O8 0.183568 0.096677 0.250000
O O9 0.237238 0.150092 0.495436
O O10 0.256555 0.050824 0.502996
O O11 0.687244 0.804501 0.250000
O O12 0.710756 0.750000 0.000000
O O13 0.653019 0.994658 0.250000
O O14 0.500000 0.000000 0.000000
#
# Coordination Sequence:
#
# PCOD9438605 Si02
#       5
#     8   8   8   8   8
#     4  10  23  40  58  83 117 153 190 233 285 340
#     4  10  21  37  60  86 114 149 191 236 283 336
#     4  11  23  39  59  85 117 153 191 235 285 340
#     4  10  21  38  60  87 116 151 194 239 286 339
#     4  11  23  40  62  87 115 150 191 237 286 341
#
# _framework density 18.630144000000001
#
# number of rings (size 3 to 8) (size 9 to 14) (size 15 to 20)
#    0.000    1.600    0.000    4.200    0.000    9.600 
#    0.000    0.000    0.000    0.000    0.000    0.000 
#    0.000    0.000    0.000    0.000    0.000    0.000 
#
# Total GULP energy -223675.983294 kJ/mol
# GULP energy per Si atom -5591.899582 kJ/mol
# Density = 1.858774 g / cm^3
# Si number density = 18.630144 Si / 1000 Ang^3
#
#
#
# Elastic Constant Matrix: (Units=GPa)
#
#
# Indices 1 2 3 4 5 6 
#
# 1 165.9491 138.9690 73.5346 0.0000 0.0000 0.0000
# 2 138.9690 207.3391 74.7606 0.0000 0.0000 0.0000
# 3 73.5346 74.7606 59.4848 0.0000 0.0000 0.0000
# 4 0.0000 0.0000 0.0000 41.5566 0.0000 0.0000
# 5 0.0000 0.0000 0.0000 0.0000 31.7735 0.0000
# 6 0.0000 0.0000 0.0000 0.0000 0.0000-1517.4506
#
#
#
# Elastic Compliance Matrix: (Units=1/GPa)
#
#
# Indices 1 2 3 4 5 6 
#
# 1 0.017878 -0.007340 -0.012876 0.000000 0.000000 0.000000
# 2 -0.007340 0.011834 -0.005798 0.000000 0.000000 0.000000
# 3 -0.012876 -0.005798 0.040015 0.000000 0.000000 0.000000
# 4 0.000000 0.000000 0.000000 0.024064 0.000000 0.000000
# 5 0.000000 0.000000 0.000000 0.000000 0.031473 0.000000
# 6 0.000000 0.000000 0.000000 0.000000 0.000000 -0.000659
#
#
# Mechanical properties :
#
#
# Convention : Reuss Voigt Hill
#
# Bulk Modulus (GPa) = 56.50258 111.92238 84.21248
# Shear Modulus (GPa) = 27.39235 -279.12351 -125.86558
#
# Velocity S-wave (km/s) = 3.83864 -12.25352 -8.22842
# Velocity P-wave (km/s) = 7.07399 11.83182 6.70637
#
# Compressibility (1/GPa) = 0.01769831
#
# Stress axis : x y z
#
# Youngs Moduli (GPa) = 55.93386 84.50488 24.99049
#
# Poissons Ratio (x) = 0.62029 0.32177
# Poissons Ratio (y) = 0.41057 0.14491
# Poissons Ratio (z) = 0.72018 0.49000
#
# Static dielectric constant tensor:
#      x y z
#    x 1.622810 0.000000 0.000000 
#    y 0.000000 1.602140 0.000000 
#    z 0.000000 0.000000 1.622940 
# 
# From -- ./inp_files/1482.got.cif
#   From: 2010.05.17/outbox.cif.g08.bks.cpg/sg57_1_cif.got.tgz:1482.got - 2010.06.03 13:58:18.
