data_PCOD9438124
_publ_section_title
;
Structure prediction by ZEFSAII (Michael W. Deem and Ramdas Pophale) SiO2 
 PCOD9438124
Probable space group: P B C M
;
_chemical_formula_sum "Si O2"
_cell_formula_units_Z 64
_cell_length_a 20.052320
_cell_length_b 8.765509
_cell_length_c 19.179308
_cell_angle_alpha 90.000000
_cell_angle_beta 90.000000
_cell_angle_gamma 90.000000
_cell_volume 3371.123788
_symmetry_space_group_name_H-M "P B C M"
_symmetry_group_IT_number 57
_symmetry_cell_setting 'orthorhombic'
loop_
_space_group_symop_operation_xyz
x,y,z
-x,-y,1/2+z
x,1/2-y,-z
-x,1/2+y,1/2-z
-x,-y,-z
x,y,1/2-z
-x,1/2+y,z
x,1/2-y,1/2+z
loop_
_atom_site_type_symbol
_atom_site_label
_atom_site_fract_x
_atom_site_fract_y
_atom_site_fract_z
Si Si1 0.439210 0.876549 0.554511
Si Si2 0.198885 0.707693 0.666374
Si Si3 0.587990 0.893470 0.948603
Si Si4 0.674571 0.735512 0.668536
Si Si5 0.937422 0.688588 0.921443
Si Si6 0.661500 0.130112 0.331725
Si Si7 0.177530 0.350418 0.667513
Si Si8 0.922084 0.175918 0.423480
O O1 0.457962 0.750000 0.500000
O O2 0.512346 0.941191 0.574577
O O3 0.399271 0.817573 0.620385
O O4 0.391766 0.979036 0.505097
O O5 0.191683 0.724359 0.750000
O O6 0.270134 0.783846 0.648242
O O7 0.191020 0.527994 0.649534
O O8 0.140166 0.791398 0.625802
O O9 0.631569 0.842733 0.882667
O O10 0.589032 0.750000 0.000000
O O11 0.660549 0.771659 0.750000
O O12 0.663356 0.554137 0.658829
O O13 0.752446 0.765928 0.655792
O O14 0.880567 0.768311 0.875339
O O15 0.933316 0.505710 0.925310
O O16 0.010516 0.742531 0.896541
O O17 0.930470 0.750000 0.000000
O O18 0.650509 0.160026 0.250000
O O19 0.161921 0.343466 0.750000
O O20 0.909950 0.250000 0.500000
#
# Coordination Sequence:
#
# PCOD9438124 Si02
#       8
#     8   8   8   8   8   8   8   8
#     4  10  22  37  59  86 116 154 193 243 296 356
#     4  10  22  40  60  85 118 153 194 244 293 350
#     4  10  20  39  59  83 117 150 193 244 296 354
#     4  10  21  38  60  84 114 154 197 246 298 357
#     4  11  22  39  62  88 120 156 195 243 294 347
#     4  10  21  39  59  83 117 155 197 244 301 359
#     4  10  22  40  60  86 118 153 197 245 294 351
#     4  11  22  39  62  88 121 156 196 244 294 349
#
# _framework density 18.984766
#
# number of rings (size 3 to 8) (size 9 to 14) (size 15 to 20)
#    0.000    1.750    1.250    3.750    1.750    3.500 
#    2.250    0.000    0.000    0.000    0.000    0.000 
#    0.000    0.000    0.000    0.000    0.000    0.000 
#
# Total GULP energy -356732.537074 kJ/mol
# GULP energy per Si atom -5573.945892 kJ/mol
# Density = 1.894156 g / cm^3
# Si number density = 18.984766 Si / 1000 Ang^3
#
#
#
# Elastic Constant Matrix: (Units=GPa)
#
#
# Indices 1 2 3 4 5 6 
#
# 1 96.7930 -0.1544 57.7671 0.0000 0.0000 0.0000
# 2 -0.1544 32.6345 2.6601 0.0000 0.0000 0.0000
# 3 57.7671 2.6601 59.8965 0.0000 0.0000 0.0000
# 4 0.0000 0.0000 0.0000 28.7267 0.0000 0.0000
# 5 0.0000 0.0000 0.0000 0.0000 43.3953 0.0000
# 6 0.0000 0.0000 0.0000 0.0000 0.0000 31.4918
#
#
#
# Elastic Compliance Matrix: (Units=1/GPa)
#
#
# Indices 1 2 3 4 5 6 
#
# 1 0.024479 0.002048 -0.023699 0.000000 0.000000 0.000000
# 2 0.002048 0.030925 -0.003348 0.000000 0.000000 0.000000
# 3 -0.023699 -0.003348 0.039701 0.000000 0.000000 0.000000
# 4 0.000000 0.000000 0.000000 0.034811 0.000000 0.000000
# 5 0.000000 0.000000 0.000000 0.000000 0.023044 0.000000
# 6 0.000000 0.000000 0.000000 0.000000 0.000000 0.031754
#
#
# Mechanical properties :
#
#
# Convention : Reuss Voigt Hill
#
# Bulk Modulus (GPa) = 22.17065 34.42995 28.30030
# Shear Modulus (GPa) = 20.02015 29.32618 24.67317
#
# Velocity S-wave (km/s) = 3.25089 3.93456 3.60895
# Velocity P-wave (km/s) = 5.07883 6.23024 5.68377
#
# Compressibility (1/GPa) = 0.04510468
#
# Stress axis : x y z
#
# Youngs Moduli (GPa) = 40.85199 32.33633 25.18830
#
# Poissons Ratio (x) = -0.06621 0.59695
# Poissons Ratio (y) = -0.08365 0.08433
# Poissons Ratio (z) = 0.96816 0.10827
#
# Static dielectric constant tensor:
#      x y z
#    x 1.652510 0.000000 0.000000 
#    y 0.000000 1.796800 0.000000 
#    z 0.000000 0.000000 1.627290 
# 
# From -- ./inp_files/25599.got.cif
#   From: 2010.05.17/outbox.cif.g08.bks.cpg/sg57_13_cif.got.tgz:25599.got - 2010.06.03 13:58:18.
