data_PCOD9438495
_publ_section_title
;
Structure prediction by ZEFSAII (Michael W. Deem and Ramdas Pophale) SiO2 
 PCOD9438495
Probable space group: P B C M
;
_chemical_formula_sum "Si O2"
_cell_formula_units_Z 64
_cell_length_a 23.930716
_cell_length_b 13.950876
_cell_length_c 9.025480
_cell_angle_alpha 90.000000
_cell_angle_beta 90.000000
_cell_angle_gamma 90.000000
_cell_volume 3013.196675
_symmetry_space_group_name_H-M "P B C M"
_symmetry_group_IT_number 57
_symmetry_cell_setting 'orthorhombic'
loop_
_space_group_symop_operation_xyz
x,y,z
-x,-y,1/2+z
x,1/2-y,-z
-x,1/2+y,1/2-z
-x,-y,-z
x,y,1/2-z
-x,1/2+y,z
x,1/2-y,1/2+z
loop_
_atom_site_type_symbol
_atom_site_label
_atom_site_fract_x
_atom_site_fract_y
_atom_site_fract_z
Si Si1 0.895085 0.155673 0.920829
Si Si2 0.286862 0.645803 0.426229
Si Si3 0.414468 0.644503 0.426092
Si Si4 0.475844 0.356700 0.072544
Si Si5 0.125743 0.062984 0.072502
Si Si6 0.751665 0.962293 0.927095
Si Si7 0.351795 0.145030 0.927490
Si Si8 0.981007 0.597594 0.578918
O O1 0.877337 0.158198 0.750000
O O2 0.962977 0.160211 0.925889
O O3 0.880681 0.048922 0.977589
O O4 0.872213 0.250000 0.000000
O O5 0.282113 0.750000 0.500000
O O6 0.277076 0.651164 0.250000
O O7 0.351191 0.608827 0.447370
O O8 0.247947 0.569242 0.506482
O O9 0.412045 0.750000 0.500000
O O10 0.424110 0.650419 0.250000
O O11 0.468786 0.597541 0.501016
O O12 0.483026 0.350003 0.250000
O O13 0.413890 0.398142 0.044886
O O14 0.473402 0.250000 0.000000
O O15 0.117388 0.063415 0.250000
O O16 0.189503 0.089364 0.039463
O O17 0.076642 0.124986 0.000119
O O18 0.745496 0.966879 0.750000
O O19 0.699436 0.910316 0.000783
O O20 0.345172 0.150622 0.750000
O O21 0.351667 0.250000 0.000000
O O22 0.968598 0.579028 0.750000
O O23 0.000000 0.500000 0.500000
#
# Coordination Sequence:
#
# PCOD9438495 Si02
#       8
#     8   8   8   8   8   8   8   8
#     4   9  18  32  51  79 111 138 169 210 255 307
#     4  10  21  37  56  80 112 150 191 235 282 337
#     4   9  16  27  47  74 104 138 177 222 275 336
#     4   9  16  27  48  76 104 134 171 220 279 341
#     4   9  20  37  54  76 106 139 180 225 266 316
#     4  11  23  39  59  82 111 150 193 239 288 335
#     4  10  21  38  59  83 110 141 182 233 288 347
#     4   9  17  31  52  76 102 134 169 206 251 301
#
# _framework density 21.239901
#
# number of rings (size 3 to 8) (size 9 to 14) (size 15 to 20)
#    0.000    2.500    0.000    3.750    0.000    7.000 
#    0.000    2.500    0.000    1.500    0.000    0.000 
#    0.000    0.000    0.000    0.000    0.000    0.000 
#
# Total GULP energy -357029.799361 kJ/mol
# GULP energy per Si atom -5578.590615 kJ/mol
# Density = 2.119156 g / cm^3
# Si number density = 21.239901 Si / 1000 Ang^3
#
#
#
# Elastic Constant Matrix: (Units=GPa)
#
#
# Indices 1 2 3 4 5 6 
#
# 1 121.0276 5.1925 51.9031 0.0000 0.0000 0.0000
# 2 5.1925 34.8537 11.3804 0.0000 0.0000 0.0000
# 3 51.9031 11.3804 82.7566 0.0000 0.0000 0.0000
# 4 0.0000 0.0000 0.0000 20.1058 0.0000 0.0000
# 5 0.0000 0.0000 0.0000 0.0000 3.2446 0.0000
# 6 0.0000 0.0000 0.0000 0.0000 0.0000 11.9639
#
#
#
# Elastic Compliance Matrix: (Units=1/GPa)
#
#
# Indices 1 2 3 4 5 6 
#
# 1 0.011317 0.000661 -0.007189 0.000000 0.000000 0.000000
# 2 0.000661 0.030079 -0.004551 0.000000 0.000000 0.000000
# 3 -0.007189 -0.004551 0.017218 0.000000 0.000000 0.000000
# 4 0.000000 0.000000 0.000000 0.049737 0.000000 0.000000
# 5 0.000000 0.000000 0.000000 0.000000 0.308200 0.000000
# 6 0.000000 0.000000 0.000000 0.000000 0.000000 0.083585
#
#
# Mechanical properties :
#
#
# Convention : Reuss Voigt Hill
#
# Bulk Modulus (GPa) = 27.42961 41.73221 34.58091
# Shear Modulus (GPa) = 9.35550 18.40700 13.88125
#
# Velocity S-wave (km/s) = 2.10101 2.94704 2.55923
# Velocity P-wave (km/s) = 4.33911 5.59203 5.00493
#
# Compressibility (1/GPa) = 0.03645695
#
# Stress axis : x y z
#
# Youngs Moduli (GPa) = 88.36143 33.24592 58.07827
#
# Poissons Ratio (x) = -0.02198 0.41751
# Poissons Ratio (y) = -0.05843 0.26432
# Poissons Ratio (z) = 0.63521 0.15130
#
# Static dielectric constant tensor:
#      x y z
#    x 1.829110 0.000000 0.000000 
#    y 0.000000 1.767420 0.000000 
#    z 0.000000 0.000000 1.705500 
# 
# From -- ./inp_files/9381.got.cif
#   From: 2010.05.17/outbox.cif.g08.bks.cpg/sg57_5_cif.got.tgz:9381.got - 2010.06.03 13:58:18.
