data_PCOD9438524
_publ_section_title
;
Structure prediction by ZEFSAII (Michael W. Deem and Ramdas Pophale) SiO2 
 PCOD9438524
Probable space group: P B C M
;
_chemical_formula_sum "Si O2"
_cell_formula_units_Z 56
_cell_length_a 12.333520
_cell_length_b 11.592391
_cell_length_c 20.478017
_cell_angle_alpha 90.000000
_cell_angle_beta 90.000000
_cell_angle_gamma 90.000000
_cell_volume 2927.844199
_symmetry_space_group_name_H-M "P B C M"
_symmetry_group_IT_number 57
_symmetry_cell_setting 'orthorhombic'
loop_
_space_group_symop_operation_xyz
x,y,z
-x,-y,1/2+z
x,1/2-y,-z
-x,1/2+y,1/2-z
-x,-y,-z
x,y,1/2-z
-x,1/2+y,z
x,1/2-y,1/2+z
loop_
_atom_site_type_symbol
_atom_site_label
_atom_site_fract_x
_atom_site_fract_y
_atom_site_fract_z
Si Si1 0.201767 0.957039 0.919189
Si Si2 0.273639 0.348430 0.173620
Si Si3 0.574673 0.715490 0.077110
Si Si4 0.972765 0.504362 0.111517
Si Si5 0.727933 0.501353 0.437221
Si Si6 0.965020 0.744125 0.825618
Si Si7 0.667390 0.252218 0.078407
O O1 0.231778 0.826345 0.902324
O O2 0.076866 0.981808 0.935451
O O3 0.234449 0.031137 0.856631
O O4 0.269653 0.991020 0.983684
O O5 0.302932 0.353656 0.250000
O O6 0.367757 0.304749 0.125824
O O7 0.165738 0.269615 0.167026
O O8 0.647047 0.601960 0.081899
O O9 0.449422 0.703053 0.097784
O O10 0.576790 0.750000 0.000000
O O11 0.852317 0.516428 0.083758
O O12 0.990014 0.623169 0.153849
O O13 0.986153 0.372779 0.140030
O O14 0.684358 0.384446 0.404624
O O15 0.993298 0.731478 0.750000
O O16 0.668220 0.250000 0.000000
#
# Coordination Sequence:
#
# PCOD9438524 Si02
#       7
#     8   8   8   8   8   8   8
#     4  10  21  38  58  88 123 160 195 246 309 372
#     4  10  21  38  59  85 117 157 206 251 298 363
#     4  11  21  37  64  87 114 158 205 255 304 362
#     4  11  21  36  60  88 124 162 199 255 309 359
#     4  11  21  37  59  94 122 153 203 257 310 357
#     4  10  21  37  57  83 119 165 210 246 295 369
#     4   9  22  36  59  89 123 155 199 255 305 364
#
# _framework density 19.126701000000001
#
# number of rings (size 3 to 8) (size 9 to 14) (size 15 to 20)
#    0.000    1.714    2.857    1.714    2.000    2.286 
#    0.000    2.857    0.000    2.571    0.000    0.000 
#    0.000    0.000    0.000    0.000    0.000    0.000 
#
# Total GULP energy -311749.784651 kJ/mol
# GULP energy per Si atom -5566.960440 kJ/mol
# Density = 1.908317 g / cm^3
# Si number density = 19.126701 Si / 1000 Ang^3
#
#
#
# Elastic Constant Matrix: (Units=GPa)
#
#
# Indices 1 2 3 4 5 6 
#
# 1 93.4982 39.4653 21.5341 0.0000 0.0000 0.0000
# 2 39.4653 102.6840 21.2590 0.0000 0.0000 0.0000
# 3 21.5341 21.2590 56.6884 0.0000 0.0000 0.0000
# 4 0.0000 0.0000 0.0000 18.1692 0.0000 0.0000
# 5 0.0000 0.0000 0.0000 0.0000 10.9457 0.0000
# 6 0.0000 0.0000 0.0000 0.0000 0.0000 24.1088
#
#
#
# Elastic Compliance Matrix: (Units=1/GPa)
#
#
# Indices 1 2 3 4 5 6 
#
# 1 0.013349 -0.004424 -0.003412 0.000000 0.000000 0.000000
# 2 -0.004424 0.012025 -0.002829 0.000000 0.000000 0.000000
# 3 -0.003412 -0.002829 0.019997 0.000000 0.000000 0.000000
# 4 0.000000 0.000000 0.000000 0.055038 0.000000 0.000000
# 5 0.000000 0.000000 0.000000 0.000000 0.091360 0.000000
# 6 0.000000 0.000000 0.000000 0.000000 0.000000 0.041479
#
#
# Mechanical properties :
#
#
# Convention : Reuss Voigt Hill
#
# Bulk Modulus (GPa) = 41.59512 46.37636 43.98574
# Shear Modulus (GPa) = 19.04107 22.01886 20.52997
#
# Velocity S-wave (km/s) = 3.15861 3.39663 3.27978
# Velocity P-wave (km/s) = 5.92426 6.29939 6.11470
#
# Compressibility (1/GPa) = 0.02404128
#
# Stress axis : x y z
#
# Youngs Moduli (GPa) = 74.91478 83.16288 50.00718
#
# Poissons Ratio (x) = 0.36791 0.17060
# Poissons Ratio (y) = 0.33142 0.14146
# Poissons Ratio (z) = 0.25558 0.23526
#
# Static dielectric constant tensor:
#      x y z
#    x 1.688920 0.000000 0.000000 
#    y 0.000000 1.711010 0.000000 
#    z 0.000000 0.000000 1.652970 
# 
# From -- ./inp_files/25023.got.cif
#   From: 2010.05.17/outbox.cif.g08.bks.cpg/sg57_13_cif.got.tgz:25023.got - 2010.06.03 13:58:18.
