data_PCOD9438483
_publ_section_title
;
Structure prediction by ZEFSAII (Michael W. Deem and Ramdas Pophale) SiO2 
 PCOD9438483
Probable space group: P B C M
;
_chemical_formula_sum "Si O2"
_cell_formula_units_Z 48
_cell_length_a 18.213812
_cell_length_b 14.970684
_cell_length_c 8.557400
_cell_angle_alpha 90.000000
_cell_angle_beta 90.000000
_cell_angle_gamma 90.000000
_cell_volume 2333.373846
_symmetry_space_group_name_H-M "P B C M"
_symmetry_group_IT_number 57
_symmetry_cell_setting 'orthorhombic'
loop_
_space_group_symop_operation_xyz
x,y,z
-x,-y,1/2+z
x,1/2-y,-z
-x,1/2+y,1/2-z
-x,-y,-z
x,y,1/2-z
-x,1/2+y,z
x,1/2-y,1/2+z
loop_
_atom_site_type_symbol
_atom_site_label
_atom_site_fract_x
_atom_site_fract_y
_atom_site_fract_z
Si Si1 0.176636 0.458143 0.437287
Si Si2 0.621198 0.347916 0.935736
Si Si3 0.028261 0.094909 0.437267
Si Si4 0.127520 0.842069 0.937209
Si Si5 0.331551 0.030615 0.065574
Si Si6 0.457920 0.153743 0.935855
O O1 0.182035 0.457726 0.250000
O O2 0.108569 0.396201 0.489046
O O3 0.159488 0.561493 0.487994
O O4 0.253303 0.431042 0.513033
O O5 0.630269 0.350481 0.750000
O O6 0.640104 0.250000 0.000000
O O7 0.666095 0.427241 0.014517
O O8 0.535848 0.364066 0.981298
O O9 0.034616 0.093858 0.250000
O O10 0.959138 0.156109 0.480646
O O11 0.000000 0.000000 0.500000
O O12 0.132921 0.840985 0.750000
O O13 0.161092 0.750000 0.000000
O O14 0.342076 0.038799 0.250000
O O15 0.397759 0.080578 0.978621
O O16 0.469847 0.157947 0.750000
O O17 0.432576 0.250000 0.000000
#
# Coordination Sequence:
#
# PCOD9438483 Si02
#       6
#     8   8   8   8   8   8
#     4  10  21  37  54  78 109 144 183 229 280 337
#     4  11  22  39  61  88 119 154 196 243 290 345
#     4   9  17  32  52  75 100 133 174 217 261 316
#     4   9  19  33  53  79 108 138 177 222 271 328
#     4  12  24  39  59  86 118 157 197 239 293 353
#     4  11  22  40  63  88 116 150 193 244 294 347
#
# _framework density 20.571071
#
# number of rings (size 3 to 8) (size 9 to 14) (size 15 to 20)
#    0.000    1.667    0.000    8.000    0.000    4.667 
#    0.000    2.500    0.000    2.000    0.000    0.000 
#    0.000    0.000    0.000    0.000    0.000    0.000 
#
# Total GULP energy -268137.630861 kJ/mol
# GULP energy per Si atom -5586.200643 kJ/mol
# Density = 2.052425 g / cm^3
# Si number density = 20.571071 Si / 1000 Ang^3
#
#
#
# Elastic Constant Matrix: (Units=GPa)
#
#
# Indices 1 2 3 4 5 6 
#
# 1 51.9993 3.0055 -10.1057 0.0000 0.0000 0.0000
# 2 3.0055 28.8842 -0.4033 0.0000 0.0000 0.0000
# 3 -10.1057 -0.4033 42.7753 0.0000 0.0000 0.0000
# 4 0.0000 0.0000 0.0000 28.1840 0.0000 0.0000
# 5 0.0000 0.0000 0.0000 0.0000 27.5456 0.0000
# 6 0.0000 0.0000 0.0000 0.0000 0.0000 9.7895
#
#
#
# Elastic Compliance Matrix: (Units=1/GPa)
#
#
# Indices 1 2 3 4 5 6 
#
# 1 0.020276 -0.002043 0.004771 0.000000 0.000000 0.000000
# 2 -0.002043 0.034831 -0.000154 0.000000 0.000000 0.000000
# 3 0.004771 -0.000154 0.024504 0.000000 0.000000 0.000000
# 4 0.000000 0.000000 0.000000 0.035481 0.000000 0.000000
# 5 0.000000 0.000000 0.000000 0.000000 0.036303 0.000000
# 6 0.000000 0.000000 0.000000 0.000000 0.000000 0.102151
#
#
# Mechanical properties :
#
#
# Convention : Reuss Voigt Hill
#
# Bulk Modulus (GPa) = 11.79821 12.07242 11.93532
# Shear Modulus (GPa) = 18.07322 21.84796 19.96059
#
# Velocity S-wave (km/s) = 2.96729 3.26248 3.11838
# Velocity P-wave (km/s) = 4.18181 4.48030 4.33363
#
# Compressibility (1/GPa) = 0.08475859
#
# Stress axis : x y z
#
# Youngs Moduli (GPa) = 49.31858 28.70967 40.81018
#
# Poissons Ratio (x) = 0.05866 -0.19471
# Poissons Ratio (y) = 0.10077 0.00630
# Poissons Ratio (z) = -0.23530 0.00443
#
# Static dielectric constant tensor:
#      x y z
#    x 1.762190 0.000000 0.000000 
#    y 0.000000 1.759830 0.000000 
#    z 0.000000 0.000000 1.683560 
# 
# From -- ./inp_files/7864.got.cif
#   From: 2010.05.17/outbox.cif.g08.bks.cpg/sg57_4_cif.got.tgz:7864.got - 2010.06.03 13:58:18.
