data_PCOD9438061
_publ_section_title
;
Structure prediction by ZEFSAII (Michael W. Deem and Ramdas Pophale) SiO2 
 PCOD9438061
Probable space group: P B C M
;
_chemical_formula_sum "Si O2"
_cell_formula_units_Z 32
_cell_length_a 20.005019
_cell_length_b 8.880744
_cell_length_c 8.325000
_cell_angle_alpha 90.000000
_cell_angle_beta 90.000000
_cell_angle_gamma 90.000000
_cell_volume 1479.014942
_symmetry_space_group_name_H-M "P B C M"
_symmetry_group_IT_number 57
_symmetry_cell_setting 'orthorhombic'
loop_
_space_group_symop_operation_xyz
x,y,z
-x,-y,1/2+z
x,1/2-y,-z
-x,1/2+y,1/2-z
-x,-y,-z
x,y,1/2-z
-x,1/2+y,z
x,1/2-y,1/2+z
loop_
_atom_site_type_symbol
_atom_site_label
_atom_site_fract_x
_atom_site_fract_y
_atom_site_fract_z
Si Si1 0.851478 0.521259 0.426861
Si Si2 0.286125 0.074883 0.943957
Si Si3 0.080673 0.073553 0.750000
Si Si4 0.934493 0.287319 0.250000
Si Si5 0.566669 0.920704 0.441235
O O1 0.853639 0.598407 0.250000
O O2 0.774645 0.489881 0.471022
O O3 0.880639 0.601699 0.583639
O O4 0.896228 0.373910 0.394247
O O5 0.279590 0.068106 0.750000
O O6 0.360199 0.018638 0.992224
O O7 0.280891 0.250000 0.000000
O O8 0.069147 0.891735 0.750000
O O9 0.011005 0.160434 0.750000
O O10 0.564398 0.750000 0.500000
O O11 0.566607 0.923408 0.250000
O O12 0.500000 0.000000 0.500000
#
# Coordination Sequence:
#
# PCOD9438061 Si02
#       5
#     8   8   4   4   8
#     4  10  23  38  63  90 120 163 206 257 317 366
#     4  10  20  38  63  92 127 164 212 263 311 374
#     4  12  22  48  60  92 129 162 207 270 305 390
#     4  10  26  40  68  90 125 166 211 254 329 370
#     4  10  21  38  64  94 130 170 212 263 317 375
#
# _framework density 21.636022000000001
#
# number of rings (size 3 to 8) (size 9 to 14) (size 15 to 20)
#    0.750    1.000    1.250    3.000    0.000    5.000 
#    0.000    2.500    0.000    0.000    0.000    0.000 
#    0.000    0.000    0.000    0.000    0.000    0.000 
#
# Total GULP energy -178605.207604 kJ/mol
# GULP energy per Si atom -5581.412738 kJ/mol
# Density = 2.158678 g / cm^3
# Si number density = 21.636022 Si / 1000 Ang^3
#
#
#
# Elastic Constant Matrix: (Units=GPa)
#
#
# Indices 1 2 3 4 5 6 
#
# 1 213.9672 31.7020 78.3838 0.0000 0.0000 0.0000
# 2 31.7020 39.9088 34.7899 0.0000 0.0000 0.0000
# 3 78.3838 34.7899 153.7503 0.0000 0.0000 0.0000
# 4 0.0000 0.0000 0.0000 34.2980 0.0000 0.0000
# 5 0.0000 0.0000 0.0000 0.0000 37.6890 0.0000
# 6 0.0000 0.0000 0.0000 0.0000 0.0000 -95.5617
#
#
#
# Elastic Compliance Matrix: (Units=1/GPa)
#
#
# Indices 1 2 3 4 5 6 
#
# 1 0.005955 -0.002596 -0.002449 0.000000 0.000000 0.000000
# 2 -0.002596 0.032346 -0.005996 0.000000 0.000000 0.000000
# 3 -0.002449 -0.005996 0.009109 0.000000 0.000000 0.000000
# 4 0.000000 0.000000 0.000000 0.029156 0.000000 0.000000
# 5 0.000000 0.000000 0.000000 0.000000 0.026533 0.000000
# 6 0.000000 0.000000 0.000000 0.000000 0.000000 -0.010464
#
#
# Mechanical properties :
#
#
# Convention : Reuss Voigt Hill
#
# Bulk Modulus (GPa) = 39.47938 77.48641 58.48290
# Shear Modulus (GPa) = 40.59798 12.80176 26.69987
#
# Velocity S-wave (km/s) = 4.33645 2.43510 3.51671
# Velocity P-wave (km/s) = 6.58481 6.61798 6.60142
#
# Compressibility (1/GPa) = 0.02532968
#
# Stress axis : x y z
#
# Youngs Moduli (GPa) = 167.91821 30.91577 109.78077
#
# Poissons Ratio (x) = 0.08026 0.26881
# Poissons Ratio (y) = 0.43593 0.65820
# Poissons Ratio (z) = 0.41117 0.18536
#
# Static dielectric constant tensor:
#      x y z
#    x 1.797090 0.000000 0.000000 
#    y 0.000000 1.778170 0.000000 
#    z 0.000000 0.000000 1.837490 
# 
# From -- ./inp_files/7559.got.cif
#   From: 2010.05.17/outbox.cif.g08.bks.cpg/sg57_4_cif.got.tgz:7559.got - 2010.06.03 13:58:18.
