data_PCOD9438874
_publ_section_title
;
Structure prediction by ZEFSAII (Michael W. Deem and Ramdas Pophale) SiO2 
 PCOD9438874
Probable space group: P B C M
;
_chemical_formula_sum "Si O2"
_cell_formula_units_Z 64
_cell_length_a 16.954344
_cell_length_b 22.268384
_cell_length_c 8.661496
_cell_angle_alpha 90.000000
_cell_angle_beta 90.000000
_cell_angle_gamma 90.000000
_cell_volume 3270.111806
_symmetry_space_group_name_H-M "P B C M"
_symmetry_group_IT_number 57
_symmetry_cell_setting 'orthorhombic'
loop_
_space_group_symop_operation_xyz
x,y,z
-x,-y,1/2+z
x,1/2-y,-z
-x,1/2+y,1/2-z
-x,-y,-z
x,y,1/2-z
-x,1/2+y,z
x,1/2-y,1/2+z
loop_
_atom_site_type_symbol
_atom_site_label
_atom_site_fract_x
_atom_site_fract_y
_atom_site_fract_z
Si Si1 0.053905 0.817093 0.436308
Si Si2 0.705050 0.689884 0.933537
Si Si3 0.384388 0.612765 0.066718
Si Si4 0.220065 0.436241 0.435533
Si Si5 0.456014 0.363796 0.435046
Si Si6 0.375885 0.482845 0.932392
Si Si7 0.237479 0.683683 0.564797
Si Si8 0.962858 0.561213 0.563800
O O1 0.033885 0.750000 0.500000
O O2 0.048280 0.813382 0.250000
O O3 0.146041 0.829770 0.476628
O O4 0.002290 0.875134 0.487438
O O5 0.702652 0.693796 0.750000
O O6 0.754642 0.631543 0.973468
O O7 0.615334 0.679185 0.987521
O O8 0.739872 0.750000 0.000000
O O9 0.381320 0.608226 0.250000
O O10 0.461014 0.650092 0.013863
O O11 0.399609 0.547739 0.992778
O O12 0.302682 0.639446 0.004168
O O13 0.230109 0.445439 0.250000
O O14 0.283447 0.476225 0.524469
O O15 0.129383 0.442843 0.476320
O O16 0.464121 0.361535 0.250000
O O17 0.422810 0.429650 0.482158
O O18 0.388319 0.477277 0.750000
O O19 0.254210 0.750000 0.500000
O O20 0.243448 0.683281 0.750000
O O21 0.969553 0.560887 0.750000
O O22 0.000000 0.500000 0.500000
#
# Coordination Sequence:
#
# PCOD9438874 Si02
#       8
#     8   8   8   8   8   8   8   8
#     4   9  20  39  62  87 119 157 200 248 299 359
#     4   9  19  35  57  81 111 149 188 232 283 338
#     4  12  24  37  57  84 113 150 193 238 291 348
#     4   9  20  39  57  81 117 154 190 236 291 348
#     4  10  21  39  57  80 115 152 191 238 291 346
#     4  11  22  37  58  83 113 149 192 239 288 348
#     4  10  21  39  59  83 114 150 194 244 292 345
#     4  10  22  39  60  90 125 158 197 250 304 360
#
# _framework density 19.571196
#
# number of rings (size 3 to 8) (size 9 to 14) (size 15 to 20)
#    0.000    2.000    0.000    4.125    1.750    5.000 
#    0.000    1.250    0.000    0.000    0.000    0.000 
#    0.000    0.000    0.000    0.000    0.000    0.000 
#
# Total GULP energy -357283.602963 kJ/mol
# GULP energy per Si atom -5582.556296 kJ/mol
# Density = 1.952665 g / cm^3
# Si number density = 19.571196 Si / 1000 Ang^3
#
#
#
# Elastic Constant Matrix: (Units=GPa)
#
#
# Indices 1 2 3 4 5 6 
#
# 1 99.4478 29.2279 21.7834 0.0000 0.0000 0.0000
# 2 29.2279 60.9176 6.0407 0.0000 0.0000 0.0000
# 3 21.7834 6.0407 18.1116 0.0000 0.0000 0.0000
# 4 0.0000 0.0000 0.0000 32.7816 0.0000 0.0000
# 5 0.0000 0.0000 0.0000 0.0000 21.5092 0.0000
# 6 0.0000 0.0000 0.0000 0.0000 0.0000 8.2956
#
#
#
# Elastic Compliance Matrix: (Units=1/GPa)
#
#
# Indices 1 2 3 4 5 6 
#
# 1 0.015371 -0.005731 -0.016575 0.000000 0.000000 0.000000
# 2 -0.005731 0.019114 0.000518 0.000000 0.000000 0.000000
# 3 -0.016575 0.000518 0.074976 0.000000 0.000000 0.000000
# 4 0.000000 0.000000 0.000000 0.030505 0.000000 0.000000
# 5 0.000000 0.000000 0.000000 0.000000 0.046492 0.000000
# 6 0.000000 0.000000 0.000000 0.000000 0.000000 0.120546
#
#
# Mechanical properties :
#
#
# Convention : Reuss Voigt Hill
#
# Bulk Modulus (GPa) = 15.17821 32.50900 23.84361
# Shear Modulus (GPa) = 13.42133 20.61227 17.01680
#
# Velocity S-wave (km/s) = 2.62156 3.24882 2.95190
# Velocity P-wave (km/s) = 4.11530 5.54254 4.88136
#
# Compressibility (1/GPa) = 0.06588393
#
# Stress axis : x y z
#
# Youngs Moduli (GPa) = 65.05923 52.31769 13.33757
#
# Poissons Ratio (x) = 0.29984 0.22107
# Poissons Ratio (y) = 0.37286 -0.00691
# Poissons Ratio (z) = 1.07837 -0.02710
#
# Static dielectric constant tensor:
#      x y z
#    x 1.697350 0.000000 0.000000 
#    y 0.000000 1.759550 0.000000 
#    z 0.000000 0.000000 1.657580 
# 
# From -- ./inp_files/5712.got.cif
#   From: 2010.05.17/outbox.cif.g08.bks.cpg/sg57_3_cif.got.tgz:5712.got - 2010.06.03 13:58:18.
