data_PCOD9438011
_publ_section_title
;
Structure prediction by ZEFSAII (Michael W. Deem and Ramdas Pophale) SiO2 
 PCOD9438011
Probable space group: P B C M
;
_chemical_formula_sum "Si O2"
_cell_formula_units_Z 52
_cell_length_a 7.374692
_cell_length_b 16.628134
_cell_length_c 19.720232
_cell_angle_alpha 90.000000
_cell_angle_beta 90.000000
_cell_angle_gamma 90.000000
_cell_volume 2418.240123
_symmetry_space_group_name_H-M "P B C M"
_symmetry_group_IT_number 57
_symmetry_cell_setting 'orthorhombic'
loop_
_space_group_symop_operation_xyz
x,y,z
-x,-y,1/2+z
x,1/2-y,-z
-x,1/2+y,1/2-z
-x,-y,-z
x,y,1/2-z
-x,1/2+y,z
x,1/2-y,1/2+z
loop_
_atom_site_type_symbol
_atom_site_label
_atom_site_fract_x
_atom_site_fract_y
_atom_site_fract_z
Si Si1 0.310454 0.519026 0.250000
Si Si2 0.622855 0.603109 0.036140
Si Si3 0.856595 0.469967 0.393941
Si Si4 0.402620 0.160376 0.250000
Si Si5 0.695772 0.329306 0.025124
Si Si6 0.877197 0.515416 0.250000
Si Si7 0.643985 0.741089 0.888693
Si Si8 0.255361 0.433947 0.387988
O O1 0.424445 0.600814 0.250000
O O2 0.347238 0.470085 0.320306
O O3 0.092767 0.531820 0.250000
O O4 0.720698 0.539127 0.082717
O O5 0.708785 0.688918 0.059197
O O6 0.409729 0.624950 0.036117
O O7 0.646841 0.567648 0.960539
O O8 0.815872 0.391322 0.435931
O O9 0.827450 0.462867 0.314584
O O10 0.071114 0.483474 0.400912
O O11 0.232045 0.098815 0.250000
O O12 0.396143 0.214431 0.317822
O O13 0.536936 0.295553 0.075310
O O14 0.795296 0.250000 0.000000
O O15 0.769425 0.662703 0.876343
#
# Coordination Sequence:
#
# PCOD9438011 Si02
#       8
#     4   8   8   4   8   4   8   8
#     4  10  25  43  61  97 120 160 224 257 310 397
#     4  10  20  38  61  89 124 163 216 260 308 392
#     4  11  21  39  63  92 123 170 208 264 330 372
#     4  12  23  42  69  84 122 179 200 260 330 362
#     4   9  21  36  56  90 127 157 215 268 308 387
#     4  10  24  41  62  95 126 155 220 263 304 385
#     4  10  22  39  58  91 121 164 213 255 322 385
#     4  10  22  40  62  89 129 163 203 271 322 378
#
# _framework density 21.503240999999999
#
# number of rings (size 3 to 8) (size 9 to 14) (size 15 to 20)
#    0.000    1.846    1.538    2.769    4.308    4.308 
#    2.769    0.000    0.000    0.000    0.000    0.000 
#    0.000    0.000    0.000    0.000    0.000    0.000 
#
# Total GULP energy -289870.578379 kJ/mol
# GULP energy per Si atom -5574.434200 kJ/mol
# Density = 2.145430 g / cm^3
# Si number density = 21.503241 Si / 1000 Ang^3
#
#
#
# Elastic Constant Matrix: (Units=GPa)
#
#
# Indices 1 2 3 4 5 6 
#
# 1 40.0001 14.6411 13.0631 0.0000 0.0000 0.0000
# 2 14.6411 84.6902 21.8420 0.0000 0.0000 0.0000
# 3 13.0631 21.8420 75.4484 0.0000 0.0000 0.0000
# 4 0.0000 0.0000 0.0000 46.7703 0.0000 0.0000
# 5 0.0000 0.0000 0.0000 0.0000 22.4821 0.0000
# 6 0.0000 0.0000 0.0000 0.0000 0.0000 10.7706
#
#
#
# Elastic Compliance Matrix: (Units=1/GPa)
#
#
# Indices 1 2 3 4 5 6 
#
# 1 0.027599 -0.003824 -0.003671 0.000000 0.000000 0.000000
# 2 -0.003824 0.013290 -0.003185 0.000000 0.000000 0.000000
# 3 -0.003671 -0.003185 0.014812 0.000000 0.000000 0.000000
# 4 0.000000 0.000000 0.000000 0.021381 0.000000 0.000000
# 5 0.000000 0.000000 0.000000 0.000000 0.044480 0.000000
# 6 0.000000 0.000000 0.000000 0.000000 0.000000 0.092845
#
#
# Mechanical properties :
#
#
# Convention : Reuss Voigt Hill
#
# Bulk Modulus (GPa) = 29.12144 33.24790 31.18467
# Shear Modulus (GPa) = 20.22526 26.04410 23.13468
#
# Velocity S-wave (km/s) = 3.07020 3.48396 3.28360
# Velocity P-wave (km/s) = 5.11276 5.62844 5.37679
#
# Compressibility (1/GPa) = 0.03433897
#
# Stress axis : x y z
#
# Youngs Moduli (GPa) = 36.23353 75.24213 67.51333
#
# Poissons Ratio (x) = 0.28775 0.24786
# Poissons Ratio (y) = 0.13857 0.21506
# Poissons Ratio (z) = 0.13302 0.23967
#
# Static dielectric constant tensor:
#      x y z
#    x 1.807140 0.000000 0.000000 
#    y 0.000000 1.812450 0.000000 
#    z 0.000000 0.000000 1.813170 
# 
# From -- ./inp_files/21230.got.cif
#   From: 2010.05.17/outbox.cif.g08.bks.cpg/sg57_11_cif.got.tgz:21230.got - 2010.06.03 13:58:18.
