data_PCOD9438989
_publ_section_title
;
Structure prediction by ZEFSAII (Michael W. Deem and Ramdas Pophale) SiO2 
 PCOD9438989
Probable space group: P B C M
;
_chemical_formula_sum "Si O2"
_cell_formula_units_Z 48
_cell_length_a 19.357293
_cell_length_b 15.328676
_cell_length_c 8.694899
_cell_angle_alpha 90.000000
_cell_angle_beta 90.000000
_cell_angle_gamma 90.000000
_cell_volume 2579.964975
_symmetry_space_group_name_H-M "P B C M"
_symmetry_group_IT_number 57
_symmetry_cell_setting 'orthorhombic'
loop_
_space_group_symop_operation_xyz
x,y,z
-x,-y,1/2+z
x,1/2-y,-z
-x,1/2+y,1/2-z
-x,-y,-z
x,y,1/2-z
-x,1/2+y,z
x,1/2-y,1/2+z
loop_
_atom_site_type_symbol
_atom_site_label
_atom_site_fract_x
_atom_site_fract_y
_atom_site_fract_z
Si Si1 0.641826 0.660426 0.066492
Si Si2 0.992668 0.150364 0.565101
Si Si3 0.254454 0.495627 0.935518
Si Si4 0.898018 0.999109 0.066145
Si Si5 0.501775 0.402558 0.434826
Si Si6 0.653065 0.341493 0.434918
O O1 0.635095 0.663744 0.250000
O O2 0.693916 0.583075 0.026258
O O3 0.669983 0.750000 0.000000
O O4 0.566228 0.644610 0.996124
O O5 0.993397 0.250000 0.500000
O O6 0.990067 0.156867 0.750000
O O7 0.930437 0.087332 0.507325
O O8 0.058465 0.088328 0.521757
O O9 0.245589 0.496763 0.750000
O O10 0.295325 0.582412 0.983114
O O11 0.180481 0.488818 0.013354
O O12 0.903231 0.007307 0.250000
O O13 0.500000 0.500000 0.500000
O O14 0.500626 0.404347 0.250000
O O15 0.574307 0.360491 0.485671
O O16 0.676342 0.250000 0.500000
O O17 0.652237 0.339922 0.250000
#
# Coordination Sequence:
#
# PCOD9438989 Si02
#       6
#     8   8   8   8   8   8
#     4  11  23  40  59  84 116 154 200 248 300 356
#     4  10  21  39  64  92 122 155 193 236 285 341
#     4  10  22  41  59  80 120 160 193 239 294 349
#     4  10  22  39  61  91 122 154 196 239 287 344
#     4  11  21  37  60  84 113 150 196 249 303 355
#     4  10  22  39  57  82 112 149 194 240 294 350
#
# _framework density 18.604904000000001
#
# number of rings (size 3 to 8) (size 9 to 14) (size 15 to 20)
#    0.000    1.667    1.667    2.500    0.000    8.000 
#    0.000    5.000    0.000    0.000    0.000    0.000 
#    0.000    0.000    0.000    0.000    0.000    0.000 
#
# Total GULP energy -268039.024496 kJ/mol
# GULP energy per Si atom -5584.146344 kJ/mol
# Density = 1.856256 g / cm^3
# Si number density = 18.604904 Si / 1000 Ang^3
#
#
#
# Elastic Constant Matrix: (Units=GPa)
#
#
# Indices 1 2 3 4 5 6 
#
# 1 90.5819 26.6380 28.8700 0.0000 0.0000 0.0000
# 2 26.6380 142.8983 36.2478 0.0000 0.0000 0.0000
# 3 28.8700 36.2478 39.2598 0.0000 0.0000 0.0000
# 4 0.0000 0.0000 0.0000 34.8477 0.0000 0.0000
# 5 0.0000 0.0000 0.0000 0.0000 21.1298 0.0000
# 6 0.0000 0.0000 0.0000 0.0000 0.0000 -18.4100
#
#
#
# Elastic Compliance Matrix: (Units=1/GPa)
#
#
# Indices 1 2 3 4 5 6 
#
# 1 0.014419 0.000002 -0.010605 0.000000 0.000000 0.000000
# 2 0.000002 0.009138 -0.008439 0.000000 0.000000 0.000000
# 3 -0.010605 -0.008439 0.041061 0.000000 0.000000 0.000000
# 4 0.000000 0.000000 0.000000 0.028696 0.000000 0.000000
# 5 0.000000 0.000000 0.000000 0.000000 0.047327 0.000000
# 6 0.000000 0.000000 0.000000 0.000000 0.000000 -0.054318
#
#
# Mechanical properties :
#
#
# Convention : Reuss Voigt Hill
#
# Bulk Modulus (GPa) = 37.68594 50.69462 44.19028
# Shear Modulus (GPa) = 37.52287 19.57910 28.55098
#
# Velocity S-wave (km/s) = 4.49578 3.24753 3.92164
# Velocity P-wave (km/s) = 6.87381 6.43188 6.65652
#
# Compressibility (1/GPa) = 0.02653509
#
# Stress axis : x y z
#
# Youngs Moduli (GPa) = 69.35204 109.43140 24.35374
#
# Poissons Ratio (x) = -0.00025 0.25828
# Poissons Ratio (y) = -0.00016 0.20551
# Poissons Ratio (z) = 0.73550 0.92346
#
# Static dielectric constant tensor:
#      x y z
#    x 1.687620 0.000000 0.000000 
#    y 0.000000 1.629520 0.000000 
#    z 0.000000 0.000000 1.632060 
# 
# From -- ./inp_files/6493.got.cif
#   From: 2010.05.17/outbox.cif.g08.bks.cpg/sg57_4_cif.got.tgz:6493.got - 2010.06.03 13:58:18.
