data_PCOD9438907
_publ_section_title
;
Structure prediction by ZEFSAII (Michael W. Deem and Ramdas Pophale) SiO2 
 PCOD9438907
Probable space group: P B C M
;
_chemical_formula_sum "Si O2"
_cell_formula_units_Z 40
_cell_length_a 6.407751
_cell_length_b 10.100931
_cell_length_c 29.226381
_cell_angle_alpha 90.000000
_cell_angle_beta 90.000000
_cell_angle_gamma 90.000000
_cell_volume 1891.655611
_symmetry_space_group_name_H-M "P B C M"
_symmetry_group_IT_number 57
_symmetry_cell_setting 'orthorhombic'
loop_
_space_group_symop_operation_xyz
x,y,z
-x,-y,1/2+z
x,1/2-y,-z
-x,1/2+y,1/2-z
-x,-y,-z
x,y,1/2-z
-x,1/2+y,z
x,1/2-y,1/2+z
loop_
_atom_site_type_symbol
_atom_site_label
_atom_site_fract_x
_atom_site_fract_y
_atom_site_fract_z
Si Si1 0.785253 0.307523 0.198954
Si Si2 0.816344 0.819948 0.455628
Si Si3 0.910867 0.921548 0.664893
Si Si4 0.471581 0.277607 0.623923
Si Si5 0.854706 0.398304 0.928205
O O1 0.698850 0.292211 0.250000
O O2 0.902806 0.446199 0.193953
O O3 0.611716 0.304366 0.159282
O O4 0.946616 0.190138 0.187916
O O5 0.717197 0.750000 0.500000
O O6 0.674878 0.803435 0.410515
O O7 0.155610 0.476562 0.461736
O O8 0.025240 0.732034 0.446633
O O9 0.680288 0.867556 0.654483
O O10 0.010155 0.948602 0.615122
O O11 0.630799 0.358516 0.591857
#
# Coordination Sequence:
#
# PCOD9438907 Si02
#       5
#     8   8   8   8   8
#     4  11  23  39  62  90 120 157 199 245 296 350
#     4  11  23  39  62  90 120 157 199 245 296 350
#     4  10  21  40  61  85 120 157 195 242 295 351
#     4  10  22  39  62  88 120 156 198 244 294 351
#     4  10  21  39  61  86 120 157 195 242 295 352
#
# _framework density 21.145499999999998
#
# number of rings (size 3 to 8) (size 9 to 14) (size 15 to 20)
#    0.000    1.600    0.000    6.000    0.000    6.400 
#    0.000    0.000    0.000    0.000    0.000    0.000 
#    0.000    0.000    0.000    0.000    0.000    0.000 
#
# Total GULP energy -223515.898811 kJ/mol
# GULP energy per Si atom -5587.897470 kJ/mol
# Density = 2.109737 g / cm^3
# Si number density = 21.145500 Si / 1000 Ang^3
#
#
#
# Elastic Constant Matrix: (Units=GPa)
#
#
# Indices 1 2 3 4 5 6 
#
# 1 52.2092 7.5904 -0.1057 0.0000 0.0000 0.0000
# 2 7.5904 41.1684 -2.5027 0.0000 0.0000 0.0000
# 3 -0.1057 -2.5027 76.2610 0.0000 0.0000 0.0000
# 4 0.0000 0.0000 0.0000 -32.9878 0.0000 0.0000
# 5 0.0000 0.0000 0.0000 0.0000 17.1977 0.0000
# 6 0.0000 0.0000 0.0000 0.0000 0.0000 8.6085
#
#
#
# Elastic Compliance Matrix: (Units=1/GPa)
#
#
# Indices 1 2 3 4 5 6 
#
# 1 0.019682 -0.003634 -0.000092 0.000000 0.000000 0.000000
# 2 -0.003634 0.025010 0.000816 0.000000 0.000000 0.000000
# 3 -0.000092 0.000816 0.013139 0.000000 0.000000 0.000000
# 4 0.000000 0.000000 0.000000 -0.030314 0.000000 0.000000
# 5 0.000000 0.000000 0.000000 0.000000 0.058147 0.000000
# 6 0.000000 0.000000 0.000000 0.000000 0.000000 0.116164
#
#
# Mechanical properties :
#
#
# Convention : Reuss Voigt Hill
#
# Bulk Modulus (GPa) = 19.22700 19.95585 19.59142
# Shear Modulus (GPa) = 22.22355 9.54079 15.88217
#
# Velocity S-wave (km/s) = 3.24540 2.12644 2.74358
# Velocity P-wave (km/s) = 4.81207 3.93534 4.39562
#
# Compressibility (1/GPa) = 0.05201019
#
# Stress axis : x y z
#
# Youngs Moduli (GPa) = 50.80803 39.98371 76.10641
#
# Poissons Ratio (x) = 0.14532 0.00700
# Poissons Ratio (y) = 0.18466 -0.06208
# Poissons Ratio (z) = 0.00467 -0.03262
#
# Static dielectric constant tensor:
#      x y z
#    x 1.761900 0.000000 0.000000 
#    y 0.000000 1.755330 0.000000 
#    z 0.000000 0.000000 1.769780 
# 
# From -- ./inp_files/29061.got.cif
#   From: 2010.05.17/outbox.cif.g08.bks.cpg/sg57_15_cif.got.tgz:29061.got - 2010.06.03 13:58:18.
