data_PCOD9438852
_publ_section_title
;
Structure prediction by ZEFSAII (Michael W. Deem and Ramdas Pophale) SiO2 
 PCOD9438852
Probable space group: P B C M
;
_chemical_formula_sum "Si O2"
_cell_formula_units_Z 56
_cell_length_a 11.886307
_cell_length_b 10.996752
_cell_length_c 20.552507
_cell_angle_alpha 90.000000
_cell_angle_beta 90.000000
_cell_angle_gamma 90.000000
_cell_volume 2686.434021
_symmetry_space_group_name_H-M "P B C M"
_symmetry_group_IT_number 57
_symmetry_cell_setting 'orthorhombic'
loop_
_space_group_symop_operation_xyz
x,y,z
-x,-y,1/2+z
x,1/2-y,-z
-x,1/2+y,1/2-z
-x,-y,-z
x,y,1/2-z
-x,1/2+y,z
x,1/2-y,1/2+z
loop_
_atom_site_type_symbol
_atom_site_label
_atom_site_fract_x
_atom_site_fract_y
_atom_site_fract_z
Si Si1 0.835428 0.657147 0.595127
Si Si2 0.382698 0.284986 0.576075
Si Si3 0.058807 0.719570 0.250000
Si Si4 0.638838 0.231567 0.077613
Si Si5 0.931853 0.890741 0.949436
Si Si6 0.151379 0.899814 0.878318
Si Si7 0.119275 0.998144 0.250000
Si Si8 0.757309 0.022298 0.884466
O O1 0.703302 0.683868 0.602889
O O2 0.890027 0.788900 0.602367
O O3 0.879140 0.629898 0.520788
O O4 0.866943 0.542066 0.637623
O O5 0.385503 0.250000 0.500000
O O6 0.510469 0.285631 0.599911
O O7 0.323320 0.414822 0.588454
O O8 0.124590 0.682380 0.183804
O O9 0.051344 0.867607 0.250000
O O10 0.955549 0.621645 0.250000
O O11 0.723122 0.123486 0.096646
O O12 0.693633 0.352278 0.107017
O O13 0.638422 0.250000 0.000000
O O14 0.874203 0.014469 0.925198
O O15 0.064023 0.879728 0.937980
O O16 0.200994 0.997636 0.311932
#
# Coordination Sequence:
#
# PCOD9438852 Si02
#       8
#     8   8   4   8   8   8   4   8
#     4  10  21  39  64  96 134 168 217 272 342 411
#     4  10  22  43  68  99 131 178 220 277 342 412
#     4  12  28  46  69  93 145 179 238 281 338 417
#     4  11  26  38  67 100 136 173 223 277 350 402
#     4  10  21  38  64  96 135 169 208 280 345 409
#     4  12  25  39  63  98 132 175 223 280 339 411
#     4  12  26  48  71 101 131 191 230 285 338 413
#     4  11  22  44  67  94 134 174 228 279 340 406
#
# _framework density 20.845479000000001
#
# number of rings (size 3 to 8) (size 9 to 14) (size 15 to 20)
#    0.000    1.143    5.714    1.286    8.000    1.143 
#    0.000    1.429    0.000    0.000    0.000    0.000 
#    0.000    0.000    0.000    0.000    0.000    0.000 
#
# Total GULP energy -312222.540145 kJ/mol
# GULP energy per Si atom -5575.402503 kJ/mol
# Density = 2.079803 g / cm^3
# Si number density = 20.845479 Si / 1000 Ang^3
#
#
#
# Elastic Constant Matrix: (Units=GPa)
#
#
# Indices 1 2 3 4 5 6 
#
# 1 128.7886 39.8137 29.8370 0.0000 0.0000 0.0000
# 2 39.8137 102.1261 12.2761 0.0000 0.0000 0.0000
# 3 29.8370 12.2761 73.7065 0.0000 0.0000 0.0000
# 4 0.0000 0.0000 0.0000 30.3356 0.0000 0.0000
# 5 0.0000 0.0000 0.0000 0.0000 142.9322 0.0000
# 6 0.0000 0.0000 0.0000 0.0000 0.0000 17.6271
#
#
#
# Elastic Compliance Matrix: (Units=1/GPa)
#
#
# Indices 1 2 3 4 5 6 
#
# 1 0.009562 -0.003329 -0.003316 0.000000 0.000000 0.000000
# 2 -0.003329 0.011151 -0.000510 0.000000 0.000000 0.000000
# 3 -0.003316 -0.000510 0.014995 0.000000 0.000000 0.000000
# 4 0.000000 0.000000 0.000000 0.032965 0.000000 0.000000
# 5 0.000000 0.000000 0.000000 0.000000 0.006996 0.000000
# 6 0.000000 0.000000 0.000000 0.000000 0.000000 0.056731
#
#
# Mechanical properties :
#
#
# Convention : Reuss Voigt Hill
#
# Bulk Modulus (GPa) = 46.73413 52.05275 49.39344
# Shear Modulus (GPa) = 32.50085 53.02528 42.76306
#
# Velocity S-wave (km/s) = 3.95287 5.04901 4.53419
# Velocity P-wave (km/s) = 6.58039 7.68212 7.15250
#
# Compressibility (1/GPa) = 0.02139764
#
# Stress axis : x y z
#
# Youngs Moduli (GPa) = 104.57901 89.67861 66.69031
#
# Poissons Ratio (x) = 0.29855 0.22117
# Poissons Ratio (y) = 0.34816 0.03398
# Poissons Ratio (z) = 0.34682 0.04570
#
# Static dielectric constant tensor:
#      x y z
#    x 1.795860 0.000000 0.000000 
#    y 0.000000 1.817700 0.000000 
#    z 0.000000 0.000000 1.745980 
# 
# From -- ./inp_files/25065.got.cif
#   From: 2010.05.17/outbox.cif.g08.bks.cpg/sg57_13_cif.got.tgz:25065.got - 2010.06.03 13:58:18.
