data_PCOD9438396
_publ_section_title
;
Structure prediction by ZEFSAII (Michael W. Deem and Ramdas Pophale) SiO2 
 PCOD9438396
Probable space group: P B C M
;
_chemical_formula_sum "Si O2"
_cell_formula_units_Z 64
_cell_length_a 20.885615
_cell_length_b 20.321983
_cell_length_c 9.428803
_cell_angle_alpha 90.000000
_cell_angle_beta 90.000000
_cell_angle_gamma 90.000000
_cell_volume 4001.933924
_symmetry_space_group_name_H-M "P B C M"
_symmetry_group_IT_number 57
_symmetry_cell_setting 'orthorhombic'
loop_
_space_group_symop_operation_xyz
x,y,z
-x,-y,1/2+z
x,1/2-y,-z
-x,1/2+y,1/2-z
-x,-y,-z
x,y,1/2-z
-x,1/2+y,z
x,1/2-y,1/2+z
loop_
_atom_site_type_symbol
_atom_site_label
_atom_site_fract_x
_atom_site_fract_y
_atom_site_fract_z
Si Si1 0.838379 0.036746 0.079563
Si Si2 0.428056 0.570874 0.587170
Si Si3 0.816295 0.883511 0.077926
Si Si4 0.324135 0.395131 0.085545
Si Si5 0.965142 0.059651 0.581188
Si Si6 0.552270 0.911559 0.586775
Si Si7 0.055702 0.314435 0.418134
Si Si8 0.694046 0.054360 0.087437
O O1 0.849855 0.040887 0.250000
O O2 0.768132 0.066582 0.050666
O O3 0.833955 0.958964 0.042045
O O4 0.895680 0.067086 0.989958
O O5 0.430069 0.592060 0.750000
O O6 0.486781 0.600150 0.497991
O O7 0.437597 0.491192 0.585521
O O8 0.359668 0.583295 0.514720
O O9 0.814305 0.882086 0.250000
O O10 0.743964 0.867688 0.031108
O O11 0.873562 0.836755 0.030742
O O12 0.334454 0.376109 0.250000
O O13 0.314099 0.474662 0.085515
O O14 0.386095 0.381452 0.991497
O O15 0.960876 0.046292 0.750000
O O16 0.008066 0.124496 0.561831
O O17 0.000000 0.000000 0.500000
O O18 0.547782 0.891099 0.750000
O O19 0.034418 0.250000 0.500000
O O20 0.059427 0.301485 0.250000
O O21 0.682533 0.074930 0.250000
#
# Coordination Sequence:
#
# PCOD9438396 Si02
#       8
#     8   8   8   8   8   8   8   8
#     4   9  16  29  47  66  89 115 148 189 233 280
#     4   9  15  21  30  44  68 102 140 177 211 257
#     4   8  14  28  46  62  85 115 145 184 229 274
#     4   8  13  22  37  52  69 100 139 174 214 260
#     4  11  21  33  51  72  95 121 154 196 238 285
#     4   9  15  21  29  44  69  99 135 178 217 254
#     4  10  21  36  51  69  95 124 156 193 237 286
#     4   8  14  23  36  53  75 105 137 174 221 266
#
# _framework density 15.992267999999999
#
# number of rings (size 3 to 8) (size 9 to 14) (size 15 to 20)
#    0.000    3.000    1.250    2.625    0.000    4.500 
#    0.000    2.500    0.000    0.000    0.000    0.000 
#    0.000    0.000    0.000    1.125    0.000   17.000 
#
# Total GULP energy -356340.831305 kJ/mol
# GULP energy per Si atom -5567.825489 kJ/mol
# Density = 1.595587 g / cm^3
# Si number density = 15.992268 Si / 1000 Ang^3
#
#
#
# Elastic Constant Matrix: (Units=GPa)
#
#
# Indices 1 2 3 4 5 6 
#
# 1 143.2652 23.8012 87.7516 0.0000 0.0000 0.0000
# 2 23.8012 30.3305 28.1194 0.0000 0.0000 0.0000
# 3 87.7516 28.1194 99.8656 0.0000 0.0000 0.0000
# 4 0.0000 0.0000 0.0000 11.4946 0.0000 0.0000
# 5 0.0000 0.0000 0.0000 0.0000 32.2673 0.0000
# 6 0.0000 0.0000 0.0000 0.0000 0.0000 7.4567
#
#
#
# Elastic Compliance Matrix: (Units=1/GPa)
#
#
# Indices 1 2 3 4 5 6 
#
# 1 0.015124 0.000612 -0.013462 0.000000 0.000000 0.000000
# 2 0.000612 0.044642 -0.013108 0.000000 0.000000 0.000000
# 3 -0.013462 -0.013108 0.025533 0.000000 0.000000 0.000000
# 4 0.000000 0.000000 0.000000 0.086997 0.000000 0.000000
# 5 0.000000 0.000000 0.000000 0.000000 0.030991 0.000000
# 6 0.000000 0.000000 0.000000 0.000000 0.000000 0.134108
#
#
# Mechanical properties :
#
#
# Convention : Reuss Voigt Hill
#
# Bulk Modulus (GPa) = 29.95433 61.42285 45.68859
# Shear Modulus (GPa) = 12.48633 19.16299 15.82466
#
# Velocity S-wave (km/s) = 2.79726 3.46535 3.14908
# Velocity P-wave (km/s) = 5.40408 7.38260 6.46942
#
# Compressibility (1/GPa) = 0.03338416
#
# Stress axis : x y z
#
# Youngs Moduli (GPa) = 66.12143 22.40041 39.16521
#
# Poissons Ratio (x) = -0.01371 0.52722
# Poissons Ratio (y) = -0.04048 0.51337
# Poissons Ratio (z) = 0.89009 0.29362
#
# Static dielectric constant tensor:
#      x y z
#    x 1.564790 0.000000 0.000000 
#    y 0.000000 1.502990 0.000000 
#    z 0.000000 0.000000 1.530700 
# 
# From -- ./inp_files/8693.got.cif
#   From: 2010.05.17/outbox.cif.g08.bks.cpg/sg57_5_cif.got.tgz:8693.got - 2010.06.03 13:58:18.
