data_PCOD9438858
_publ_section_title
;
Structure prediction by ZEFSAII (Michael W. Deem and Ramdas Pophale) SiO2 
 PCOD9438858
Probable space group: P B C M
;
_chemical_formula_sum "Si O2"
_cell_formula_units_Z 32
_cell_length_a 5.066609
_cell_length_b 16.216366
_cell_length_c 16.206844
_cell_angle_alpha 90.000000
_cell_angle_beta 90.000000
_cell_angle_gamma 90.000000
_cell_volume 1331.586489
_symmetry_space_group_name_H-M "P B C M"
_symmetry_group_IT_number 57
_symmetry_cell_setting 'orthorhombic'
loop_
_space_group_symop_operation_xyz
x,y,z
-x,-y,1/2+z
x,1/2-y,-z
-x,1/2+y,1/2-z
-x,-y,-z
x,y,1/2-z
-x,1/2+y,z
x,1/2-y,1/2+z
loop_
_atom_site_type_symbol
_atom_site_label
_atom_site_fract_x
_atom_site_fract_y
_atom_site_fract_z
Si Si1 0.631501 0.135184 0.415915
Si Si2 0.343309 0.962645 0.750000
Si Si3 0.845622 0.068905 0.750000
Si Si4 0.867417 0.848735 0.014724
Si Si5 0.493949 0.812394 0.343246
O O1 0.705198 0.088163 0.332913
O O2 0.344243 0.113320 0.450579
O O3 0.610335 0.231750 0.390378
O O4 0.847426 0.120299 0.486765
O O5 0.646196 0.991691 0.750000
O O6 0.142051 0.038922 0.750000
O O7 0.745237 0.125038 0.825993
O O8 0.720951 0.854227 0.102422
O O9 0.878150 0.750000 0.000000
O O10 0.586256 0.788259 0.250000
#
# Coordination Sequence:
#
# PCOD9438858 Si02
#       5
#     8   4   4   8   8
#     4  11  22  41  67  95 129 163 218 269 320 378
#     4  12  23  44  59  98 128 180 214 262 321 386
#     4  10  25  40  67  90 134 174 220 258 313 400
#     4  10  21  38  65  99 126 157 214 278 315 377
#     4   9  21  46  67  97 127 175 215 267 329 387
#
# _framework density 24.031483000000001
#
# number of rings (size 3 to 8) (size 9 to 14) (size 15 to 20)
#    0.750    1.000    1.250    3.750    0.000    6.000 
#    2.250    7.500    0.000    0.000    0.000    0.000 
#    0.000    0.000    0.000    0.000    0.000    0.000 
#
# Total GULP energy -178925.023175 kJ/mol
# GULP energy per Si atom -5591.406974 kJ/mol
# Density = 2.397679 g / cm^3
# Si number density = 24.031483 Si / 1000 Ang^3
#
#
#
# Elastic Constant Matrix: (Units=GPa)
#
#
# Indices 1 2 3 4 5 6 
#
# 1 98.9771 10.9353 33.8018 0.0000 0.0000 0.0000
# 2 10.9353 42.2079 22.1163 0.0000 0.0000 0.0000
# 3 33.8018 22.1163 150.2707 0.0000 0.0000 0.0000
# 4 0.0000 0.0000 0.0000 -18.6971 0.0000 0.0000
# 5 0.0000 0.0000 0.0000 0.0000 -1.9555 0.0000
# 6 0.0000 0.0000 0.0000 0.0000 0.0000 15.8799
#
#
#
# Elastic Compliance Matrix: (Units=1/GPa)
#
#
# Indices 1 2 3 4 5 6 
#
# 1 0.011054 -0.001692 -0.002238 0.000000 0.000000 0.000000
# 2 -0.001692 0.025931 -0.003436 0.000000 0.000000 0.000000
# 3 -0.002238 -0.003436 0.007664 0.000000 0.000000 0.000000
# 4 0.000000 0.000000 0.000000 -0.053484 0.000000 0.000000
# 5 0.000000 0.000000 0.000000 0.000000 -0.511388 0.000000
# 6 0.000000 0.000000 0.000000 0.000000 0.000000 0.062972
#
#
# Mechanical properties :
#
#
# Convention : Reuss Voigt Hill
#
# Bulk Modulus (GPa) = 33.42375 47.24026 40.33200
# Shear Modulus (GPa) = -11.55941 14.01896 1.22977
#
# Velocity S-wave (km/s) = -2.19558 2.41790 0.71613
# Velocity P-wave (km/s) = 2.74064 5.24360 4.18368
#
# Compressibility (1/GPa) = 0.02991885
#
# Stress axis : x y z
#
# Youngs Moduli (GPa) = 90.46169 38.56405 130.48567
#
# Poissons Ratio (x) = 0.06523 0.29198
# Poissons Ratio (y) = 0.15302 0.44834
# Poissons Ratio (z) = 0.20242 0.13250
#
# Static dielectric constant tensor:
#      x y z
#    x 1.897930 0.000000 0.000000 
#    y 0.000000 1.936280 0.000000 
#    z 0.000000 0.000000 1.981810 
# 
# From -- ./inp_files/19952.got.cif
#   From: 2010.05.17/outbox.cif.g08.bks.cpg/sg57_10_cif.got.tgz:19952.got - 2010.06.03 13:58:18.
