data_PCOD9438007
_publ_section_title
;
Structure prediction by ZEFSAII (Michael W. Deem and Ramdas Pophale) SiO2 
 PCOD9438007
Probable space group: P B C M
;
_chemical_formula_sum "Si O2"
_cell_formula_units_Z 40
_cell_length_a 14.716669
_cell_length_b 10.890310
_cell_length_c 12.003921
_cell_angle_alpha 90.000000
_cell_angle_beta 90.000000
_cell_angle_gamma 90.000000
_cell_volume 1923.857466
_symmetry_space_group_name_H-M "P B C M"
_symmetry_group_IT_number 57
_symmetry_cell_setting 'orthorhombic'
loop_
_space_group_symop_operation_xyz
x,y,z
-x,-y,1/2+z
x,1/2-y,-z
-x,1/2+y,1/2-z
-x,-y,-z
x,y,1/2-z
-x,1/2+y,z
x,1/2-y,1/2+z
loop_
_atom_site_type_symbol
_atom_site_label
_atom_site_fract_x
_atom_site_fract_y
_atom_site_fract_z
Si Si1 0.787241 0.183105 0.250000
Si Si2 0.641218 0.009510 0.250000
Si Si3 0.085220 0.948316 0.064733
Si Si4 0.371767 0.285229 0.750000
Si Si5 0.514599 0.125365 0.068402
Si Si6 0.164338 0.376337 0.750000
Si Si7 0.018122 0.733008 0.750000
Si Si8 0.214748 0.750000 0.500000
O O1 0.745274 0.047749 0.250000
O O2 0.753943 0.252730 0.133720
O O3 0.896846 0.173704 0.250000
O O4 0.595242 0.080348 0.147414
O O5 0.623334 0.863931 0.250000
O O6 0.039223 0.848680 0.144175
O O7 0.140652 0.042915 0.141216
O O8 0.157025 0.874503 0.992247
O O9 0.000000 0.000000 0.000000
O O10 0.427104 0.338146 0.856422
O O11 0.266967 0.327360 0.750000
O O12 0.537325 0.250000 0.000000
O O13 0.500000 0.000000 0.000000
O O14 0.083950 0.277366 0.750000
#
# Coordination Sequence:
#
# PCOD9438007 Si02
#       8
#     4   4   8   4   8   4   4   4
#     4  10  22  41  65  99 143 180 242 301 357 432
#     4  11  25  43  75 110 140 190 243 307 379 452
#     4  10  20  38  61  88 125 187 245 298 358 426
#     4  11  26  47  69 112 147 180 251 300 380 461
#     4  11  24  50  76 105 146 189 237 308 386 464
#     4  11  24  41  64  94 142 192 228 307 375 433
#     4   9  21  42  59  91 140 186 246 297 361 436
#     4  10  22  40  58  92 136 174 236 306 356 436
#
# _framework density 20.791561000000002
#
# number of rings (size 3 to 8) (size 9 to 14) (size 15 to 20)
#    0.000    1.600    2.000    3.000    1.400    5.600 
#   14.400    0.000    0.000    0.000    0.000    0.000 
#    0.000    0.000    0.000    0.000    0.000    0.000 
#
# Total GULP energy -222721.977956 kJ/mol
# GULP energy per Si atom -5568.049449 kJ/mol
# Density = 2.074424 g / cm^3
# Si number density = 20.791561 Si / 1000 Ang^3
#
#
#
# Elastic Constant Matrix: (Units=GPa)
#
#
# Indices 1 2 3 4 5 6 
#
# 1 137.0857 70.2897 38.7651 0.0000 0.0000 0.0000
# 2 70.2897 147.5572 59.9951 0.0000 0.0000 0.0000
# 3 38.7651 59.9951 133.8449 0.0000 0.0000 0.0000
# 4 0.0000 0.0000 0.0000 59.7103 0.0000 0.0000
# 5 0.0000 0.0000 0.0000 0.0000 -42.9248 0.0000
# 6 0.0000 0.0000 0.0000 0.0000 0.0000 41.2727
#
#
#
# Elastic Compliance Matrix: (Units=1/GPa)
#
#
# Indices 1 2 3 4 5 6 
#
# 1 0.009741 -0.004272 -0.000907 0.000000 0.000000 0.000000
# 2 -0.004272 0.010161 -0.003317 0.000000 0.000000 0.000000
# 3 -0.000907 -0.003317 0.009221 0.000000 0.000000 0.000000
# 4 0.000000 0.000000 0.000000 0.016748 0.000000 0.000000
# 5 0.000000 0.000000 0.000000 0.000000 -0.023297 0.000000
# 6 0.000000 0.000000 0.000000 0.000000 0.000000 0.024229
#
#
# Mechanical properties :
#
#
# Convention : Reuss Voigt Hill
#
# Bulk Modulus (GPa) = 82.42845 84.06528 83.24686
# Shear Modulus (GPa) = 73.70505 28.24085 50.97295
#
# Velocity S-wave (km/s) = 5.96041 3.68949 4.95675
# Velocity P-wave (km/s) = 9.33273 7.65963 8.53726
#
# Compressibility (1/GPa) = 0.01213173
#
# Stress axis : x y z
#
# Youngs Moduli (GPa) = 102.65482 98.41879 108.45005
#
# Poissons Ratio (x) = 0.42042 0.09832
# Poissons Ratio (y) = 0.43852 0.35975
# Poissons Ratio (z) = 0.09306 0.32648
#
# Static dielectric constant tensor:
#      x y z
#    x 1.790750 0.000000 0.000000 
#    y 0.000000 1.788280 0.000000 
#    z 0.000000 0.000000 1.311930 
# 
# From -- ./inp_files/13644.got.cif
#   From: 2010.05.17/outbox.cif.g08.bks.cpg/sg57_7_cif.got.tgz:13644.got - 2010.06.03 13:58:18.
