data_PCOD9438560
_publ_section_title
;
Structure prediction by ZEFSAII (Michael W. Deem and Ramdas Pophale) SiO2 
 PCOD9438560
Probable space group: P B C M
;
_chemical_formula_sum "Si O2"
_cell_formula_units_Z 56
_cell_length_a 14.911791
_cell_length_b 22.368040
_cell_length_c 8.305634
_cell_angle_alpha 90.000000
_cell_angle_beta 90.000000
_cell_angle_gamma 90.000000
_cell_volume 2770.323769
_symmetry_space_group_name_H-M "P B C M"
_symmetry_group_IT_number 57
_symmetry_cell_setting 'orthorhombic'
loop_
_space_group_symop_operation_xyz
x,y,z
-x,-y,1/2+z
x,1/2-y,-z
-x,1/2+y,1/2-z
-x,-y,-z
x,y,1/2-z
-x,1/2+y,z
x,1/2-y,1/2+z
loop_
_atom_site_type_symbol
_atom_site_label
_atom_site_fract_x
_atom_site_fract_y
_atom_site_fract_z
Si Si1 0.400060 0.006769 0.064883
Si Si2 0.248580 0.918498 0.052855
Si Si3 0.741279 0.685831 0.058824
Si Si4 0.044677 0.563061 0.556398
Si Si5 0.573026 0.629418 0.937363
Si Si6 0.935868 0.679941 0.057025
Si Si7 0.618078 0.317821 0.056289
O O1 0.403920 0.989933 0.250000
O O2 0.320940 0.967349 0.993166
O O3 0.384010 0.076138 0.039531
O O4 0.500000 0.000000 0.000000
O O5 0.246260 0.919665 0.250000
O O6 0.148467 0.932530 0.999036
O O7 0.295027 0.855777 0.005635
O O8 0.723629 0.682108 0.250000
O O9 0.835070 0.653105 0.020440
O O10 0.771668 0.750000 0.000000
O O11 0.650333 0.677349 0.959559
O O12 0.043526 0.561482 0.750000
O O13 0.000000 0.500000 0.500000
O O14 0.999885 0.626397 0.504116
O O15 0.564869 0.612099 0.750000
O O16 0.475309 0.650337 0.996104
O O17 0.941050 0.683544 0.250000
O O18 0.953770 0.750000 0.000000
O O19 0.614697 0.318331 0.250000
O O20 0.619883 0.250000 0.000000
#
# Coordination Sequence:
#
# PCOD9438560 Si02
#       7
#     8   8   8   8   8   8   8
#     4  11  21  38  61  86 118 156 197 242 297 358
#     4   9  21  42  62  83 119 160 196 245 308 364
#     4  10  21  37  58  86 121 160 200 245 300 359
#     4  11  24  43  67  94 126 164 209 265 324 382
#     4  11  22  36  57  86 122 160 201 246 294 355
#     4  10  22  42  66  92 125 165 210 263 322 385
#     4  10  21  39  59  84 119 158 198 243 294 352
#
# _framework density 20.214244000000001
#
# number of rings (size 3 to 8) (size 9 to 14) (size 15 to 20)
#    0.000    1.714    1.429    2.571    2.000    4.571 
#    0.000    5.000    0.000    0.000    0.000    0.000 
#    0.000    0.000    0.000    0.000    0.000    0.000 
#
# Total GULP energy -311768.128009 kJ/mol
# GULP energy per Si atom -5567.288000 kJ/mol
# Density = 2.016824 g / cm^3
# Si number density = 20.214244 Si / 1000 Ang^3
#
#
#
# Elastic Constant Matrix: (Units=GPa)
#
#
# Indices 1 2 3 4 5 6 
#
# 1 149.9031 55.8505 25.1525 0.0000 0.0000 0.0000
# 2 55.8505 105.4367 12.3382 0.0000 0.0000 0.0000
# 3 25.1525 12.3382 32.2195 0.0000 0.0000 0.0000
# 4 0.0000 0.0000 0.0000 32.1646 0.0000 0.0000
# 5 0.0000 0.0000 0.0000 0.0000 22.6799 0.0000
# 6 0.0000 0.0000 0.0000 0.0000 0.0000 37.4001
#
#
#
# Elastic Compliance Matrix: (Units=1/GPa)
#
#
# Indices 1 2 3 4 5 6 
#
# 1 0.009170 -0.004208 -0.005547 0.000000 0.000000 0.000000
# 2 -0.004208 0.011860 -0.001257 0.000000 0.000000 0.000000
# 3 -0.005547 -0.001257 0.035849 0.000000 0.000000 0.000000
# 4 0.000000 0.000000 0.000000 0.031090 0.000000 0.000000
# 5 0.000000 0.000000 0.000000 0.000000 0.044092 0.000000
# 6 0.000000 0.000000 0.000000 0.000000 0.000000 0.026738
#
#
# Mechanical properties :
#
#
# Convention : Reuss Voigt Hill
#
# Bulk Modulus (GPa) = 28.69016 52.69351 40.69184
# Shear Modulus (GPa) = 25.98211 31.39681 28.68946
#
# Velocity S-wave (km/s) = 3.58905 3.94534 3.77141
# Velocity P-wave (km/s) = 5.60347 6.84678 6.25609
#
# Compressibility (1/GPa) = 0.03485516
#
# Stress axis : x y z
#
# Youngs Moduli (GPa) = 109.05704 84.31370 27.89512
#
# Poissons Ratio (x) = 0.35480 0.15473
# Poissons Ratio (y) = 0.45892 0.03506
# Poissons Ratio (z) = 0.60492 0.10597
#
# Static dielectric constant tensor:
#      x y z
#    x 2.081490 0.000000 0.000000 
#    y 0.000000 1.501170 0.000000 
#    z 0.000000 0.000000 1.722090 
# 
# From -- ./inp_files/5285.got.cif
#   From: 2010.05.17/outbox.cif.g08.bks.cpg/sg57_3_cif.got.tgz:5285.got - 2010.06.03 13:58:18.
