data_PCOD9438506
_publ_section_title
;
Structure prediction by ZEFSAII (Michael W. Deem and Ramdas Pophale) SiO2 
 PCOD9438506
Probable space group: P B C M
;
_chemical_formula_sum "Si O2"
_cell_formula_units_Z 48
_cell_length_a 13.024521
_cell_length_b 24.097843
_cell_length_c 8.601438
_cell_angle_alpha 90.000000
_cell_angle_beta 90.000000
_cell_angle_gamma 90.000000
_cell_volume 2699.671950
_symmetry_space_group_name_H-M "P B C M"
_symmetry_group_IT_number 57
_symmetry_cell_setting 'orthorhombic'
loop_
_space_group_symop_operation_xyz
x,y,z
-x,-y,1/2+z
x,1/2-y,-z
-x,1/2+y,1/2-z
-x,-y,-z
x,y,1/2-z
-x,1/2+y,z
x,1/2-y,1/2+z
loop_
_atom_site_type_symbol
_atom_site_label
_atom_site_fract_x
_atom_site_fract_y
_atom_site_fract_z
Si Si1 0.003836 0.311796 0.064494
Si Si2 0.625441 0.688791 0.437647
Si Si3 0.808188 0.375360 0.938185
Si Si4 0.187174 0.387971 0.936862
Si Si5 0.884045 0.002944 0.436488
Si Si6 0.392008 0.811195 0.937523
O O1 0.009114 0.311199 0.250000
O O2 0.019178 0.250000 0.000000
O O3 0.894446 0.335530 0.009481
O O4 0.090974 0.352435 0.997948
O O5 0.651902 0.750000 0.500000
O O6 0.626839 0.691090 0.250000
O O7 0.709248 0.643730 0.486713
O O8 0.508642 0.675653 0.488069
O O9 0.815482 0.371869 0.750000
O O10 0.833749 0.438488 0.983181
O O11 0.695557 0.354342 0.985620
O O12 0.183172 0.389286 0.750000
O O13 0.176881 0.449964 0.000562
O O14 0.887816 0.000706 0.250000
O O15 0.000000 0.000000 0.500000
O O16 0.392107 0.809118 0.750000
O O17 0.366404 0.750000 0.000000
#
# Coordination Sequence:
#
# PCOD9438506 Si02
#       6
#     8   8   8   8   8   8
#     4  12  24  36  54  80 112 144 179 226 279 334
#     4   9  19  35  57  82 110 144 181 225 276 329
#     4  10  21  37  57  80 110 144 184 228 275 332
#     4  11  22  37  56  80 111 145 186 230 275 329
#     4  11  22  37  57  80 109 149 189 231 277 328
#     4   9  18  35  57  82 110 143 180 223 276 330
#
# _framework density 17.779938000000001
#
# number of rings (size 3 to 8) (size 9 to 14) (size 15 to 20)
#    0.000    1.667    1.667    3.500    0.000    5.333 
#    0.000    0.833    0.000    0.000    0.000    0.000 
#    0.000    0.000    0.000    0.000    0.000    0.000 
#
# Total GULP energy -268129.284392 kJ/mol
# GULP energy per Si atom -5586.026758 kJ/mol
# Density = 1.773947 g / cm^3
# Si number density = 17.779938 Si / 1000 Ang^3
#
#
#
# Elastic Constant Matrix: (Units=GPa)
#
#
# Indices 1 2 3 4 5 6 
#
# 1 99.8452 42.6245 17.8250 0.0000 0.0000 0.0000
# 2 42.6245 78.9105 17.6320 0.0000 0.0000 0.0000
# 3 17.8250 17.6320 31.8355 0.0000 0.0000 0.0000
# 4 0.0000 0.0000 0.0000 31.6890 0.0000 0.0000
# 5 0.0000 0.0000 0.0000 0.0000 8.1102 0.0000
# 6 0.0000 0.0000 0.0000 0.0000 0.0000 23.5820
#
#
#
# Elastic Compliance Matrix: (Units=1/GPa)
#
#
# Indices 1 2 3 4 5 6 
#
# 1 0.013450 -0.006371 -0.004002 0.000000 0.000000 0.000000
# 2 -0.006371 0.017480 -0.006114 0.000000 0.000000 0.000000
# 3 -0.004002 -0.006114 0.037039 0.000000 0.000000 0.000000
# 4 0.000000 0.000000 0.000000 0.031557 0.000000 0.000000
# 5 0.000000 0.000000 0.000000 0.000000 0.123301 0.000000
# 6 0.000000 0.000000 0.000000 0.000000 0.000000 0.042405
#
#
# Mechanical properties :
#
#
# Convention : Reuss Voigt Hill
#
# Bulk Modulus (GPa) = 28.57629 40.75047 34.66338
# Shear Modulus (GPa) = 16.13576 21.51023 18.82300
#
# Velocity S-wave (km/s) = 3.01579 3.48200 3.25724
# Velocity P-wave (km/s) = 5.31354 6.25578 5.80382
#
# Compressibility (1/GPa) = 0.03499404
#
# Stress axis : x y z
#
# Youngs Moduli (GPa) = 74.35097 57.20813 26.99886
#
# Poissons Ratio (x) = 0.36446 0.10805
# Poissons Ratio (y) = 0.47367 0.16508
# Poissons Ratio (z) = 0.29757 0.34978
#
# Static dielectric constant tensor:
#      x y z
#    x 1.606100 0.000000 0.000000 
#    y 0.000000 1.578280 0.000000 
#    z 0.000000 0.000000 1.600700 
# 
# From -- ./inp_files/3082.got.cif
#   From: 2010.05.17/outbox.cif.g08.bks.cpg/sg57_2_cif.got.tgz:3082.got - 2010.06.03 13:58:18.
