data_PCOD9438180
_publ_section_title
;
Structure prediction by ZEFSAII (Michael W. Deem and Ramdas Pophale) SiO2 
 PCOD9438180
Probable space group: P B C M
;
_chemical_formula_sum "Si O2"
_cell_formula_units_Z 36
_cell_length_a 7.463961
_cell_length_b 20.190431
_cell_length_c 9.419959
_cell_angle_alpha 90.000000
_cell_angle_beta 90.000000
_cell_angle_gamma 90.000000
_cell_volume 1419.593375
_symmetry_space_group_name_H-M "P B C M"
_symmetry_group_IT_number 57
_symmetry_cell_setting 'orthorhombic'
loop_
_space_group_symop_operation_xyz
x,y,z
-x,-y,1/2+z
x,1/2-y,-z
-x,1/2+y,1/2-z
-x,-y,-z
x,y,1/2-z
-x,1/2+y,z
x,1/2-y,1/2+z
loop_
_atom_site_type_symbol
_atom_site_label
_atom_site_fract_x
_atom_site_fract_y
_atom_site_fract_z
Si Si1 0.529294 0.822829 0.522373
Si Si2 0.365898 0.002297 0.250000
Si Si3 0.977119 0.350155 0.250000
Si Si4 0.663163 0.593357 0.750000
Si Si5 0.974251 0.580860 0.250000
Si Si6 0.173078 0.288709 0.750000
Si Si7 0.222801 0.912532 0.502452
O O1 0.443744 0.750000 0.500000
O O2 0.596685 0.862701 0.383640
O O3 0.700119 0.803973 0.616628
O O4 0.383727 0.874458 0.582014
O O5 0.573122 0.979439 0.250000
O O6 0.299256 0.967135 0.395059
O O7 0.238566 0.066144 0.250000
O O8 0.123802 0.408897 0.250000
O O9 0.091161 0.283714 0.250000
O O10 0.861923 0.359525 0.108415
O O11 0.988691 0.660153 0.250000
O O12 0.075714 0.559426 0.391252
#
# Coordination Sequence:
#
# PCOD9438180 Si02
#       7
#     8   4   4   4   4   4   8
#     4  11  21  40  60  90 126 169 200 249 321 388
#     4   9  22  46  63  90 127 178 209 251 325 381
#     4  11  22  43  60  98 126 165 205 265 326 378
#     4  10  20  39  66  84 123 169 206 251 316 375
#     4  12  24  39  64  99 128 160 222 272 295 370
#     4  12  26  37  63  95 138 158 204 267 322 370
#     4  10  24  40  68  90 128 168 215 259 322 372
#
# _framework density 25.359375
#
# number of rings (size 3 to 8) (size 9 to 14) (size 15 to 20)
#    0.000    1.333    2.222    3.333    3.111    0.000 
#    0.000   14.444    0.000    0.000    0.000    0.000 
#    0.000    0.000    0.000    0.000    0.000    0.000 
#
# Total GULP energy -201381.448011 kJ/mol
# GULP energy per Si atom -5593.929111 kJ/mol
# Density = 2.530166 g / cm^3
# Si number density = 25.359375 Si / 1000 Ang^3
#
#
#
# Elastic Constant Matrix: (Units=GPa)
#
#
# Indices 1 2 3 4 5 6 
#
# 1 59.4006 -16.6388 15.7435 0.0000 0.0000 0.0000
# 2 -16.6388 65.0674 8.2067 0.0000 0.0000 0.0000
# 3 15.7435 8.2067 124.3044 0.0000 0.0000 0.0000
# 4 0.0000 0.0000 0.0000 18.1829 0.0000 0.0000
# 5 0.0000 0.0000 0.0000 0.0000 -4.9041 0.0000
# 6 0.0000 0.0000 0.0000 0.0000 0.0000 35.4540
#
#
#
# Elastic Compliance Matrix: (Units=1/GPa)
#
#
# Indices 1 2 3 4 5 6 
#
# 1 0.019025 0.005212 -0.002754 0.000000 0.000000 0.000000
# 2 0.005212 0.016926 -0.001778 0.000000 0.000000 0.000000
# 3 -0.002754 -0.001778 0.008511 0.000000 0.000000 0.000000
# 4 0.000000 0.000000 0.000000 0.054997 0.000000 0.000000
# 5 0.000000 0.000000 0.000000 0.000000 -0.203909 0.000000
# 6 0.000000 0.000000 0.000000 0.000000 0.000000 0.028206
#
#
# Mechanical properties :
#
#
# Convention : Reuss Voigt Hill
#
# Bulk Modulus (GPa) = 21.82299 29.26614 25.54457
# Shear Modulus (GPa) = -80.21375 25.84395 -27.18490
#
# Velocity S-wave (km/s) = -5.63023 3.19581 -3.27767
# Velocity P-wave (km/s) = 5.80015 5.01829 2.05652
#
# Compressibility (1/GPa) = 0.04582324
#
# Stress axis : x y z
#
# Youngs Moduli (GPa) = 52.56332 59.08165 117.49664
#
# Poissons Ratio (x) = -0.30795 0.32354
# Poissons Ratio (y) = -0.27397 0.20886
# Poissons Ratio (z) = 0.14474 0.10502
#
# Static dielectric constant tensor:
#      x y z
#    x 1.995650 0.000000 0.000000 
#    y 0.000000 2.025650 0.000000 
#    z 0.000000 0.000000 1.977530 
# 
# From -- ./inp_files/1386.got.cif
#   From: 2010.05.17/outbox.cif.g08.bks.cpg/sg57_1_cif.got.tgz:1386.got - 2010.06.03 13:58:18.
