data_PCOD9438302
_publ_section_title
;
Structure prediction by ZEFSAII (Michael W. Deem and Ramdas Pophale) SiO2 
 PCOD9438302
Probable space group: P B C M
;
_chemical_formula_sum "Si O2"
_cell_formula_units_Z 40
_cell_length_a 5.451944
_cell_length_b 14.765988
_cell_length_c 21.679079
_cell_angle_alpha 90.000000
_cell_angle_beta 90.000000
_cell_angle_gamma 90.000000
_cell_volume 1745.238261
_symmetry_space_group_name_H-M "P B C M"
_symmetry_group_IT_number 57
_symmetry_cell_setting 'orthorhombic'
loop_
_space_group_symop_operation_xyz
x,y,z
-x,-y,1/2+z
x,1/2-y,-z
-x,1/2+y,1/2-z
-x,-y,-z
x,y,1/2-z
-x,1/2+y,z
x,1/2-y,1/2+z
loop_
_atom_site_type_symbol
_atom_site_label
_atom_site_fract_x
_atom_site_fract_y
_atom_site_fract_z
Si Si1 0.374337 0.337774 0.523472
Si Si2 0.435101 0.616181 0.250000
Si Si3 0.963017 0.239325 0.887943
Si Si4 0.953421 0.941110 0.060847
Si Si5 0.330869 0.581525 0.377333
Si Si6 0.926091 0.731753 0.250000
O O1 0.524030 0.250000 0.500000
O O2 0.155806 0.293533 0.566502
O O3 0.282552 0.384623 0.461319
O O4 0.495158 0.416311 0.563718
O O5 0.455811 0.561193 0.313009
O O6 0.660878 0.684809 0.250000
O O7 0.161822 0.662282 0.250000
O O8 0.883843 0.142939 0.916707
O O9 0.058824 0.221405 0.817771
O O10 0.751552 0.313459 0.878535
O O11 0.891704 0.013527 0.112720
O O12 0.000000 0.000000 0.000000
#
# Coordination Sequence:
#
# PCOD9438302 Si02
#       6
#     8   4   8   8   8   4
#     4  10  21  36  59  91 122 165 206 261 328 394
#     4  10  22  39  70  93 123 175 222 267 328 391
#     4  10  22  40  62  87 127 167 217 268 327 396
#     4  11  23  38  61  95 129 167 218 268 334 399
#     4  11  22  40  63  88 126 170 209 275 324 390
#     4  10  20  43  66  93 125 173 222 269 328 389
#
# _framework density 22.919508
#
# number of rings (size 3 to 8) (size 9 to 14) (size 15 to 20)
#    0.000    1.600    4.000    0.600    2.800    0.800 
#    0.000    0.000    0.000    2.400    0.000    0.000 
#    0.000    0.000    0.000    0.000    0.000    0.000 
#
# Total GULP energy -222672.874941 kJ/mol
# GULP energy per Si atom -5566.821874 kJ/mol
# Density = 2.286734 g / cm^3
# Si number density = 22.919508 Si / 1000 Ang^3
#
#
#
# Elastic Constant Matrix: (Units=GPa)
#
#
# Indices 1 2 3 4 5 6 
#
# 1 29.3105 -5.9820 -7.8482 0.0000 0.0000 0.0000
# 2 -5.9820 90.2221 1.7766 0.0000 0.0000 0.0000
# 3 -7.8482 1.7766 90.5516 0.0000 0.0000 0.0000
# 4 0.0000 0.0000 0.0000 22.0709 0.0000 0.0000
# 5 0.0000 0.0000 0.0000 0.0000 31.9964 0.0000
# 6 0.0000 0.0000 0.0000 0.0000 0.0000 22.1427
#
#
#
# Elastic Compliance Matrix: (Units=1/GPa)
#
#
# Indices 1 2 3 4 5 6 
#
# 1 0.035394 0.002287 0.003023 0.000000 0.000000 0.000000
# 2 0.002287 0.011236 -0.000022 0.000000 0.000000 0.000000
# 3 0.003023 -0.000022 0.011306 0.000000 0.000000 0.000000
# 4 0.000000 0.000000 0.000000 0.045309 0.000000 0.000000
# 5 0.000000 0.000000 0.000000 0.000000 0.031253 0.000000
# 6 0.000000 0.000000 0.000000 0.000000 0.000000 0.045162
#
#
# Mechanical properties :
#
#
# Convention : Reuss Voigt Hill
#
# Bulk Modulus (GPa) = 14.59624 20.66409 17.63016
# Shear Modulus (GPa) = 26.05245 30.05119 28.05182
#
# Velocity S-wave (km/s) = 3.37515 3.62493 3.50226
# Velocity P-wave (km/s) = 4.64447 5.15321 4.90544
#
# Compressibility (1/GPa) = 0.06851080
#
# Stress axis : x y z
#
# Youngs Moduli (GPa) = 28.25365 89.00085 88.44975
#
# Poissons Ratio (x) = -0.20356 -0.26736
# Poissons Ratio (y) = -0.06462 0.00196
# Poissons Ratio (z) = -0.08540 0.00198
#
# Static dielectric constant tensor:
#      x y z
#    x 1.948180 0.000000 0.000000 
#    y 0.000000 1.911830 0.000000 
#    z 0.000000 0.000000 2.097280 
# 
# From -- ./inp_files/26147.got.cif
#   From: 2010.05.17/outbox.cif.g08.bks.cpg/sg57_14_cif.got.tgz:26147.got - 2010.06.03 13:58:18.
