data_PCOD9438229
_publ_section_title
;
Structure prediction by ZEFSAII (Michael W. Deem and Ramdas Pophale) SiO2 
 PCOD9438229
Probable space group: P B C M
;
_chemical_formula_sum "Si O2"
_cell_formula_units_Z 40
_cell_length_a 16.024524
_cell_length_b 7.809088
_cell_length_c 14.231676
_cell_angle_alpha 90.000000
_cell_angle_beta 90.000000
_cell_angle_gamma 90.000000
_cell_volume 1780.908074
_symmetry_space_group_name_H-M "P B C M"
_symmetry_group_IT_number 57
_symmetry_cell_setting 'orthorhombic'
loop_
_space_group_symop_operation_xyz
x,y,z
-x,-y,1/2+z
x,1/2-y,-z
-x,1/2+y,1/2-z
-x,-y,-z
x,y,1/2-z
-x,1/2+y,z
x,1/2-y,1/2+z
loop_
_atom_site_type_symbol
_atom_site_label
_atom_site_fract_x
_atom_site_fract_y
_atom_site_fract_z
Si Si1 0.719442 0.939225 0.990920
Si Si2 0.598302 0.147337 0.403158
Si Si3 0.577035 0.512709 0.150619
Si Si4 0.108775 0.510117 0.944684
Si Si5 0.951563 0.652086 0.637426
O O1 0.638592 0.911867 0.926087
O O2 0.792893 0.047658 0.943227
O O3 0.756349 0.750000 0.000000
O O4 0.680906 0.035428 0.080749
O O5 0.580767 0.250000 0.500000
O O6 0.519390 0.032215 0.377337
O O7 0.602440 0.314811 0.340600
O O8 0.588481 0.603152 0.250000
O O9 0.086735 0.337901 0.885678
O O10 0.048396 0.647280 0.895861
O O11 0.087756 0.470881 0.055298
O O12 0.943342 0.612859 0.750000
#
# Coordination Sequence:
#
# PCOD9438229 Si02
#       5
#     8   8   8   8   8
#     4  11  21  41  62  89 125 170 207 254 317 379
#     4  10  21  39  62  86 123 167 206 248 317 374
#     4  11  22  38  62  93 125 163 213 262 310 372
#     4  10  22  41  63  93 126 163 212 261 320 381
#     4  10  20  40  65  89 122 162 207 259 319 382
#
# _framework density 22.460450000000002
#
# number of rings (size 3 to 8) (size 9 to 14) (size 15 to 20)
#    0.000    1.600    2.000    5.400    0.000    1.600 
#   21.600    3.000    0.000    0.000    0.000    0.000 
#    0.000    0.000    0.000    0.000    0.000    0.000 
#
# Total GULP energy -222861.873585 kJ/mol
# GULP energy per Si atom -5571.546840 kJ/mol
# Density = 2.240933 g / cm^3
# Si number density = 22.460450 Si / 1000 Ang^3
#
#
#
# Elastic Constant Matrix: (Units=GPa)
#
#
# Indices 1 2 3 4 5 6 
#
# 1 104.1075 5.6082 -4.9315 0.0000 0.0000 0.0000
# 2 5.6082 68.8330 4.7363 0.0000 0.0000 0.0000
# 3 -4.9315 4.7363 137.7321 0.0000 0.0000 0.0000
# 4 0.0000 0.0000 0.0000 -26.3414 0.0000 0.0000
# 5 0.0000 0.0000 0.0000 0.0000 12.4343 0.0000
# 6 0.0000 0.0000 0.0000 0.0000 0.0000 30.1381
#
#
#
# Elastic Compliance Matrix: (Units=1/GPa)
#
#
# Indices 1 2 3 4 5 6 
#
# 1 0.009667 -0.000813 0.000374 0.000000 0.000000 0.000000
# 2 -0.000813 0.014631 -0.000532 0.000000 0.000000 0.000000
# 3 0.000374 -0.000532 0.007292 0.000000 0.000000 0.000000
# 4 0.000000 0.000000 0.000000 -0.037963 0.000000 0.000000
# 5 0.000000 0.000000 0.000000 0.000000 0.080422 0.000000
# 6 0.000000 0.000000 0.000000 0.000000 0.000000 0.033181
#
#
# Mechanical properties :
#
#
# Convention : Reuss Voigt Hill
#
# Bulk Modulus (GPa) = 33.73029 35.72206 34.72618
# Shear Modulus (GPa) = 41.99730 23.59686 32.79708
#
# Velocity S-wave (km/s) = 4.32885 3.24481 3.82542
# Velocity P-wave (km/s) = 6.32736 5.47515 5.91662
#
# Compressibility (1/GPa) = 0.02964695
#
# Stress axis : x y z
#
# Youngs Moduli (GPa) = 103.44483 68.34891 137.13339
#
# Poissons Ratio (x) = 0.05559 -0.05130
# Poissons Ratio (y) = 0.08414 0.07299
# Poissons Ratio (z) = -0.03870 0.03638
#
# Static dielectric constant tensor:
#      x y z
#    x 1.821730 0.000000 0.000000 
#    y 0.000000 1.928830 0.000000 
#    z 0.000000 0.000000 1.884780 
# 
# From -- ./inp_files/18218.got.cif
#   From: 2010.05.17/outbox.cif.g08.bks.cpg/sg57_10_cif.got.tgz:18218.got - 2010.06.03 13:58:18.
