data_PCOD9438113
_publ_section_title
;
Structure prediction by ZEFSAII (Michael W. Deem and Ramdas Pophale) SiO2 
 PCOD9438113
Probable space group: P B C M
;
_chemical_formula_sum "Si O2"
_cell_formula_units_Z 40
_cell_length_a 7.506818
_cell_length_b 14.306632
_cell_length_c 14.411888
_cell_angle_alpha 90.000000
_cell_angle_beta 90.000000
_cell_angle_gamma 90.000000
_cell_volume 1547.797609
_symmetry_space_group_name_H-M "P B C M"
_symmetry_group_IT_number 57
_symmetry_cell_setting 'orthorhombic'
loop_
_space_group_symop_operation_xyz
x,y,z
-x,-y,1/2+z
x,1/2-y,-z
-x,1/2+y,1/2-z
-x,-y,-z
x,y,1/2-z
-x,1/2+y,z
x,1/2-y,1/2+z
loop_
_atom_site_type_symbol
_atom_site_label
_atom_site_fract_x
_atom_site_fract_y
_atom_site_fract_z
Si Si1 0.720179 0.956633 0.032516
Si Si2 0.093344 0.742594 0.610623
Si Si3 0.096663 0.530087 0.856787
Si Si4 0.401171 0.617584 0.149238
Si Si5 0.683304 0.718489 0.853328
O O1 0.650272 0.857037 0.066636
O O2 0.888277 0.749522 0.139874
O O3 0.900452 0.967641 0.096921
O O4 0.602676 0.042495 0.068285
O O5 0.099419 0.750000 0.500000
O O6 0.157312 0.639000 0.639497
O O7 0.217583 0.824100 0.647542
O O8 0.095616 0.499095 0.750000
O O9 0.214226 0.469967 0.927659
O O10 0.422172 0.571078 0.250000
O O11 0.551295 0.695492 0.138976
O O12 0.659078 0.676220 0.750000
#
# Coordination Sequence:
#
# PCOD9438113 Si02
#       5
#     8   8   8   8   8
#     4  10  20  40  69 106 144 191 246 302 362 442
#     4  11  21  40  66  97 139 189 237 291 366 432
#     4  10  20  38  69 103 144 193 241 302 372 435
#     4  11  22  40  70 104 144 192 244 299 363 438
#     4  10  23  43  68 103 150 190 236 309 368 425
#
# _framework density 25.843173
#
# number of rings (size 3 to 8) (size 9 to 14) (size 15 to 20)
#    0.000    1.600    2.000    4.800    0.000    0.800 
#    0.000    5.000    0.000   10.800    0.000    0.000 
#    0.000    0.000    0.000    0.000    0.000    0.000 
#
# Total GULP energy -224596.576548 kJ/mol
# GULP energy per Si atom -5614.914414 kJ/mol
# Density = 2.578435 g / cm^3
# Si number density = 25.843173 Si / 1000 Ang^3
#
#
#
# Elastic Constant Matrix: (Units=GPa)
#
#
# Indices 1 2 3 4 5 6 
#
# 1 59.9291 34.6653 15.0330 0.0000 0.0000 0.0000
# 2 34.6653 112.7761 47.4333 0.0000 0.0000 0.0000
# 3 15.0330 47.4333 241.0123 0.0000 0.0000 0.0000
# 4 0.0000 0.0000 0.0000 28.6981 0.0000 0.0000
# 5 0.0000 0.0000 0.0000 0.0000 30.8734 0.0000
# 6 0.0000 0.0000 0.0000 0.0000 0.0000 36.1232
#
#
#
# Elastic Compliance Matrix: (Units=1/GPa)
#
#
# Indices 1 2 3 4 5 6 
#
# 1 0.020295 -0.006221 -0.000042 0.000000 0.000000 0.000000
# 2 -0.006221 0.011574 -0.001890 0.000000 0.000000 0.000000
# 3 -0.000042 -0.001890 0.004524 0.000000 0.000000 0.000000
# 4 0.000000 0.000000 0.000000 0.034845 0.000000 0.000000
# 5 0.000000 0.000000 0.000000 0.000000 0.032390 0.000000
# 6 0.000000 0.000000 0.000000 0.000000 0.000000 0.027683
#
#
# Mechanical properties :
#
#
# Convention : Reuss Voigt Hill
#
# Bulk Modulus (GPa) = 49.77994 67.55344 58.66669
# Shear Modulus (GPa) = 32.40172 40.24467 36.32320
#
# Velocity S-wave (km/s) = 3.54472 3.95050 3.75310
# Velocity P-wave (km/s) = 6.00479 6.85603 6.44448
#
# Compressibility (1/GPa) = 0.02008841
#
# Stress axis : x y z
#
# Youngs Moduli (GPa) = 49.27270 86.39912 221.05783
#
# Poissons Ratio (x) = 0.53748 0.00919
# Poissons Ratio (y) = 0.30652 0.41777
# Poissons Ratio (z) = 0.00205 0.16328
#
# Static dielectric constant tensor:
#      x y z
#    x 2.077620 0.000000 0.000000 
#    y 0.000000 1.987740 0.000000 
#    z 0.000000 0.000000 2.104570 
# 
# From -- ./inp_files/24153.got.cif
#   From: 2010.05.17/outbox.cif.g08.bks.cpg/sg57_13_cif.got.tgz:24153.got - 2010.06.03 13:58:18.
