data_PCOD9438429
_publ_section_title
;
Structure prediction by ZEFSAII (Michael W. Deem and Ramdas Pophale) SiO2 
 PCOD9438429
Probable space group: P B C M
;
_chemical_formula_sum "Si O2"
_cell_formula_units_Z 48
_cell_length_a 12.263853
_cell_length_b 9.025249
_cell_length_c 21.224559
_cell_angle_alpha 90.000000
_cell_angle_beta 90.000000
_cell_angle_gamma 90.000000
_cell_volume 2349.226029
_symmetry_space_group_name_H-M "P B C M"
_symmetry_group_IT_number 57
_symmetry_cell_setting 'orthorhombic'
loop_
_space_group_symop_operation_xyz
x,y,z
-x,-y,1/2+z
x,1/2-y,-z
-x,1/2+y,1/2-z
-x,-y,-z
x,y,1/2-z
-x,1/2+y,z
x,1/2-y,1/2+z
loop_
_atom_site_type_symbol
_atom_site_label
_atom_site_fract_x
_atom_site_fract_y
_atom_site_fract_z
Si Si1 0.028249 0.117704 0.819030
Si Si2 0.060226 0.337241 0.561336
Si Si3 0.623944 0.933952 0.435515
Si Si4 0.162856 0.593066 0.104624
Si Si5 0.199753 0.929101 0.126767
Si Si6 0.403944 0.086462 0.415780
O O1 0.053542 0.177863 0.750000
O O2 0.054058 0.229250 0.877084
O O3 0.899864 0.075133 0.822892
O O4 0.101073 0.972776 0.834053
O O5 0.094117 0.250000 0.500000
O O6 0.140679 0.471399 0.574002
O O7 0.936743 0.395734 0.555423
O O8 0.620637 0.956840 0.511155
O O9 0.605175 0.763486 0.416806
O O10 0.741313 0.984352 0.412839
O O11 0.526763 0.030649 0.405519
O O12 0.212307 0.756785 0.110692
O O13 0.316917 0.008356 0.130800
#
# Coordination Sequence:
#
# PCOD9438429 Si02
#       6
#     8   8   8   8   8   8
#     4  10  23  42  61  87 125 170 212 255 314 384
#     4  10  23  38  59  91 126 169 211 263 315 375
#     4  10  21  36  56  82 120 158 203 250 307 367
#     4  10  22  35  57  85 119 159 200 252 305 369
#     4  10  22  35  58  86 120 157 202 253 306 366
#     4  10  21  36  55  83 117 160 201 252 305 367
#
# _framework density 20.432261
#
# number of rings (size 3 to 8) (size 9 to 14) (size 15 to 20)
#    0.000    2.000    0.000    2.000    9.333   12.000 
#    0.000    0.000    0.000    1.000    0.000    2.333 
#    0.000    0.000    0.000    0.000    0.000    0.000 
#
# Total GULP energy -267928.024145 kJ/mol
# GULP energy per Si atom -5581.833836 kJ/mol
# Density = 2.038576 g / cm^3
# Si number density = 20.432261 Si / 1000 Ang^3
#
#
#
# Elastic Constant Matrix: (Units=GPa)
#
#
# Indices 1 2 3 4 5 6 
#
# 1 108.8515 42.2273 11.1459 0.0000 0.0000 0.0000
# 2 42.2273 91.7591 32.0082 0.0000 0.0000 0.0000
# 3 11.1459 32.0082 86.9624 0.0000 0.0000 0.0000
# 4 0.0000 0.0000 0.0000 14.8594 0.0000 0.0000
# 5 0.0000 0.0000 0.0000 0.0000 6.7746 0.0000
# 6 0.0000 0.0000 0.0000 0.0000 0.0000 43.1764
#
#
#
# Elastic Compliance Matrix: (Units=1/GPa)
#
#
# Indices 1 2 3 4 5 6 
#
# 1 0.011205 -0.005341 0.000530 0.000000 0.000000 0.000000
# 2 -0.005341 0.015050 -0.004855 0.000000 0.000000 0.000000
# 3 0.000530 -0.004855 0.013218 0.000000 0.000000 0.000000
# 4 0.000000 0.000000 0.000000 0.067297 0.000000 0.000000
# 5 0.000000 0.000000 0.000000 0.000000 0.147609 0.000000
# 6 0.000000 0.000000 0.000000 0.000000 0.000000 0.023161
#
#
# Mechanical properties :
#
#
# Convention : Reuss Voigt Hill
#
# Bulk Modulus (GPa) = 49.65176 50.92620 50.28898
# Shear Modulus (GPa) = 16.46983 26.44152 21.45568
#
# Velocity S-wave (km/s) = 2.84222 3.60127 3.24402
# Velocity P-wave (km/s) = 5.92658 6.50159 6.22073
#
# Compressibility (1/GPa) = 0.02014027
#
# Stress axis : x y z
#
# Youngs Moduli (GPa) = 89.24910 66.44721 75.65342
#
# Poissons Ratio (x) = 0.35490 -0.04008
# Poissons Ratio (y) = 0.47669 0.36727
# Poissons Ratio (z) = -0.04729 0.32258
#
# Static dielectric constant tensor:
#      x y z
#    x 1.746870 0.000000 0.000000 
#    y 0.000000 1.781550 0.000000 
#    z 0.000000 0.000000 1.749160 
# 
# From -- ./inp_files/27081.got.cif
#   From: 2010.05.17/outbox.cif.g08.bks.cpg/sg57_14_cif.got.tgz:27081.got - 2010.06.03 13:58:18.
