data_PCOD9438139
_publ_section_title
;
Structure prediction by ZEFSAII (Michael W. Deem and Ramdas Pophale) SiO2 
 PCOD9438139
Probable space group: P B C M
;
_chemical_formula_sum "Si O2"
_cell_formula_units_Z 64
_cell_length_a 11.792247
_cell_length_b 15.009202
_cell_length_c 17.617338
_cell_angle_alpha 90.000000
_cell_angle_beta 90.000000
_cell_angle_gamma 90.000000
_cell_volume 3118.131715
_symmetry_space_group_name_H-M "P B C M"
_symmetry_group_IT_number 57
_symmetry_cell_setting 'orthorhombic'
loop_
_space_group_symop_operation_xyz
x,y,z
-x,-y,1/2+z
x,1/2-y,-z
-x,1/2+y,1/2-z
-x,-y,-z
x,y,1/2-z
-x,1/2+y,z
x,1/2-y,1/2+z
loop_
_atom_site_type_symbol
_atom_site_label
_atom_site_fract_x
_atom_site_fract_y
_atom_site_fract_z
Si Si1 0.218431 0.906841 0.472704
Si Si2 0.877973 0.951793 0.339264
Si Si3 0.615420 0.826998 0.839832
Si Si4 0.807967 0.610530 0.438176
Si Si5 0.534188 0.356156 0.982554
Si Si6 0.059619 0.852899 0.604076
Si Si7 0.671814 0.861034 0.417157
Si Si8 0.095847 0.838171 0.337166
O O1 0.344730 0.899635 0.504266
O O2 0.137406 0.853608 0.529531
O O3 0.200371 0.866584 0.389550
O O4 0.179975 0.008885 0.465440
O O5 0.871040 0.937440 0.250000
O O6 0.755375 0.926886 0.372824
O O7 0.980827 0.887364 0.366904
O O8 0.912909 0.052803 0.356779
O O9 0.592120 0.832144 0.750000
O O10 0.726963 0.882136 0.864922
O O11 0.517254 0.861213 0.897534
O O12 0.644201 0.725286 0.866034
O O13 0.744142 0.658696 0.506954
O O14 0.929308 0.649222 0.419982
O O15 0.543219 0.250000 0.000000
O O16 0.445365 0.394076 0.044890
O O17 0.082645 0.767390 0.655040
O O18 0.111777 0.864512 0.250000
#
# Coordination Sequence:
#
# PCOD9438139 Si02
#       8
#     8   8   8   8   8   8   8   8
#     4  12  23  43  67  91 130 173 216 264 317 388
#     4  11  22  39  62  93 132 166 210 271 331 384
#     4  10  22  40  66  96 128 168 212 270 333 383
#     4  11  22  38  66  95 128 166 221 265 318 386
#     4   9  21  41  66  91 120 170 218 266 314 385
#     4  12  23  41  63  96 129 173 216 263 323 390
#     4  10  20  39  61  93 124 163 222 267 317 375
#     4  11  25  41  63  95 130 170 213 264 330 394
#
# _framework density 20.525110999999999
#
# number of rings (size 3 to 8) (size 9 to 14) (size 15 to 20)
#    0.000    1.250    2.500    4.875    0.000    5.500 
#    0.000    6.875    0.000    0.000    0.000    0.000 
#    0.000    0.000    0.000    0.000    0.000    0.000 
#
# Total GULP energy -357604.761435 kJ/mol
# GULP energy per Si atom -5587.574397 kJ/mol
# Density = 2.047839 g / cm^3
# Si number density = 20.525111 Si / 1000 Ang^3
#
#
#
# Elastic Constant Matrix: (Units=GPa)
#
#
# Indices 1 2 3 4 5 6 
#
# 1 80.7442 -4.1527 36.7297 0.0000 0.0000 0.0000
# 2 -4.1527 67.0611 4.1425 0.0000 0.0000 0.0000
# 3 36.7297 4.1425 107.2162 0.0000 0.0000 0.0000
# 4 0.0000 0.0000 0.0000 31.5244 0.0000 0.0000
# 5 0.0000 0.0000 0.0000 0.0000 17.9376 0.0000
# 6 0.0000 0.0000 0.0000 0.0000 0.0000 49.2264
#
#
#
# Elastic Compliance Matrix: (Units=1/GPa)
#
#
# Indices 1 2 3 4 5 6 
#
# 1 0.014772 0.001230 -0.005108 0.000000 0.000000 0.000000
# 2 0.001230 0.015050 -0.001003 0.000000 0.000000 0.000000
# 3 -0.005108 -0.001003 0.011116 0.000000 0.000000 0.000000
# 4 0.000000 0.000000 0.000000 0.031721 0.000000 0.000000
# 5 0.000000 0.000000 0.000000 0.000000 0.055749 0.000000
# 6 0.000000 0.000000 0.000000 0.000000 0.000000 0.020314
#
#
# Mechanical properties :
#
#
# Convention : Reuss Voigt Hill
#
# Bulk Modulus (GPa) = 32.07612 36.49562 34.28587
# Shear Modulus (GPa) = 29.60773 34.29115 31.94944
#
# Velocity S-wave (km/s) = 3.80216 4.09184 3.94966
# Velocity P-wave (km/s) = 5.91075 6.33592 6.12702
#
# Compressibility (1/GPa) = 0.03117584
#
# Stress axis : x y z
#
# Youngs Moduli (GPa) = 67.69745 66.44553 89.96403
#
# Poissons Ratio (x) = -0.08174 0.45953
# Poissons Ratio (y) = -0.08328 0.09023
# Poissons Ratio (z) = 0.34579 0.06664
#
# Static dielectric constant tensor:
#      x y z
#    x 1.732170 0.000000 0.000000 
#    y 0.000000 1.702650 0.000000 
#    z 0.000000 0.000000 1.739820 
# 
# From -- ./inp_files/22096.got.cif
#   From: 2010.05.17/outbox.cif.g08.bks.cpg/sg57_12_cif.got.tgz:22096.got - 2010.06.03 13:58:18.
