data_PCOD9438631
_publ_section_title
;
Structure prediction by ZEFSAII (Michael W. Deem and Ramdas Pophale) SiO2 
 PCOD9438631
Probable space group: P B C M
;
_chemical_formula_sum "Si O2"
_cell_formula_units_Z 44
_cell_length_a 9.708189
_cell_length_b 14.583855
_cell_length_c 14.510782
_cell_angle_alpha 90.000000
_cell_angle_beta 90.000000
_cell_angle_gamma 90.000000
_cell_volume 2054.477446
_symmetry_space_group_name_H-M "P B C M"
_symmetry_group_IT_number 57
_symmetry_cell_setting 'orthorhombic'
loop_
_space_group_symop_operation_xyz
x,y,z
-x,-y,1/2+z
x,1/2-y,-z
-x,1/2+y,1/2-z
-x,-y,-z
x,y,1/2-z
-x,1/2+y,z
x,1/2-y,1/2+z
loop_
_atom_site_type_symbol
_atom_site_label
_atom_site_fract_x
_atom_site_fract_y
_atom_site_fract_z
Si Si1 0.657852 0.077684 0.250000
Si Si2 0.441568 0.841907 0.440784
Si Si3 0.669533 0.598866 0.250000
Si Si4 0.922583 0.389049 0.250000
Si Si5 0.643452 0.281112 0.250000
Si Si6 0.195817 0.297883 0.250000
Si Si7 0.197320 0.517624 0.912521
Si Si8 0.278755 0.435609 0.089589
O O1 0.494317 0.094320 0.250000
O O2 0.699044 0.020746 0.340546
O O3 0.710839 0.181185 0.250000
O O4 0.438795 0.750000 0.500000
O O5 0.447641 0.803208 0.337528
O O6 0.300619 0.900599 0.445279
O O7 0.574864 0.905262 0.455426
O O8 0.737523 0.698607 0.250000
O O9 0.719900 0.545524 0.340510
O O10 0.768257 0.351869 0.250000
O O11 0.926400 0.446138 0.346195
O O12 0.030461 0.307102 0.250000
O O13 0.237125 0.353589 0.157949
O O14 0.823869 0.539390 0.993832
#
# Coordination Sequence:
#
# PCOD9438631 Si02
#       8
#     4   8   4   4   4   4   8   8
#     4  11  20  37  61  97 131 159 197 255 317 395
#     4  11  21  35  62  98 130 160 196 247 319 389
#     4  11  22  39  64  92 129 164 200 253 332 363
#     4   9  23  48  60  82 119 168 226 251 303 365
#     4  10  21  37  61  84 121 169 204 254 307 366
#     4  11  26  41  62  87 122 168 215 271 297 363
#     4  10  22  40  66  89 125 168 202 255 315 380
#     4  11  23  37  61  99 129 157 205 257 324 377
#
# _framework density 21.416639
#
# number of rings (size 3 to 8) (size 9 to 14) (size 15 to 20)
#    0.000    1.455    1.818    4.364    5.091    0.727 
#    6.545    0.000   20.000    0.000    0.000    0.000 
#    0.000    0.000    0.000    0.000    0.000    0.000 
#
# Total GULP energy -245707.227977 kJ/mol
# GULP energy per Si atom -5584.255181 kJ/mol
# Density = 2.136789 g / cm^3
# Si number density = 21.416639 Si / 1000 Ang^3
#
#
#
# Elastic Constant Matrix: (Units=GPa)
#
#
# Indices 1 2 3 4 5 6 
#
# 1 40.1031 1.8186 23.6341 0.0000 0.0000 0.0000
# 2 1.8186 105.1112 47.1015 0.0000 0.0000 0.0000
# 3 23.6341 47.1015 144.7089 0.0000 0.0000 0.0000
# 4 0.0000 0.0000 0.0000 21.2418 0.0000 0.0000
# 5 0.0000 0.0000 0.0000 0.0000 22.7226 0.0000
# 6 0.0000 0.0000 0.0000 0.0000 0.0000 14.6806
#
#
#
# Elastic Compliance Matrix: (Units=1/GPa)
#
#
# Indices 1 2 3 4 5 6 
#
# 1 0.027887 0.001825 -0.005148 0.000000 0.000000 0.000000
# 2 0.001825 0.011258 -0.003962 0.000000 0.000000 0.000000
# 3 -0.005148 -0.003962 0.009041 0.000000 0.000000 0.000000
# 4 0.000000 0.000000 0.000000 0.047077 0.000000 0.000000
# 5 0.000000 0.000000 0.000000 0.000000 0.044009 0.000000
# 6 0.000000 0.000000 0.000000 0.000000 0.000000 0.068117
#
#
# Mechanical properties :
#
#
# Convention : Reuss Voigt Hill
#
# Bulk Modulus (GPa) = 29.74995 48.33685 39.04340
# Shear Modulus (GPa) = 21.44397 26.22027 23.83212
#
# Velocity S-wave (km/s) = 3.16773 3.50279 3.33946
# Velocity P-wave (km/s) = 5.22499 6.24325 5.75668
#
# Compressibility (1/GPa) = 0.03361350
#
# Stress axis : x y z
#
# Youngs Moduli (GPa) = 35.85885 88.82805 110.60764
#
# Poissons Ratio (x) = -0.16208 0.56946
# Poissons Ratio (y) = -0.06543 0.43826
# Poissons Ratio (z) = 0.18462 0.35196
#
# Static dielectric constant tensor:
#      x y z
#    x 1.786170 0.000000 0.000000 
#    y 0.000000 1.787420 0.000000 
#    z 0.000000 0.000000 1.779220 
# 
# From -- ./inp_files/20890.got.cif
#   From: 2010.05.17/outbox.cif.g08.bks.cpg/sg57_11_cif.got.tgz:20890.got - 2010.06.03 13:58:18.
