data_PCOD9438085
_publ_section_title
;
Structure prediction by ZEFSAII (Michael W. Deem and Ramdas Pophale) SiO2 
 PCOD9438085
Probable space group: P B C M
;
_chemical_formula_sum "Si O2"
_cell_formula_units_Z 48
_cell_length_a 6.193587
_cell_length_b 14.365246
_cell_length_c 27.667272
_cell_angle_alpha 90.000000
_cell_angle_beta 90.000000
_cell_angle_gamma 90.000000
_cell_volume 2461.623616
_symmetry_space_group_name_H-M "P B C M"
_symmetry_group_IT_number 57
_symmetry_cell_setting 'orthorhombic'
loop_
_space_group_symop_operation_xyz
x,y,z
-x,-y,1/2+z
x,1/2-y,-z
-x,1/2+y,1/2-z
-x,-y,-z
x,y,1/2-z
-x,1/2+y,z
x,1/2-y,1/2+z
loop_
_atom_site_type_symbol
_atom_site_label
_atom_site_fract_x
_atom_site_fract_y
_atom_site_fract_z
Si Si1 0.331547 0.744321 0.806328
Si Si2 0.559947 0.387019 0.055009
Si Si3 0.202006 0.543230 0.470186
Si Si4 0.958309 0.114393 0.132144
Si Si5 0.711575 0.775013 0.121507
Si Si6 0.901255 0.414233 0.141356
O O1 0.345130 0.764825 0.750000
O O2 0.562298 0.727693 0.831153
O O3 0.199694 0.649545 0.816925
O O4 0.206488 0.825787 0.835462
O O5 0.377715 0.463958 0.042946
O O6 0.442210 0.296604 0.076186
O O7 0.725303 0.418231 0.097764
O O8 0.694561 0.381063 0.006086
O O9 0.000000 0.500000 0.500000
O O10 0.137615 0.587179 0.419571
O O11 0.161429 0.179348 0.120488
O O12 0.032329 0.017712 0.155902
O O13 0.887834 0.857573 0.123767
#
# Coordination Sequence:
#
# PCOD9438085 Si02
#       6
#     8   8   8   8   8   8
#     4  10  25  44  65  96 125 162 215 277 339 398
#     4  10  20  38  65  92 131 176 215 261 312 380
#     4  11  21  37  66  95 133 176 221 260 315 390
#     4  11  23  40  69  95 130 172 215 271 323 392
#     4  10  22  41  63  92 133 165 214 273 320 388
#     4  10  21  43  67  90 129 171 214 264 330 384
#
# _framework density 19.499326
#
# number of rings (size 3 to 8) (size 9 to 14) (size 15 to 20)
#    0.000    1.667    3.333    0.000    2.333    3.333 
#    0.000   21.667    0.000    0.000    0.000    0.000 
#    0.000    0.000    0.000    0.000    0.000    0.000 
#
# Total GULP energy -267987.191790 kJ/mol
# GULP energy per Si atom -5583.066496 kJ/mol
# Density = 1.945494 g / cm^3
# Si number density = 19.499326 Si / 1000 Ang^3
#
#
#
# Elastic Constant Matrix: (Units=GPa)
#
#
# Indices 1 2 3 4 5 6 
#
# 1 111.1049 46.9832 51.0305 0.0000 0.0000 0.0000
# 2 46.9832 119.4290 33.4772 0.0000 0.0000 0.0000
# 3 51.0305 33.4772 128.2745 0.0000 0.0000 0.0000
# 4 0.0000 0.0000 0.0000 22.9753 0.0000 0.0000
# 5 0.0000 0.0000 0.0000 0.0000 17.3996 0.0000
# 6 0.0000 0.0000 0.0000 0.0000 0.0000 23.7022
#
#
#
# Elastic Compliance Matrix: (Units=1/GPa)
#
#
# Indices 1 2 3 4 5 6 
#
# 1 0.012412 -0.003775 -0.003953 0.000000 0.000000 0.000000
# 2 -0.003775 0.010182 -0.001156 0.000000 0.000000 0.000000
# 3 -0.003953 -0.001156 0.009670 0.000000 0.000000 0.000000
# 4 0.000000 0.000000 0.000000 0.043525 0.000000 0.000000
# 5 0.000000 0.000000 0.000000 0.000000 0.057473 0.000000
# 6 0.000000 0.000000 0.000000 0.000000 0.000000 0.042190
#
#
# Mechanical properties :
#
#
# Convention : Reuss Voigt Hill
#
# Bulk Modulus (GPa) = 68.97604 69.08778 69.03191
# Shear Modulus (GPa) = 25.24601 27.96993 26.60797
#
# Velocity S-wave (km/s) = 3.60211 3.79146 3.69800
# Velocity P-wave (km/s) = 7.26296 7.39423 7.32889
#
# Compressibility (1/GPa) = 0.01449779
#
# Stress axis : x y z
#
# Youngs Moduli (GPa) = 80.56509 98.21083 103.41439
#
# Poissons Ratio (x) = 0.37075 0.40877
# Poissons Ratio (y) = 0.30413 0.11950
# Poissons Ratio (z) = 0.31845 0.11349
#
# Static dielectric constant tensor:
#      x y z
#    x 1.721810 0.000000 0.000000 
#    y 0.000000 1.679640 0.000000 
#    z 0.000000 0.000000 1.651220 
# 
# From -- ./inp_files/27933.got.cif
#   From: 2010.05.17/outbox.cif.g08.bks.cpg/sg57_14_cif.got.tgz:27933.got - 2010.06.03 13:58:18.
