data_PCOD9438886
_publ_section_title
;
Structure prediction by ZEFSAII (Michael W. Deem and Ramdas Pophale) SiO2 
 PCOD9438886
Probable space group: P B C M
;
_chemical_formula_sum "Si O2"
_cell_formula_units_Z 64
_cell_length_a 8.690220
_cell_length_b 24.648933
_cell_length_c 15.789662
_cell_angle_alpha 90.000000
_cell_angle_beta 90.000000
_cell_angle_gamma 90.000000
_cell_volume 3382.219031
_symmetry_space_group_name_H-M "P B C M"
_symmetry_group_IT_number 57
_symmetry_cell_setting 'orthorhombic'
loop_
_space_group_symop_operation_xyz
x,y,z
-x,-y,1/2+z
x,1/2-y,-z
-x,1/2+y,1/2-z
-x,-y,-z
x,y,1/2-z
-x,1/2+y,z
x,1/2-y,1/2+z
loop_
_atom_site_type_symbol
_atom_site_label
_atom_site_fract_x
_atom_site_fract_y
_atom_site_fract_z
Si Si1 0.564365 0.060716 0.498481
Si Si2 0.445292 0.251598 0.402585
Si Si3 0.098119 0.252790 0.351129
Si Si4 0.937778 0.134146 0.846069
Si Si5 0.937595 0.867299 0.651795
Si Si6 0.567497 0.365948 0.343525
Si Si7 0.434630 0.131174 0.154571
Si Si8 0.066017 0.560181 0.002254
O O1 0.512553 0.095123 0.581056
O O2 0.506646 0.092946 0.416161
O O3 0.749176 0.058662 0.498901
O O4 0.500000 0.000000 0.500000
O O5 0.495293 0.250000 0.500000
O O6 0.515018 0.304359 0.358822
O O7 0.482346 0.193768 0.360623
O O8 0.260598 0.257794 0.397563
O O9 0.132309 0.250130 0.250000
O O10 0.995974 0.305398 0.366536
O O11 0.022099 0.194980 0.371977
O O12 0.990524 0.120694 0.750000
O O13 0.752809 0.133504 0.845205
O O14 0.989106 0.093108 0.919013
O O15 0.981371 0.877154 0.750000
O O16 0.010374 0.908388 0.585787
O O17 0.751418 0.870514 0.647147
O O18 0.515722 0.383781 0.250000
O O19 0.476132 0.114851 0.250000
O O20 0.000000 0.500000 0.000000
#
# Coordination Sequence:
#
# PCOD9438886 Si02
#       8
#     8   8   8   8   8   8   8   8
#     4  11  24  41  59  85 115 149 204 246 290 350
#     4  11  20  33  58  91 121 151 188 234 283 344
#     4   9  19  35  56  88 118 150 188 227 282 347
#     4   9  21  39  59  83 115 151 189 233 287 344
#     4   9  20  38  59  84 117 153 189 230 288 346
#     4  10  21  40  60  83 117 155 190 235 290 346
#     4  10  21  39  60  85 120 157 190 235 291 345
#     4  11  24  39  59  84 112 151 196 245 292 340
#
# _framework density 18.922488000000001
#
# number of rings (size 3 to 8) (size 9 to 14) (size 15 to 20)
#    0.000    2.000    1.250    2.625    3.500    3.500 
#    0.000    3.750    0.000    0.000    0.000    0.000 
#    0.000    0.000    0.000    0.000    0.000    0.000 
#
# Total GULP energy -357397.456854 kJ/mol
# GULP energy per Si atom -5584.335263 kJ/mol
# Density = 1.887942 g / cm^3
# Si number density = 18.922488 Si / 1000 Ang^3
#
#
#
# Elastic Constant Matrix: (Units=GPa)
#
#
# Indices 1 2 3 4 5 6 
#
# 1 18.5638 36.9806 36.6742 0.0000 0.0000 0.0000
# 2 36.9806 168.3729 102.8074 0.0000 0.0000 0.0000
# 3 36.6742 102.8074 158.0664 0.0000 0.0000 0.0000
# 4 0.0000 0.0000 0.0000 10.6790 0.0000 0.0000
# 5 0.0000 0.0000 0.0000 0.0000 29.9722 0.0000
# 6 0.0000 0.0000 0.0000 0.0000 0.0000 33.6110
#
#
#
# Elastic Compliance Matrix: (Units=1/GPa)
#
#
# Indices 1 2 3 4 5 6 
#
# 1 0.119660 -0.015475 -0.017698 0.000000 0.000000 0.000000
# 2 -0.015475 0.011853 -0.004119 0.000000 0.000000 0.000000
# 3 -0.017698 -0.004119 0.013112 0.000000 0.000000 0.000000
# 4 0.000000 0.000000 0.000000 0.093642 0.000000 0.000000
# 5 0.000000 0.000000 0.000000 0.000000 0.033364 0.000000
# 6 0.000000 0.000000 0.000000 0.000000 0.000000 0.029752
#
#
# Mechanical properties :
#
#
# Convention : Reuss Voigt Hill
#
# Bulk Modulus (GPa) = 14.27741 77.54749 45.91245
# Shear Modulus (GPa) = 12.52147 26.08851 19.30499
#
# Velocity S-wave (km/s) = 2.57519 3.71712 3.19754
# Velocity P-wave (km/s) = 4.05015 7.71319 6.16023
#
# Compressibility (1/GPa) = 0.07004070
#
# Stress axis : x y z
#
# Youngs Moduli (GPa) = 8.35699 84.36718 76.26860
#
# Poissons Ratio (x) = 1.30560 1.34981
# Poissons Ratio (y) = 0.12933 0.31413
# Poissons Ratio (z) = 0.14790 0.34748
#
# Static dielectric constant tensor:
#      x y z
#    x 1.641840 0.000000 0.000000 
#    y 0.000000 1.625790 0.000000 
#    z 0.000000 0.000000 1.643840 
# 
# From -- ./inp_files/16945.got.cif
#   From: 2010.05.17/outbox.cif.g08.bks.cpg/sg57_9_cif.got.tgz:16945.got - 2010.06.03 13:58:18.
