data_PCOD9438326
_publ_section_title
;
Structure prediction by ZEFSAII (Michael W. Deem and Ramdas Pophale) SiO2 
 PCOD9438326
Probable space group: P B C M
;
_chemical_formula_sum "Si O2"
_cell_formula_units_Z 40
_cell_length_a 3.922426
_cell_length_b 27.944205
_cell_length_c 11.512627
_cell_angle_alpha 90.000000
_cell_angle_beta 90.000000
_cell_angle_gamma 90.000000
_cell_volume 1261.888411
_symmetry_space_group_name_H-M "P B C M"
_symmetry_group_IT_number 57
_symmetry_cell_setting 'orthorhombic'
loop_
_space_group_symop_operation_xyz
x,y,z
-x,-y,1/2+z
x,1/2-y,-z
-x,1/2+y,1/2-z
-x,-y,-z
x,y,1/2-z
-x,1/2+y,z
x,1/2-y,1/2+z
loop_
_atom_site_type_symbol
_atom_site_label
_atom_site_fract_x
_atom_site_fract_y
_atom_site_fract_z
Si Si1 0.208515 0.899497 0.375493
Si Si2 0.169678 0.899297 0.875500
Si Si3 0.257708 0.301349 0.875036
Si Si4 0.277769 0.003847 0.119818
Si Si5 0.245483 0.303341 0.374986
O O1 0.392915 0.898449 0.250000
O O2 0.376077 0.898538 0.503364
O O3 0.972958 0.852225 0.375113
O O4 0.065412 0.953751 0.376929
O O5 0.348750 0.900542 0.750000
O O6 0.964510 0.849452 0.874852
O O7 0.942380 0.947468 0.880533
O O8 0.442703 0.301687 0.750000
O O9 0.072381 0.249348 0.874846
O O10 0.436774 0.302363 0.001254
O O11 0.445256 0.003757 0.250000
O O12 0.500000 0.000000 0.000000
O O13 0.431467 0.303425 0.250000
#
# Coordination Sequence:
#
# PCOD9438326 Si02
#       5
#     8   8   8   8   8
#     4   9  17  29  46  69  94 119 151 193 237 278
#     4   9  17  29  46  69  94 119 151 193 237 278
#     4   8  13  22  38  62  89 112 137 176 225 271
#     4  10  21  34  46  64  94 130 163 194 228 270
#     4   8  13  22  38  62  89 112 137 176 225 271
#
# _framework density 31.698525
#
# number of rings (size 3 to 8) (size 9 to 14) (size 15 to 20)
#    0.000    3.200    0.000    0.600    0.000    1.600 
#    0.000    0.000    0.000    0.000    0.000   22.400 
#    0.000  147.200    0.000    0.000    0.000    0.000 
#
# Total GULP energy -223081.400900 kJ/mol
# GULP energy per Si atom -5577.035022 kJ/mol
# Density = 3.162638 g / cm^3
# Si number density = 31.698525 Si / 1000 Ang^3
#
#
#
# Elastic Constant Matrix: (Units=GPa)
#
#
# Indices 1 2 3 4 5 6 
#
# 1 66.7871 97.0482 68.2462 0.0000 0.0000 0.0000
# 2 97.0482 427.2149 5.2249 0.0000 0.0000 0.0000
# 3 68.2462 5.2249 495.2823 0.0000 0.0000 0.0000
# 4 0.0000 0.0000 0.0000 48.2985 0.0000 0.0000
# 5 0.0000 0.0000 0.0000 0.0000 34.8242 0.0000
# 6 0.0000 0.0000 0.0000 0.0000 0.0000 87.3746
#
#
#
# Elastic Compliance Matrix: (Units=1/GPa)
#
#
# Indices 1 2 3 4 5 6 
#
# 1 0.028042 -0.006324 -0.003797 0.000000 0.000000 0.000000
# 2 -0.006324 0.003767 0.000832 0.000000 0.000000 0.000000
# 3 -0.003797 0.000832 0.002534 0.000000 0.000000 0.000000
# 4 0.000000 0.000000 0.000000 0.020705 0.000000 0.000000
# 5 0.000000 0.000000 0.000000 0.000000 0.028716 0.000000
# 6 0.000000 0.000000 0.000000 0.000000 0.000000 0.011445
#
#
# Mechanical properties :
#
#
# Convention : Reuss Voigt Hill
#
# Bulk Modulus (GPa) = 63.43568 147.81365 105.62467
# Shear Modulus (GPa) = 42.00210 88.68380 65.34295
#
# Velocity S-wave (km/s) = 3.64407 5.29509 4.54518
# Velocity P-wave (km/s) = 6.14502 9.17149 7.80633
#
# Compressibility (1/GPa) = 0.01576400
#
# Stress axis : x y z
#
# Youngs Moduli (GPa) = 35.66045 265.45538 394.70824
#
# Poissons Ratio (x) = 1.67868 1.49883
# Poissons Ratio (y) = 0.22551 -0.32825
# Poissons Ratio (z) = 0.13541 -0.22076
#
# Static dielectric constant tensor:
#      x y z
#    x 2.467460 0.000000 0.000000 
#    y 0.000000 2.365910 0.000000 
#    z 0.000000 0.000000 2.355710 
# 
# From -- ./inp_files/11047.got.cif
#   From: 2010.05.17/outbox.cif.g08.bks.cpg/sg57_6_cif.got.tgz:11047.got - 2010.06.03 13:58:18.
