data_PCOD9438513
_publ_section_title
;
Structure prediction by ZEFSAII (Michael W. Deem and Ramdas Pophale) SiO2 
 PCOD9438513
Probable space group: P B C M
;
_chemical_formula_sum "Si O2"
_cell_formula_units_Z 48
_cell_length_a 21.642546
_cell_length_b 14.450446
_cell_length_c 8.729381
_cell_angle_alpha 90.000000
_cell_angle_beta 90.000000
_cell_angle_gamma 90.000000
_cell_volume 2730.065392
_symmetry_space_group_name_H-M "P B C M"
_symmetry_group_IT_number 57
_symmetry_cell_setting 'orthorhombic'
loop_
_space_group_symop_operation_xyz
x,y,z
-x,-y,1/2+z
x,1/2-y,-z
-x,1/2+y,1/2-z
-x,-y,-z
x,y,1/2-z
-x,1/2+y,z
x,1/2-y,1/2+z
loop_
_atom_site_type_symbol
_atom_site_label
_atom_site_fract_x
_atom_site_fract_y
_atom_site_fract_z
Si Si1 0.764356 0.508215 0.065808
Si Si2 0.098801 0.010211 0.566650
Si Si3 0.334607 0.352827 0.066604
Si Si4 0.668281 0.352067 0.066539
Si Si5 0.431403 0.003764 0.434526
Si Si6 0.000491 0.852191 0.933389
O O1 0.761994 0.516544 0.250000
O O2 0.727288 0.414662 0.021651
O O3 0.834067 0.506759 0.007931
O O4 0.725639 0.592013 0.992486
O O5 0.103936 0.017039 0.750000
O O6 0.058876 0.918249 0.529529
O O7 0.058927 0.096083 0.503629
O O8 0.335789 0.351360 0.250000
O O9 0.335037 0.250000 0.000000
O O10 0.392903 0.410580 0.002610
O O11 0.668535 0.345521 0.250000
O O12 0.607981 0.412098 0.022608
O O13 0.668976 0.250000 0.000000
O O14 0.432126 0.010483 0.250000
O O15 0.500000 0.000000 0.500000
O O16 0.994435 0.848442 0.750000
O O17 0.007618 0.750000 0.000000
#
# Coordination Sequence:
#
# PCOD9438513 Si02
#       6
#     8   8   8   8   8   8
#     4  10  21  38  57  81 112 144 181 227 274 325
#     4  10  21  37  57  82 110 143 183 225 272 325
#     4  11  22  38  59  83 111 145 184 229 278 330
#     4   9  20  36  55  79 109 142 179 222 268 319
#     4  10  21  38  57  82 113 147 186 229 276 326
#     4  10  21  37  57  81 111 145 182 226 273 323
#
# _framework density 17.581996
#
# number of rings (size 3 to 8) (size 9 to 14) (size 15 to 20)
#    0.000    2.000    0.000    4.500    0.000    8.000 
#    0.000    8.333    0.000    0.000    0.000    0.000 
#    0.000    0.000    0.000    0.000    0.000    0.000 
#
# Total GULP energy -268078.656976 kJ/mol
# GULP energy per Si atom -5584.972020 kJ/mol
# Density = 1.754198 g / cm^3
# Si number density = 17.581996 Si / 1000 Ang^3
#
#
#
# Elastic Constant Matrix: (Units=GPa)
#
#
# Indices 1 2 3 4 5 6 
#
# 1 176.6485 87.5269 69.8415 0.0000 0.0000 0.0000
# 2 87.5269 180.6160 68.0951 0.0000 0.0000 0.0000
# 3 69.8415 68.0951 95.8507 0.0000 0.0000 0.0000
# 4 0.0000 0.0000 0.0000 35.8894 0.0000 0.0000
# 5 0.0000 0.0000 0.0000 0.0000 29.6012 0.0000
# 6 0.0000 0.0000 0.0000 0.0000 0.0000 5.2021
#
#
#
# Elastic Compliance Matrix: (Units=1/GPa)
#
#
# Indices 1 2 3 4 5 6 
#
# 1 0.008704 -0.002495 -0.004569 0.000000 0.000000 0.000000
# 2 -0.002495 0.008277 -0.004062 0.000000 0.000000 0.000000
# 3 -0.004569 -0.004062 0.016648 0.000000 0.000000 0.000000
# 4 0.000000 0.000000 0.000000 0.027863 0.000000 0.000000
# 5 0.000000 0.000000 0.000000 0.000000 0.033782 0.000000
# 6 0.000000 0.000000 0.000000 0.000000 0.000000 0.192230
#
#
# Mechanical properties :
#
#
# Convention : Reuss Voigt Hill
#
# Bulk Modulus (GPa) = 87.90653 100.44916 94.17784
# Shear Modulus (GPa) = 15.94635 29.31531 22.63083
#
# Velocity S-wave (km/s) = 3.01486 4.08775 3.59159
# Velocity P-wave (km/s) = 7.88833 8.91826 8.41906
#
# Compressibility (1/GPa) = 0.01137572
#
# Stress axis : x y z
#
# Youngs Moduli (GPa) = 114.89089 120.81155 60.06570
#
# Poissons Ratio (x) = 0.30145 0.27447
# Poissons Ratio (y) = 0.28667 0.24401
# Poissons Ratio (z) = 0.52499 0.49078
#
# Static dielectric constant tensor:
#      x y z
#    x 1.574140 0.000000 0.000000 
#    y 0.000000 1.576660 0.000000 
#    z 0.000000 0.000000 1.587250 
# 
# From -- ./inp_files/7862.got.cif
#   From: 2010.05.17/outbox.cif.g08.bks.cpg/sg57_4_cif.got.tgz:7862.got - 2010.06.03 13:58:18.
