data_PCOD9438795
_publ_section_title
;
Structure prediction by ZEFSAII (Michael W. Deem and Ramdas Pophale) SiO2 
 PCOD9438795
Probable space group: P B C M
;
_chemical_formula_sum "Si O2"
_cell_formula_units_Z 40
_cell_length_a 26.043309
_cell_length_b 9.295278
_cell_length_c 8.630291
_cell_angle_alpha 90.000000
_cell_angle_beta 90.000000
_cell_angle_gamma 90.000000
_cell_volume 2089.219095
_symmetry_space_group_name_H-M "P B C M"
_symmetry_group_IT_number 57
_symmetry_cell_setting 'orthorhombic'
loop_
_space_group_symop_operation_xyz
x,y,z
-x,-y,1/2+z
x,1/2-y,-z
-x,1/2+y,1/2-z
-x,-y,-z
x,y,1/2-z
-x,1/2+y,z
x,1/2-y,1/2+z
loop_
_atom_site_type_symbol
_atom_site_label
_atom_site_fract_x
_atom_site_fract_y
_atom_site_fract_z
Si Si1 0.356795 0.588602 0.435355
Si Si2 0.451842 0.089093 0.064546
Si Si3 0.951621 0.088306 0.435220
Si Si4 0.144297 0.088867 0.064324
Si Si5 0.245767 0.590668 0.564352
O O1 0.364931 0.750000 0.500000
O O2 0.359947 0.590290 0.250000
O O3 0.399929 0.486107 0.505497
O O4 0.299658 0.544963 0.488988
O O5 0.453161 0.089985 0.250000
O O6 0.454615 0.250000 0.000000
O O7 0.500000 0.000000 0.000000
O O8 0.952494 0.250000 0.500000
O O9 0.953756 0.091937 0.250000
O O10 0.900323 0.007633 0.490573
O O11 0.000000 0.000000 0.500000
O O12 0.137788 0.090445 0.250000
O O13 0.199236 0.016390 0.028997
O O14 0.141565 0.250000 0.000000
O O15 0.233706 0.750000 0.500000
O O16 0.252140 0.599857 0.750000
#
# Coordination Sequence:
#
# PCOD9438795 Si02
#       5
#     8   8   8   8   8
#     4  11  22  39  63  91 123 161 203 249 301 358
#     4  12  25  43  64  90 122 158 201 248 301 359
#     4  12  25  43  66  92 124 160 202 249 302 360
#     4  11  24  41  62  90 124 162 205 251 303 358
#     4  10  21  38  61  89 121 159 203 251 302 359
#
# _framework density 19.145910000000001
#
# number of rings (size 3 to 8) (size 9 to 14) (size 15 to 20)
#    0.000    0.800    0.000    9.600    0.000    5.600 
#    0.000    2.000    0.000    0.000    0.000    0.000 
#    0.000    0.000    0.000    0.000    0.000    0.000 
#
# Total GULP energy -223943.290743 kJ/mol
# GULP energy per Si atom -5598.582269 kJ/mol
# Density = 1.910233 g / cm^3
# Si number density = 19.145910 Si / 1000 Ang^3
#
#
#
# Elastic Constant Matrix: (Units=GPa)
#
#
# Indices 1 2 3 4 5 6 
#
# 1 166.1728 132.5094 105.0697 0.0000 0.0000 0.0000
# 2 132.5094 179.4299 97.6930 0.0000 0.0000 0.0000
# 3 105.0697 97.6930 194.8991 0.0000 0.0000 0.0000
# 4 0.0000 0.0000 0.0000 39.2172 0.0000 0.0000
# 5 0.0000 0.0000 0.0000 0.0000 38.7327 0.0000
# 6 0.0000 0.0000 0.0000 0.0000 0.0000 36.1920
#
#
#
# Elastic Compliance Matrix: (Units=1/GPa)
#
#
# Indices 1 2 3 4 5 6 
#
# 1 0.016484 -0.010088 -0.003830 0.000000 0.000000 0.000000
# 2 -0.010088 0.013839 -0.001498 0.000000 0.000000 0.000000
# 3 -0.003830 -0.001498 0.007946 0.000000 0.000000 0.000000
# 4 0.000000 0.000000 0.000000 0.025499 0.000000 0.000000
# 5 0.000000 0.000000 0.000000 0.000000 0.025818 0.000000
# 6 0.000000 0.000000 0.000000 0.000000 0.000000 0.027630
#
#
# Mechanical properties :
#
#
# Convention : Reuss Voigt Hill
#
# Bulk Modulus (GPa) = 134.46294 134.56068 134.51181
# Shear Modulus (GPa) = 33.21628 36.51034 34.86331
#
# Velocity S-wave (km/s) = 4.16973 4.37160 4.27186
# Velocity P-wave (km/s) = 9.67292 9.79365 9.73347
#
# Compressibility (1/GPa) = 0.00743699
#
# Stress axis : x y z
#
# Youngs Moduli (GPa) = 60.66527 72.25857 125.84190
#
# Poissons Ratio (x) = 0.72896 0.48194
# Poissons Ratio (y) = 0.61201 0.18855
# Poissons Ratio (z) = 0.23233 0.10827
#
# Static dielectric constant tensor:
#      x y z
#    x 1.645690 0.000000 0.000000 
#    y 0.000000 1.623830 0.000000 
#    z 0.000000 0.000000 1.639590 
# 
# From -- ./inp_files/8930.got.cif
#   From: 2010.05.17/outbox.cif.g08.bks.cpg/sg57_5_cif.got.tgz:8930.got - 2010.06.03 13:58:18.
