data_PCOD9438744
_publ_section_title
;
Structure prediction by ZEFSAII (Michael W. Deem and Ramdas Pophale) SiO2 
 PCOD9438744
Probable space group: P B C M
;
_chemical_formula_sum "Si O2"
_cell_formula_units_Z 64
_cell_length_a 22.440158
_cell_length_b 9.144896
_cell_length_c 15.477071
_cell_angle_alpha 90.000000
_cell_angle_beta 90.000000
_cell_angle_gamma 90.000000
_cell_volume 3176.094796
_symmetry_space_group_name_H-M "P B C M"
_symmetry_group_IT_number 57
_symmetry_cell_setting 'orthorhombic'
loop_
_space_group_symop_operation_xyz
x,y,z
-x,-y,1/2+z
x,1/2-y,-z
-x,1/2+y,1/2-z
-x,-y,-z
x,y,1/2-z
-x,1/2+y,z
x,1/2-y,1/2+z
loop_
_atom_site_type_symbol
_atom_site_label
_atom_site_fract_x
_atom_site_fract_y
_atom_site_fract_z
Si Si1 0.284284 0.064171 0.153414
Si Si2 0.197636 0.314847 0.096307
Si Si3 0.743441 0.402603 0.525594
Si Si4 0.362290 0.951721 0.648423
Si Si5 0.935045 0.648173 0.847932
Si Si6 0.599000 0.764917 0.849698
Si Si7 0.479356 0.631743 0.061512
Si Si8 0.026790 0.869882 0.558891
O O1 0.273122 0.001481 0.250000
O O2 0.245419 0.213200 0.145017
O O3 0.353934 0.104614 0.147604
O O4 0.270032 0.974019 0.067710
O O5 0.219733 0.480294 0.081728
O O6 0.133616 0.309179 0.140347
O O7 0.191114 0.250000 0.000000
O O8 0.773200 0.250000 0.500000
O O9 0.684271 0.375741 0.583968
O O10 0.346150 0.939574 0.750000
O O11 0.430730 0.904901 0.633445
O O12 0.365903 0.121625 0.618847
O O13 0.954969 0.660970 0.750000
O O14 0.940005 0.476152 0.874339
O O15 0.975547 0.765987 0.900146
O O16 0.583567 0.735319 0.750000
O O17 0.539224 0.799556 0.899735
O O18 0.449180 0.750000 0.000000
O O19 0.500000 0.500000 0.000000
O O20 0.061500 0.750000 0.500000
O O21 0.000000 0.000000 0.500000
#
# Coordination Sequence:
#
# PCOD9438744 Si02
#       8
#     8   8   8   8   8   8   8   8
#     4  10  21  40  66  91 116 157 207 256 304 368
#     4  10  21  38  64  90 121 166 213 249 295 367
#     4  11  24  41  63  91 124 159 197 257 323 377
#     4  11  23  40  61  87 120 157 201 252 307 371
#     4  11  21  36  61  95 128 162 211 261 304 355
#     4  10  21  38  60  84 113 150 198 248 301 367
#     4  12  23  37  57  82 115 151 196 247 302 367
#     4   9  19  36  58  84 125 171 208 249 304 364
#
# _framework density 20.150531999999998
#
# number of rings (size 3 to 8) (size 9 to 14) (size 15 to 20)
#    0.000    1.500    2.500    3.375    0.000    1.500 
#    0.000    2.500    0.000    0.000    0.000    0.000 
#    0.000    0.000    0.000    0.000    0.000    0.000 
#
# Total GULP energy -356775.443147 kJ/mol
# GULP energy per Si atom -5574.616299 kJ/mol
# Density = 2.010467 g / cm^3
# Si number density = 20.150532 Si / 1000 Ang^3
#
#
#
# Elastic Constant Matrix: (Units=GPa)
#
#
# Indices 1 2 3 4 5 6 
#
# 1 66.7784 11.4335 10.5730 0.0000 0.0000 0.0000
# 2 11.4335 84.1784 19.0409 0.0000 0.0000 0.0000
# 3 10.5730 19.0409 84.0193 0.0000 0.0000 0.0000
# 4 0.0000 0.0000 0.0000 26.9189 0.0000 0.0000
# 5 0.0000 0.0000 0.0000 0.0000 11.0911 0.0000
# 6 0.0000 0.0000 0.0000 0.0000 0.0000 18.5765
#
#
#
# Elastic Compliance Matrix: (Units=1/GPa)
#
#
# Indices 1 2 3 4 5 6 
#
# 1 0.015522 -0.001756 -0.001555 0.000000 0.000000 0.000000
# 2 -0.001756 0.012720 -0.002662 0.000000 0.000000 0.000000
# 3 -0.001555 -0.002662 0.012701 0.000000 0.000000 0.000000
# 4 0.000000 0.000000 0.000000 0.037149 0.000000 0.000000
# 5 0.000000 0.000000 0.000000 0.000000 0.090162 0.000000
# 6 0.000000 0.000000 0.000000 0.000000 0.000000 0.053832
#
#
# Mechanical properties :
#
#
# Convention : Reuss Voigt Hill
#
# Bulk Modulus (GPa) = 34.48722 35.23010 34.85866
# Shear Modulus (GPa) = 20.51724 24.24587 22.38156
#
# Velocity S-wave (km/s) = 3.19438 3.47253 3.33636
# Velocity P-wave (km/s) = 5.54594 5.79650 5.67260
#
# Compressibility (1/GPa) = 0.02899625
#
# Stress axis : x y z
#
# Youngs Moduli (GPa) = 64.42523 78.61527 78.73428
#
# Poissons Ratio (x) = 0.13809 0.12245
# Poissons Ratio (y) = 0.11316 0.20957
# Poissons Ratio (z) = 0.10020 0.20925
#
# Static dielectric constant tensor:
#      x y z
#    x 1.697040 0.000000 0.000000 
#    y 0.000000 1.744500 0.000000 
#    z 0.000000 0.000000 1.740010 
# 
# From -- ./inp_files/19492.got.cif
#   From: 2010.05.17/outbox.cif.g08.bks.cpg/sg57_10_cif.got.tgz:19492.got - 2010.06.03 13:58:18.
