data_PCOD9438608
_publ_section_title
;
Structure prediction by ZEFSAII (Michael W. Deem and Ramdas Pophale) SiO2 
 PCOD9438608
Probable space group: P B C M
;
_chemical_formula_sum "Si O2"
_cell_formula_units_Z 40
_cell_length_a 8.504270
_cell_length_b 7.805185
_cell_length_c 26.516257
_cell_angle_alpha 90.000000
_cell_angle_beta 90.000000
_cell_angle_gamma 90.000000
_cell_volume 1760.080214
_symmetry_space_group_name_H-M "P B C M"
_symmetry_group_IT_number 57
_symmetry_cell_setting 'orthorhombic'
loop_
_space_group_symop_operation_xyz
x,y,z
-x,-y,1/2+z
x,1/2-y,-z
-x,1/2+y,1/2-z
-x,-y,-z
x,y,1/2-z
-x,1/2+y,z
x,1/2-y,1/2+z
loop_
_atom_site_type_symbol
_atom_site_label
_atom_site_fract_x
_atom_site_fract_y
_atom_site_fract_z
Si Si1 0.250996 0.212075 0.445624
Si Si2 0.250207 0.242546 0.250000
Si Si3 0.080960 0.109962 0.347004
Si Si4 0.581641 0.390045 0.750000
Si Si5 0.248121 0.740300 0.152551
Si Si6 0.582523 0.157898 0.553315
O O1 0.174856 0.250000 0.500000
O O2 0.134939 0.200040 0.398893
O O3 0.394455 0.344760 0.438666
O O4 0.340362 0.029054 0.448124
O O5 0.144545 0.213119 0.298963
O O6 0.336324 0.425057 0.250000
O O7 0.393530 0.106750 0.250000
O O8 0.893320 0.104767 0.346435
O O9 0.161927 0.924391 0.343975
O O10 0.639342 0.294305 0.699622
O O11 0.342927 0.743565 0.100554
O O12 0.611407 0.250000 0.500000
#
# Coordination Sequence:
#
# PCOD9438608 Si02
#       6
#     8   4   8   4   8   8
#     4  10  21  37  60  87 117 154 197 243 292 346
#     4  12  25  42  65  90 118 154 196 244 293 350
#     4  11  24  41  61  88 121 158 197 242 296 352
#     4  12  25  42  65  90 118 154 196 244 293 350
#     4  11  24  41  61  88 121 158 197 242 296 352
#     4  10  21  37  60  87 117 154 197 243 292 346
#
# _framework density 22.726237999999999
#
# number of rings (size 3 to 8) (size 9 to 14) (size 15 to 20)
#    0.000    1.200    0.000    7.200    0.000   10.400 
#    0.000    4.000    0.000    0.000    0.000    0.000 
#    0.000    0.000    0.000    0.000    0.000    0.000 
#
# Total GULP energy -224091.874719 kJ/mol
# GULP energy per Si atom -5602.296868 kJ/mol
# Density = 2.267451 g / cm^3
# Si number density = 22.726238 Si / 1000 Ang^3
#
#
#
# Elastic Constant Matrix: (Units=GPa)
#
#
# Indices 1 2 3 4 5 6 
#
# 1 60.8775 -22.0918 44.5117 0.0000 0.0000 0.0000
# 2 -22.0918 66.1119 16.9335 0.0000 0.0000 0.0000
# 3 44.5117 16.9335 147.4056 0.0000 0.0000 0.0000
# 4 0.0000 0.0000 0.0000 19.1614 0.0000 0.0000
# 5 0.0000 0.0000 0.0000 0.0000 -6.9238 0.0000
# 6 0.0000 0.0000 0.0000 0.0000 0.0000 29.1914
#
#
#
# Elastic Compliance Matrix: (Units=1/GPa)
#
#
# Indices 1 2 3 4 5 6 
#
# 1 0.027854 0.011809 -0.009767 0.000000 0.000000 0.000000
# 2 0.011809 0.020591 -0.005931 0.000000 0.000000 0.000000
# 3 -0.009767 -0.005931 0.010415 0.000000 0.000000 0.000000
# 4 0.000000 0.000000 0.000000 0.052188 0.000000 0.000000
# 5 0.000000 0.000000 0.000000 0.000000 -0.144429 0.000000
# 6 0.000000 0.000000 0.000000 0.000000 0.000000 0.034257
#
#
# Mechanical properties :
#
#
# Convention : Reuss Voigt Hill
#
# Bulk Modulus (GPa) = 19.57703 39.23354 29.40528
# Shear Modulus (GPa) = 194.69021 23.95523 109.32272
#
# Velocity S-wave (km/s) = 9.26572 3.25018 6.94324
# Velocity P-wave (km/s) = 11.09524 5.60231 8.78892
#
# Compressibility (1/GPa) = 0.05108027
#
# Stress axis : x y z
#
# Youngs Moduli (GPa) = 35.90210 48.56426 96.01675
#
# Poissons Ratio (x) = -0.57351 0.93784
# Poissons Ratio (y) = -0.42398 0.56952
# Poissons Ratio (z) = 0.35067 0.28806
#
# Static dielectric constant tensor:
#      x y z
#    x 1.783420 0.000000 0.000000 
#    y 0.000000 1.899850 0.000000 
#    z 0.000000 0.000000 1.795470 
# 
# From -- ./inp_files/26541.got.cif
#   From: 2010.05.17/outbox.cif.g08.bks.cpg/sg57_14_cif.got.tgz:26541.got - 2010.06.03 13:58:18.
