data_PCOD9438040
_publ_section_title
;
Structure prediction by ZEFSAII (Michael W. Deem and Ramdas Pophale) SiO2 
 PCOD9438040
Probable space group: P B C M
;
_chemical_formula_sum "Si O2"
_cell_formula_units_Z 40
_cell_length_a 9.281791
_cell_length_b 26.212575
_cell_length_c 8.600708
_cell_angle_alpha 90.000000
_cell_angle_beta 90.000000
_cell_angle_gamma 90.000000
_cell_volume 2092.549184
_symmetry_space_group_name_H-M "P B C M"
_symmetry_group_IT_number 57
_symmetry_cell_setting 'orthorhombic'
loop_
_space_group_symop_operation_xyz
x,y,z
-x,-y,1/2+z
x,1/2-y,-z
-x,1/2+y,1/2-z
-x,-y,-z
x,y,1/2-z
-x,1/2+y,z
x,1/2-y,1/2+z
loop_
_atom_site_type_symbol
_atom_site_label
_atom_site_fract_x
_atom_site_fract_y
_atom_site_fract_z
Si Si1 0.828816 0.305813 0.437118
Si Si2 0.657634 0.904455 0.062483
Si Si3 0.838101 0.999842 0.935886
Si Si4 0.665331 0.096517 0.435498
Si Si5 0.164119 0.194798 0.936753
O O1 0.788019 0.250000 0.500000
O O2 0.818495 0.306892 0.250000
O O3 0.732179 0.349998 0.509049
O O4 0.997005 0.314249 0.481908
O O5 0.649730 0.905415 0.250000
O O6 0.735671 0.851866 0.013123
O O7 0.752288 0.951788 0.004782
O O8 0.498549 0.907637 0.992819
O O9 0.839909 0.997008 0.750000
O O10 0.757737 0.051115 0.989235
O O11 0.000000 0.000000 0.000000
O O12 0.671750 0.092392 0.250000
O O13 0.167650 0.196844 0.750000
O O14 0.208749 0.250000 0.000000
#
# Coordination Sequence:
#
# PCOD9438040 Si02
#       5
#     8   8   8   8   8
#     4  10  20  38  62  90 121 158 203 253 304 362
#     4  11  23  41  62  89 124 162 201 249 304 361
#     4  12  25  43  66  92 120 156 200 249 302 364
#     4  12  25  41  61  89 123 162 203 250 305 363
#     4   9  20  37  61  88 118 154 197 245 296 352
#
# _framework density 19.115441000000001
#
# number of rings (size 3 to 8) (size 9 to 14) (size 15 to 20)
#    0.000    1.200    0.000    6.600    0.000    4.800 
#    0.000    2.000    0.000    0.000    0.000    0.000 
#    0.000    0.000    0.000    0.000    0.000    0.000 
#
# Total GULP energy -223801.867357 kJ/mol
# GULP energy per Si atom -5595.046684 kJ/mol
# Density = 1.907193 g / cm^3
# Si number density = 19.115441 Si / 1000 Ang^3
#
#
#
# Elastic Constant Matrix: (Units=GPa)
#
#
# Indices 1 2 3 4 5 6 
#
# 1 110.8955 57.8448 -3.2284 0.0000 0.0000 0.0000
# 2 57.8448 104.9967 -12.4333 0.0000 0.0000 0.0000
# 3 -3.2284 -12.4333 46.1481 0.0000 0.0000 0.0000
# 4 0.0000 0.0000 0.0000 39.2632 0.0000 0.0000
# 5 0.0000 0.0000 0.0000 0.0000 37.7308 0.0000
# 6 0.0000 0.0000 0.0000 0.0000 0.0000 107.3908
#
#
#
# Elastic Compliance Matrix: (Units=1/GPa)
#
#
# Indices 1 2 3 4 5 6 
#
# 1 0.012701 -0.007119 -0.001030 0.000000 0.000000 0.000000
# 2 -0.007119 0.013828 0.003228 0.000000 0.000000 0.000000
# 3 -0.001030 0.003228 0.022467 0.000000 0.000000 0.000000
# 4 0.000000 0.000000 0.000000 0.025469 0.000000 0.000000
# 5 0.000000 0.000000 0.000000 0.000000 0.026504 0.000000
# 6 0.000000 0.000000 0.000000 0.000000 0.000000 0.009312
#
#
# Mechanical properties :
#
#
# Convention : Reuss Voigt Hill
#
# Bulk Modulus (GPa) = 25.53999 38.48960 32.01479
# Shear Modulus (GPa) = 37.54478 51.53410 44.53944
#
# Velocity S-wave (km/s) = 4.43663 5.19788 4.83227
# Velocity P-wave (km/s) = 6.29562 7.49686 6.92235
#
# Compressibility (1/GPa) = 0.03915429
#
# Stress axis : x y z
#
# Youngs Moduli (GPa) = 78.73404 72.31493 44.50980
#
# Poissons Ratio (x) = 0.51482 0.04582
# Poissons Ratio (y) = 0.56052 -0.14366
# Poissons Ratio (z) = 0.08106 -0.23341
#
# Static dielectric constant tensor:
#      x y z
#    x 1.636470 0.000000 0.000000 
#    y 0.000000 1.635800 0.000000 
#    z 0.000000 0.000000 1.641410 
# 
# From -- ./inp_files/1484.got.cif
#   From: 2010.05.17/outbox.cif.g08.bks.cpg/sg57_1_cif.got.tgz:1484.got - 2010.06.03 13:58:18.
