data_PCOD9438689
_publ_section_title
;
Structure prediction by ZEFSAII (Michael W. Deem and Ramdas Pophale) SiO2 
 PCOD9438689
Probable space group: P B C M
;
_chemical_formula_sum "Si O2"
_cell_formula_units_Z 56
_cell_length_a 21.398740
_cell_length_b 14.566495
_cell_length_c 8.919258
_cell_angle_alpha 90.000000
_cell_angle_beta 90.000000
_cell_angle_gamma 90.000000
_cell_volume 2780.174097
_symmetry_space_group_name_H-M "P B C M"
_symmetry_group_IT_number 57
_symmetry_cell_setting 'orthorhombic'
loop_
_space_group_symop_operation_xyz
x,y,z
-x,-y,1/2+z
x,1/2-y,-z
-x,1/2+y,1/2-z
-x,-y,-z
x,y,1/2-z
-x,1/2+y,z
x,1/2-y,1/2+z
loop_
_atom_site_type_symbol
_atom_site_label
_atom_site_fract_x
_atom_site_fract_y
_atom_site_fract_z
Si Si1 0.724631 0.464804 0.068899
Si Si2 0.470245 0.148028 0.429222
Si Si3 0.849947 0.110329 0.583151
Si Si4 0.594170 0.027528 0.428410
Si Si5 0.228808 0.155473 0.572743
Si Si6 0.977668 0.157263 0.072807
Si Si7 0.108261 0.400749 0.918417
O O1 0.725992 0.469695 0.250000
O O2 0.779347 0.392779 0.022829
O O3 0.657116 0.439151 0.007590
O O4 0.740340 0.565383 0.001243
O O5 0.466082 0.250000 0.500000
O O6 0.459293 0.153276 0.250000
O O7 0.424567 0.071906 0.502998
O O8 0.538249 0.100497 0.453603
O O9 0.851506 0.152083 0.750000
O O10 0.908342 0.144675 0.489446
O O11 0.865146 0.002557 0.595465
O O12 0.602911 0.017800 0.250000
O O13 0.252580 0.250000 0.500000
O O14 0.238250 0.155010 0.750000
O O15 0.154909 0.148204 0.532256
O O16 0.972691 0.161885 0.250000
O O17 0.035798 0.090778 0.036764
O O18 0.002407 0.250000 0.000000
O O19 0.111905 0.358588 0.750000
#
# Coordination Sequence:
#
# PCOD9438689 Si02
#       7
#     8   8   8   8   8   8   8
#     4  10  21  38  58  80 109 145 183 225 273 325
#     4  10  21  38  62  92 125 158 193 234 278 327
#     4   9  19  36  55  75 102 134 172 218 268 322
#     4  10  21  38  61  90 122 156 194 234 278 330
#     4  11  21  33  51  76 107 142 181 226 276 333
#     4  11  22  34  51  74 101 133 173 221 272 324
#     4   9  19  35  53  75 101 132 171 218 274 332
#
# _framework density 20.142624000000001
#
# number of rings (size 3 to 8) (size 9 to 14) (size 15 to 20)
#    0.000    2.000    0.000    4.714    0.000    7.429 
#    0.000    3.571    0.000    1.714    0.000    0.000 
#    0.000    0.000    0.000    0.000    0.000    0.000 
#
# Total GULP energy -312255.670455 kJ/mol
# GULP energy per Si atom -5575.994115 kJ/mol
# Density = 2.009678 g / cm^3
# Si number density = 20.142624 Si / 1000 Ang^3
#
#
#
# Elastic Constant Matrix: (Units=GPa)
#
#
# Indices 1 2 3 4 5 6 
#
# 1 102.5784 -16.5155 21.7859 0.0000 0.0000 0.0000
# 2 -16.5155 23.2109 -3.4122 0.0000 0.0000 0.0000
# 3 21.7859 -3.4122 59.0934 0.0000 0.0000 0.0000
# 4 0.0000 0.0000 0.0000 25.5250 0.0000 0.0000
# 5 0.0000 0.0000 0.0000 0.0000 35.9856 0.0000
# 6 0.0000 0.0000 0.0000 0.0000 0.0000 16.0432
#
#
#
# Elastic Compliance Matrix: (Units=1/GPa)
#
#
# Indices 1 2 3 4 5 6 
#
# 1 0.011844 0.007852 -0.003913 0.000000 0.000000 0.000000
# 2 0.007852 0.048658 -0.000085 0.000000 0.000000 0.000000
# 3 -0.003913 -0.000085 0.018360 0.000000 0.000000 0.000000
# 4 0.000000 0.000000 0.000000 0.039177 0.000000 0.000000
# 5 0.000000 0.000000 0.000000 0.000000 0.027789 0.000000
# 6 0.000000 0.000000 0.000000 0.000000 0.000000 0.062332
#
#
# Mechanical properties :
#
#
# Convention : Reuss Voigt Hill
#
# Bulk Modulus (GPa) = 11.55138 20.95545 16.25342
# Shear Modulus (GPa) = 21.80467 27.71239 24.75853
#
# Velocity S-wave (km/s) = 3.29373 3.71321 3.50974
# Velocity P-wave (km/s) = 4.49579 5.36750 4.95087
#
# Compressibility (1/GPa) = 0.08656971
#
# Stress axis : x y z
#
# Youngs Moduli (GPa) = 84.43128 20.55165 54.46595
#
# Poissons Ratio (x) = -0.16138 0.21313
# Poissons Ratio (y) = -0.66297 0.00464
# Poissons Ratio (z) = 0.33039 0.00175
#
# Static dielectric constant tensor:
#      x y z
#    x 1.755050 0.000000 0.000000 
#    y 0.000000 1.724720 0.000000 
#    z 0.000000 0.000000 1.703500 
# 
# From -- ./inp_files/8041.got.cif
#   From: 2010.05.17/outbox.cif.g08.bks.cpg/sg57_5_cif.got.tgz:8041.got - 2010.06.03 13:58:18.
