data_PCOD9438741
_publ_section_title
;
Structure prediction by ZEFSAII (Michael W. Deem and Ramdas Pophale) SiO2 
 PCOD9438741
Probable space group: P B C M
;
_chemical_formula_sum "Si O2"
_cell_formula_units_Z 64
_cell_length_a 10.929974
_cell_length_b 13.725890
_cell_length_c 18.044701
_cell_angle_alpha 90.000000
_cell_angle_beta 90.000000
_cell_angle_gamma 90.000000
_cell_volume 2707.131381
_symmetry_space_group_name_H-M "P B C M"
_symmetry_group_IT_number 57
_symmetry_cell_setting 'orthorhombic'
loop_
_space_group_symop_operation_xyz
x,y,z
-x,-y,1/2+z
x,1/2-y,-z
-x,1/2+y,1/2-z
-x,-y,-z
x,y,1/2-z
-x,1/2+y,z
x,1/2-y,1/2+z
loop_
_atom_site_type_symbol
_atom_site_label
_atom_site_fract_x
_atom_site_fract_y
_atom_site_fract_z
Si Si1 0.296024 0.440654 0.336646
Si Si2 0.327735 0.733278 0.931941
Si Si3 0.096647 0.659122 0.834613
Si Si4 0.565380 0.532754 0.165286
Si Si5 0.922155 0.710593 0.080688
Si Si6 0.559827 0.763900 0.162530
Si Si7 0.839287 0.421840 0.552026
Si Si8 0.188471 0.020376 0.102125
O O1 0.259827 0.439050 0.250000
O O2 0.428765 0.493613 0.343616
O O3 0.329451 0.332410 0.366191
O O4 0.204033 0.507086 0.382986
O O5 0.204237 0.694609 0.890197
O O6 0.426498 0.711330 0.868542
O O7 0.264010 0.838017 0.962678
O O8 0.426008 0.750000 0.000000
O O9 0.115465 0.690561 0.750000
O O10 0.971684 0.703859 0.866797
O O11 0.106979 0.543025 0.842074
O O12 0.604144 0.511295 0.250000
O O13 0.565921 0.648439 0.154637
O O14 0.669236 0.493218 0.111263
O O15 0.039476 0.638804 0.068379
O O16 0.826863 0.634833 0.114171
O O17 0.887126 0.750000 0.000000
O O18 0.559502 0.786074 0.250000
O O19 0.851149 0.487540 0.479454
#
# Coordination Sequence:
#
# PCOD9438741 Si02
#       8
#     8   8   8   8   8   8   8   8
#     4  10  22  40  65  98 137 176 219 271 330 392
#     4  11  20  37  62  94 132 170 217 272 320 385
#     4  11  23  41  67  99 127 168 224 275 330 400
#     4  10  22  40  61  92 134 176 214 264 328 394
#     4  11  25  47  71  95 132 173 222 282 346 397
#     4  10  21  38  59  89 133 179 215 265 327 387
#     4  11  22  40  68  94 128 173 222 275 331 392
#     4  12  24  42  70  96 133 176 221 276 341 406
#
# _framework density 23.641261
#
# number of rings (size 3 to 8) (size 9 to 14) (size 15 to 20)
#    0.000    1.250    3.750    2.625    0.000    6.500 
#    0.000    0.000    0.000    0.000    0.000    0.000 
#    0.000    0.000    0.000    0.000    0.000    0.000 
#
# Total GULP energy -356830.511067 kJ/mol
# GULP energy per Si atom -5575.476735 kJ/mol
# Density = 2.358745 g / cm^3
# Si number density = 23.641261 Si / 1000 Ang^3
#
#
#
# Elastic Constant Matrix: (Units=GPa)
#
#
# Indices 1 2 3 4 5 6 
#
# 1 36.2105 -6.0835 -3.3794 0.0000 0.0000 0.0000
# 2 -6.0835 107.4509 24.9496 0.0000 0.0000 0.0000
# 3 -3.3794 24.9496 68.1787 0.0000 0.0000 0.0000
# 4 0.0000 0.0000 0.0000 23.6641 0.0000 0.0000
# 5 0.0000 0.0000 0.0000 0.0000 18.4258 0.0000
# 6 0.0000 0.0000 0.0000 0.0000 0.0000 6.7605
#
#
#
# Elastic Compliance Matrix: (Units=1/GPa)
#
#
# Indices 1 2 3 4 5 6 
#
# 1 0.027930 0.001377 0.000881 0.000000 0.000000 0.000000
# 2 0.001377 0.010239 -0.003679 0.000000 0.000000 0.000000
# 3 0.000881 -0.003679 0.016057 0.000000 0.000000 0.000000
# 4 0.000000 0.000000 0.000000 0.042258 0.000000 0.000000
# 5 0.000000 0.000000 0.000000 0.000000 0.054272 0.000000
# 6 0.000000 0.000000 0.000000 0.000000 0.000000 0.147918
#
#
# Mechanical properties :
#
#
# Convention : Reuss Voigt Hill
#
# Bulk Modulus (GPa) = 19.46157 26.97927 23.22042
# Shear Modulus (GPa) = 15.69149 22.86029 19.27589
#
# Velocity S-wave (km/s) = 2.57910 3.11298 2.85853
# Velocity P-wave (km/s) = 4.13750 4.93534 4.55393
#
# Compressibility (1/GPa) = 0.05138331
#
# Stress axis : x y z
#
# Youngs Moduli (GPa) = 35.80404 97.66889 62.27762
#
# Poissons Ratio (x) = -0.13447 -0.05484
# Poissons Ratio (y) = -0.04930 0.22909
# Poissons Ratio (z) = -0.03153 0.35928
#
# Static dielectric constant tensor:
#      x y z
#    x 1.856420 0.000000 0.000000 
#    y 0.000000 1.980500 0.000000 
#    z 0.000000 0.000000 1.632210 
# 
# From -- ./inp_files/22028.got.cif
#   From: 2010.05.17/outbox.cif.g08.bks.cpg/sg57_12_cif.got.tgz:22028.got - 2010.06.03 13:58:18.
