data_PCOD9438406
_publ_section_title
;
Structure prediction by ZEFSAII (Michael W. Deem and Ramdas Pophale) SiO2 
 PCOD9438406
Probable space group: P B C M
;
_chemical_formula_sum "Si O2"
_cell_formula_units_Z 48
_cell_length_a 9.907409
_cell_length_b 24.703124
_cell_length_c 7.492886
_cell_angle_alpha 90.000000
_cell_angle_beta 90.000000
_cell_angle_gamma 90.000000
_cell_volume 1833.838539
_symmetry_space_group_name_H-M "P B C M"
_symmetry_group_IT_number 57
_symmetry_cell_setting 'orthorhombic'
loop_
_space_group_symop_operation_xyz
x,y,z
-x,-y,1/2+z
x,1/2-y,-z
-x,1/2+y,1/2-z
-x,-y,-z
x,y,1/2-z
-x,1/2+y,z
x,1/2-y,1/2+z
loop_
_atom_site_type_symbol
_atom_site_label
_atom_site_fract_x
_atom_site_fract_y
_atom_site_fract_z
Si Si1 0.881817 0.190824 0.962000
Si Si2 0.585549 0.158895 0.966784
Si Si3 0.675273 0.042629 0.532936
Si Si4 0.296278 0.310552 0.551984
Si Si5 0.022982 0.578867 0.965423
Si Si6 0.729475 0.570606 0.044493
O O1 0.873336 0.183911 0.750000
O O2 0.728445 0.183391 0.027453
O O3 0.973183 0.141755 0.024468
O O4 0.933352 0.250000 0.000000
O O5 0.577819 0.161952 0.750000
O O6 0.587973 0.095102 0.018562
O O7 0.459215 0.189415 0.047028
O O8 0.672366 0.041039 0.750000
O O9 0.829405 0.058055 0.481512
O O10 0.651525 0.981512 0.465751
O O11 0.252591 0.250000 0.500000
O O12 0.242608 0.317348 0.750000
O O13 0.273032 0.369388 0.458027
O O14 0.013554 0.574638 0.750000
O O15 0.887766 0.553951 0.043190
O O16 0.685377 0.576029 0.250000
#
# Coordination Sequence:
#
# PCOD9438406 Si02
#       6
#     8   8   8   8   8   8
#     4   9  18  31  49  75 103 132 169 214 262 309
#     4   9  18  35  58  80 104 135 169 211 266 319
#     4   8  16  34  58  82 108 135 165 210 267 316
#     4  11  24  39  54  75 105 141 180 219 257 302
#     4   9  18  33  53  77 105 137 172 210 258 313
#     4  10  21  36  54  77 106 140 176 213 254 305
#
# _framework density 26.174605
#
# number of rings (size 3 to 8) (size 9 to 14) (size 15 to 20)
#    0.000    2.667    0.000    3.500    0.000    5.333 
#    0.000    6.667    0.000    0.000    0.000    0.000 
#    0.000    0.000    0.000    0.000    0.000    0.000 
#
# Total GULP energy -268184.779848 kJ/mol
# GULP energy per Si atom -5587.182913 kJ/mol
# Density = 2.611503 g / cm^3
# Si number density = 26.174605 Si / 1000 Ang^3
#
#
#
# Elastic Constant Matrix: (Units=GPa)
#
#
# Indices 1 2 3 4 5 6 
#
# 1 82.1964 3.9450 4.2307 0.0000 0.0000 0.0000
# 2 3.9450 216.0638 10.2246 0.0000 0.0000 0.0000
# 3 4.2307 10.2246 84.3495 0.0000 0.0000 0.0000
# 4 0.0000 0.0000 0.0000 -9.1561 0.0000 0.0000
# 5 0.0000 0.0000 0.0000 0.0000 19.7360 0.0000
# 6 0.0000 0.0000 0.0000 0.0000 0.0000 22.3399
#
#
#
# Elastic Compliance Matrix: (Units=1/GPa)
#
#
# Indices 1 2 3 4 5 6 
#
# 1 0.012206 -0.000195 -0.000589 0.000000 0.000000 0.000000
# 2 -0.000195 0.004658 -0.000555 0.000000 0.000000 0.000000
# 3 -0.000589 -0.000555 0.011952 0.000000 0.000000 0.000000
# 4 0.000000 0.000000 0.000000 -0.109217 0.000000 0.000000
# 5 0.000000 0.000000 0.000000 0.000000 0.050669 0.000000
# 6 0.000000 0.000000 0.000000 0.000000 0.000000 0.044763
#
#
# Mechanical properties :
#
#
# Convention : Reuss Voigt Hill
#
# Bulk Modulus (GPa) = 38.25688 46.60114 42.42901
# Shear Modulus (GPa) = 189.24464 30.86460 110.05462
#
# Velocity S-wave (km/s) = 8.51222 3.43765 6.49135
# Velocity P-wave (km/s) = 10.54790 5.79648 8.51050
#
# Compressibility (1/GPa) = 0.02613909
#
# Stress axis : x y z
#
# Youngs Moduli (GPa) = 81.92940 214.68075 83.66654
#
# Poissons Ratio (x) = 0.04186 0.04924
# Poissons Ratio (y) = 0.01598 0.04642
# Poissons Ratio (z) = 0.04822 0.11912
#
# Static dielectric constant tensor:
#      x y z
#    x 2.022770 0.000000 0.000000 
#    y 0.000000 2.273060 0.000000 
#    z 0.000000 0.000000 1.885110 
# 
# From -- ./inp_files/3129.got.cif
#   From: 2010.05.17/outbox.cif.g08.bks.cpg/sg57_2_cif.got.tgz:3129.got - 2010.06.03 13:58:18.
