data_PCOD9438707
_publ_section_title
;
Structure prediction by ZEFSAII (Michael W. Deem and Ramdas Pophale) SiO2 
 PCOD9438707
Probable space group: P B C M
;
_chemical_formula_sum "Si O2"
_cell_formula_units_Z 48
_cell_length_a 5.237182
_cell_length_b 29.961067
_cell_length_c 14.201608
_cell_angle_alpha 90.000000
_cell_angle_beta 90.000000
_cell_angle_gamma 90.000000
_cell_volume 2228.396477
_symmetry_space_group_name_H-M "P B C M"
_symmetry_group_IT_number 57
_symmetry_cell_setting 'orthorhombic'
loop_
_space_group_symop_operation_xyz
x,y,z
-x,-y,1/2+z
x,1/2-y,-z
-x,1/2+y,1/2-z
-x,-y,-z
x,y,1/2-z
-x,1/2+y,z
x,1/2-y,1/2+z
loop_
_atom_site_type_symbol
_atom_site_label
_atom_site_fract_x
_atom_site_fract_y
_atom_site_fract_z
Si Si1 0.774543 0.630111 0.955684
Si Si2 0.920945 0.778442 0.137125
Si Si3 0.269151 0.633737 0.072894
Si Si4 0.524907 0.456080 0.645325
Si Si5 0.204957 0.467387 0.046590
Si Si6 0.578899 0.269057 0.638210
O O1 0.834550 0.672362 0.891533
O O2 0.853360 0.581709 0.914534
O O3 0.477942 0.630407 0.987653
O O4 0.975134 0.635277 0.041704
O O5 0.932817 0.776144 0.250000
O O6 0.702097 0.744085 0.103743
O O7 0.199800 0.763966 0.101306
O O8 0.310656 0.589214 0.134789
O O9 0.343427 0.680191 0.120374
O O10 0.405421 0.456041 0.750000
O O11 0.672564 0.502474 0.628039
O O12 0.362731 0.455850 0.548770
O O13 0.000000 0.500000 0.000000
O O14 0.569611 0.262705 0.750000
#
# Coordination Sequence:
#
# PCOD9438707 Si02
#       6
#     8   8   8   8   8   8
#     4  11  23  38  63  86 120 160 199 252 308 364
#     4  10  22  39  57  83 119 159 202 247 298 365
#     4  11  22  38  61  91 119 157 200 252 310 367
#     4  10  22  40  64  92 123 164 209 255 317 383
#     4  10  21  42  62  88 130 161 202 268 314 367
#     4  10  21  38  58  84 122 157 196 252 301 356
#
# _framework density 21.540151999999999
#
# number of rings (size 3 to 8) (size 9 to 14) (size 15 to 20)
#    0.000    1.667    1.667    2.500    0.000    5.333 
#    0.000    1.667    0.000    0.000    0.000    0.000 
#    0.000    0.000    0.000    0.000    0.000    0.000 
#
# Total GULP energy -267593.642645 kJ/mol
# GULP energy per Si atom -5574.867555 kJ/mol
# Density = 2.149113 g / cm^3
# Si number density = 21.540152 Si / 1000 Ang^3
#
#
#
# Elastic Constant Matrix: (Units=GPa)
#
#
# Indices 1 2 3 4 5 6 
#
# 1 44.0967 10.7233 -7.1884 0.0000 0.0000 0.0000
# 2 10.7233 104.2389 1.2049 0.0000 0.0000 0.0000
# 3 -7.1884 1.2049 68.6564 0.0000 0.0000 0.0000
# 4 0.0000 0.0000 0.0000 27.0692 0.0000 0.0000
# 5 0.0000 0.0000 0.0000 0.0000 3.9078 0.0000
# 6 0.0000 0.0000 0.0000 0.0000 0.0000 37.2560
#
#
#
# Elastic Compliance Matrix: (Units=1/GPa)
#
#
# Indices 1 2 3 4 5 6 
#
# 1 0.023688 -0.002466 0.002523 0.000000 0.000000 0.000000
# 2 -0.002466 0.009852 -0.000431 0.000000 0.000000 0.000000
# 3 0.002523 -0.000431 0.014837 0.000000 0.000000 0.000000
# 4 0.000000 0.000000 0.000000 0.036942 0.000000 0.000000
# 5 0.000000 0.000000 0.000000 0.000000 0.255895 0.000000
# 6 0.000000 0.000000 0.000000 0.000000 0.000000 0.026841
#
#
# Mechanical properties :
#
#
# Convention : Reuss Voigt Hill
#
# Bulk Modulus (GPa) = 20.99507 25.16351 23.07929
# Shear Modulus (GPa) = 12.99779 27.79675 20.39727
#
# Velocity S-wave (km/s) = 2.45913 3.59620 3.08058
# Velocity P-wave (km/s) = 4.22270 5.38061 4.83644
#
# Compressibility (1/GPa) = 0.04763023
#
# Stress axis : x y z
#
# Youngs Moduli (GPa) = 42.21458 101.50202 67.39881
#
# Poissons Ratio (x) = 0.25031 -0.17008
# Poissons Ratio (y) = 0.10410 0.02906
# Poissons Ratio (z) = -0.10653 0.04376
#
# Static dielectric constant tensor:
#      x y z
#    x 1.845320 0.000000 0.000000 
#    y 0.000000 1.906500 0.000000 
#    z 0.000000 0.000000 1.780340 
# 
# From -- ./inp_files/15085.got.cif
#   From: 2010.05.17/outbox.cif.g08.bks.cpg/sg57_8_cif.got.tgz:15085.got - 2010.06.03 13:58:18.
