data_PCOD9438468
_publ_section_title
;
Structure prediction by ZEFSAII (Michael W. Deem and Ramdas Pophale) SiO2 
 PCOD9438468
Probable space group: P B C M
;
_chemical_formula_sum "Si O2"
_cell_formula_units_Z 48
_cell_length_a 14.441901
_cell_length_b 11.357816
_cell_length_c 14.573106
_cell_angle_alpha 90.000000
_cell_angle_beta 90.000000
_cell_angle_gamma 90.000000
_cell_volume 2390.404051
_symmetry_space_group_name_H-M "P B C M"
_symmetry_group_IT_number 57
_symmetry_cell_setting 'orthorhombic'
loop_
_space_group_symop_operation_xyz
x,y,z
-x,-y,1/2+z
x,1/2-y,-z
-x,1/2+y,1/2-z
-x,-y,-z
x,y,1/2-z
-x,1/2+y,z
x,1/2-y,1/2+z
loop_
_atom_site_type_symbol
_atom_site_label
_atom_site_fract_x
_atom_site_fract_y
_atom_site_fract_z
Si Si1 0.076995 0.700308 0.142026
Si Si2 0.533522 0.651481 0.420039
Si Si3 0.691997 0.806926 0.147544
Si Si4 0.864922 0.649229 0.358121
Si Si5 0.840536 0.085010 0.526429
Si Si6 0.641391 0.033674 0.030555
O O1 0.100902 0.686012 0.250000
O O2 0.122109 0.814725 0.095069
O O3 0.965870 0.707098 0.135393
O O4 0.110781 0.597407 0.073086
O O5 0.528690 0.750000 0.500000
O O6 0.603666 0.718697 0.353091
O O7 0.427101 0.613052 0.407614
O O8 0.582667 0.528659 0.449148
O O9 0.710212 0.847445 0.250000
O O10 0.781390 0.735086 0.115554
O O11 0.674442 0.920084 0.086574
O O12 0.851348 0.616190 0.250000
O O13 0.859924 0.537621 0.424050
O O14 0.730944 0.097914 0.508460
#
# Coordination Sequence:
#
# PCOD9438468 Si02
#       6
#     8   8   8   8   8   8
#     4  10  24  41  59  93 128 159 209 265 312 367
#     4   9  19  38  61  83 116 156 198 250 303 367
#     4  10  21  38  61  90 121 159 207 260 308 366
#     4  10  21  40  64  90 125 165 210 257 302 367
#     4  11  22  39  66  88 120 172 208 248 316 381
#     4  10  21  36  61  87 117 156 206 248 301 371
#
# _framework density 20.080287999999999
#
# number of rings (size 3 to 8) (size 9 to 14) (size 15 to 20)
#    0.000    2.000    1.667    1.000    2.333    5.333 
#    0.000    3.333    0.000    0.000    0.000    0.000 
#    0.000    0.000    0.000    0.000    0.000    0.000 
#
# Total GULP energy -267686.938652 kJ/mol
# GULP energy per Si atom -5576.811222 kJ/mol
# Density = 2.003458 g / cm^3
# Si number density = 20.080288 Si / 1000 Ang^3
#
#
#
# Elastic Constant Matrix: (Units=GPa)
#
#
# Indices 1 2 3 4 5 6 
#
# 1 144.9158 54.2904 53.2980 0.0000 0.0000 0.0000
# 2 54.2904 57.7173 35.7728 0.0000 0.0000 0.0000
# 3 53.2980 35.7728 106.6344 0.0000 0.0000 0.0000
# 4 0.0000 0.0000 0.0000 18.6806 0.0000 0.0000
# 5 0.0000 0.0000 0.0000 0.0000 17.3453 0.0000
# 6 0.0000 0.0000 0.0000 0.0000 0.0000 19.7250
#
#
#
# Elastic Compliance Matrix: (Units=1/GPa)
#
#
# Indices 1 2 3 4 5 6 
#
# 1 0.011201 -0.008921 -0.002606 0.000000 0.000000 0.000000
# 2 -0.008921 0.028979 -0.005263 0.000000 0.000000 0.000000
# 3 -0.002606 -0.005263 0.012446 0.000000 0.000000 0.000000
# 4 0.000000 0.000000 0.000000 0.053531 0.000000 0.000000
# 5 0.000000 0.000000 0.000000 0.000000 0.057653 0.000000
# 6 0.000000 0.000000 0.000000 0.000000 0.000000 0.050697
#
#
# Mechanical properties :
#
#
# Convention : Reuss Voigt Hill
#
# Bulk Modulus (GPa) = 52.50227 66.22111 59.36169
# Shear Modulus (GPa) = 19.65141 22.21059 20.93100
#
# Velocity S-wave (km/s) = 3.13172 3.32940 3.23207
# Velocity P-wave (km/s) = 6.26736 6.91590 6.59960
#
# Compressibility (1/GPa) = 0.01904679
#
# Stress axis : x y z
#
# Youngs Moduli (GPa) = 89.27762 34.50786 80.34874
#
# Poissons Ratio (x) = 0.30784 0.20937
# Poissons Ratio (y) = 0.79644 0.42285
# Poissons Ratio (z) = 0.23264 0.18161
#
# Static dielectric constant tensor:
#      x y z
#    x 1.751360 0.000000 0.000000 
#    y 0.000000 1.711390 0.000000 
#    z 0.000000 0.000000 1.741380 
# 
# From -- ./inp_files/18395.got.cif
#   From: 2010.05.17/outbox.cif.g08.bks.cpg/sg57_10_cif.got.tgz:18395.got - 2010.06.03 13:58:18.
