data_PCOD9438132
_publ_section_title
;
Structure prediction by ZEFSAII (Michael W. Deem and Ramdas Pophale) SiO2 
 PCOD9438132
Probable space group: P B C M
;
_chemical_formula_sum "Si O2"
_cell_formula_units_Z 60
_cell_length_a 13.963779
_cell_length_b 22.431664
_cell_length_c 9.249399
_cell_angle_alpha 90.000000
_cell_angle_beta 90.000000
_cell_angle_gamma 90.000000
_cell_volume 2897.196636
_symmetry_space_group_name_H-M "P B C M"
_symmetry_group_IT_number 57
_symmetry_cell_setting 'orthorhombic'
loop_
_space_group_symop_operation_xyz
x,y,z
-x,-y,1/2+z
x,1/2-y,-z
-x,1/2+y,1/2-z
-x,-y,-z
x,y,1/2-z
-x,1/2+y,z
x,1/2-y,1/2+z
loop_
_atom_site_type_symbol
_atom_site_label
_atom_site_fract_x
_atom_site_fract_y
_atom_site_fract_z
Si Si1 0.421483 0.761227 0.250000
Si Si2 0.674498 0.806781 0.582220
Si Si3 0.691938 0.508685 0.914721
Si Si4 0.796701 0.405315 0.078537
Si Si5 0.168450 0.123642 0.917049
Si Si6 0.540808 0.924522 0.913357
Si Si7 0.991058 0.434702 0.924960
Si Si8 0.615249 0.161428 0.491757
O O1 0.439425 0.811937 0.126979
O O2 0.394184 0.710874 0.371179
O O3 0.631975 0.750000 0.500000
O O4 0.691833 0.791536 0.750000
O O5 0.769934 0.825735 0.496815
O O6 0.603955 0.863321 0.582747
O O7 0.690063 0.485336 0.750000
O O8 0.761902 0.566175 0.912225
O O9 0.739883 0.464412 0.029151
O O10 0.589909 0.532527 0.970602
O O11 0.816929 0.405855 0.250000
O O12 0.724091 0.351958 0.039713
O O13 0.892604 0.406299 0.983540
O O14 0.143700 0.138358 0.750000
O O15 0.077867 0.104642 0.012746
O O16 0.549090 0.948552 0.750000
O O17 0.435186 0.899997 0.943799
O O18 0.992492 0.439939 0.750000
O O19 0.000000 0.500000 0.000000
#
# Coordination Sequence:
#
# PCOD9438132 Si02
#       8
#     4   8   8   8   8   8   8   8
#     4  10  24  44  68  88 122 164 216 278 310 364
#     4  10  21  35  58  88 123 163 210 256 315 374
#     4  10  22  37  61  92 131 166 204 257 312 382
#     4  12  25  42  65  94 127 167 212 256 319 384
#     4  10  20  39  60  89 125 161 202 258 311 366
#     4  10  22  38  60  93 128 169 211 258 318 371
#     4  12  24  39  67  96 124 160 206 254 310 377
#     4  11  24  43  67  93 124 166 216 266 320 365
#
# _framework density 20.709675000000001
#
# number of rings (size 3 to 8) (size 9 to 14) (size 15 to 20)
#    0.000    1.333    2.667    2.800    4.667    2.133 
#    0.000    0.000    2.933    0.000    0.000    0.000 
#    0.000    0.000    0.000    0.000    0.000    0.000 
#
# Total GULP energy -334344.085456 kJ/mol
# GULP energy per Si atom -5572.401424 kJ/mol
# Density = 2.066254 g / cm^3
# Si number density = 20.709675 Si / 1000 Ang^3
#
#
#
# Elastic Constant Matrix: (Units=GPa)
#
#
# Indices 1 2 3 4 5 6 
#
# 1 107.5303 -3.0420 32.5130 0.0000 0.0000 0.0000
# 2 -3.0420 37.7032 14.7144 0.0000 0.0000 0.0000
# 3 32.5130 14.7144 191.8627 0.0000 0.0000 0.0000
# 4 0.0000 0.0000 0.0000 42.9259 0.0000 0.0000
# 5 0.0000 0.0000 0.0000 0.0000 -58.7690 0.0000
# 6 0.0000 0.0000 0.0000 0.0000 0.0000 17.1542
#
#
#
# Elastic Compliance Matrix: (Units=1/GPa)
#
#
# Indices 1 2 3 4 5 6 
#
# 1 0.009883 0.001496 -0.001790 0.000000 0.000000 0.000000
# 2 0.001496 0.027568 -0.002368 0.000000 0.000000 0.000000
# 3 -0.001790 -0.002368 0.005697 0.000000 0.000000 0.000000
# 4 0.000000 0.000000 0.000000 0.023296 0.000000 0.000000
# 5 0.000000 0.000000 0.000000 0.000000 -0.017016 0.000000
# 6 0.000000 0.000000 0.000000 0.000000 0.000000 0.058295
#
#
# Mechanical properties :
#
#
# Convention : Reuss Voigt Hill
#
# Bulk Modulus (GPa) = 26.43765 47.27412 36.85589
# Shear Modulus (GPa) = 39.79187 19.78960 29.79073
#
# Velocity S-wave (km/s) = 4.38815 3.09459 3.79686
# Velocity P-wave (km/s) = 6.20226 5.97036 6.08742
#
# Compressibility (1/GPa) = 0.03782485
#
# Stress axis : x y z
#
# Youngs Moduli (GPa) = 101.18283 36.27432 175.53425
#
# Poissons Ratio (x) = -0.05426 0.31412
# Poissons Ratio (y) = -0.15135 0.41561
# Poissons Ratio (z) = 0.18107 0.08589
#
# Static dielectric constant tensor:
#      x y z
#    x 1.785660 0.000000 0.000000 
#    y 0.000000 1.763150 0.000000 
#    z 0.000000 0.000000 1.677030 
# 
# From -- ./inp_files/3504.got.cif
#   From: 2010.05.17/outbox.cif.g08.bks.cpg/sg57_2_cif.got.tgz:3504.got - 2010.06.03 13:58:18.
