data_PCOD9438558
_publ_section_title
;
Structure prediction by ZEFSAII (Michael W. Deem and Ramdas Pophale) SiO2 
 PCOD9438558
Probable space group: P B C M
;
_chemical_formula_sum "Si O2"
_cell_formula_units_Z 64
_cell_length_a 15.939448
_cell_length_b 9.668271
_cell_length_c 20.697318
_cell_angle_alpha 90.000000
_cell_angle_beta 90.000000
_cell_angle_gamma 90.000000
_cell_volume 3189.599574
_symmetry_space_group_name_H-M "P B C M"
_symmetry_group_IT_number 57
_symmetry_cell_setting 'orthorhombic'
loop_
_space_group_symop_operation_xyz
x,y,z
-x,-y,1/2+z
x,1/2-y,-z
-x,1/2+y,1/2-z
-x,-y,-z
x,y,1/2-z
-x,1/2+y,z
x,1/2-y,1/2+z
loop_
_atom_site_type_symbol
_atom_site_label
_atom_site_fract_x
_atom_site_fract_y
_atom_site_fract_z
Si Si1 0.552580 0.146441 0.938294
Si Si2 0.329242 0.761362 0.173678
Si Si3 0.817151 0.030689 0.825661
Si Si4 0.372535 0.405387 0.483704
Si Si5 0.044278 0.593087 0.054478
Si Si6 0.225207 0.966752 0.903318
Si Si7 0.014255 0.650618 0.630355
Si Si8 0.156881 0.272832 0.176612
O O1 0.592634 0.215405 0.874816
O O2 0.453389 0.114600 0.936871
O O3 0.564651 0.250000 0.000000
O O4 0.595385 0.000257 0.957054
O O5 0.348869 0.740119 0.250000
O O6 0.272445 0.898932 0.167590
O O7 0.268495 0.641128 0.145824
O O8 0.835538 0.012547 0.750000
O O9 0.889752 0.132831 0.850041
O O10 0.821329 0.876433 0.853788
O O11 0.345642 0.250000 0.500000
O O12 0.297602 0.487138 0.451482
O O13 0.145325 0.590159 0.056133
O O14 0.013793 0.747588 0.068507
O O15 0.017223 0.504079 0.117129
O O16 0.000000 0.500000 0.000000
O O17 0.193471 0.102077 0.865086
O O18 0.944149 0.713377 0.676725
O O19 0.188681 0.282511 0.250000
#
# Coordination Sequence:
#
# PCOD9438558 Si02
#       8
#     8   8   8   8   8   8   8   8
#     4  10  21  44  71  98 127 167 219 266 332 405
#     4  11  23  41  67 100 133 169 221 281 343 411
#     4  10  21  37  58  85 119 161 209 262 323 395
#     4  10  23  41  70  97 128 170 220 269 323 414
#     4  11  24  38  56  84 123 165 215 273 325 379
#     4  11  23  41  64  94 130 173 217 276 341 398
#     4  11  20  39  56  79 113 162 214 264 318 380
#     4  10  22  38  58  85 121 163 212 266 324 388
#
# _framework density 20.065214000000001
#
# number of rings (size 3 to 8) (size 9 to 14) (size 15 to 20)
#    0.000    1.500    3.750    1.125    1.750    3.000 
#    2.250    1.250    0.000    0.000    0.000    0.000 
#    0.000    0.000    0.000    0.000    0.000    0.000 
#
# Total GULP energy -356862.262600 kJ/mol
# GULP energy per Si atom -5575.972853 kJ/mol
# Density = 2.001955 g / cm^3
# Si number density = 20.065214 Si / 1000 Ang^3
#
#
#
# Elastic Constant Matrix: (Units=GPa)
#
#
# Indices 1 2 3 4 5 6 
#
# 1 89.0541 10.5558 38.5419 0.0000 0.0000 0.0000
# 2 10.5558 103.3060 8.4498 0.0000 0.0000 0.0000
# 3 38.5419 8.4498 51.2654 0.0000 0.0000 0.0000
# 4 0.0000 0.0000 0.0000 26.6840 0.0000 0.0000
# 5 0.0000 0.0000 0.0000 0.0000 20.4242 0.0000
# 6 0.0000 0.0000 0.0000 0.0000 0.0000 27.1819
#
#
#
# Elastic Compliance Matrix: (Units=1/GPa)
#
#
# Indices 1 2 3 4 5 6 
#
# 1 0.016693 -0.000688 -0.012437 0.000000 0.000000 0.000000
# 2 -0.000688 0.009841 -0.001104 0.000000 0.000000 0.000000
# 3 -0.012437 -0.001104 0.029038 0.000000 0.000000 0.000000
# 4 0.000000 0.000000 0.000000 0.037476 0.000000 0.000000
# 5 0.000000 0.000000 0.000000 0.000000 0.048961 0.000000
# 6 0.000000 0.000000 0.000000 0.000000 0.000000 0.036789
#
#
# Mechanical properties :
#
#
# Convention : Reuss Voigt Hill
#
# Bulk Modulus (GPa) = 36.88235 39.85782 38.37009
# Shear Modulus (GPa) = 23.11655 27.26323 25.18989
#
# Velocity S-wave (km/s) = 3.39790 3.69010 3.54701
# Velocity P-wave (km/s) = 5.81510 6.16952 5.99493
#
# Compressibility (1/GPa) = 0.02711324
#
# Stress axis : x y z
#
# Youngs Moduli (GPa) = 59.90460 101.61921 34.43717
#
# Poissons Ratio (x) = 0.06996 0.42828
# Poissons Ratio (y) = 0.04124 0.03803
# Poissons Ratio (z) = 0.74501 0.11223
#
# Static dielectric constant tensor:
#      x y z
#    x 1.706870 0.000000 0.000000 
#    y 0.000000 1.736880 0.000000 
#    z 0.000000 0.000000 1.802330 
# 
# From -- ./inp_files/27484.got.cif
#   From: 2010.05.17/outbox.cif.g08.bks.cpg/sg57_14_cif.got.tgz:27484.got - 2010.06.03 13:58:18.
