data_PCOD9438446
_publ_section_title
;
Structure prediction by ZEFSAII (Michael W. Deem and Ramdas Pophale) SiO2 
 PCOD9438446
Probable space group: P B C M
;
_chemical_formula_sum "Si O2"
_cell_formula_units_Z 56
_cell_length_a 12.174169
_cell_length_b 14.416265
_cell_length_c 15.951409
_cell_angle_alpha 90.000000
_cell_angle_beta 90.000000
_cell_angle_gamma 90.000000
_cell_volume 2799.568729
_symmetry_space_group_name_H-M "P B C M"
_symmetry_group_IT_number 57
_symmetry_cell_setting 'orthorhombic'
loop_
_space_group_symop_operation_xyz
x,y,z
-x,-y,1/2+z
x,1/2-y,-z
-x,1/2+y,1/2-z
-x,-y,-z
x,y,1/2-z
-x,1/2+y,z
x,1/2-y,1/2+z
loop_
_atom_site_type_symbol
_atom_site_label
_atom_site_fract_x
_atom_site_fract_y
_atom_site_fract_z
Si Si1 0.179317 0.456715 0.491616
Si Si2 0.608059 0.125580 0.651499
Si Si3 0.831290 0.707022 0.093694
Si Si4 0.414760 0.056047 0.446266
Si Si5 0.419587 0.233140 0.150949
Si Si6 0.822498 0.339333 0.445245
Si Si7 0.037285 0.367577 0.155998
O O1 0.139239 0.400275 0.574937
O O2 0.307362 0.426573 0.496562
O O3 0.177508 0.566691 0.500286
O O4 0.110162 0.424399 0.411586
O O5 0.628568 0.137323 0.750000
O O6 0.614676 0.016893 0.627499
O O7 0.490331 0.174399 0.633060
O O8 0.703350 0.172661 0.596614
O O9 0.710251 0.728855 0.129799
O O10 0.915485 0.763164 0.149670
O O11 0.836237 0.750000 0.000000
O O12 0.500000 0.000000 0.500000
O O13 0.462421 0.149162 0.406606
O O14 0.432200 0.214362 0.250000
O O15 0.852751 0.250000 0.500000
O O16 0.912972 0.360328 0.374864
O O17 0.048033 0.403398 0.250000
#
# Coordination Sequence:
#
# PCOD9438446 Si02
#       7
#     8   8   8   8   8   8   8
#     4   9  21  40  60  88 113 159 203 242 288 357
#     4  10  23  39  58  86 122 159 197 247 305 356
#     4   9  19  36  61  86 114 148 196 244 293 356
#     4  10  22  36  61  86 118 158 198 239 294 357
#     4  10  21  36  57  86 117 151 194 244 294 347
#     4  11  23  40  63  85 120 162 207 243 295 365
#     4  11  22  39  62  91 121 150 194 255 308 346
#
# _framework density 20.003081000000002
#
# number of rings (size 3 to 8) (size 9 to 14) (size 15 to 20)
#    0.000    2.000    0.000    3.000   10.000    0.000 
#    0.000    5.714    0.000    0.000    0.000    0.000 
#    0.000    0.000    0.000    0.000    0.000    0.000 
#
# Total GULP energy -312335.630651 kJ/mol
# GULP energy per Si atom -5577.421976 kJ/mol
# Density = 1.995755 g / cm^3
# Si number density = 20.003081 Si / 1000 Ang^3
#
#
#
# Elastic Constant Matrix: (Units=GPa)
#
#
# Indices 1 2 3 4 5 6 
#
# 1 49.3231 2.9626 27.9410 0.0000 0.0000 0.0000
# 2 2.9626 78.9702 17.4174 0.0000 0.0000 0.0000
# 3 27.9410 17.4174 83.1824 0.0000 0.0000 0.0000
# 4 0.0000 0.0000 0.0000 20.5039 0.0000 0.0000
# 5 0.0000 0.0000 0.0000 0.0000 29.0066 0.0000
# 6 0.0000 0.0000 0.0000 0.0000 0.0000 13.3129
#
#
#
# Elastic Compliance Matrix: (Units=1/GPa)
#
#
# Indices 1 2 3 4 5 6 
#
# 1 0.025109 0.000963 -0.008636 0.000000 0.000000 0.000000
# 2 0.000963 0.013313 -0.003111 0.000000 0.000000 0.000000
# 3 -0.008636 -0.003111 0.015574 0.000000 0.000000 0.000000
# 4 0.000000 0.000000 0.000000 0.048771 0.000000 0.000000
# 5 0.000000 0.000000 0.000000 0.000000 0.034475 0.000000
# 6 0.000000 0.000000 0.000000 0.000000 0.000000 0.075115
#
#
# Mechanical properties :
#
#
# Convention : Reuss Voigt Hill
#
# Bulk Modulus (GPa) = 30.83773 34.23529 32.53651
# Shear Modulus (GPa) = 20.43035 23.44165 21.93600
#
# Velocity S-wave (km/s) = 3.19934 3.42702 3.31513
# Velocity P-wave (km/s) = 5.39422 5.72813 5.56368
#
# Compressibility (1/GPa) = 0.03242781
#
# Stress axis : x y z
#
# Youngs Moduli (GPa) = 39.82702 75.11442 64.21015
#
# Poissons Ratio (x) = -0.07231 0.55449
# Poissons Ratio (y) = -0.03834 0.19975
# Poissons Ratio (z) = 0.34393 0.23368
#
# Static dielectric constant tensor:
#      x y z
#    x 1.727050 0.000000 0.000000 
#    y 0.000000 1.770370 0.000000 
#    z 0.000000 0.000000 1.716560 
# 
# From -- ./inp_files/17728.got.cif
#   From: 2010.05.17/outbox.cif.g08.bks.cpg/sg57_9_cif.got.tgz:17728.got - 2010.06.03 13:58:18.
