data_PCOD9438644
_publ_section_title
;
Structure prediction by ZEFSAII (Michael W. Deem and Ramdas Pophale) SiO2 
 PCOD9438644
Probable space group: P B C M
;
_chemical_formula_sum "Si O2"
_cell_formula_units_Z 40
_cell_length_a 12.575813
_cell_length_b 9.092303
_cell_length_c 14.838611
_cell_angle_alpha 90.000000
_cell_angle_beta 90.000000
_cell_angle_gamma 90.000000
_cell_volume 1696.692815
_symmetry_space_group_name_H-M "P B C M"
_symmetry_group_IT_number 57
_symmetry_cell_setting 'orthorhombic'
loop_
_space_group_symop_operation_xyz
x,y,z
-x,-y,1/2+z
x,1/2-y,-z
-x,1/2+y,1/2-z
-x,-y,-z
x,y,1/2-z
-x,1/2+y,z
x,1/2-y,1/2+z
loop_
_atom_site_type_symbol
_atom_site_label
_atom_site_fract_x
_atom_site_fract_y
_atom_site_fract_z
Si Si1 0.716634 0.603477 0.560975
Si Si2 0.474494 0.238804 0.390191
Si Si3 0.885664 0.403047 0.146043
Si Si4 0.910986 0.072696 0.359508
Si Si5 0.645777 0.049471 0.889263
O O1 0.740871 0.750000 0.500000
O O2 0.625974 0.655443 0.630290
O O3 0.821101 0.536151 0.603625
O O4 0.662823 0.481113 0.495989
O O5 0.479325 0.250000 0.500000
O O6 0.587471 0.301340 0.361373
O O7 0.434822 0.079830 0.361361
O O8 0.916447 0.385428 0.250000
O O9 0.890571 0.238736 0.107338
O O10 0.765753 0.461169 0.143991
O O11 0.973346 0.515133 0.109600
O O12 0.904493 0.073057 0.250000
#
# Coordination Sequence:
#
# PCOD9438644 Si02
#       5
#     8   8   8   8   8
#     4   9  20  38  61  96 122 157 210 253 301 366
#     4   9  19  35  58  87 122 158 193 242 309 356
#     4  10  24  42  62  87 120 164 210 252 312 375
#     4  10  23  43  64  85 123 166 203 252 318 372
#     4  10  21  37  61  91 121 157 202 255 292 363
#
# _framework density 23.575278000000001
#
# number of rings (size 3 to 8) (size 9 to 14) (size 15 to 20)
#    0.000    2.800    0.000    2.400   11.200    0.800 
#    0.000    2.000    0.000    0.000    0.000    0.000 
#    0.000    0.000    0.000    0.000    0.000    0.000 
#
# Total GULP energy -223301.799694 kJ/mol
# GULP energy per Si atom -5582.544992 kJ/mol
# Density = 2.352162 g / cm^3
# Si number density = 23.575278 Si / 1000 Ang^3
#
#
#
# Elastic Constant Matrix: (Units=GPa)
#
#
# Indices 1 2 3 4 5 6 
#
# 1 125.4606 51.1039 9.3394 0.0000 0.0000 0.0000
# 2 51.1039 95.8247 14.9844 0.0000 0.0000 0.0000
# 3 9.3394 14.9844 54.8401 0.0000 0.0000 0.0000
# 4 0.0000 0.0000 0.0000 12.4508 0.0000 0.0000
# 5 0.0000 0.0000 0.0000 0.0000 10.1021 0.0000
# 6 0.0000 0.0000 0.0000 0.0000 0.0000 41.9145
#
#
#
# Elastic Compliance Matrix: (Units=1/GPa)
#
#
# Indices 1 2 3 4 5 6 
#
# 1 0.010186 -0.005391 -0.000262 0.000000 0.000000 0.000000
# 2 -0.005391 0.013755 -0.002840 0.000000 0.000000 0.000000
# 3 -0.000262 -0.002840 0.019055 0.000000 0.000000 0.000000
# 4 0.000000 0.000000 0.000000 0.080316 0.000000 0.000000
# 5 0.000000 0.000000 0.000000 0.000000 0.098989 0.000000
# 6 0.000000 0.000000 0.000000 0.000000 0.000000 0.023858
#
#
# Mechanical properties :
#
#
# Convention : Reuss Voigt Hill
#
# Bulk Modulus (GPa) = 38.44645 47.44232 42.94439
# Shear Modulus (GPa) = 18.39477 26.27335 22.33406
#
# Velocity S-wave (km/s) = 2.79634 3.34195 3.08125
# Velocity P-wave (km/s) = 5.17391 5.92106 5.56005
#
# Compressibility (1/GPa) = 0.02601020
#
# Stress axis : x y z
#
# Youngs Moduli (GPa) = 98.17192 72.69996 52.47846
#
# Poissons Ratio (x) = 0.39196 0.01373
# Poissons Ratio (y) = 0.52929 0.14905
# Poissons Ratio (z) = 0.02568 0.20649
#
# Static dielectric constant tensor:
#      x y z
#    x 1.862530 0.000000 0.000000 
#    y 0.000000 1.927960 0.000000 
#    z 0.000000 0.000000 1.982290 
# 
# From -- ./inp_files/21615.got.cif
#   From: 2010.05.17/outbox.cif.g08.bks.cpg/sg57_11_cif.got.tgz:21615.got - 2010.06.03 13:58:18.
