data_PCOD9438100
_publ_section_title
;
Structure prediction by ZEFSAII (Michael W. Deem and Ramdas Pophale) SiO2 
 PCOD9438100
Probable space group: P B C M
;
_chemical_formula_sum "Si O2"
_cell_formula_units_Z 52
_cell_length_a 14.142646
_cell_length_b 8.999527
_cell_length_c 21.877116
_cell_angle_alpha 90.000000
_cell_angle_beta 90.000000
_cell_angle_gamma 90.000000
_cell_volume 2784.456417
_symmetry_space_group_name_H-M "P B C M"
_symmetry_group_IT_number 57
_symmetry_cell_setting 'orthorhombic'
loop_
_space_group_symop_operation_xyz
x,y,z
-x,-y,1/2+z
x,1/2-y,-z
-x,1/2+y,1/2-z
-x,-y,-z
x,y,1/2-z
-x,1/2+y,z
x,1/2-y,1/2+z
loop_
_atom_site_type_symbol
_atom_site_label
_atom_site_fract_x
_atom_site_fract_y
_atom_site_fract_z
Si Si1 0.364951 0.221633 0.250000
Si Si2 0.394904 0.655980 0.614141
Si Si3 0.576750 0.020885 0.074597
Si Si4 0.297122 0.057654 0.462711
Si Si5 0.271033 0.171593 0.629180
Si Si6 0.966157 0.250000 0.000000
Si Si7 0.435481 0.618495 0.750000
Si Si8 0.120768 0.468998 0.446106
O O1 0.298477 0.248294 0.308428
O O2 0.453812 0.335796 0.250000
O O3 0.412242 0.057847 0.250000
O O4 0.479653 0.541142 0.600680
O O5 0.304008 0.578573 0.584695
O O6 0.392719 0.680715 0.686619
O O7 0.421134 0.803088 0.577411
O O8 0.656190 0.962666 0.120903
O O9 0.613837 0.961316 0.009128
O O10 0.294729 0.207686 0.423733
O O11 0.202999 0.049877 0.502937
O O12 0.169661 0.097841 0.614816
O O13 0.908655 0.358488 0.953994
O O14 0.033070 0.136298 0.962974
#
# Coordination Sequence:
#
# PCOD9438100 Si02
#       8
#     4   8   8   8   8   4   4   8
#     4  12  24  42  60  78 120 173 213 263 284 347
#     4  12  23  37  55  80 117 163 212 252 298 350
#     4  11  23  36  55  79 115 161 197 261 302 353
#     4  11  22  38  56  88 123 149 198 245 315 367
#     4  11  22  40  60  86 121 162 204 252 299 368
#     4  10  20  38  66  94 124 148 178 242 322 384
#     4  12  24  40  56  78 114 171 227 247 290 345
#     4  10  21  38  63  96 122 151 187 242 315 386
#
# _framework density 18.6751
#
# number of rings (size 3 to 8) (size 9 to 14) (size 15 to 20)
#    0.000    0.923    4.615    4.154    4.308    1.231 
#    0.000    0.000    0.000    0.923    0.000    0.000 
#    0.000    0.000    0.000    0.000    0.000    0.000 
#
# Total GULP energy -290147.171430 kJ/mol
# GULP energy per Si atom -5579.753297 kJ/mol
# Density = 1.863259 g / cm^3
# Si number density = 18.675100 Si / 1000 Ang^3
#
#
#
# Elastic Constant Matrix: (Units=GPa)
#
#
# Indices 1 2 3 4 5 6 
#
# 1 41.4430 25.8477 27.6703 0.0000 0.0000 0.0000
# 2 25.8477 115.4857 16.4905 0.0000 0.0000 0.0000
# 3 27.6703 16.4905 98.1443 0.0000 0.0000 0.0000
# 4 0.0000 0.0000 0.0000 23.0146 0.0000 0.0000
# 5 0.0000 0.0000 0.0000 0.0000 18.2059 0.0000
# 6 0.0000 0.0000 0.0000 0.0000 0.0000 30.8168
#
#
#
# Elastic Compliance Matrix: (Units=1/GPa)
#
#
# Indices 1 2 3 4 5 6 
#
# 1 0.033721 -0.006342 -0.008442 0.000000 0.000000 0.000000
# 2 -0.006342 0.010065 0.000097 0.000000 0.000000 0.000000
# 3 -0.008442 0.000097 0.012553 0.000000 0.000000 0.000000
# 4 0.000000 0.000000 0.000000 0.043451 0.000000 0.000000
# 5 0.000000 0.000000 0.000000 0.000000 0.054927 0.000000
# 6 0.000000 0.000000 0.000000 0.000000 0.000000 0.032450
#
#
# Mechanical properties :
#
#
# Convention : Reuss Voigt Hill
#
# Bulk Modulus (GPa) = 37.08461 43.89888 40.49175
# Shear Modulus (GPa) = 22.17020 26.74511 24.45766
#
# Velocity S-wave (km/s) = 3.44925 3.78845 3.62282
# Velocity P-wave (km/s) = 5.98030 6.53408 6.26331
#
# Compressibility (1/GPa) = 0.02696536
#
# Stress axis : x y z
#
# Youngs Moduli (GPa) = 29.65495 99.35729 79.66374
#
# Poissons Ratio (x) = 0.63012 0.67249
# Poissons Ratio (y) = 0.18807 -0.00772
# Poissons Ratio (z) = 0.25033 -0.00963
#
# Static dielectric constant tensor:
#      x y z
#    x 1.665950 0.000000 0.000000 
#    y 0.000000 1.672090 0.000000 
#    z 0.000000 0.000000 1.694870 
# 
# From -- ./inp_files/25338.got.cif
#   From: 2010.05.17/outbox.cif.g08.bks.cpg/sg57_13_cif.got.tgz:25338.got - 2010.06.03 13:58:18.
