data_PCOD9438197
_publ_section_title
;
Structure prediction by ZEFSAII (Michael W. Deem and Ramdas Pophale) SiO2 
 PCOD9438197
Probable space group: P B C M
;
_chemical_formula_sum "Si O2"
_cell_formula_units_Z 40
_cell_length_a 23.238251
_cell_length_b 9.436394
_cell_length_c 9.443298
_cell_angle_alpha 90.000000
_cell_angle_beta 90.000000
_cell_angle_gamma 90.000000
_cell_volume 2070.776362
_symmetry_space_group_name_H-M "P B C M"
_symmetry_group_IT_number 57
_symmetry_cell_setting 'orthorhombic'
loop_
_space_group_symop_operation_xyz
x,y,z
-x,-y,1/2+z
x,1/2-y,-z
-x,1/2+y,1/2-z
-x,-y,-z
x,y,1/2-z
-x,1/2+y,z
x,1/2-y,1/2+z
loop_
_atom_site_type_symbol
_atom_site_label
_atom_site_fract_x
_atom_site_fract_y
_atom_site_fract_z
Si Si1 0.365725 0.910889 0.527211
Si Si2 0.461253 0.833526 0.750000
Si Si3 0.573142 0.011831 0.750000
Si Si4 0.739658 0.606583 0.587460
Si Si5 0.042087 0.603170 0.583615
Si Si6 0.823197 0.100635 0.582868
O O1 0.343631 0.750000 0.500000
O O2 0.423408 0.888414 0.618599
O O3 0.386015 0.985623 0.384666
O O4 0.317035 0.008059 0.592977
O O5 0.459395 0.663790 0.750000
O O6 0.525227 0.891936 0.750000
O O7 0.728521 0.750000 0.500000
O O8 0.757770 0.635870 0.750000
O O9 0.786025 0.515681 0.499218
O O10 0.038363 0.750000 0.500000
O O11 0.026734 0.616348 0.750000
O O12 0.109301 0.560025 0.577447
O O13 0.000000 0.500000 0.500000
O O14 0.816282 0.250000 0.500000
O O15 0.807109 0.114514 0.750000
#
# Coordination Sequence:
#
# PCOD9438197 Si02
#       6
#     8   4   4   8   8   8
#     4  10  22  40  62  87 117 158 202 243 300 366
#     4  10  20  40  56  90 118 154 197 242 295 360
#     4  10  22  34  64  86 120 154 193 242 297 362
#     4  12  26  42  62  89 123 158 204 260 315 368
#     4  10  21  38  62  93 127 167 210 256 305 362
#     4  10  22  41  66  93 124 164 210 253 305 366
#
# _framework density 19.316426
#
# number of rings (size 3 to 8) (size 9 to 14) (size 15 to 20)
#    0.000    1.600    1.000    3.000    2.800    4.800 
#    0.000    0.000    0.000    0.000    0.000    0.000 
#    0.000    0.000    0.000    0.000    0.000    0.000 
#
# Total GULP energy -223400.257549 kJ/mol
# GULP energy per Si atom -5585.006439 kJ/mol
# Density = 1.927246 g / cm^3
# Si number density = 19.316426 Si / 1000 Ang^3
#
#
#
# Elastic Constant Matrix: (Units=GPa)
#
#
# Indices 1 2 3 4 5 6 
#
# 1 66.2181 48.8930 44.6862 0.0000 0.0000 0.0000
# 2 48.8930 75.4624 38.5026 0.0000 0.0000 0.0000
# 3 44.6862 38.5026 167.9378 0.0000 0.0000 0.0000
# 4 0.0000 0.0000 0.0000 30.8059 0.0000 0.0000
# 5 0.0000 0.0000 0.0000 0.0000 -31.0637 0.0000
# 6 0.0000 0.0000 0.0000 0.0000 0.0000 25.7474
#
#
#
# Elastic Compliance Matrix: (Units=1/GPa)
#
#
# Indices 1 2 3 4 5 6 
#
# 1 0.031336 -0.018175 -0.004171 0.000000 0.000000 0.000000
# 2 -0.018175 0.025548 -0.001021 0.000000 0.000000 0.000000
# 3 -0.004171 -0.001021 0.007299 0.000000 0.000000 0.000000
# 4 0.000000 0.000000 0.000000 0.032461 0.000000 0.000000
# 5 0.000000 0.000000 0.000000 0.000000 -0.032192 0.000000
# 6 0.000000 0.000000 0.000000 0.000000 0.000000 0.038839
#
#
# Mechanical properties :
#
#
# Convention : Reuss Voigt Hill
#
# Bulk Modulus (GPa) = 57.31177 63.75355 60.53266
# Shear Modulus (GPa) = 32.08369 16.93367 24.50868
#
# Velocity S-wave (km/s) = 4.07990 2.96403 3.56589
# Velocity P-wave (km/s) = 7.20614 6.69257 6.95410
#
# Compressibility (1/GPa) = 0.01744842
#
# Stress axis : x y z
#
# Youngs Moduli (GPa) = 31.91206 39.14139 137.01127
#
# Poissons Ratio (x) = 0.71139 0.57151
# Poissons Ratio (y) = 0.57999 0.13993
# Poissons Ratio (z) = 0.13311 0.03998
#
# Static dielectric constant tensor:
#      x y z
#    x 1.645170 0.000000 0.000000 
#    y 0.000000 1.476010 0.000000 
#    z 0.000000 0.000000 1.661180 
# 
# From -- ./inp_files/8939.got.cif
#   From: 2010.05.17/outbox.cif.g08.bks.cpg/sg57_5_cif.got.tgz:8939.got - 2010.06.03 13:58:18.
