data_PCOD9438467
_publ_section_title
;
Structure prediction by ZEFSAII (Michael W. Deem and Ramdas Pophale) SiO2 
 PCOD9438467
Probable space group: P B C M
;
_chemical_formula_sum "Si O2"
_cell_formula_units_Z 40
_cell_length_a 9.103648
_cell_length_b 10.518313
_cell_length_c 21.089602
_cell_angle_alpha 90.000000
_cell_angle_beta 90.000000
_cell_angle_gamma 90.000000
_cell_volume 2019.435242
_symmetry_space_group_name_H-M "P B C M"
_symmetry_group_IT_number 57
_symmetry_cell_setting 'orthorhombic'
loop_
_space_group_symop_operation_xyz
x,y,z
-x,-y,1/2+z
x,1/2-y,-z
-x,1/2+y,1/2-z
-x,-y,-z
x,y,1/2-z
-x,1/2+y,z
x,1/2-y,1/2+z
loop_
_atom_site_type_symbol
_atom_site_label
_atom_site_fract_x
_atom_site_fract_y
_atom_site_fract_z
Si Si1 0.625001 0.822341 0.067500
Si Si2 0.162922 0.237606 0.819984
Si Si3 0.042454 0.999157 0.357399
Si Si4 0.189891 0.925137 0.949430
Si Si5 0.281340 0.662090 0.588856
O O1 0.719333 0.755258 0.122848
O O2 0.456117 0.842201 0.086257
O O3 0.701234 0.957871 0.058966
O O4 0.630958 0.750000 0.000000
O O5 0.231114 0.231728 0.750000
O O6 0.064826 0.365351 0.824193
O O7 0.066426 0.108953 0.829690
O O8 0.199725 0.930788 0.363121
O O9 0.970574 0.033476 0.425936
O O10 0.235086 0.808461 0.904002
O O11 0.214990 0.878387 0.020572
#
# Coordination Sequence:
#
# PCOD9438467 Si02
#       5
#     8   8   8   8   8
#     4  11  23  39  66  94 128 167 206 262 319 381
#     4  11  25  44  66  92 127 167 215 261 317 377
#     4  11  22  42  66  91 126 168 214 263 318 372
#     4  10  21  36  60  97 128 161 209 257 318 376
#     4  11  21  36  64  95 132 160 206 264 320 378
#
# _framework density 19.807518000000002
#
# number of rings (size 3 to 8) (size 9 to 14) (size 15 to 20)
#    0.000    1.200    4.000    3.000    2.800    1.600 
#    0.000    2.000    0.000    0.000    0.000    0.000 
#    0.000    0.000    0.000    0.000    0.000    0.000 
#
# Total GULP energy -223174.171032 kJ/mol
# GULP energy per Si atom -5579.354276 kJ/mol
# Density = 1.976244 g / cm^3
# Si number density = 19.807518 Si / 1000 Ang^3
#
#
#
# Elastic Constant Matrix: (Units=GPa)
#
#
# Indices 1 2 3 4 5 6 
#
# 1 114.7614 39.3679 43.6164 0.0000 0.0000 0.0000
# 2 39.3679 100.1289 0.8058 0.0000 0.0000 0.0000
# 3 43.6164 0.8058 75.2337 0.0000 0.0000 0.0000
# 4 0.0000 0.0000 0.0000 -0.4514 0.0000 0.0000
# 5 0.0000 0.0000 0.0000 0.0000 -2.7530 0.0000
# 6 0.0000 0.0000 0.0000 0.0000 0.0000 18.2834
#
#
#
# Elastic Compliance Matrix: (Units=1/GPa)
#
#
# Indices 1 2 3 4 5 6 
#
# 1 0.013448 -0.005225 -0.007740 0.000000 0.000000 0.000000
# 2 -0.005225 0.012018 0.002901 0.000000 0.000000 0.000000
# 3 -0.007740 0.002901 0.017748 0.000000 0.000000 0.000000
# 4 0.000000 0.000000 0.000000 -2.215165 0.000000 0.000000
# 5 0.000000 0.000000 0.000000 0.000000 -0.363238 0.000000
# 6 0.000000 0.000000 0.000000 0.000000 0.000000 0.054694
#
#
# Mechanical properties :
#
#
# Convention : Reuss Voigt Hill
#
# Bulk Modulus (GPa) = 43.31928 50.85603 47.08765
# Shear Modulus (GPa) = -2.03859 16.77138 7.36639
#
# Velocity S-wave (km/s) = -1.01560 2.91300 1.93056
# Velocity P-wave (km/s) = 4.53237 6.08645 5.36597
#
# Compressibility (1/GPa) = 0.02308441
#
# Stress axis : x y z
#
# Youngs Moduli (GPa) = 74.36048 83.20748 56.34327
#
# Poissons Ratio (x) = 0.43477 0.43612
# Poissons Ratio (y) = 0.38854 -0.16342
# Poissons Ratio (z) = 0.57558 -0.24134
#
# Static dielectric constant tensor:
#      x y z
#    x 1.687410 0.000000 0.000000 
#    y 0.000000 1.719380 0.000000 
#    z 0.000000 0.000000 1.758090 
# 
# From -- ./inp_files/24126.got.cif
#   From: 2010.05.17/outbox.cif.g08.bks.cpg/sg57_13_cif.got.tgz:24126.got - 2010.06.03 13:58:18.
