data_PCOD9438143
_publ_section_title
;
Structure prediction by ZEFSAII (Michael W. Deem and Ramdas Pophale) SiO2 
 PCOD9438143
Probable space group: P B C M
;
_chemical_formula_sum "Si O2"
_cell_formula_units_Z 56
_cell_length_a 12.776408
_cell_length_b 14.062988
_cell_length_c 14.363643
_cell_angle_alpha 90.000000
_cell_angle_beta 90.000000
_cell_angle_gamma 90.000000
_cell_volume 2580.779978
_symmetry_space_group_name_H-M "P B C M"
_symmetry_group_IT_number 57
_symmetry_cell_setting 'orthorhombic'
loop_
_space_group_symop_operation_xyz
x,y,z
-x,-y,1/2+z
x,1/2-y,-z
-x,1/2+y,1/2-z
-x,-y,-z
x,y,1/2-z
-x,1/2+y,z
x,1/2-y,1/2+z
loop_
_atom_site_type_symbol
_atom_site_label
_atom_site_fract_x
_atom_site_fract_y
_atom_site_fract_z
Si Si1 0.343606 0.499504 0.982205
Si Si2 0.054362 0.514012 0.137649
Si Si3 0.597785 0.828242 0.076454
Si Si4 0.164433 0.104301 0.136054
Si Si5 0.748688 0.127220 0.361516
Si Si6 0.832164 0.676789 0.859347
Si Si7 0.626289 0.317293 0.356371
O O1 0.259703 0.435835 0.924764
O O2 0.358812 0.588864 0.915791
O O3 0.427673 0.422811 0.017156
O O4 0.309012 0.547531 0.079069
O O5 0.056210 0.508066 0.250000
O O6 0.130594 0.603180 0.115449
O O7 0.102221 0.413581 0.102330
O O8 0.936267 0.539642 0.113035
O O9 0.707660 0.841128 0.128973
O O10 0.497527 0.795514 0.134935
O O11 0.618503 0.750000 0.000000
O O12 0.182654 0.100678 0.250000
O O13 0.145838 0.215002 0.109088
O O14 0.734199 0.115777 0.250000
O O15 0.698857 0.228977 0.386567
O O16 0.855974 0.678774 0.750000
O O17 0.653321 0.337321 0.250000
#
# Coordination Sequence:
#
# PCOD9438143 Si02
#       7
#     8   8   8   8   8   8   8
#     4  12  23  41  67  96 133 167 216 277 327 393
#     4   9  19  38  65  95 130 179 227 271 328 393
#     4  12  23  41  63  94 127 172 219 278 326 389
#     4  10  22  39  63  98 136 176 222 274 331 387
#     4  10  22  42  66  94 131 172 219 266 323 393
#     4  10  20  39  62  89 129 174 221 272 327 391
#     4  11  26  45  66  95 132 175 219 271 334 394
#
# _framework density 21.698867
#
# number of rings (size 3 to 8) (size 9 to 14) (size 15 to 20)
#    0.000    1.429    2.857    2.571    0.000    2.286 
#    0.000    5.714    0.000    0.000    0.000    0.000 
#    0.000    0.000    0.000    0.000    0.000    0.000 
#
# Total GULP energy -312412.807379 kJ/mol
# GULP energy per Si atom -5578.800132 kJ/mol
# Density = 2.164948 g / cm^3
# Si number density = 21.698867 Si / 1000 Ang^3
#
#
#
# Elastic Constant Matrix: (Units=GPa)
#
#
# Indices 1 2 3 4 5 6 
#
# 1 45.8972 42.8770 3.2078 0.0000 0.0000 0.0000
# 2 42.8770 133.7440 32.5875 0.0000 0.0000 0.0000
# 3 3.2078 32.5875 65.2286 0.0000 0.0000 0.0000
# 4 0.0000 0.0000 0.0000 36.3576 0.0000 0.0000
# 5 0.0000 0.0000 0.0000 0.0000 11.7612 0.0000
# 6 0.0000 0.0000 0.0000 0.0000 0.0000 47.2011
#
#
#
# Elastic Compliance Matrix: (Units=1/GPa)
#
#
# Indices 1 2 3 4 5 6 
#
# 1 0.032014 -0.011249 0.004046 0.000000 0.000000 0.000000
# 2 -0.011249 0.012466 -0.005675 0.000000 0.000000 0.000000
# 3 0.004046 -0.005675 0.017967 0.000000 0.000000 0.000000
# 4 0.000000 0.000000 0.000000 0.027505 0.000000 0.000000
# 5 0.000000 0.000000 0.000000 0.000000 0.085026 0.000000
# 6 0.000000 0.000000 0.000000 0.000000 0.000000 0.021186
#
#
# Mechanical properties :
#
#
# Convention : Reuss Voigt Hill
#
# Bulk Modulus (GPa) = 27.25516 44.69046 35.97281
# Shear Modulus (GPa) = 21.35391 30.14380 25.74886
#
# Velocity S-wave (km/s) = 3.14044 3.73122 3.44851
# Velocity P-wave (km/s) = 5.07324 6.26124 5.69829
#
# Compressibility (1/GPa) = 0.03669030
#
# Stress axis : x y z
#
# Youngs Moduli (GPa) = 31.23640 80.21839 55.65835
#
# Poissons Ratio (x) = 0.90238 -0.22517
# Poissons Ratio (y) = 0.35138 0.31584
# Poissons Ratio (z) = -0.12637 0.45521
#
# Static dielectric constant tensor:
#      x y z
#    x 1.820410 0.000000 0.000000 
#    y 0.000000 1.828420 0.000000 
#    z 0.000000 0.000000 1.801430 
# 
# From -- ./inp_files/17710.got.cif
#   From: 2010.05.17/outbox.cif.g08.bks.cpg/sg57_9_cif.got.tgz:17710.got - 2010.06.03 13:58:18.
