data_PCOD9438046
_publ_section_title
;
Structure prediction by ZEFSAII (Michael W. Deem and Ramdas Pophale) SiO2 
 PCOD9438046
Probable space group: P B C M
;
_chemical_formula_sum "Si O2"
_cell_formula_units_Z 56
_cell_length_a 11.494077
_cell_length_b 12.067806
_cell_length_c 19.840483
_cell_angle_alpha 90.000000
_cell_angle_beta 90.000000
_cell_angle_gamma 90.000000
_cell_volume 2752.039497
_symmetry_space_group_name_H-M "P B C M"
_symmetry_group_IT_number 57
_symmetry_cell_setting 'orthorhombic'
loop_
_space_group_symop_operation_xyz
x,y,z
-x,-y,1/2+z
x,1/2-y,-z
-x,1/2+y,1/2-z
-x,-y,-z
x,y,1/2-z
-x,1/2+y,z
x,1/2-y,1/2+z
loop_
_atom_site_type_symbol
_atom_site_label
_atom_site_fract_x
_atom_site_fract_y
_atom_site_fract_z
Si Si1 0.451685 0.455329 0.071636
Si Si2 0.078088 0.355515 0.750000
Si Si3 0.962042 0.611117 0.750000
Si Si4 0.302471 0.611455 0.328627
Si Si5 0.909188 0.992281 0.118139
Si Si6 0.824484 0.955617 0.629010
Si Si7 0.233003 0.370589 0.008843
Si Si8 0.643808 0.129865 0.674026
O O1 0.385081 0.545079 0.119174
O O2 0.352797 0.367362 0.050112
O O3 0.552118 0.404831 0.117558
O O4 0.500000 0.500000 0.000000
O O5 0.000480 0.242691 0.750000
O O6 0.158907 0.360009 0.815755
O O7 0.025117 0.484613 0.750000
O O8 0.899252 0.597869 0.821654
O O9 0.312758 0.574075 0.250000
O O10 0.170314 0.591974 0.353998
O O11 0.332077 0.740288 0.330498
O O12 0.852019 0.948009 0.050810
O O13 0.043785 0.018387 0.106650
O O14 0.762215 0.061134 0.661991
O O15 0.750174 0.919738 0.565140
O O16 0.180508 0.250000 0.000000
O O17 0.601888 0.103913 0.750000
#
# Coordination Sequence:
#
# PCOD9438046 Si02
#       8
#     8   4   4   8   8   8   8   8
#     4  11  24  43  66  90 128 167 223 278 338 398
#     4  10  22  36  64  95 132 177 228 273 331 391
#     4  10  20  38  62  93 134 179 224 275 325 401
#     4  10  23  43  67  97 134 177 219 278 344 409
#     4  10  22  41  64  96 136 175 219 262 334 398
#     4  11  22  41  63  98 134 175 219 267 328 401
#     4  11  24  41  63  89 127 171 216 270 328 392
#     4  11  24  42  68  99 131 172 226 280 340 406
#
# _framework density 20.348545999999999
#
# number of rings (size 3 to 8) (size 9 to 14) (size 15 to 20)
#    0.000    1.429    2.857    1.714    2.000    5.714 
#    0.000    0.000    0.000    0.000    0.000    0.000 
#    0.000    0.000    0.000    0.000    0.000    0.000 
#
# Total GULP energy -312086.914075 kJ/mol
# GULP energy per Si atom -5572.980608 kJ/mol
# Density = 2.030223 g / cm^3
# Si number density = 20.348546 Si / 1000 Ang^3
#
#
#
# Elastic Constant Matrix: (Units=GPa)
#
#
# Indices 1 2 3 4 5 6 
#
# 1 95.6307 20.0427 30.6122 0.0000 0.0000 0.0000
# 2 20.0427 86.7806 41.7388 0.0000 0.0000 0.0000
# 3 30.6122 41.7388 138.7865 0.0000 0.0000 0.0000
# 4 0.0000 0.0000 0.0000 18.4724 0.0000 0.0000
# 5 0.0000 0.0000 0.0000 0.0000 6.1427 0.0000
# 6 0.0000 0.0000 0.0000 0.0000 0.0000 19.5132
#
#
#
# Elastic Compliance Matrix: (Units=1/GPa)
#
#
# Indices 1 2 3 4 5 6 
#
# 1 0.011455 -0.001672 -0.002024 0.000000 0.000000 0.000000
# 2 -0.001672 0.013716 -0.003756 0.000000 0.000000 0.000000
# 3 -0.002024 -0.003756 0.008781 0.000000 0.000000 0.000000
# 4 0.000000 0.000000 0.000000 0.054135 0.000000 0.000000
# 5 0.000000 0.000000 0.000000 0.000000 0.162794 0.000000
# 6 0.000000 0.000000 0.000000 0.000000 0.000000 0.051247
#
#
# Mechanical properties :
#
#
# Convention : Reuss Voigt Hill
#
# Bulk Modulus (GPa) = 52.49823 56.22056 54.35940
# Shear Modulus (GPa) = 15.46158 24.07929 19.77043
#
# Velocity S-wave (km/s) = 2.75950 3.44371 3.12041
# Velocity P-wave (km/s) = 6.00072 6.59552 6.30514
#
# Compressibility (1/GPa) = 0.01904826
#
# Stress axis : x y z
#
# Youngs Moduli (GPa) = 87.29658 72.90677 113.87813
#
# Poissons Ratio (x) = 0.12192 0.23046
# Poissons Ratio (y) = 0.14599 0.42774
# Poissons Ratio (z) = 0.17667 0.27385
#
# Static dielectric constant tensor:
#      x y z
#    x 1.739730 0.000000 0.000000 
#    y 0.000000 1.730100 0.000000 
#    z 0.000000 0.000000 1.764650 
# 
# From -- ./inp_files/25084.got.cif
#   From: 2010.05.17/outbox.cif.g08.bks.cpg/sg57_13_cif.got.tgz:25084.got - 2010.06.03 13:58:18.
