data_PCOD9438025
_publ_section_title
;
Structure prediction by ZEFSAII (Michael W. Deem and Ramdas Pophale) SiO2 
 PCOD9438025
Probable space group: P B C M
;
_chemical_formula_sum "Si O2"
_cell_formula_units_Z 64
_cell_length_a 13.077091
_cell_length_b 14.282850
_cell_length_c 16.949272
_cell_angle_alpha 90.000000
_cell_angle_beta 90.000000
_cell_angle_gamma 90.000000
_cell_volume 3165.753315
_symmetry_space_group_name_H-M "P B C M"
_symmetry_group_IT_number 57
_symmetry_cell_setting 'orthorhombic'
loop_
_space_group_symop_operation_xyz
x,y,z
-x,-y,1/2+z
x,1/2-y,-z
-x,1/2+y,1/2-z
-x,-y,-z
x,y,1/2-z
-x,1/2+y,z
x,1/2-y,1/2+z
loop_
_atom_site_type_symbol
_atom_site_label
_atom_site_fract_x
_atom_site_fract_y
_atom_site_fract_z
Si Si1 0.012484 0.547107 0.840639
Si Si2 0.056429 0.764193 0.841213
Si Si3 0.213702 0.004738 0.416598
Si Si4 0.582976 0.576655 0.345185
Si Si5 0.834913 0.073247 0.078886
Si Si6 0.865282 0.796961 0.923578
Si Si7 0.669170 0.779645 0.155367
Si Si8 0.630751 0.510602 0.655026
O O1 0.976772 0.537112 0.750000
O O2 0.026057 0.657262 0.859413
O O3 0.128576 0.511574 0.850118
O O4 0.931585 0.493302 0.896452
O O5 0.087069 0.769156 0.750000
O O6 0.949328 0.815915 0.857605
O O7 0.136953 0.822281 0.892620
O O8 0.327707 0.013712 0.383675
O O9 0.189520 0.933217 0.486440
O O10 0.187091 0.107350 0.450154
O O11 0.590329 0.567023 0.250000
O O12 0.605048 0.685979 0.363638
O O13 0.471034 0.543789 0.370718
O O14 0.734301 0.033186 0.121383
O O15 0.777521 0.732527 0.887216
O O16 0.914596 0.750000 0.000000
O O17 0.685070 0.779505 0.250000
O O18 0.622866 0.879655 0.132970
O O19 0.635824 0.505696 0.750000
#
# Coordination Sequence:
#
# PCOD9438025 Si02
#       8
#     8   8   8   8   8   8   8   8
#     4  11  23  40  61  87 121 161 206 247 298 370
#     4  11  24  38  58  86 119 160 199 243 301 363
#     4  11  23  38  59  87 121 160 199 250 308 359
#     4   9  20  39  62  88 118 156 207 256 304 365
#     4  12  24  39  61  90 126 158 202 253 312 365
#     4  11  21  34  59  87 120 157 201 250 298 358
#     4   9  18  35  60  87 114 153 205 255 303 358
#     4  10  20  38  62  87 119 158 205 259 307 359
#
# _framework density 20.216356999999999
#
# number of rings (size 3 to 8) (size 9 to 14) (size 15 to 20)
#    0.000    1.500    1.250    4.500    1.750    3.500 
#    2.250    0.000    0.000    0.000    0.000    0.000 
#    0.000    0.000    0.000    0.000    0.000    0.000 
#
# Total GULP energy -357265.250925 kJ/mol
# GULP energy per Si atom -5582.269546 kJ/mol
# Density = 2.017034 g / cm^3
# Si number density = 20.216357 Si / 1000 Ang^3
#
#
#
# Elastic Constant Matrix: (Units=GPa)
#
#
# Indices 1 2 3 4 5 6 
#
# 1 115.2973 31.5729 13.2663 0.0000 0.0000 0.0000
# 2 31.5729 57.4718 15.2342 0.0000 0.0000 0.0000
# 3 13.2663 15.2342 25.6501 0.0000 0.0000 0.0000
# 4 0.0000 0.0000 0.0000 21.7449 0.0000 0.0000
# 5 0.0000 0.0000 0.0000 0.0000 15.5298 0.0000
# 6 0.0000 0.0000 0.0000 0.0000 0.0000 28.5036
#
#
#
# Elastic Compliance Matrix: (Units=1/GPa)
#
#
# Indices 1 2 3 4 5 6 
#
# 1 0.010326 -0.005053 -0.002340 0.000000 0.000000 0.000000
# 2 -0.005053 0.023123 -0.011120 0.000000 0.000000 0.000000
# 3 -0.002340 -0.011120 0.046801 0.000000 0.000000 0.000000
# 4 0.000000 0.000000 0.000000 0.045988 0.000000 0.000000
# 5 0.000000 0.000000 0.000000 0.000000 0.064392 0.000000
# 6 0.000000 0.000000 0.000000 0.000000 0.000000 0.035083
#
#
# Mechanical properties :
#
#
# Convention : Reuss Voigt Hill
#
# Bulk Modulus (GPa) = 23.13480 35.39623 29.26552
# Shear Modulus (GPa) = 18.04097 22.37871 20.20984
#
# Velocity S-wave (km/s) = 2.99054 3.33071 3.16520
# Velocity P-wave (km/s) = 4.83662 5.68667 5.27878
#
# Compressibility (1/GPa) = 0.04322492
#
# Stress axis : x y z
#
# Youngs Moduli (GPa) = 96.84264 43.24671 21.36714
#
# Poissons Ratio (x) = 0.21850 0.05000
# Poissons Ratio (y) = 0.48930 0.23761
# Poissons Ratio (z) = 0.22660 0.48091
#
# Static dielectric constant tensor:
#      x y z
#    x 1.673680 0.000000 0.000000 
#    y 0.000000 1.783660 0.000000 
#    z 0.000000 0.000000 1.730610 
# 
# From -- ./inp_files/22102.got.cif
#   From: 2010.05.17/outbox.cif.g08.bks.cpg/sg57_12_cif.got.tgz:22102.got - 2010.06.03 13:58:18.
