data_PCOD9438315
_publ_section_title
;
Structure prediction by ZEFSAII (Michael W. Deem and Ramdas Pophale) SiO2 
 PCOD9438315
Probable space group: P B C M
;
_chemical_formula_sum "Si O2"
_cell_formula_units_Z 64
_cell_length_a 20.360599
_cell_length_b 20.525541
_cell_length_c 8.025499
_cell_angle_alpha 90.000000
_cell_angle_beta 90.000000
_cell_angle_gamma 90.000000
_cell_volume 3353.954822
_symmetry_space_group_name_H-M "P B C M"
_symmetry_group_IT_number 57
_symmetry_cell_setting 'orthorhombic'
loop_
_space_group_symop_operation_xyz
x,y,z
-x,-y,1/2+z
x,1/2-y,-z
-x,1/2+y,1/2-z
-x,-y,-z
x,y,1/2-z
-x,1/2+y,z
x,1/2-y,1/2+z
loop_
_atom_site_type_symbol
_atom_site_label
_atom_site_fract_x
_atom_site_fract_y
_atom_site_fract_z
Si Si1 0.847639 0.077565 0.945290
Si Si2 0.044738 0.823584 0.945185
Si Si3 0.523557 0.572487 0.950810
Si Si4 0.611010 0.383805 0.449606
Si Si5 0.106105 0.177498 0.549619
Si Si6 0.194610 0.440459 0.052840
Si Si7 0.340427 0.027825 0.952792
Si Si8 0.739740 0.321156 0.450903
O O1 0.836523 0.066412 0.750000
O O2 0.788071 0.122294 0.012760
O O3 0.912396 0.120928 0.967659
O O4 0.845723 0.007090 0.028111
O O5 0.056935 0.828966 0.750000
O O6 0.062666 0.750000 0.000000
O O7 0.967570 0.831823 0.981693
O O8 0.523988 0.577087 0.750000
O O9 0.464010 0.617888 0.014227
O O10 0.599387 0.575230 0.005551
O O11 0.500000 0.500000 0.000000
O O12 0.607717 0.375924 0.250000
O O13 0.640523 0.455662 0.485334
O O14 0.665814 0.334116 0.514241
O O15 0.128011 0.250000 0.500000
O O16 0.101894 0.174332 0.750000
O O17 0.154728 0.121358 0.486114
O O18 0.202125 0.429352 0.250000
O O19 0.268463 0.451605 0.986279
O O20 0.339728 0.025281 0.750000
O O21 0.763358 0.250000 0.500000
O O22 0.739804 0.324764 0.250000
#
# Coordination Sequence:
#
# PCOD9438315 Si02
#       8
#     8   8   8   8   8   8   8   8
#     4  11  22  36  54  78 107 140 178 218 262 313
#     4  11  22  38  59  81 107 140 177 218 260 308
#     4   8  14  24  43  67  94 125 161 203 249 299
#     4   9  16  29  45  67  97 130 169 213 255 300
#     4  10  21  39  60  81 104 134 172 214 261 319
#     4  10  21  35  54  80 110 138 170 216 267 315
#     4   9  16  28  47  74 101 130 164 205 258 306
#     4  10  21  33  47  69  99 139 180 215 256 305
#
# _framework density 19.081949999999999
#
# number of rings (size 3 to 8) (size 9 to 14) (size 15 to 20)
#    0.000    2.250    1.250    3.000    0.000    4.000 
#    0.000    0.000    0.000    0.750    0.000    0.000 
#    0.000    0.000    0.000    0.000    0.000    0.000 
#
# Total GULP energy -356835.977299 kJ/mol
# GULP energy per Si atom -5575.562145 kJ/mol
# Density = 1.903852 g / cm^3
# Si number density = 19.081950 Si / 1000 Ang^3
#
#
#
# Elastic Constant Matrix: (Units=GPa)
#
#
# Indices 1 2 3 4 5 6 
#
# 1 92.5139 49.5692 -12.5248 0.0000 0.0000 0.0000
# 2 49.5692 84.0595 -14.6253 0.0000 0.0000 0.0000
# 3 -12.5248 -14.6253 14.4195 0.0000 0.0000 0.0000
# 4 0.0000 0.0000 0.0000 18.9543 0.0000 0.0000
# 5 0.0000 0.0000 0.0000 0.0000 -2.4171 0.0000
# 6 0.0000 0.0000 0.0000 0.0000 0.0000 15.7517
#
#
#
# Elastic Compliance Matrix: (Units=1/GPa)
#
#
# Indices 1 2 3 4 5 6 
#
# 1 0.016128 -0.008589 0.005297 0.000000 0.000000 0.000000
# 2 -0.008589 0.019020 0.011831 0.000000 0.000000 0.000000
# 3 0.005297 0.011831 0.085951 0.000000 0.000000 0.000000
# 4 0.000000 0.000000 0.000000 0.052758 0.000000 0.000000
# 5 0.000000 0.000000 0.000000 0.000000 -0.413719 0.000000
# 6 0.000000 0.000000 0.000000 0.000000 0.000000 0.063485
#
#
# Mechanical properties :
#
#
# Convention : Reuss Voigt Hill
#
# Bulk Modulus (GPa) = 7.23708 26.20347 16.72028
# Shear Modulus (GPa) = -33.92262 17.69603 -8.11330
#
# Velocity S-wave (km/s) = -4.22089 3.04858 -2.06423
# Velocity P-wave (km/s) = 4.46696 5.11406 1.76068
#
# Compressibility (1/GPa) = 0.13817722
#
# Stress axis : x y z
#
# Youngs Moduli (GPa) = 62.00219 52.57719 11.63449
#
# Poissons Ratio (x) = 0.45159 -0.06163
# Poissons Ratio (y) = 0.53255 -0.13764
# Poissons Ratio (z) = -0.32846 -0.62202
#
# Static dielectric constant tensor:
#      x y z
#    x 1.725150 0.000000 0.000000 
#    y 0.000000 1.554340 0.000000 
#    z 0.000000 0.000000 1.660020 
# 
# From -- ./inp_files/7193.got.cif
#   From: 2010.05.17/outbox.cif.g08.bks.cpg/sg57_4_cif.got.tgz:7193.got - 2010.06.03 13:58:18.
