data_PCOD9438628
_publ_section_title
;
Structure prediction by ZEFSAII (Michael W. Deem and Ramdas Pophale) SiO2 
 PCOD9438628
Probable space group: P B C M
;
_chemical_formula_sum "Si O2"
_cell_formula_units_Z 64
_cell_length_a 10.114939
_cell_length_b 14.270798
_cell_length_c 19.947483
_cell_angle_alpha 90.000000
_cell_angle_beta 90.000000
_cell_angle_gamma 90.000000
_cell_volume 2879.384288
_symmetry_space_group_name_H-M "P B C M"
_symmetry_group_IT_number 57
_symmetry_cell_setting 'orthorhombic'
loop_
_space_group_symop_operation_xyz
x,y,z
-x,-y,1/2+z
x,1/2-y,-z
-x,1/2+y,1/2-z
-x,-y,-z
x,y,1/2-z
-x,1/2+y,z
x,1/2-y,1/2+z
loop_
_atom_site_type_symbol
_atom_site_label
_atom_site_fract_x
_atom_site_fract_y
_atom_site_fract_z
Si Si1 0.844667 0.185269 0.554496
Si Si2 0.555633 0.897012 0.517357
Si Si3 0.772778 0.506915 0.075493
Si Si4 0.959529 0.809689 0.327388
Si Si5 0.557273 0.240156 0.595589
Si Si6 0.462146 0.567237 0.827915
Si Si7 0.242269 0.469572 0.169538
Si Si8 0.007761 0.412476 0.828371
O O1 0.914839 0.250000 0.500000
O O2 0.806479 0.082219 0.529314
O O3 0.926807 0.165551 0.620767
O O4 0.710889 0.238461 0.575414
O O5 0.515837 0.828496 0.457419
O O6 0.498803 0.843031 0.582958
O O7 0.500000 0.000000 0.500000
O O8 0.710183 0.911809 0.530628
O O9 0.656184 0.472469 0.126254
O O10 0.893691 0.539295 0.120142
O O11 0.990604 0.833735 0.250000
O O12 0.831533 0.871192 0.346724
O O13 0.957278 0.697312 0.331089
O O14 0.540267 0.180942 0.663338
O O15 0.442757 0.542814 0.750000
O O16 0.605898 0.531320 0.852657
O O17 0.253041 0.471672 0.250000
O O18 0.141227 0.554160 0.152546
O O19 0.026593 0.440967 0.750000
#
# Coordination Sequence:
#
# PCOD9438628 Si02
#       8
#     8   8   8   8   8   8   8   8
#     4  11  20  39  62  90 126 163 210 260 316 368
#     4  11  19  39  60  88 118 165 210 243 310 376
#     4  11  22  37  67  93 119 164 213 260 308 377
#     4  10  22  39  63  87 121 169 209 253 314 380
#     4  10  22  38  62  90 124 169 200 261 319 380
#     4  10  21  37  60  94 126 157 202 259 316 374
#     4   9  19  38  59  82 124 166 197 249 318 370
#     4  10  21  40  63  91 124 165 209 257 321 379
#
# _framework density 22.226974999999999
#
# number of rings (size 3 to 8) (size 9 to 14) (size 15 to 20)
#    0.000    1.750    5.000    0.375    1.750    3.000 
#    2.250    2.500    0.000    0.000    0.000    0.000 
#    0.000    0.000    0.000    0.000    0.000    0.000 
#
# Total GULP energy -357143.731585 kJ/mol
# GULP energy per Si atom -5580.370806 kJ/mol
# Density = 2.217639 g / cm^3
# Si number density = 22.226975 Si / 1000 Ang^3
#
#
#
# Elastic Constant Matrix: (Units=GPa)
#
#
# Indices 1 2 3 4 5 6 
#
# 1 50.4276 1.1374 15.5836 0.0000 0.0000 0.0000
# 2 1.1374 105.5450 6.7929 0.0000 0.0000 0.0000
# 3 15.5836 6.7929 53.7501 0.0000 0.0000 0.0000
# 4 0.0000 0.0000 0.0000 30.9512 0.0000 0.0000
# 5 0.0000 0.0000 0.0000 0.0000 22.3946 0.0000
# 6 0.0000 0.0000 0.0000 0.0000 0.0000 23.9677
#
#
#
# Elastic Compliance Matrix: (Units=1/GPa)
#
#
# Indices 1 2 3 4 5 6 
#
# 1 0.021785 0.000173 -0.006338 0.000000 0.000000 0.000000
# 2 0.000173 0.009554 -0.001258 0.000000 0.000000 0.000000
# 3 -0.006338 -0.001258 0.020601 0.000000 0.000000 0.000000
# 4 0.000000 0.000000 0.000000 0.032309 0.000000 0.000000
# 5 0.000000 0.000000 0.000000 0.000000 0.044654 0.000000
# 6 0.000000 0.000000 0.000000 0.000000 0.000000 0.041723
#
#
# Mechanical properties :
#
#
# Convention : Reuss Voigt Hill
#
# Bulk Modulus (GPa) = 26.95773 28.52782 27.74278
# Shear Modulus (GPa) = 25.27354 27.87660 26.57507
#
# Velocity S-wave (km/s) = 3.37570 3.54528 3.46153
# Velocity P-wave (km/s) = 5.22958 5.44255 5.33713
#
# Compressibility (1/GPa) = 0.03709511
#
# Stress axis : x y z
#
# Youngs Moduli (GPa) = 45.90282 104.67143 48.54105
#
# Poissons Ratio (x) = -0.01812 0.30765
# Poissons Ratio (y) = -0.00795 0.06104
# Poissons Ratio (z) = 0.29093 0.13163
#
# Static dielectric constant tensor:
#      x y z
#    x 1.819130 0.000000 0.000000 
#    y 0.000000 1.906980 0.000000 
#    z 0.000000 0.000000 1.896890 
# 
# From -- ./inp_files/26914.got.cif
#   From: 2010.05.17/outbox.cif.g08.bks.cpg/sg57_14_cif.got.tgz:26914.got - 2010.06.03 13:58:18.
