data_PCOD9438973
_publ_section_title
;
Structure prediction by ZEFSAII (Michael W. Deem and Ramdas Pophale) SiO2 
 PCOD9438973
Probable space group: P B C M
;
_chemical_formula_sum "Si O2"
_cell_formula_units_Z 28
_cell_length_a 9.401806
_cell_length_b 13.825642
_cell_length_c 10.439813
_cell_angle_alpha 90.000000
_cell_angle_beta 90.000000
_cell_angle_gamma 90.000000
_cell_volume 1357.029573
_symmetry_space_group_name_H-M "P B C M"
_symmetry_group_IT_number 57
_symmetry_cell_setting 'orthorhombic'
loop_
_space_group_symop_operation_xyz
x,y,z
-x,-y,1/2+z
x,1/2-y,-z
-x,1/2+y,1/2-z
-x,-y,-z
x,y,1/2-z
-x,1/2+y,z
x,1/2-y,1/2+z
loop_
_atom_site_type_symbol
_atom_site_label
_atom_site_fract_x
_atom_site_fract_y
_atom_site_fract_z
Si Si1 0.855299 0.602713 0.894700
Si Si2 0.078380 0.874491 0.609582
Si Si3 0.677819 0.250000 0.000000
Si Si4 0.529086 0.913603 0.399555
O O1 0.893132 0.632788 0.750000
O O2 0.870960 0.485930 0.900551
O O3 0.690230 0.623763 0.919097
O O4 0.963960 0.642147 0.998798
O O5 0.014001 0.861445 0.750000
O O6 0.216033 0.808415 0.592173
O O7 0.580888 0.327692 0.072706
O O8 0.518247 0.945272 0.250000
O O9 0.500000 0.000000 0.500000
#
# Coordination Sequence:
#
# PCOD9438973 Si02
#       4
#     8   8   4   8
#     4   9  20  41  64  91 127 168 215 268 325 386
#     4  10  21  39  63  93 127 167 217 269 321 388
#     4  12  24  40  66 102 134 174 220 276 334 394
#     4  11  24  43  68  98 136 177 222 277 334 397
#
# _framework density 20.633300999999999
#
# number of rings (size 3 to 8) (size 9 to 14) (size 15 to 20)
#    0.000    1.714    2.857    0.857    0.000    5.714 
#    0.000    2.857    0.000    0.000    0.000    0.000 
#    0.000    0.000    0.000    0.000    0.000    0.000 
#
# Total GULP energy -156511.717335 kJ/mol
# GULP energy per Si atom -5589.704191 kJ/mol
# Density = 2.058634 g / cm^3
# Si number density = 20.633301 Si / 1000 Ang^3
#
#
#
# Elastic Constant Matrix: (Units=GPa)
#
#
# Indices 1 2 3 4 5 6 
#
# 1 146.6236 46.9693 106.7657 0.0000 0.0000 0.0000
# 2 46.9693 104.3287 44.6757 0.0000 0.0000 0.0000
# 3 106.7657 44.6757 159.8626 0.0000 0.0000 0.0000
# 4 0.0000 0.0000 0.0000 -1.1235 0.0000 0.0000
# 5 0.0000 0.0000 0.0000 0.0000 33.2907 0.0000
# 6 0.0000 0.0000 0.0000 0.0000 0.0000 46.0247
#
#
#
# Elastic Compliance Matrix: (Units=1/GPa)
#
#
# Indices 1 2 3 4 5 6 
#
# 1 0.013865 -0.002586 -0.008537 0.000000 0.000000 0.000000
# 2 -0.002586 0.011371 -0.001450 0.000000 0.000000 0.000000
# 3 -0.008537 -0.001450 0.012362 0.000000 0.000000 0.000000
# 4 0.000000 0.000000 0.000000 -0.890086 0.000000 0.000000
# 5 0.000000 0.000000 0.000000 0.000000 0.030038 0.000000
# 6 0.000000 0.000000 0.000000 0.000000 0.000000 0.021727
#
#
# Mechanical properties :
#
#
# Convention : Reuss Voigt Hill
#
# Bulk Modulus (GPa) = 80.31945 89.73737 85.02841
# Shear Modulus (GPa) = -6.48151 29.79867 11.65858
#
# Velocity S-wave (km/s) = -1.77429 3.80439 2.37963
# Velocity P-wave (km/s) = 5.90035 7.92993 6.98920
#
# Compressibility (1/GPa) = 0.01245029
#
# Stress axis : x y z
#
# Youngs Moduli (GPa) = 72.12336 87.94657 80.89107
#
# Poissons Ratio (x) = 0.22746 0.69058
# Poissons Ratio (y) = 0.18654 0.11732
# Poissons Ratio (z) = 0.61573 0.12755
#
# Static dielectric constant tensor:
#      x y z
#    x 1.694980 0.000000 0.000000 
#    y 0.000000 1.752630 0.000000 
#    z 0.000000 0.000000 1.728760 
# 
# From -- ./inp_files/11246.got.cif
#   From: 2010.05.17/outbox.cif.g08.bks.cpg/sg57_6_cif.got.tgz:11246.got - 2010.06.03 13:58:18.
