data_PCOD9438905
_publ_section_title
;
Structure prediction by ZEFSAII (Michael W. Deem and Ramdas Pophale) SiO2 
 PCOD9438905
Probable space group: P B C M
;
_chemical_formula_sum "Si O2"
_cell_formula_units_Z 56
_cell_length_a 15.751303
_cell_length_b 21.671203
_cell_length_c 8.203422
_cell_angle_alpha 90.000000
_cell_angle_beta 90.000000
_cell_angle_gamma 90.000000
_cell_volume 2800.235514
_symmetry_space_group_name_H-M "P B C M"
_symmetry_group_IT_number 57
_symmetry_cell_setting 'orthorhombic'
loop_
_space_group_symop_operation_xyz
x,y,z
-x,-y,1/2+z
x,1/2-y,-z
-x,1/2+y,1/2-z
-x,-y,-z
x,y,1/2-z
-x,1/2+y,z
x,1/2-y,1/2+z
loop_
_atom_site_type_symbol
_atom_site_label
_atom_site_fract_x
_atom_site_fract_y
_atom_site_fract_z
Si Si1 0.704900 0.624396 0.552389
Si Si2 0.536591 0.816932 0.055293
Si Si3 0.917775 0.458616 0.056466
Si Si4 0.270253 0.511667 0.445921
Si Si5 0.060647 0.682248 0.552806
Si Si6 0.556240 0.059229 0.445294
Si Si7 0.132201 0.315177 0.054432
O O1 0.707016 0.630186 0.750000
O O2 0.632570 0.670101 0.491742
O O3 0.686683 0.554027 0.514901
O O4 0.799984 0.636423 0.493073
O O5 0.538604 0.817177 0.250000
O O6 0.505907 0.750000 0.000000
O O7 0.484206 0.876396 0.999801
O O8 0.928235 0.455600 0.250000
O O9 0.910619 0.386424 0.998045
O O10 0.824840 0.485298 0.014587
O O11 0.000000 0.500000 0.000000
O O12 0.260691 0.516077 0.250000
O O13 0.344831 0.557441 0.502000
O O14 0.096152 0.750000 0.500000
O O15 0.063958 0.682896 0.750000
O O16 0.962950 0.681299 0.491773
O O17 0.557899 0.056394 0.250000
O O18 0.500000 0.000000 0.500000
O O19 0.126152 0.318982 0.250000
O O20 0.168579 0.250000 0.000000
#
# Coordination Sequence:
#
# PCOD9438905 Si02
#       7
#     8   8   8   8   8   8   8
#     4   9  17  32  53  78 113 153 188 234 300 363
#     4  11  22  38  59  88 124 162 205 256 312 370
#     4  11  23  39  60  90 124 160 203 255 308 364
#     4  10  21  39  61  86 116 156 202 249 307 367
#     4   9  19  35  55  78 109 150 197 246 299 355
#     4  11  22  40  65  90 120 161 205 252 308 369
#     4   9  16  28  47  70 102 142 182 225 281 347
#
# _framework density 19.998318999999999
#
# number of rings (size 3 to 8) (size 9 to 14) (size 15 to 20)
#    0.000    2.000    1.429    2.571    0.000    4.571 
#    0.000    5.000    0.000    1.714    0.000    0.000 
#    0.000    0.000    0.000    0.000    0.000    0.000 
#
# Total GULP energy -311778.007180 kJ/mol
# GULP energy per Si atom -5567.464414 kJ/mol
# Density = 1.995280 g / cm^3
# Si number density = 19.998319 Si / 1000 Ang^3
#
#
#
# Elastic Constant Matrix: (Units=GPa)
#
#
# Indices 1 2 3 4 5 6 
#
# 1 87.5101 41.4305 12.0091 0.0000 0.0000 0.0000
# 2 41.4305 123.7921 13.6134 0.0000 0.0000 0.0000
# 3 12.0091 13.6134 31.5775 0.0000 0.0000 0.0000
# 4 0.0000 0.0000 0.0000 29.4147 0.0000 0.0000
# 5 0.0000 0.0000 0.0000 0.0000 20.9795 0.0000
# 6 0.0000 0.0000 0.0000 0.0000 0.0000 30.1993
#
#
#
# Elastic Compliance Matrix: (Units=1/GPa)
#
#
# Indices 1 2 3 4 5 6 
#
# 1 0.013928 -0.004282 -0.003451 0.000000 0.000000 0.000000
# 2 -0.004282 0.009796 -0.002595 0.000000 0.000000 0.000000
# 3 -0.003451 -0.002595 0.034099 0.000000 0.000000 0.000000
# 4 0.000000 0.000000 0.000000 0.033997 0.000000 0.000000
# 5 0.000000 0.000000 0.000000 0.000000 0.047666 0.000000
# 6 0.000000 0.000000 0.000000 0.000000 0.000000 0.033113
#
#
# Mechanical properties :
#
#
# Convention : Reuss Voigt Hill
#
# Bulk Modulus (GPa) = 26.90471 41.88731 34.39601
# Shear Modulus (GPa) = 24.31381 27.84047 26.07714
#
# Velocity S-wave (km/s) = 3.49060 3.73519 3.61497
# Velocity P-wave (km/s) = 5.45238 6.29230 5.88734
#
# Compressibility (1/GPa) = 0.03716822
#
# Stress axis : x y z
#
# Youngs Moduli (GPa) = 71.79753 102.07733 29.32611
#
# Poissons Ratio (x) = 0.43709 0.10120
# Poissons Ratio (y) = 0.30743 0.07610
# Poissons Ratio (z) = 0.24777 0.26489
#
# Static dielectric constant tensor:
#      x y z
#    x 1.732590 0.000000 0.000000 
#    y 0.000000 1.781950 0.000000 
#    z 0.000000 0.000000 1.696280 
# 
# From -- ./inp_files/5189.got.cif
#   From: 2010.05.17/outbox.cif.g08.bks.cpg/sg57_3_cif.got.tgz:5189.got - 2010.06.03 13:58:18.
