data_PCOD9438401
_publ_section_title
;
Structure prediction by ZEFSAII (Michael W. Deem and Ramdas Pophale) SiO2 
 PCOD9438401
Probable space group: P B C M
;
_chemical_formula_sum "Si O2"
_cell_formula_units_Z 36
_cell_length_a 7.995952
_cell_length_b 22.938522
_cell_length_c 7.958154
_cell_angle_alpha 90.000000
_cell_angle_beta 90.000000
_cell_angle_gamma 90.000000
_cell_volume 1459.647369
_symmetry_space_group_name_H-M "P B C M"
_symmetry_group_IT_number 57
_symmetry_cell_setting 'orthorhombic'
loop_
_space_group_symop_operation_xyz
x,y,z
-x,-y,1/2+z
x,1/2-y,-z
-x,1/2+y,1/2-z
-x,-y,-z
x,y,1/2-z
-x,1/2+y,z
x,1/2-y,1/2+z
loop_
_atom_site_type_symbol
_atom_site_label
_atom_site_fract_x
_atom_site_fract_y
_atom_site_fract_z
Si Si1 0.076194 0.890871 0.445702
Si Si2 0.420825 0.454726 0.750000
Si Si3 0.245521 0.317608 0.049174
Si Si4 0.387067 0.817526 0.945687
Si Si5 0.259280 0.503858 0.429112
O O1 0.058316 0.904912 0.250000
O O2 0.915516 0.854360 0.503451
O O3 0.242086 0.851016 0.458933
O O4 0.113399 0.949388 0.546341
O O5 0.286812 0.467866 0.597634
O O6 0.574272 0.456940 0.893572
O O7 0.263265 0.320049 0.250000
O O8 0.220911 0.250000 0.000000
O O9 0.421301 0.338215 0.970828
O O10 0.348575 0.821915 0.750000
O O11 0.387347 0.750000 0.000000
O O12 0.246503 0.470452 0.250000
#
# Coordination Sequence:
#
# PCOD9438401 Si02
#       5
#     8   4   8   8   8
#     4  11  21  33  54  84 108 137 184 226 263 319
#     4   8  16  30  48  76 108 136 174 218 268 334
#     4  10  21  36  53  74 107 145 179 221 267 314
#     4  11  22  36  53  74 107 146 181 221 269 317
#     4   9  16  29  50  77 108 138 175 220 268 321
#
# _framework density 24.663488999999998
#
# number of rings (size 3 to 8) (size 9 to 14) (size 15 to 20)
#    0.667    1.333    1.111    5.333    0.000    5.333 
#    0.000    0.000    0.000    0.000    0.000    9.333 
#    0.000    0.000    0.000    0.000    0.000    0.000 
#
# Total GULP energy -200459.750216 kJ/mol
# GULP energy per Si atom -5568.326395 kJ/mol
# Density = 2.460735 g / cm^3
# Si number density = 24.663489 Si / 1000 Ang^3
#
#
#
# Elastic Constant Matrix: (Units=GPa)
#
#
# Indices 1 2 3 4 5 6 
#
# 1 168.6011 57.0548 17.1451 0.0000 0.0000 0.0000
# 2 57.0548 70.8616 18.5179 0.0000 0.0000 0.0000
# 3 17.1451 18.5179 139.8471 0.0000 0.0000 0.0000
# 4 0.0000 0.0000 0.0000 13.2001 0.0000 0.0000
# 5 0.0000 0.0000 0.0000 0.0000 -39.0825 0.0000
# 6 0.0000 0.0000 0.0000 0.0000 0.0000 58.2532
#
#
#
# Elastic Compliance Matrix: (Units=1/GPa)
#
#
# Indices 1 2 3 4 5 6 
#
# 1 0.008155 -0.006531 -0.000135 0.000000 0.000000 0.000000
# 2 -0.006531 0.019848 -0.001827 0.000000 0.000000 0.000000
# 3 -0.000135 -0.001827 0.007409 0.000000 0.000000 0.000000
# 4 0.000000 0.000000 0.000000 0.075757 0.000000 0.000000
# 5 0.000000 0.000000 0.000000 0.000000 -0.025587 0.000000
# 6 0.000000 0.000000 0.000000 0.000000 0.000000 0.017166
#
#
# Mechanical properties :
#
#
# Convention : Reuss Voigt Hill
#
# Bulk Modulus (GPa) = 54.27258 62.74948 58.51103
# Shear Modulus (GPa) = 39.72131 25.58027 32.65079
#
# Velocity S-wave (km/s) = 4.01750 3.22401 3.64242
# Velocity P-wave (km/s) = 6.60101 6.27347 6.43933
#
# Compressibility (1/GPa) = 0.01842551
#
# Stress axis : x y z
#
# Youngs Moduli (GPa) = 122.62598 50.38334 134.96720
#
# Poissons Ratio (x) = 0.32904 0.01822
# Poissons Ratio (y) = 0.80083 0.24665
# Poissons Ratio (z) = 0.01656 0.09208
#
# Static dielectric constant tensor:
#      x y z
#    x 1.965860 0.000000 0.000000 
#    y 0.000000 2.015770 0.000000 
#    z 0.000000 0.000000 1.844700 
# 
# From -- ./inp_files/1649.got.cif
#   From: 2010.05.17/outbox.cif.g08.bks.cpg/sg57_1_cif.got.tgz:1649.got - 2010.06.03 13:58:18.
