data_PCOD9438715
_publ_section_title
;
Structure prediction by ZEFSAII (Michael W. Deem and Ramdas Pophale) SiO2 
 PCOD9438715
Probable space group: P B C M
;
_chemical_formula_sum "Si O2"
_cell_formula_units_Z 44
_cell_length_a 22.676656
_cell_length_b 5.241965
_cell_length_c 18.896757
_cell_angle_alpha 90.000000
_cell_angle_beta 90.000000
_cell_angle_gamma 90.000000
_cell_volume 2246.261984
_symmetry_space_group_name_H-M "P B C M"
_symmetry_group_IT_number 57
_symmetry_cell_setting 'orthorhombic'
loop_
_space_group_symop_operation_xyz
x,y,z
-x,-y,1/2+z
x,1/2-y,-z
-x,1/2+y,1/2-z
-x,-y,-z
x,y,1/2-z
-x,1/2+y,z
x,1/2-y,1/2+z
loop_
_atom_site_type_symbol
_atom_site_label
_atom_site_fract_x
_atom_site_fract_y
_atom_site_fract_z
Si Si1 0.964986 0.048174 0.250000
Si Si2 0.169763 0.498040 0.042551
Si Si3 0.464903 0.543598 0.836433
Si Si4 0.668438 0.545204 0.164440
Si Si5 0.741902 0.044570 0.165010
Si Si6 0.040213 0.041758 0.906879
O O1 0.937798 0.977746 0.325087
O O2 0.979044 0.350351 0.250000
O O3 0.199622 0.507687 0.119265
O O4 0.098844 0.486308 0.048103
O O5 0.190031 0.250000 0.000000
O O6 0.186419 0.750000 0.000000
O O7 0.463596 0.543904 0.750000
O O8 0.507497 0.312711 0.858148
O O9 0.398166 0.497165 0.861418
O O10 0.664917 0.542280 0.250000
O O11 0.710973 0.311272 0.145621
O O12 0.697289 0.815064 0.146081
O O13 0.752384 0.039066 0.250000
O O14 0.994763 0.806825 0.916918
#
# Coordination Sequence:
#
# PCOD9438715 Si02
#       6
#     4   8   8   8   8   8
#     4   8  16  32  54  82 108 136 174 216 256 322
#     4  12  26  41  59  86 116 145 186 239 283 339
#     4   9  15  23  40  71 112 149 176 217 279 335
#     4   9  17  31  51  78 110 149 193 229 273 333
#     4  10  21  38  59  79 109 153 194 234 276 329
#     4  10  21  38  60  84 112 144 179 224 283 341
#
# _framework density 19.588097999999999
#
# number of rings (size 3 to 8) (size 9 to 14) (size 15 to 20)
#    0.000    2.182    0.000    3.273    1.273    6.545 
#    0.000    0.000    0.000    0.000    0.000    0.000 
#    0.000   50.909    0.000    0.000    0.000    0.000 
#
# Total GULP energy -245510.665493 kJ/mol
# GULP energy per Si atom -5579.787852 kJ/mol
# Density = 1.954351 g / cm^3
# Si number density = 19.588098 Si / 1000 Ang^3
#
#
#
# Elastic Constant Matrix: (Units=GPa)
#
#
# Indices 1 2 3 4 5 6 
#
# 1 52.9822 -17.7127 11.6829 0.0000 0.0000 0.0000
# 2 -17.7127 80.5030 7.1707 0.0000 0.0000 0.0000
# 3 11.6829 7.1707 47.6381 0.0000 0.0000 0.0000
# 4 0.0000 0.0000 0.0000 15.0496 0.0000 0.0000
# 5 0.0000 0.0000 0.0000 0.0000 6.0037 0.0000
# 6 0.0000 0.0000 0.0000 0.0000 0.0000 189.9167
#
#
#
# Elastic Compliance Matrix: (Units=1/GPa)
#
#
# Indices 1 2 3 4 5 6 
#
# 1 0.022054 0.005407 -0.006222 0.000000 0.000000 0.000000
# 2 0.005407 0.013916 -0.003421 0.000000 0.000000 0.000000
# 3 -0.006222 -0.003421 0.023032 0.000000 0.000000 0.000000
# 4 0.000000 0.000000 0.000000 0.066447 0.000000 0.000000
# 5 0.000000 0.000000 0.000000 0.000000 0.166564 0.000000
# 6 0.000000 0.000000 0.000000 0.000000 0.000000 0.005265
#
#
# Mechanical properties :
#
#
# Convention : Reuss Voigt Hill
#
# Bulk Modulus (GPa) = 19.79035 20.37837 20.08436
# Shear Modulus (GPa) = 15.49930 54.19283 34.84607
#
# Velocity S-wave (km/s) = 2.81599 5.26557 4.22232
# Velocity P-wave (km/s) = 4.54953 6.88436 5.83492
#
# Compressibility (1/GPa) = 0.05052968
#
# Stress axis : x y z
#
# Youngs Moduli (GPa) = 45.34354 71.85877 43.41692
#
# Poissons Ratio (x) = -0.38852 0.27016
# Poissons Ratio (y) = -0.24516 0.14852
# Poissons Ratio (z) = 0.28215 0.24581
#
# Static dielectric constant tensor:
#      x y z
#    x 1.660350 0.000000 0.000000 
#    y 0.000000 1.674640 0.000000 
#    z 0.000000 0.000000 1.696800 
# 
# From -- ./inp_files/25670.got.cif
#   From: 2010.05.17/outbox.cif.g08.bks.cpg/sg57_13_cif.got.tgz:25670.got - 2010.06.03 13:58:18.
