data_PCOD9438522
_publ_section_title
;
Structure prediction by ZEFSAII (Michael W. Deem and Ramdas Pophale) SiO2 
 PCOD9438522
Probable space group: P B C M
;
_chemical_formula_sum "Si O2"
_cell_formula_units_Z 48
_cell_length_a 9.228895
_cell_length_b 15.785670
_cell_length_c 16.107272
_cell_angle_alpha 90.000000
_cell_angle_beta 90.000000
_cell_angle_gamma 90.000000
_cell_volume 2346.576500
_symmetry_space_group_name_H-M "P B C M"
_symmetry_group_IT_number 57
_symmetry_cell_setting 'orthorhombic'
loop_
_space_group_symop_operation_xyz
x,y,z
-x,-y,1/2+z
x,1/2-y,-z
-x,1/2+y,1/2-z
-x,-y,-z
x,y,1/2-z
-x,1/2+y,z
x,1/2-y,1/2+z
loop_
_atom_site_type_symbol
_atom_site_label
_atom_site_fract_x
_atom_site_fract_y
_atom_site_fract_z
Si Si1 0.831943 0.796113 0.153019
Si Si2 0.816019 0.980896 0.154718
Si Si3 0.314569 0.375713 0.648845
Si Si4 0.653868 0.146113 0.349592
Si Si5 0.892229 0.015762 0.921239
Si Si6 0.144239 0.790025 0.086562
O O1 0.794355 0.800423 0.250000
O O2 0.789943 0.887872 0.115761
O O3 0.753477 0.713482 0.120358
O O4 0.004316 0.783662 0.145387
O O5 0.765763 0.977637 0.250000
O O6 0.988929 0.991064 0.152087
O O7 0.742002 0.064071 0.117706
O O8 0.293654 0.386313 0.750000
O O9 0.485702 0.369932 0.633542
O O10 0.231858 0.448686 0.598608
O O11 0.672660 0.151305 0.250000
O O12 0.722058 0.232364 0.384928
O O13 0.828163 0.110291 0.923387
O O14 0.000000 0.000000 0.000000
O O15 0.094141 0.750000 0.000000
#
# Coordination Sequence:
#
# PCOD9438522 Si02
#       6
#     8   8   8   8   8   8
#     4   9  18  34  57  81 106 142 190 240 287 341
#     4   9  18  34  56  80 108 147 193 240 292 349
#     4  10  21  37  58  85 116 150 190 238 294 354
#     4  10  21  37  57  83 118 154 189 236 294 355
#     4  11  22  37  59  84 112 150 197 246 291 346
#     4  11  22  37  57  83 113 149 193 238 287 343
#
# _framework density 20.455331999999999
#
# number of rings (size 3 to 8) (size 9 to 14) (size 15 to 20)
#    0.000    2.000    0.000    4.000    0.000    6.000 
#    0.000   10.833    0.000    0.000    0.000    0.000 
#    0.000    0.000    0.000    0.000    0.000    0.000 
#
# Total GULP energy -267679.654977 kJ/mol
# GULP energy per Si atom -5576.659479 kJ/mol
# Density = 2.040877 g / cm^3
# Si number density = 20.455332 Si / 1000 Ang^3
#
#
#
# Elastic Constant Matrix: (Units=GPa)
#
#
# Indices 1 2 3 4 5 6 
#
# 1 101.8610 107.6947 20.3889 0.0000 0.0000 0.0000
# 2 107.6947 225.6024 37.9719 0.0000 0.0000 0.0000
# 3 20.3889 37.9719 38.5073 0.0000 0.0000 0.0000
# 4 0.0000 0.0000 0.0000 22.6368 0.0000 0.0000
# 5 0.0000 0.0000 0.0000 0.0000 -4.0024 0.0000
# 6 0.0000 0.0000 0.0000 0.0000 0.0000 -0.4293
#
#
#
# Elastic Compliance Matrix: (Units=1/GPa)
#
#
# Indices 1 2 3 4 5 6 
#
# 1 0.019884 -0.009256 -0.001401 0.000000 0.000000 0.000000
# 2 -0.009256 0.009623 -0.004589 0.000000 0.000000 0.000000
# 3 -0.001401 -0.004589 0.031236 0.000000 0.000000 0.000000
# 4 0.000000 0.000000 0.000000 0.044176 0.000000 0.000000
# 5 0.000000 0.000000 0.000000 0.000000 -0.249850 0.000000
# 6 0.000000 0.000000 0.000000 0.000000 0.000000 -2.329629
#
#
# Mechanical properties :
#
#
# Convention : Reuss Voigt Hill
#
# Bulk Modulus (GPa) = 33.05576 77.56462 55.31019
# Shear Modulus (GPa) = -2.05424 16.96872 7.45724
#
# Velocity S-wave (km/s) = -1.00321 2.88332 1.91142
# Velocity P-wave (km/s) = 3.85398 7.00614 5.65416
#
# Compressibility (1/GPa) = 0.03025191
#
# Stress axis : x y z
#
# Youngs Moduli (GPa) = 50.29196 103.91275 32.01466
#
# Poissons Ratio (x) = 0.96183 0.04484
# Poissons Ratio (y) = 0.46551 0.14691
# Poissons Ratio (z) = 0.07045 0.47683
#
# Static dielectric constant tensor:
#      x y z
#    x 1.681050 0.000000 0.000000 
#    y 0.000000 1.762210 0.000000 
#    z 0.000000 0.000000 1.811470 
# 
# From -- ./inp_files/20950.got.cif
#   From: 2010.05.17/outbox.cif.g08.bks.cpg/sg57_11_cif.got.tgz:20950.got - 2010.06.03 13:58:18.
