data_PCOD9438882
_publ_section_title
;
Structure prediction by ZEFSAII (Michael W. Deem and Ramdas Pophale) SiO2 
 PCOD9438882
Probable space group: P B C M
;
_chemical_formula_sum "Si O2"
_cell_formula_units_Z 56
_cell_length_a 14.594454
_cell_length_b 10.177148
_cell_length_c 17.204752
_cell_angle_alpha 90.000000
_cell_angle_beta 90.000000
_cell_angle_gamma 90.000000
_cell_volume 2555.420410
_symmetry_space_group_name_H-M "P B C M"
_symmetry_group_IT_number 57
_symmetry_cell_setting 'orthorhombic'
loop_
_space_group_symop_operation_xyz
x,y,z
-x,-y,1/2+z
x,1/2-y,-z
-x,1/2+y,1/2-z
-x,-y,-z
x,y,1/2-z
-x,1/2+y,z
x,1/2-y,1/2+z
loop_
_atom_site_type_symbol
_atom_site_label
_atom_site_fract_x
_atom_site_fract_y
_atom_site_fract_z
Si Si1 0.968188 0.623628 0.446789
Si Si2 0.382957 0.243787 0.162864
Si Si3 0.873051 0.449295 0.658623
Si Si4 0.402745 0.462805 0.537167
Si Si5 0.833292 0.750459 0.160294
Si Si6 0.421211 0.826621 0.162369
Si Si7 0.303188 0.860254 0.567320
O O1 0.982815 0.750000 0.500000
O O2 0.036892 0.618299 0.374370
O O3 0.000000 0.500000 0.500000
O O4 0.869248 0.646444 0.404266
O O5 0.395104 0.177226 0.250000
O O6 0.276062 0.276036 0.159891
O O7 0.468625 0.343099 0.163713
O O8 0.401147 0.173423 0.080726
O O9 0.863001 0.433332 0.750000
O O10 0.876435 0.606405 0.642986
O O11 0.787131 0.383464 0.616179
O O12 0.500000 0.500000 0.500000
O O13 0.382491 0.558855 0.609680
O O14 0.329999 0.502135 0.472381
O O15 0.855818 0.711890 0.250000
O O16 0.387436 0.828423 0.250000
O O17 0.386236 0.693465 0.121003
O O18 0.290791 0.750000 0.500000
#
# Coordination Sequence:
#
# PCOD9438882 Si02
#       7
#     8   8   8   8   8   8   8
#     4  12  25  47  73 104 135 171 218 274 340 405
#     4  10  22  39  62  89 126 170 214 263 323 389
#     4  11  24  45  71  99 133 174 217 274 337 402
#     4  11  22  36  56  88 125 170 214 271 323 373
#     4  10  24  45  68 101 133 170 221 271 334 405
#     4  10  21  39  59  86 125 172 219 263 320 389
#     4  10  22  40  61  93 132 169 222 268 319 394
#
# _framework density 21.914200999999998
#
# number of rings (size 3 to 8) (size 9 to 14) (size 15 to 20)
#    0.000    1.429    2.857    1.714    4.000    0.000 
#    0.000    0.000    0.000    0.000    0.000    0.000 
#    0.000    0.000    0.000    0.000    0.000    0.000 
#
# Total GULP energy -312334.735363 kJ/mol
# GULP energy per Si atom -5577.405989 kJ/mol
# Density = 2.186432 g / cm^3
# Si number density = 21.914201 Si / 1000 Ang^3
#
#
#
# Elastic Constant Matrix: (Units=GPa)
#
#
# Indices 1 2 3 4 5 6 
#
# 1 71.4849 -12.3741 21.9225 0.0000 0.0000 0.0000
# 2 -12.3741 27.4366 30.7598 0.0000 0.0000 0.0000
# 3 21.9225 30.7598 133.0152 0.0000 0.0000 0.0000
# 4 0.0000 0.0000 0.0000 32.8864 0.0000 0.0000
# 5 0.0000 0.0000 0.0000 0.0000 39.9235 0.0000
# 6 0.0000 0.0000 0.0000 0.0000 0.0000 20.3320
#
#
#
# Elastic Compliance Matrix: (Units=1/GPa)
#
#
# Indices 1 2 3 4 5 6 
#
# 1 0.018904 0.016225 -0.006868 0.000000 0.000000 0.000000
# 2 0.016225 0.063131 -0.017273 0.000000 0.000000 0.000000
# 3 -0.006868 -0.017273 0.012644 0.000000 0.000000 0.000000
# 4 0.000000 0.000000 0.000000 0.030408 0.000000 0.000000
# 5 0.000000 0.000000 0.000000 0.000000 0.025048 0.000000
# 6 0.000000 0.000000 0.000000 0.000000 0.000000 0.049184
#
#
# Mechanical properties :
#
#
# Convention : Reuss Voigt Hill
#
# Bulk Modulus (GPa) = 12.68273 34.72812 23.70542
# Shear Modulus (GPa) = 20.70984 31.40360 26.05672
#
# Velocity S-wave (km/s) = 3.07749 3.78964 3.45198
# Velocity P-wave (km/s) = 4.29278 5.91863 5.17002
#
# Compressibility (1/GPa) = 0.07884740
#
# Stress axis : x y z
#
# Youngs Moduli (GPa) = 52.89975 15.84019 79.08760
#
# Poissons Ratio (x) = -0.25701 0.54314
# Poissons Ratio (y) = -0.85831 1.36608
# Poissons Ratio (z) = 0.36330 0.27361
#
# Static dielectric constant tensor:
#      x y z
#    x 1.795200 0.000000 0.000000 
#    y 0.000000 1.881820 0.000000 
#    z 0.000000 0.000000 1.863620 
# 
# From -- ./inp_files/18527.got.cif
#   From: 2010.05.17/outbox.cif.g08.bks.cpg/sg57_10_cif.got.tgz:18527.got - 2010.06.03 13:58:18.
