data_PCOD9438667
_publ_section_title
;
Structure prediction by ZEFSAII (Michael W. Deem and Ramdas Pophale) SiO2 
 PCOD9438667
Probable space group: P B C M
;
_chemical_formula_sum "Si O2"
_cell_formula_units_Z 60
_cell_length_a 8.308888
_cell_length_b 14.867882
_cell_length_c 23.329950
_cell_angle_alpha 90.000000
_cell_angle_beta 90.000000
_cell_angle_gamma 90.000000
_cell_volume 2882.078586
_symmetry_space_group_name_H-M "P B C M"
_symmetry_group_IT_number 57
_symmetry_cell_setting 'orthorhombic'
loop_
_space_group_symop_operation_xyz
x,y,z
-x,-y,1/2+z
x,1/2-y,-z
-x,1/2+y,1/2-z
-x,-y,-z
x,y,1/2-z
-x,1/2+y,z
x,1/2-y,1/2+z
loop_
_atom_site_type_symbol
_atom_site_label
_atom_site_fract_x
_atom_site_fract_y
_atom_site_fract_z
Si Si1 0.407600 0.379733 0.181550
Si Si2 0.807485 0.749375 0.394101
Si Si3 0.409820 0.250000 0.500000
Si Si4 0.709081 0.351587 0.995684
Si Si5 0.249617 0.539622 0.114861
Si Si6 0.215241 0.639672 0.813686
Si Si7 0.967773 0.085318 0.920503
Si Si8 0.041943 0.665752 0.185853
O O1 0.374283 0.391820 0.250000
O O2 0.294108 0.303136 0.154109
O O3 0.369467 0.467760 0.143189
O O4 0.594693 0.354106 0.175653
O O5 0.695364 0.720595 0.446272
O O6 0.935555 0.820216 0.420080
O O7 0.903806 0.671710 0.361861
O O8 0.529382 0.331074 0.480737
O O9 0.829557 0.412822 0.031777
O O10 0.779560 0.250000 0.000000
O O11 0.687415 0.388715 0.931591
O O12 0.168602 0.591536 0.167381
O O13 0.107550 0.487650 0.081015
O O14 0.190446 0.602873 0.750000
O O15 0.126307 0.580735 0.860518
O O16 0.133747 0.738055 0.815965
O O17 0.979859 0.652564 0.250000
#
# Coordination Sequence:
#
# PCOD9438667 Si02
#       8
#     8   8   4   8   8   8   8   8
#     4  10  21  40  64  90 126 163 203 256 321 376
#     4  10  21  37  63  93 118 161 208 255 305 368
#     4  10  24  38  66  90 118 158 212 258 302 360
#     4  10  22  41  62  85 122 167 203 254 308 362
#     4  11  23  38  61  92 124 162 204 256 313 370
#     4   9  19  38  64  89 118 164 209 256 310 372
#     4  10  21  38  61  88 122 160 205 251 314 372
#     4  10  21  38  63  92 124 163 212 260 308 363
#
# _framework density 20.818307000000001
#
# number of rings (size 3 to 8) (size 9 to 14) (size 15 to 20)
#    0.400    1.600    0.000    3.600    4.667    3.733 
#    2.400    3.333    0.000    0.000    0.000    0.000 
#    0.000    0.000    0.000    0.000    0.000    0.000 
#
# Total GULP energy -334774.524599 kJ/mol
# GULP energy per Si atom -5579.575410 kJ/mol
# Density = 2.077092 g / cm^3
# Si number density = 20.818307 Si / 1000 Ang^3
#
#
#
# Elastic Constant Matrix: (Units=GPa)
#
#
# Indices 1 2 3 4 5 6 
#
# 1 81.4240 -10.8215 39.7716 0.0000 0.0000 0.0000
# 2 -10.8215 12.7640 4.3712 0.0000 0.0000 0.0000
# 3 39.7716 4.3712 92.1680 0.0000 0.0000 0.0000
# 4 0.0000 0.0000 0.0000 20.7238 0.0000 0.0000
# 5 0.0000 0.0000 0.0000 0.0000 53.3678 0.0000
# 6 0.0000 0.0000 0.0000 0.0000 0.0000 7.1066
#
#
#
# Elastic Compliance Matrix: (Units=1/GPa)
#
#
# Indices 1 2 3 4 5 6 
#
# 1 0.019455 0.019689 -0.009329 0.000000 0.000000 0.000000
# 2 0.019689 0.099564 -0.013218 0.000000 0.000000 0.000000
# 3 -0.009329 -0.013218 0.015502 0.000000 0.000000 0.000000
# 4 0.000000 0.000000 0.000000 0.048254 0.000000 0.000000
# 5 0.000000 0.000000 0.000000 0.000000 0.018738 0.000000
# 6 0.000000 0.000000 0.000000 0.000000 0.000000 0.140715
#
#
# Mechanical properties :
#
#
# Convention : Reuss Voigt Hill
#
# Bulk Modulus (GPa) = 7.76369 28.11096 17.93732
# Shear Modulus (GPa) = 12.79174 26.44196 19.61685
#
# Velocity S-wave (km/s) = 2.48149 3.56775 3.07300
# Velocity P-wave (km/s) = 3.45655 5.52306 4.60716
#
# Compressibility (1/GPa) = 0.12880470
#
# Stress axis : x y z
#
# Youngs Moduli (GPa) = 51.40163 10.04381 64.50760
#
# Poissons Ratio (x) = -0.19775 0.60177
# Poissons Ratio (y) = -1.01202 0.85265
# Poissons Ratio (z) = 0.47951 0.13276
#
# Static dielectric constant tensor:
#      x y z
#    x 1.752030 0.000000 0.000000 
#    y 0.000000 1.778650 0.000000 
#    z 0.000000 0.000000 1.750240 
# 
# From -- ./inp_files/26842.got.cif
#   From: 2010.05.17/outbox.cif.g08.bks.cpg/sg57_14_cif.got.tgz:26842.got - 2010.06.03 13:58:18.
