data_PCOD9438211
_publ_section_title
;
Structure prediction by ZEFSAII (Michael W. Deem and Ramdas Pophale) SiO2 
 PCOD9438211
Probable space group: P B C M
;
_chemical_formula_sum "Si O2"
_cell_formula_units_Z 36
_cell_length_a 7.391898
_cell_length_b 9.012625
_cell_length_c 19.029715
_cell_angle_alpha 90.000000
_cell_angle_beta 90.000000
_cell_angle_gamma 90.000000
_cell_volume 1267.767315
_symmetry_space_group_name_H-M "P B C M"
_symmetry_group_IT_number 57
_symmetry_cell_setting 'orthorhombic'
loop_
_space_group_symop_operation_xyz
x,y,z
-x,-y,1/2+z
x,1/2-y,-z
-x,1/2+y,1/2-z
-x,-y,-z
x,y,1/2-z
-x,1/2+y,z
x,1/2-y,1/2+z
loop_
_atom_site_type_symbol
_atom_site_label
_atom_site_fract_x
_atom_site_fract_y
_atom_site_fract_z
Si Si1 0.770865 0.989236 0.250000
Si Si2 0.856749 0.750000 0.000000
Si Si3 0.738840 0.580805 0.364119
Si Si4 0.006150 0.277541 0.750000
Si Si5 0.409920 0.725042 0.891644
Si Si6 0.275596 0.470916 0.412061
O O1 0.954875 0.893499 0.250000
O O2 0.702705 0.953292 0.172426
O O3 0.804865 0.163825 0.250000
O O4 0.896633 0.620380 0.940645
O O5 0.781620 0.871456 0.943570
O O6 0.894286 0.648339 0.316378
O O7 0.705932 0.405752 0.356847
O O8 0.552181 0.671236 0.348687
O O9 0.548624 0.623360 0.938350
O O10 0.286513 0.853770 0.927101
#
# Coordination Sequence:
#
# PCOD9438211 Si02
#       6
#     4   4   8   4   8   8
#     4  12  26  45  63  86 118 165 210 260 304 357
#     4  10  20  40  62  92 132 160 196 250 300 370
#     4  10  22  38  64  92 128 159 201 247 309 362
#     4  12  26  45  63  86 118 165 210 260 304 357
#     4   9  20  37  62  97 127 161 194 247 306 377
#     4  10  22  38  64  92 128 159 201 247 309 362
#
# _framework density 28.396380000000001
#
# number of rings (size 3 to 8) (size 9 to 14) (size 15 to 20)
#    0.000    1.778    4.444    0.000    3.111   20.444 
#    0.000    1.111    0.000    0.000    0.000    0.000 
#    0.000    0.000    0.000    0.000    0.000    0.000 
#
# Total GULP energy -200410.167816 kJ/mol
# GULP energy per Si atom -5566.949106 kJ/mol
# Density = 2.833175 g / cm^3
# Si number density = 28.396380 Si / 1000 Ang^3
#
#
#
# Elastic Constant Matrix: (Units=GPa)
#
#
# Indices 1 2 3 4 5 6 
#
# 1 41.1987 23.2810 13.6225 0.0000 0.0000 0.0000
# 2 23.2810 276.6701 30.1806 0.0000 0.0000 0.0000
# 3 13.6225 30.1806 165.3606 0.0000 0.0000 0.0000
# 4 0.0000 0.0000 0.0000 45.6073 0.0000 0.0000
# 5 0.0000 0.0000 0.0000 0.0000 72.5032 0.0000
# 6 0.0000 0.0000 0.0000 0.0000 0.0000 55.3715
#
#
#
# Elastic Compliance Matrix: (Units=1/GPa)
#
#
# Indices 1 2 3 4 5 6 
#
# 1 0.025986 -0.001993 -0.001777 0.000000 0.000000 0.000000
# 2 -0.001993 0.003841 -0.000537 0.000000 0.000000 0.000000
# 3 -0.001777 -0.000537 0.006292 0.000000 0.000000 0.000000
# 4 0.000000 0.000000 0.000000 0.021926 0.000000 0.000000
# 5 0.000000 0.000000 0.000000 0.000000 0.013792 0.000000
# 6 0.000000 0.000000 0.000000 0.000000 0.000000 0.018060
#
#
# Mechanical properties :
#
#
# Convention : Reuss Voigt Hill
#
# Bulk Modulus (GPa) = 36.35650 68.59974 52.47812
# Shear Modulus (GPa) = 46.43421 62.43943 54.43682
#
# Velocity S-wave (km/s) = 4.04817 4.69428 4.38314
# Velocity P-wave (km/s) = 5.88908 7.32066 6.64354
#
# Compressibility (1/GPa) = 0.02750539
#
# Stress axis : x y z
#
# Youngs Moduli (GPa) = 38.48174 260.37184 158.93808
#
# Poissons Ratio (x) = 0.51888 0.28244
# Poissons Ratio (y) = 0.07669 0.08532
# Poissons Ratio (z) = 0.06838 0.13977
#
# Static dielectric constant tensor:
#      x y z
#    x 2.429910 0.000000 0.000000 
#    y 0.000000 2.194250 0.000000 
#    z 0.000000 0.000000 2.384130 
# 
# From -- ./inp_files/24030.got.cif
#   From: 2010.05.17/outbox.cif.g08.bks.cpg/sg57_13_cif.got.tgz:24030.got - 2010.06.03 13:58:18.
