data_PCOD9438760
_publ_section_title
;
Structure prediction by ZEFSAII (Michael W. Deem and Ramdas Pophale) SiO2 
 PCOD9438760
Probable space group: P B C M
;
_chemical_formula_sum "Si O2"
_cell_formula_units_Z 32
_cell_length_a 20.747390
_cell_length_b 9.439843
_cell_length_c 8.619825
_cell_angle_alpha 90.000000
_cell_angle_beta 90.000000
_cell_angle_gamma 90.000000
_cell_volume 1688.210865
_symmetry_space_group_name_H-M "P B C M"
_symmetry_group_IT_number 57
_symmetry_cell_setting 'orthorhombic'
loop_
_space_group_symop_operation_xyz
x,y,z
-x,-y,1/2+z
x,1/2-y,-z
-x,1/2+y,1/2-z
-x,-y,-z
x,y,1/2-z
-x,1/2+y,z
x,1/2-y,1/2+z
loop_
_atom_site_type_symbol
_atom_site_label
_atom_site_fract_x
_atom_site_fract_y
_atom_site_fract_z
Si Si1 0.182485 0.593833 0.063417
Si Si2 0.058982 0.408211 0.064347
Si Si3 0.559606 0.908950 0.435798
Si Si4 0.323736 0.908200 0.064203
O O1 0.188759 0.600754 0.250000
O O2 0.126063 0.485080 0.022093
O O3 0.165619 0.750000 0.000000
O O4 0.251436 0.555143 0.990609
O O5 0.054816 0.404649 0.250000
O O6 0.056459 0.250000 0.000000
O O7 0.000000 0.500000 0.000000
O O8 0.555577 0.750000 0.500000
O O9 0.557956 0.907414 0.250000
O O10 0.500000 0.000000 0.500000
O O11 0.624624 0.983978 0.494933
O O12 0.327242 0.906525 0.250000
O O13 0.337223 0.750000 0.000000
#
# Coordination Sequence:
#
# PCOD9438760 Si02
#       4
#     8   8   8   8
#     4  10  21  38  60  88 119 156 198 245 296 353
#     4  11  24  40  61  87 119 156 199 246 298 354
#     4  12  25  43  64  90 122 158 200 247 297 353
#     4  11  22  39  63  91 122 160 200 244 295 352
#
# _framework density 18.954978000000001
#
# number of rings (size 3 to 8) (size 9 to 14) (size 15 to 20)
#    0.000    1.000    0.000    9.000    0.000    7.000 
#    0.000    2.500    0.000    0.000    0.000    0.000 
#    0.000    0.000    0.000    0.000    0.000    0.000 
#
# Total GULP energy -179086.302565 kJ/mol
# GULP energy per Si atom -5596.446955 kJ/mol
# Density = 1.891184 g / cm^3
# Si number density = 18.954978 Si / 1000 Ang^3
#
#
#
# Elastic Constant Matrix: (Units=GPa)
#
#
# Indices 1 2 3 4 5 6 
#
# 1 149.1839 145.2370 82.5003 0.0000 0.0000 0.0000
# 2 145.2370 188.8126 85.6368 0.0000 0.0000 0.0000
# 3 82.5003 85.6368 160.9153 0.0000 0.0000 0.0000
# 4 0.0000 0.0000 0.0000 38.8721 0.0000 0.0000
# 5 0.0000 0.0000 0.0000 0.0000 37.2629 0.0000
# 6 0.0000 0.0000 0.0000 0.0000 0.0000 40.7456
#
#
#
# Elastic Compliance Matrix: (Units=1/GPa)
#
#
# Indices 1 2 3 4 5 6 
#
# 1 0.028408 -0.020097 -0.003869 0.000000 0.000000 0.000000
# 2 -0.020097 0.021199 -0.000978 0.000000 0.000000 0.000000
# 3 -0.003869 -0.000978 0.008719 0.000000 0.000000 0.000000
# 4 0.000000 0.000000 0.000000 0.025725 0.000000 0.000000
# 5 0.000000 0.000000 0.000000 0.000000 0.026836 0.000000
# 6 0.000000 0.000000 0.000000 0.000000 0.000000 0.024543
#
#
# Mechanical properties :
#
#
# Convention : Reuss Voigt Hill
#
# Bulk Modulus (GPa) = 118.52769 125.07334 121.80051
# Shear Modulus (GPa) = 26.57720 35.74530 31.16125
#
# Velocity S-wave (km/s) = 3.74855 4.34729 4.05898
# Velocity P-wave (km/s) = 9.02233 9.55648 9.29324
#
# Compressibility (1/GPa) = 0.00843685
#
# Stress axis : x y z
#
# Youngs Moduli (GPa) = 35.20103 47.17268 114.69510
#
# Poissons Ratio (x) = 0.94803 0.44380
# Poissons Ratio (y) = 0.70744 0.11218
# Poissons Ratio (z) = 0.13621 0.04614
#
# Static dielectric constant tensor:
#      x y z
#    x 1.641360 0.000000 0.000000 
#    y 0.000000 1.617200 0.000000 
#    z 0.000000 0.000000 1.634060 
# 
# From -- ./inp_files/7545.got.cif
#   From: 2010.05.17/outbox.cif.g08.bks.cpg/sg57_4_cif.got.tgz:7545.got - 2010.06.03 13:58:18.
