data_PCOD9438463
_publ_section_title
;
Structure prediction by ZEFSAII (Michael W. Deem and Ramdas Pophale) SiO2 
 PCOD9438463
Probable space group: P B C M
;
_chemical_formula_sum "Si O2"
_cell_formula_units_Z 56
_cell_length_a 14.135883
_cell_length_b 9.886590
_cell_length_c 19.854547
_cell_angle_alpha 90.000000
_cell_angle_beta 90.000000
_cell_angle_gamma 90.000000
_cell_volume 2774.785707
_symmetry_space_group_name_H-M "P B C M"
_symmetry_group_IT_number 57
_symmetry_cell_setting 'orthorhombic'
loop_
_space_group_symop_operation_xyz
x,y,z
-x,-y,1/2+z
x,1/2-y,-z
-x,1/2+y,1/2-z
-x,-y,-z
x,y,1/2-z
-x,1/2+y,z
x,1/2-y,1/2+z
loop_
_atom_site_type_symbol
_atom_site_label
_atom_site_fract_x
_atom_site_fract_y
_atom_site_fract_z
Si Si1 0.924250 0.056566 0.827066
Si Si2 0.964514 0.791403 0.901362
Si Si3 0.242228 0.761334 0.329132
Si Si4 0.230940 0.338643 0.056181
Si Si5 0.152716 0.626545 0.046776
Si Si6 0.614368 0.624782 0.831730
Si Si7 0.552504 0.178520 0.330965
O O1 0.948697 0.085322 0.750000
O O2 0.814272 0.098248 0.836654
O O3 0.983200 0.158577 0.873477
O O4 0.945842 0.903579 0.844817
O O5 0.863999 0.744496 0.927794
O O6 0.038686 0.864301 0.951753
O O7 0.236784 0.722767 0.250000
O O8 0.186553 0.657711 0.376943
O O9 0.351359 0.757791 0.350118
O O10 0.196673 0.483722 0.028006
O O11 0.292098 0.359784 0.123462
O O12 0.284169 0.250000 0.000000
O O13 0.186252 0.750000 0.000000
O O14 0.630979 0.628448 0.750000
O O15 0.541227 0.742947 0.852223
O O16 0.567735 0.478592 0.848459
O O17 0.548713 0.182428 0.250000
#
# Coordination Sequence:
#
# PCOD9438463 Si02
#       7
#     8   8   8   8   8   8   8
#     4  10  21  36  59  96 131 164 210 267 327 376
#     4  11  23  41  62  89 127 175 220 264 314 384
#     4   9  19  38  66  94 122 160 212 262 314 379
#     4  12  27  43  64  96 132 170 219 272 323 384
#     4  11  24  43  66  89 122 175 218 258 316 383
#     4  10  22  43  69  99 128 166 213 267 324 384
#     4   9  18  38  69  96 125 163 209 259 319 387
#
# _framework density 20.181740000000001
#
# number of rings (size 3 to 8) (size 9 to 14) (size 15 to 20)
#    0.000    1.714    2.857    0.857    4.000    4.000 
#    0.000    4.286    0.000    0.000    0.000    0.000 
#    0.000    0.000    0.000    0.000    0.000    0.000 
#
# Total GULP energy -312475.404870 kJ/mol
# GULP energy per Si atom -5579.917944 kJ/mol
# Density = 2.013580 g / cm^3
# Si number density = 20.181740 Si / 1000 Ang^3
#
#
#
# Elastic Constant Matrix: (Units=GPa)
#
#
# Indices 1 2 3 4 5 6 
#
# 1 100.0983 49.1282 33.7626 0.0000 0.0000 0.0000
# 2 49.1282 99.0401 41.7201 0.0000 0.0000 0.0000
# 3 33.7626 41.7201 63.2397 0.0000 0.0000 0.0000
# 4 0.0000 0.0000 0.0000 31.8530 0.0000 0.0000
# 5 0.0000 0.0000 0.0000 0.0000 8.3757 0.0000
# 6 0.0000 0.0000 0.0000 0.0000 0.0000 21.5217
#
#
#
# Elastic Compliance Matrix: (Units=1/GPa)
#
#
# Indices 1 2 3 4 5 6 
#
# 1 0.013891 -0.005216 -0.003975 0.000000 0.000000 0.000000
# 2 -0.005216 0.015941 -0.007732 0.000000 0.000000 0.000000
# 3 -0.003975 -0.007732 0.023036 0.000000 0.000000 0.000000
# 4 0.000000 0.000000 0.000000 0.031394 0.000000 0.000000
# 5 0.000000 0.000000 0.000000 0.000000 0.119394 0.000000
# 6 0.000000 0.000000 0.000000 0.000000 0.000000 0.046465
#
#
# Mechanical properties :
#
#
# Convention : Reuss Voigt Hill
#
# Bulk Modulus (GPa) = 52.57035 56.84443 54.70739
# Shear Modulus (GPa) = 17.22311 21.53456 19.37884
#
# Velocity S-wave (km/s) = 2.92447 3.27009 3.10210
# Velocity P-wave (km/s) = 6.12441 6.51808 6.32431
#
# Compressibility (1/GPa) = 0.01902213
#
# Stress axis : x y z
#
# Youngs Moduli (GPa) = 71.98922 62.72991 43.41041
#
# Poissons Ratio (x) = 0.32720 0.17256
# Poissons Ratio (y) = 0.37550 0.33565
# Poissons Ratio (z) = 0.28616 0.48503
#
# Static dielectric constant tensor:
#      x y z
#    x 1.734250 0.000000 0.000000 
#    y 0.000000 1.714700 0.000000 
#    z 0.000000 0.000000 1.736120 
# 
# From -- ./inp_files/25367.got.cif
#   From: 2010.05.17/outbox.cif.g08.bks.cpg/sg57_13_cif.got.tgz:25367.got - 2010.06.03 13:58:18.
