data_PCOD9438162
_publ_section_title
;
Structure prediction by ZEFSAII (Michael W. Deem and Ramdas Pophale) SiO2 
 PCOD9438162
Probable space group: P B C M
;
_chemical_formula_sum "Si O2"
_cell_formula_units_Z 40
_cell_length_a 14.825431
_cell_length_b 7.714303
_cell_length_c 16.767573
_cell_angle_alpha 90.000000
_cell_angle_beta 90.000000
_cell_angle_gamma 90.000000
_cell_volume 1917.671556
_symmetry_space_group_name_H-M "P B C M"
_symmetry_group_IT_number 57
_symmetry_cell_setting 'orthorhombic'
loop_
_space_group_symop_operation_xyz
x,y,z
-x,-y,1/2+z
x,1/2-y,-z
-x,1/2+y,1/2-z
-x,-y,-z
x,y,1/2-z
-x,1/2+y,z
x,1/2-y,1/2+z
loop_
_atom_site_type_symbol
_atom_site_label
_atom_site_fract_x
_atom_site_fract_y
_atom_site_fract_z
Si Si1 0.061060 0.616985 0.941096
Si Si2 0.272258 0.305344 0.410737
Si Si3 0.094923 0.195351 0.342590
Si Si4 0.596922 0.508744 0.154697
Si Si5 0.389583 0.608018 0.346645
O O1 0.992194 0.779532 0.115859
O O2 0.110955 0.750000 0.000000
O O3 0.115923 0.486247 0.886534
O O4 0.000000 0.500000 0.000000
O O5 0.245905 0.250000 0.500000
O O6 0.181767 0.312074 0.358566
O O7 0.324593 0.484477 0.397032
O O8 0.338922 0.153059 0.382113
O O9 0.078429 0.168699 0.250000
O O10 0.606071 0.522661 0.250000
O O11 0.492540 0.550360 0.136453
O O12 0.619570 0.310795 0.133217
O O13 0.375129 0.585401 0.250000
#
# Coordination Sequence:
#
# PCOD9438162 Si02
#       5
#     8   8   8   8   8
#     4   9  19  39  65  91 124 157 193 249 319 371
#     4  12  25  40  60  90 131 166 208 265 316 372
#     4  11  22  41  66  93 124 164 212 253 304 379
#     4  10  20  39  64  88 118 161 213 261 314 377
#     4  10  20  39  65  88 119 165 213 263 317 375
#
# _framework density 20.858630999999999
#
# number of rings (size 3 to 8) (size 9 to 14) (size 15 to 20)
#    0.000    1.600    2.000    4.200    0.000    1.600 
#   10.800    0.000    0.000    0.000    0.000    0.000 
#    0.000    0.000    0.000    0.000    0.000    0.000 
#
# Total GULP energy -223519.226176 kJ/mol
# GULP energy per Si atom -5587.980654 kJ/mol
# Density = 2.081116 g / cm^3
# Si number density = 20.858631 Si / 1000 Ang^3
#
#
#
# Elastic Constant Matrix: (Units=GPa)
#
#
# Indices 1 2 3 4 5 6 
#
# 1 28.3475 -6.3347 1.5595 0.0000 0.0000 0.0000
# 2 -6.3347 79.2279 14.9868 0.0000 0.0000 0.0000
# 3 1.5595 14.9868 72.9077 0.0000 0.0000 0.0000
# 4 0.0000 0.0000 0.0000 33.2455 0.0000 0.0000
# 5 0.0000 0.0000 0.0000 0.0000 23.2374 0.0000
# 6 0.0000 0.0000 0.0000 0.0000 0.0000 22.7756
#
#
#
# Elastic Compliance Matrix: (Units=1/GPa)
#
#
# Indices 1 2 3 4 5 6 
#
# 1 0.036059 0.003152 -0.001419 0.000000 0.000000 0.000000
# 2 0.003152 0.013408 -0.002824 0.000000 0.000000 0.000000
# 3 -0.001419 -0.002824 0.014327 0.000000 0.000000 0.000000
# 4 0.000000 0.000000 0.000000 0.030079 0.000000 0.000000
# 5 0.000000 0.000000 0.000000 0.000000 0.043034 0.000000
# 6 0.000000 0.000000 0.000000 0.000000 0.000000 0.043907
#
#
# Mechanical properties :
#
#
# Convention : Reuss Voigt Hill
#
# Bulk Modulus (GPa) = 16.23082 22.32293 19.27688
# Shear Modulus (GPa) = 24.56609 27.20314 25.88462
#
# Velocity S-wave (km/s) = 3.43555 3.61524 3.52654
# Velocity P-wave (km/s) = 4.85135 5.30584 5.08367
#
# Compressibility (1/GPa) = 0.06161117
#
# Stress axis : x y z
#
# Youngs Moduli (GPa) = 27.73251 74.58294 69.79958
#
# Poissons Ratio (x) = -0.23505 0.09905
# Poissons Ratio (y) = -0.08740 0.19708
# Poissons Ratio (z) = 0.03936 0.21059
#
# Static dielectric constant tensor:
#      x y z
#    x -0.293560 0.000000 0.000000 
#    y 0.000000 1.795610 0.000000 
#    z 0.000000 0.000000 1.745920 
# 
# From -- ./inp_files/18240.got.cif
#   From: 2010.05.17/outbox.cif.g08.bks.cpg/sg57_10_cif.got.tgz:18240.got - 2010.06.03 13:58:18.
