data_PCOD9438165
_publ_section_title
;
Structure prediction by ZEFSAII (Michael W. Deem and Ramdas Pophale) SiO2 
 PCOD9438165
Probable space group: P B C M
;
_chemical_formula_sum "Si O2"
_cell_formula_units_Z 60
_cell_length_a 8.790479
_cell_length_b 24.096634
_cell_length_c 14.996675
_cell_angle_alpha 90.000000
_cell_angle_beta 90.000000
_cell_angle_gamma 90.000000
_cell_volume 3176.610023
_symmetry_space_group_name_H-M "P B C M"
_symmetry_group_IT_number 57
_symmetry_cell_setting 'orthorhombic'
loop_
_space_group_symop_operation_xyz
x,y,z
-x,-y,1/2+z
x,1/2-y,-z
-x,1/2+y,1/2-z
-x,-y,-z
x,y,1/2-z
-x,1/2+y,z
x,1/2-y,1/2+z
loop_
_atom_site_type_symbol
_atom_site_label
_atom_site_fract_x
_atom_site_fract_y
_atom_site_fract_z
Si Si1 0.515256 0.250000 0.500000
Si Si2 0.039912 0.340956 0.642774
Si Si3 0.759354 0.348047 0.508144
Si Si4 0.871978 0.974987 0.348781
Si Si5 0.331730 0.976820 0.002393
Si Si6 0.830649 0.545705 0.150227
Si Si7 0.746670 0.734914 0.855611
Si Si8 0.000778 0.854454 0.355550
O O1 0.625623 0.302878 0.514814
O O2 0.401858 0.260197 0.416551
O O3 0.013409 0.346274 0.750000
O O4 0.882772 0.342530 0.588223
O O5 0.147390 0.392392 0.613831
O O6 0.136801 0.285615 0.627159
O O7 0.692293 0.410645 0.504318
O O8 0.859696 0.338160 0.418669
O O9 0.805257 0.967207 0.250000
O O10 0.958395 0.918361 0.372786
O O11 0.753669 0.993919 0.420889
O O12 0.998594 0.022489 0.345079
O O13 0.500000 0.000000 0.000000
O O14 0.258384 0.002249 0.091151
O O15 0.766258 0.548517 0.250000
O O16 0.708527 0.735243 0.750000
O O17 0.849448 0.680973 0.874981
O O18 0.036082 0.847572 0.250000
#
# Coordination Sequence:
#
# PCOD9438165 Si02
#       8
#     4   8   8   8   8   8   8   8
#     4  12  28  40  58  90 128 164 190 238 308 366
#     4  10  21  40  68  90 111 153 209 256 291 340
#     4  12  24  40  60  89 123 160 199 244 294 352
#     4  10  20  39  64  90 117 152 200 250 293 343
#     4  12  26  37  57  90 130 164 190 235 302 369
#     4  10  20  39  64  90 117 152 200 250 293 343
#     4  10  23  43  65  89 115 154 202 250 302 352
#     4  10  21  40  68  90 111 153 209 256 291 340
#
# _framework density 18.888058999999998
#
# number of rings (size 3 to 8) (size 9 to 14) (size 15 to 20)
#    0.000    1.333    2.667    2.800    3.733    1.600 
#    0.000    0.000    0.000    0.000    0.000    0.000 
#    0.000    0.000    0.000    0.000    0.000    0.000 
#
# Total GULP energy -335071.453469 kJ/mol
# GULP energy per Si atom -5584.524224 kJ/mol
# Density = 1.884507 g / cm^3
# Si number density = 18.888059 Si / 1000 Ang^3
#
#
#
# Elastic Constant Matrix: (Units=GPa)
#
#
# Indices 1 2 3 4 5 6 
#
# 1 95.6857 15.8350 53.0462 0.0000 0.0000 0.0000
# 2 15.8350 64.8470 15.4196 0.0000 0.0000 0.0000
# 3 53.0462 15.4196 68.8025 0.0000 0.0000 0.0000
# 4 0.0000 0.0000 0.0000 25.7682 0.0000 0.0000
# 5 0.0000 0.0000 0.0000 0.0000 81.3145 0.0000
# 6 0.0000 0.0000 0.0000 0.0000 0.0000 24.5909
#
#
#
# Elastic Compliance Matrix: (Units=1/GPa)
#
#
# Indices 1 2 3 4 5 6 
#
# 1 0.018337 -0.001179 -0.013874 0.000000 0.000000 0.000000
# 2 -0.001179 0.016365 -0.002759 0.000000 0.000000 0.000000
# 3 -0.013874 -0.002759 0.025849 0.000000 0.000000 0.000000
# 4 0.000000 0.000000 0.000000 0.038808 0.000000 0.000000
# 5 0.000000 0.000000 0.000000 0.000000 0.012298 0.000000
# 6 0.000000 0.000000 0.000000 0.000000 0.000000 0.040665
#
#
# Mechanical properties :
#
#
# Convention : Reuss Voigt Hill
#
# Bulk Modulus (GPa) = 40.11444 44.21521 42.16483
# Shear Modulus (GPa) = 25.47718 36.00369 30.74044
#
# Velocity S-wave (km/s) = 3.67666 4.37070 4.03861
# Velocity P-wave (km/s) = 6.26960 6.99504 6.64223
#
# Compressibility (1/GPa) = 0.02492868
#
# Stress axis : x y z
#
# Youngs Moduli (GPa) = 54.53376 61.10700 38.68603
#
# Poissons Ratio (x) = 0.07203 0.53672
# Poissons Ratio (y) = 0.06429 0.10672
# Poissons Ratio (z) = 0.75659 0.16858
#
# Static dielectric constant tensor:
#      x y z
#    x 1.725420 0.000000 0.000000 
#    y 0.000000 1.655260 0.000000 
#    z 0.000000 0.000000 1.696180 
# 
# From -- ./inp_files/16891.got.cif
#   From: 2010.05.17/outbox.cif.g08.bks.cpg/sg57_9_cif.got.tgz:16891.got - 2010.06.03 13:58:18.
