data_PCOD9438894
_publ_section_title
;
Structure prediction by ZEFSAII (Michael W. Deem and Ramdas Pophale) SiO2 
 PCOD9438894
Probable space group: P B C M
;
_chemical_formula_sum "Si O2"
_cell_formula_units_Z 56
_cell_length_a 6.400401
_cell_length_b 14.491456
_cell_length_c 27.766368
_cell_angle_alpha 90.000000
_cell_angle_beta 90.000000
_cell_angle_gamma 90.000000
_cell_volume 2575.361993
_symmetry_space_group_name_H-M "P B C M"
_symmetry_group_IT_number 57
_symmetry_cell_setting 'orthorhombic'
loop_
_space_group_symop_operation_xyz
x,y,z
-x,-y,1/2+z
x,1/2-y,-z
-x,1/2+y,1/2-z
-x,-y,-z
x,y,1/2-z
-x,1/2+y,z
x,1/2-y,1/2+z
loop_
_atom_site_type_symbol
_atom_site_label
_atom_site_fract_x
_atom_site_fract_y
_atom_site_fract_z
Si Si1 0.935324 0.905447 0.448840
Si Si2 0.071445 0.743036 0.117503
Si Si3 0.598570 0.306427 0.195190
Si Si4 0.314178 0.037306 0.466491
Si Si5 0.546500 0.489906 0.803831
Si Si6 0.320580 0.926475 0.598008
Si Si7 0.226861 0.341364 0.696281
O O1 0.827760 0.894356 0.501314
O O2 0.954415 0.815159 0.416638
O O3 0.797115 0.985311 0.423770
O O4 0.162968 0.952146 0.454149
O O5 0.230870 0.794625 0.153767
O O6 0.201815 0.667992 0.087103
O O7 0.918083 0.687727 0.152789
O O8 0.685839 0.309847 0.250000
O O9 0.474041 0.401655 0.187719
O O10 0.432788 0.223395 0.193600
O O11 0.441084 0.076660 0.421191
O O12 0.500000 0.000000 0.500000
O O13 0.626884 0.472506 0.750000
O O14 0.679300 0.442035 0.844906
O O15 0.315904 0.444801 0.806623
O O16 0.134375 0.327671 0.750000
#
# Coordination Sequence:
#
# PCOD9438894 Si02
#       7
#     8   8   8   8   8   8   8
#     4  10  23  44  68  96 127 168 221 271 328 395
#     4  12  24  36  65  98 128 168 212 269 329 386
#     4  10  21  39  60  88 130 175 217 264 318 378
#     4   9  21  47  71  89 126 166 211 277 329 386
#     4  10  21  40  65  91 128 175 214 257 316 380
#     4  11  23  40  68  96 131 174 215 267 330 389
#     4  10  22  40  59  91 134 172 219 266 311 381
#
# _framework density 21.744517999999999
#
# number of rings (size 3 to 8) (size 9 to 14) (size 15 to 20)
#    0.000    1.714    1.429    2.143    4.000    1.714 
#    0.000    8.571    0.000    0.000    0.000    0.000 
#    0.000    0.000    0.000    0.000    0.000    0.000 
#
# Total GULP energy -312953.035104 kJ/mol
# GULP energy per Si atom -5588.447055 kJ/mol
# Density = 2.169503 g / cm^3
# Si number density = 21.744518 Si / 1000 Ang^3
#
#
#
# Elastic Constant Matrix: (Units=GPa)
#
#
# Indices 1 2 3 4 5 6 
#
# 1 62.3404 17.9087 25.3895 0.0000 0.0000 0.0000
# 2 17.9087 83.6121 25.8990 0.0000 0.0000 0.0000
# 3 25.3895 25.8990 74.4171 0.0000 0.0000 0.0000
# 4 0.0000 0.0000 0.0000 14.9135 0.0000 0.0000
# 5 0.0000 0.0000 0.0000 0.0000 36.1467 0.0000
# 6 0.0000 0.0000 0.0000 0.0000 0.0000 21.4710
#
#
#
# Elastic Compliance Matrix: (Units=1/GPa)
#
#
# Indices 1 2 3 4 5 6 
#
# 1 0.019021 -0.002313 -0.005684 0.000000 0.000000 0.000000
# 2 -0.002313 0.013686 -0.003974 0.000000 0.000000 0.000000
# 3 -0.005684 -0.003974 0.016760 0.000000 0.000000 0.000000
# 4 0.000000 0.000000 0.000000 0.067053 0.000000 0.000000
# 5 0.000000 0.000000 0.000000 0.000000 0.027665 0.000000
# 6 0.000000 0.000000 0.000000 0.000000 0.000000 0.046574
#
#
# Mechanical properties :
#
#
# Convention : Reuss Voigt Hill
#
# Bulk Modulus (GPa) = 39.17875 39.86266 39.52071
# Shear Modulus (GPa) = 22.40034 24.58441 23.49237
#
# Velocity S-wave (km/s) = 3.21309 3.36609 3.29048
# Velocity P-wave (km/s) = 5.64111 5.78615 5.71409
#
# Compressibility (1/GPa) = 0.02552404
#
# Stress axis : x y z
#
# Youngs Moduli (GPa) = 52.57474 73.06516 59.66529
#
# Poissons Ratio (x) = 0.16902 0.33916
# Poissons Ratio (y) = 0.12162 0.23711
# Poissons Ratio (z) = 0.29885 0.29036
#
# Static dielectric constant tensor:
#      x y z
#    x 1.791820 0.000000 0.000000 
#    y 0.000000 1.767130 0.000000 
#    z 0.000000 0.000000 1.846660 
# 
# From -- ./inp_files/29154.got.cif
#   From: 2010.05.17/outbox.cif.g08.bks.cpg/sg57_15_cif.got.tgz:29154.got - 2010.06.03 13:58:18.
