data_PCOD9438366
_publ_section_title
;
Structure prediction by ZEFSAII (Michael W. Deem and Ramdas Pophale) SiO2 
 PCOD9438366
Probable space group: P B C M
;
_chemical_formula_sum "Si O2"
_cell_formula_units_Z 64
_cell_length_a 22.800895
_cell_length_b 10.564618
_cell_length_c 14.093396
_cell_angle_alpha 90.000000
_cell_angle_beta 90.000000
_cell_angle_gamma 90.000000
_cell_volume 3394.855925
_symmetry_space_group_name_H-M "P B C M"
_symmetry_group_IT_number 57
_symmetry_cell_setting 'orthorhombic'
loop_
_space_group_symop_operation_xyz
x,y,z
-x,-y,1/2+z
x,1/2-y,-z
-x,1/2+y,1/2-z
-x,-y,-z
x,y,1/2-z
-x,1/2+y,z
x,1/2-y,1/2+z
loop_
_atom_site_type_symbol
_atom_site_label
_atom_site_fract_x
_atom_site_fract_y
_atom_site_fract_z
Si Si1 0.467998 0.171252 0.636689
Si Si2 0.352520 0.391260 0.017557
Si Si3 0.965123 0.446603 0.639306
Si Si4 0.182262 0.970665 0.358174
Si Si5 0.920582 0.614108 0.031793
Si Si6 0.841742 0.173324 0.144755
Si Si7 0.556988 0.546874 0.136760
Si Si8 0.264576 0.602681 0.489020
O O1 0.462185 0.159022 0.750000
O O2 0.407340 0.131837 0.587635
O O3 0.476986 0.320444 0.616130
O O4 0.519253 0.075128 0.607397
O O5 0.382971 0.441412 0.921038
O O6 0.326195 0.250000 0.000000
O O7 0.309986 0.502184 0.053489
O O8 0.968215 0.485466 0.750000
O O9 0.948740 0.554427 0.563595
O O10 0.909570 0.354693 0.626651
O O11 0.025925 0.384838 0.606712
O O12 0.185356 0.018496 0.250000
O O13 0.164883 0.823261 0.355321
O O14 0.244087 0.962788 0.412635
O O15 0.132804 0.040268 0.419629
O O16 0.898997 0.750000 0.000000
O O17 0.827858 0.123797 0.250000
O O18 0.795213 0.115943 0.072037
O O19 0.566805 0.541067 0.250000
O O20 0.285263 0.750000 0.500000
#
# Coordination Sequence:
#
# PCOD9438366 Si02
#       8
#     8   8   8   8   8   8   8   8
#     4   9  18  33  53  79 109 143 179 220 269 325
#     4  10  21  35  53  77 112 147 180 223 278 333
#     4  10  22  38  58  84 114 147 180 223 280 336
#     4  10  21  39  61  81 107 145 185 230 284 334
#     4  11  24  36  58  86 118 145 181 228 276 343
#     4   9  19  38  62  81 105 141 185 230 279 332
#     4   9  18  33  53  78 110 144 180 220 268 325
#     4  10  21  37  57  80 107 140 193 239 276 323
#
# _framework density 18.852053000000002
#
# number of rings (size 3 to 8) (size 9 to 14) (size 15 to 20)
#    0.000    2.250    1.250    0.750    3.500    3.500 
#    0.000    0.000    0.000    0.000    0.000    0.000 
#    0.000    0.000    0.000    0.000    0.000    0.000 
#
# Total GULP energy -356669.344741 kJ/mol
# GULP energy per Si atom -5572.958512 kJ/mol
# Density = 1.880914 g / cm^3
# Si number density = 18.852053 Si / 1000 Ang^3
#
#
#
# Elastic Constant Matrix: (Units=GPa)
#
#
# Indices 1 2 3 4 5 6 
#
# 1 42.7727 30.1305 10.4658 0.0000 0.0000 0.0000
# 2 30.1305 43.1326 12.4424 0.0000 0.0000 0.0000
# 3 10.4658 12.4424 70.1851 0.0000 0.0000 0.0000
# 4 0.0000 0.0000 0.0000 19.2898 0.0000 0.0000
# 5 0.0000 0.0000 0.0000 0.0000 13.5797 0.0000
# 6 0.0000 0.0000 0.0000 0.0000 0.0000 32.8964
#
#
#
# Elastic Compliance Matrix: (Units=1/GPa)
#
#
# Indices 1 2 3 4 5 6 
#
# 1 0.046131 -0.031870 -0.001229 0.000000 0.000000 0.000000
# 2 -0.031870 0.046452 -0.003483 0.000000 0.000000 0.000000
# 3 -0.001229 -0.003483 0.015049 0.000000 0.000000 0.000000
# 4 0.000000 0.000000 0.000000 0.051841 0.000000 0.000000
# 5 0.000000 0.000000 0.000000 0.000000 0.073639 0.000000
# 6 0.000000 0.000000 0.000000 0.000000 0.000000 0.030398
#
#
# Mechanical properties :
#
#
# Convention : Reuss Voigt Hill
#
# Bulk Modulus (GPa) = 29.01257 29.12973 29.07115
# Shear Modulus (GPa) = 14.36110 20.02329 17.19220
#
# Velocity S-wave (km/s) = 2.76303 3.26257 3.02313
# Velocity P-wave (km/s) = 5.05985 5.44773 5.25737
#
# Compressibility (1/GPa) = 0.03446781
#
# Stress axis : x y z
#
# Youngs Moduli (GPa) = 21.67761 21.52759 66.45104
#
# Poissons Ratio (x) = 0.68609 0.08166
# Poissons Ratio (y) = 0.69087 0.23142
# Poissons Ratio (z) = 0.02664 0.07497
#
# Static dielectric constant tensor:
#      x y z
#    x 1.634880 0.000000 0.000000 
#    y 0.000000 1.661190 0.000000 
#    z 0.000000 0.000000 1.712000 
# 
# From -- ./inp_files/19517.got.cif
#   From: 2010.05.17/outbox.cif.g08.bks.cpg/sg57_10_cif.got.tgz:19517.got - 2010.06.03 13:58:18.
