data_PCOD9438823
_publ_section_title
;
Structure prediction by ZEFSAII (Michael W. Deem and Ramdas Pophale) SiO2 
 PCOD9438823
Probable space group: P B C M
;
_chemical_formula_sum "Si O2"
_cell_formula_units_Z 60
_cell_length_a 9.699695
_cell_length_b 23.860093
_cell_length_c 12.261710
_cell_angle_alpha 90.000000
_cell_angle_beta 90.000000
_cell_angle_gamma 90.000000
_cell_volume 2837.796515
_symmetry_space_group_name_H-M "P B C M"
_symmetry_group_IT_number 57
_symmetry_cell_setting 'orthorhombic'
loop_
_space_group_symop_operation_xyz
x,y,z
-x,-y,1/2+z
x,1/2-y,-z
-x,1/2+y,1/2-z
-x,-y,-z
x,y,1/2-z
-x,1/2+y,z
x,1/2-y,1/2+z
loop_
_atom_site_type_symbol
_atom_site_label
_atom_site_fract_x
_atom_site_fract_y
_atom_site_fract_z
Si Si1 0.457021 0.298973 0.372351
Si Si2 0.562202 0.913462 0.999165
Si Si3 0.681930 0.250000 0.500000
Si Si4 0.805481 0.881665 0.869367
Si Si5 0.348849 0.984393 0.871822
Si Si6 0.135186 0.653932 0.876982
Si Si7 0.149502 0.299868 0.431984
Si Si8 0.067198 0.555912 0.452822
O O1 0.484302 0.317765 0.250000
O O2 0.474612 0.352406 0.452903
O O3 0.564747 0.249675 0.403199
O O4 0.294972 0.282238 0.379196
O O5 0.635511 0.951014 0.091787
O O6 0.666039 0.914837 0.895991
O O7 0.429180 0.946537 0.958946
O O8 0.777996 0.300605 0.451386
O O9 0.799368 0.855337 0.750000
O O10 0.947335 0.914917 0.882943
O O11 0.807363 0.841998 0.973313
O O12 0.402446 0.977358 0.750000
O O13 0.193465 0.963614 0.879722
O O14 0.186305 0.647963 0.750000
O O15 0.976172 0.674524 0.866424
O O16 0.120776 0.597535 0.950460
O O17 0.084613 0.250000 0.500000
O O18 0.000000 0.500000 0.500000
#
# Coordination Sequence:
#
# PCOD9438823 Si02
#       8
#     8   8   4   8   8   8   8   8
#     4  11  23  42  67  93 128 172 213 269 330 381
#     4  10  22  41  62  93 130 163 223 265 309 402
#     4  12  24  44  64 100 136 168 228 282 324 412
#     4  10  21  38  62  92 130 170 211 270 332 381
#     4  11  22  39  64  92 129 172 209 265 330 380
#     4  11  25  45  70  97 135 184 226 279 346 400
#     4  10  21  43  64  95 130 161 224 273 317 406
#     4  11  23  44  65 101 135 171 227 280 325 411
#
# _framework density 21.143166999999998
#
# number of rings (size 3 to 8) (size 9 to 14) (size 15 to 20)
#    0.000    1.333    2.667    2.800    0.000    2.133 
#    0.000    7.333    0.000    0.000    0.000    0.000 
#    0.000    0.000    0.000    0.000    0.000    0.000 
#
# Total GULP energy -334059.368476 kJ/mol
# GULP energy per Si atom -5567.656141 kJ/mol
# Density = 2.109504 g / cm^3
# Si number density = 21.143167 Si / 1000 Ang^3
#
#
#
# Elastic Constant Matrix: (Units=GPa)
#
#
# Indices 1 2 3 4 5 6 
#
# 1 107.4288 22.0032 29.6708 0.0000 0.0000 0.0000
# 2 22.0032 75.5318 34.9003 0.0000 0.0000 0.0000
# 3 29.6708 34.9003 116.2193 0.0000 0.0000 0.0000
# 4 0.0000 0.0000 0.0000 0.7852 0.0000 0.0000
# 5 0.0000 0.0000 0.0000 0.0000 20.7903 0.0000
# 6 0.0000 0.0000 0.0000 0.0000 0.0000 32.5621
#
#
#
# Elastic Compliance Matrix: (Units=1/GPa)
#
#
# Indices 1 2 3 4 5 6 
#
# 1 0.010286 -0.002070 -0.002004 0.000000 0.000000 0.000000
# 2 -0.002070 0.015789 -0.004213 0.000000 0.000000 0.000000
# 3 -0.002004 -0.004213 0.010381 0.000000 0.000000 0.000000
# 4 0.000000 0.000000 0.000000 1.273563 0.000000 0.000000
# 5 0.000000 0.000000 0.000000 0.000000 0.048099 0.000000
# 6 0.000000 0.000000 0.000000 0.000000 0.000000 0.030711
#
#
# Mechanical properties :
#
#
# Convention : Reuss Voigt Hill
#
# Bulk Modulus (GPa) = 50.29819 52.48097 51.38958
# Shear Modulus (GPa) = 3.54100 25.00124 14.27112
#
# Velocity S-wave (km/s) = 1.29553 3.44244 2.60085
# Velocity P-wave (km/s) = 5.10675 6.37779 5.77733
#
# Compressibility (1/GPa) = 0.01988143
#
# Stress axis : x y z
#
# Youngs Moduli (GPa) = 97.21853 63.33454 96.32756
#
# Poissons Ratio (x) = 0.13112 0.19307
# Poissons Ratio (y) = 0.20127 0.40582
# Poissons Ratio (z) = 0.19486 0.26682
#
# Static dielectric constant tensor:
#      x y z
#    x 1.847490 0.000000 0.000000 
#    y 0.000000 1.672360 0.000000 
#    z 0.000000 0.000000 1.749720 
# 
# From -- ./inp_files/12170.got.cif
#   From: 2010.05.17/outbox.cif.g08.bks.cpg/sg57_7_cif.got.tgz:12170.got - 2010.06.03 13:58:18.
