data_PCOD9438630
_publ_section_title
;
Structure prediction by ZEFSAII (Michael W. Deem and Ramdas Pophale) SiO2 
 PCOD9438630
Probable space group: P B C M
;
_chemical_formula_sum "Si O2"
_cell_formula_units_Z 64
_cell_length_a 13.540647
_cell_length_b 9.903852
_cell_length_c 23.777057
_cell_angle_alpha 90.000000
_cell_angle_beta 90.000000
_cell_angle_gamma 90.000000
_cell_volume 3188.611859
_symmetry_space_group_name_H-M "P B C M"
_symmetry_group_IT_number 57
_symmetry_cell_setting 'orthorhombic'
loop_
_space_group_symop_operation_xyz
x,y,z
-x,-y,1/2+z
x,1/2-y,-z
-x,1/2+y,1/2-z
-x,-y,-z
x,y,1/2-z
-x,1/2+y,z
x,1/2-y,1/2+z
loop_
_atom_site_type_symbol
_atom_site_label
_atom_site_fract_x
_atom_site_fract_y
_atom_site_fract_z
Si Si1 0.490624 0.960323 0.112432
Si Si2 0.705696 0.517261 0.920088
Si Si3 0.518739 0.282041 0.686768
Si Si4 0.252970 0.836400 0.687230
Si Si5 0.004405 0.469579 0.567163
Si Si6 0.814944 0.708169 0.439172
Si Si7 0.292774 0.938104 0.043608
Si Si8 0.115653 0.780389 0.395652
O O1 0.484055 0.108143 0.140803
O O2 0.589443 0.951126 0.076271
O O3 0.513031 0.862857 0.164928
O O4 0.396335 0.914207 0.075568
O O5 0.730415 0.443410 0.862253
O O6 0.770117 0.653046 0.918075
O O7 0.716997 0.427547 0.976351
O O8 0.484824 0.314847 0.750000
O O9 0.638130 0.271028 0.688422
O O10 0.233149 0.888575 0.750000
O O11 0.163877 0.741819 0.665691
O O12 0.097600 0.378602 0.587140
O O13 0.024602 0.614091 0.596787
O O14 0.000000 0.500000 0.500000
O O15 0.915780 0.367977 0.582061
O O16 0.856575 0.750000 0.500000
O O17 0.729444 0.597379 0.446531
O O18 0.205061 0.849373 0.069823
#
# Coordination Sequence:
#
# PCOD9438630 Si02
#       8
#     8   8   8   8   8   8   8   8
#     4  11  20  38  57  94 127 169 217 261 309 374
#     4  10  22  36  63  90 134 172 206 256 321 383
#     4  10  21  38  62  88 123 173 226 264 302 361
#     4  10  23  42  63  89 123 170 222 267 313 375
#     4  11  24  37  65  98 128 155 206 255 321 391
#     4   9  19  36  55  87 129 164 195 253 312 376
#     4  10  21  37  60  94 133 169 208 255 328 384
#     4  11  24  41  65  96 126 166 209 262 322 379
#
# _framework density 20.071429999999999
#
# number of rings (size 3 to 8) (size 9 to 14) (size 15 to 20)
#    0.000    1.750    1.250    2.625    8.750    0.500 
#    0.000    1.875    0.000    3.000    0.000    0.000 
#    0.000    0.000    0.000    0.000    0.000    0.000 
#
# Total GULP energy -356635.094258 kJ/mol
# GULP energy per Si atom -5572.423348 kJ/mol
# Density = 2.002575 g / cm^3
# Si number density = 20.071430 Si / 1000 Ang^3
#
#
#
# Elastic Constant Matrix: (Units=GPa)
#
#
# Indices 1 2 3 4 5 6 
#
# 1 78.3556 21.0154 30.9929 0.0000 0.0000 0.0000
# 2 21.0154 75.2481 21.2592 0.0000 0.0000 0.0000
# 3 30.9929 21.2592 100.8643 0.0000 0.0000 0.0000
# 4 0.0000 0.0000 0.0000 16.3423 0.0000 0.0000
# 5 0.0000 0.0000 0.0000 0.0000 21.0133 0.0000
# 6 0.0000 0.0000 0.0000 0.0000 0.0000 29.7170
#
#
#
# Elastic Compliance Matrix: (Units=1/GPa)
#
#
# Indices 1 2 3 4 5 6 
#
# 1 0.015182 -0.003107 -0.004010 0.000000 0.000000 0.000000
# 2 -0.003107 0.014767 -0.002158 0.000000 0.000000 0.000000
# 3 -0.004010 -0.002158 0.011601 0.000000 0.000000 0.000000
# 4 0.000000 0.000000 0.000000 0.061191 0.000000 0.000000
# 5 0.000000 0.000000 0.000000 0.000000 0.047589 0.000000
# 6 0.000000 0.000000 0.000000 0.000000 0.000000 0.033651
#
#
# Mechanical properties :
#
#
# Convention : Reuss Voigt Hill
#
# Bulk Modulus (GPa) = 43.47796 44.55589 44.01692
# Shear Modulus (GPa) = 23.78723 25.49455 24.64089
#
# Velocity S-wave (km/s) = 3.44630 3.56784 3.50760
# Velocity P-wave (km/s) = 6.12737 6.26255 6.19533
#
# Compressibility (1/GPa) = 0.02300016
#
# Stress axis : x y z
#
# Youngs Moduli (GPa) = 65.86827 67.71996 86.19745
#
# Poissons Ratio (x) = 0.21041 0.34566
# Poissons Ratio (y) = 0.20466 0.18599
# Poissons Ratio (z) = 0.26414 0.14612
#
# Static dielectric constant tensor:
#      x y z
#    x 1.807240 0.000000 0.000000 
#    y 0.000000 1.712320 0.000000 
#    z 0.000000 0.000000 1.684540 
# 
# From -- ./inp_files/27469.got.cif
#   From: 2010.05.17/outbox.cif.g08.bks.cpg/sg57_14_cif.got.tgz:27469.got - 2010.06.03 13:58:18.
