data_PCOD9438079
_publ_section_title
;
Structure prediction by ZEFSAII (Michael W. Deem and Ramdas Pophale) SiO2 
 PCOD9438079
Probable space group: P B C M
;
_chemical_formula_sum "Si O2"
_cell_formula_units_Z 64
_cell_length_a 12.400915
_cell_length_b 19.383235
_cell_length_c 13.766178
_cell_angle_alpha 90.000000
_cell_angle_beta 90.000000
_cell_angle_gamma 90.000000
_cell_volume 3308.974136
_symmetry_space_group_name_H-M "P B C M"
_symmetry_group_IT_number 57
_symmetry_cell_setting 'orthorhombic'
loop_
_space_group_symop_operation_xyz
x,y,z
-x,-y,1/2+z
x,1/2-y,-z
-x,1/2+y,1/2-z
-x,-y,-z
x,y,1/2-z
-x,1/2+y,z
x,1/2-y,1/2+z
loop_
_atom_site_type_symbol
_atom_site_label
_atom_site_fract_x
_atom_site_fract_y
_atom_site_fract_z
Si Si1 0.152825 0.847493 0.132278
Si Si2 0.339170 0.435252 0.634014
Si Si3 0.028599 0.040625 0.868281
Si Si4 0.617448 0.404605 0.367782
Si Si5 0.912149 0.906524 0.631973
Si Si6 0.018044 0.241834 0.133440
Si Si7 0.796724 0.854796 0.366053
Si Si8 0.423873 0.168811 0.519516
O O1 0.157885 0.845846 0.250000
O O2 0.272106 0.866752 0.099667
O O3 0.092846 0.777594 0.101207
O O4 0.069953 0.908575 0.107956
O O5 0.351951 0.427556 0.750000
O O6 0.373074 0.513692 0.608357
O O7 0.212155 0.424233 0.611594
O O8 0.405388 0.376892 0.577226
O O9 0.033206 0.039354 0.750000
O O10 0.994556 0.965217 0.901587
O O11 0.140726 0.075580 0.898183
O O12 0.608893 0.400000 0.250000
O O13 0.518389 0.366852 0.418814
O O14 0.917315 0.905168 0.750000
O O15 0.950120 0.832571 0.594200
O O16 0.008781 0.235222 0.250000
O O17 0.117157 0.293784 0.117662
O O18 0.776994 0.858709 0.250000
O O19 0.687484 0.839280 0.421162
O O20 0.443329 0.250000 0.500000
#
# Coordination Sequence:
#
# PCOD9438079 Si02
#       8
#     8   8   8   8   8   8   8   8
#     4   8  13  26  50  80 108 143 187 227 272 335
#     4  10  21  38  62  87 114 152 203 253 292 345
#     4   8  13  25  51  81 110 143 184 225 269 337
#     4  10  20  38  65  87 110 154 201 241 291 350
#     4   9  14  25  50  85 114 142 184 234 286 338
#     4   8  14  24  48  82 117 149 181 226 280 339
#     4   9  18  34  54  81 116 153 187 226 284 349
#     4  12  25  38  57  85 120 152 193 248 300 351
#
# _framework density 19.341342000000001
#
# number of rings (size 3 to 8) (size 9 to 14) (size 15 to 20)
#    0.000    2.750    1.250    3.000    0.000    2.000 
#    0.000    0.625    5.500    3.000    0.000    0.000 
#    0.000    0.000    0.000    0.000    0.000    0.125 
#
# Total GULP energy -357270.563124 kJ/mol
# GULP energy per Si atom -5582.352549 kJ/mol
# Density = 1.929732 g / cm^3
# Si number density = 19.341342 Si / 1000 Ang^3
#
#
#
# Elastic Constant Matrix: (Units=GPa)
#
#
# Indices 1 2 3 4 5 6 
#
# 1 102.0228 84.2824 36.9390 0.0000 0.0000 0.0000
# 2 84.2824 168.3714 43.2756 0.0000 0.0000 0.0000
# 3 36.9390 43.2756 78.7373 0.0000 0.0000 0.0000
# 4 0.0000 0.0000 0.0000 21.8945 0.0000 0.0000
# 5 0.0000 0.0000 0.0000 0.0000 -0.4730 0.0000
# 6 0.0000 0.0000 0.0000 0.0000 0.0000 47.7929
#
#
#
# Elastic Compliance Matrix: (Units=1/GPa)
#
#
# Indices 1 2 3 4 5 6 
#
# 1 0.017736 -0.007848 -0.004007 0.000000 0.000000 0.000000
# 2 -0.007848 0.010389 -0.002028 0.000000 0.000000 0.000000
# 3 -0.004007 -0.002028 0.015695 0.000000 0.000000 0.000000
# 4 0.000000 0.000000 0.000000 0.045674 0.000000 0.000000
# 5 0.000000 0.000000 0.000000 0.000000 -2.114329 0.000000
# 6 0.000000 0.000000 0.000000 0.000000 0.000000 0.020924
#
#
# Mechanical properties :
#
#
# Convention : Reuss Voigt Hill
#
# Bulk Modulus (GPa) = 62.29292 75.34726 68.82009
# Shear Modulus (GPa) = -2.53705 26.15184 11.80740
#
# Velocity S-wave (km/s) = -1.14655 3.68111 2.47346
# Velocity P-wave (km/s) = 5.52488 7.55702 6.61940
#
# Compressibility (1/GPa) = 0.01605319
#
# Stress axis : x y z
#
# Youngs Moduli (GPa) = 56.38172 96.25369 63.71410
#
# Poissons Ratio (x) = 0.75543 0.25532
# Poissons Ratio (y) = 0.44250 0.12922
# Poissons Ratio (z) = 0.22593 0.19521
#
# Static dielectric constant tensor:
#      x y z
#    x 1.631310 0.000000 0.000000 
#    y 0.000000 1.680350 0.000000 
#    z 0.000000 0.000000 1.733530 
# 
# From -- ./inp_files/17999.got.cif
#   From: 2010.05.17/outbox.cif.g08.bks.cpg/sg57_9_cif.got.tgz:17999.got - 2010.06.03 13:58:18.
