data_PCOD9438280
_publ_section_title
;
Structure prediction by ZEFSAII (Michael W. Deem and Ramdas Pophale) SiO2 
 PCOD9438280
Probable space group: P B C M
;
_chemical_formula_sum "Si O2"
_cell_formula_units_Z 56
_cell_length_a 14.555032
_cell_length_b 11.712752
_cell_length_c 15.579330
_cell_angle_alpha 90.000000
_cell_angle_beta 90.000000
_cell_angle_gamma 90.000000
_cell_volume 2655.956080
_symmetry_space_group_name_H-M "P B C M"
_symmetry_group_IT_number 57
_symmetry_cell_setting 'orthorhombic'
loop_
_space_group_symop_operation_xyz
x,y,z
-x,-y,1/2+z
x,1/2-y,-z
-x,1/2+y,1/2-z
-x,-y,-z
x,y,1/2-z
-x,1/2+y,z
x,1/2-y,1/2+z
loop_
_atom_site_type_symbol
_atom_site_label
_atom_site_fract_x
_atom_site_fract_y
_atom_site_fract_z
Si Si1 0.679803 0.380217 0.352611
Si Si2 0.323993 0.626479 0.351584
Si Si3 0.203136 0.071625 0.649105
Si Si4 0.054688 0.120748 0.997665
Si Si5 0.329337 0.234510 0.399887
Si Si6 0.479892 0.050922 0.406539
Si Si7 0.819535 0.558029 0.347659
O O1 0.688340 0.374752 0.250000
O O2 0.670279 0.253560 0.388482
O O3 0.591564 0.458966 0.369457
O O4 0.773478 0.441634 0.381965
O O5 0.308781 0.634846 0.250000
O O6 0.238964 0.551150 0.383378
O O7 0.421640 0.566132 0.364186
O O8 0.175142 0.070689 0.750000
O O9 0.124363 0.115197 0.584496
O O10 0.296340 0.147969 0.641899
O O11 0.109976 0.110401 0.086522
O O12 0.011870 0.250000 0.000000
O O13 0.000000 0.000000 0.000000
O O14 0.304028 0.250000 0.500000
O O15 0.429080 0.174816 0.401557
O O16 0.266190 0.143979 0.350895
O O17 0.500000 0.000000 0.500000
O O18 0.853077 0.545944 0.250000
#
# Coordination Sequence:
#
# PCOD9438280 Si02
#       7
#     8   8   8   8   8   8   8
#     4   9  21  40  58  84 121 164 219 278 329 390
#     4  10  23  39  58  87 128 171 221 277 328 387
#     4  11  23  43  70  96 129 179 224 273 337 404
#     4  12  27  47  71 105 139 168 217 279 342 424
#     4  11  20  37  63  92 127 167 222 271 315 387
#     4  11  24  34  55  89 127 174 222 271 331 382
#     4  10  20  41  71  93 121 168 214 262 330 398
#
# _framework density 21.084686000000001
#
# number of rings (size 3 to 8) (size 9 to 14) (size 15 to 20)
#    0.000    1.429    2.857    1.714    6.000    3.429 
#    0.000    0.000    0.000    0.000    0.000    0.000 
#    0.000    0.000    0.000    0.000    0.000    0.000 
#
# Total GULP energy -312053.439463 kJ/mol
# GULP energy per Si atom -5572.382848 kJ/mol
# Density = 2.103670 g / cm^3
# Si number density = 21.084686 Si / 1000 Ang^3
#
#
#
# Elastic Constant Matrix: (Units=GPa)
#
#
# Indices 1 2 3 4 5 6 
#
# 1 38.9368 37.8095 16.2190 0.0000 0.0000 0.0000
# 2 37.8095 141.7787 12.0911 0.0000 0.0000 0.0000
# 3 16.2190 12.0911 74.3927 0.0000 0.0000 0.0000
# 4 0.0000 0.0000 0.0000 13.9921 0.0000 0.0000
# 5 0.0000 0.0000 0.0000 0.0000 9.3443 0.0000
# 6 0.0000 0.0000 0.0000 0.0000 0.0000 31.1319
#
#
#
# Elastic Compliance Matrix: (Units=1/GPa)
#
#
# Indices 1 2 3 4 5 6 
#
# 1 0.037662 -0.009475 -0.006671 0.000000 0.000000 0.000000
# 2 -0.009475 0.009536 0.000516 0.000000 0.000000 0.000000
# 3 -0.006671 0.000516 0.014813 0.000000 0.000000 0.000000
# 4 0.000000 0.000000 0.000000 0.071469 0.000000 0.000000
# 5 0.000000 0.000000 0.000000 0.000000 0.107017 0.000000
# 6 0.000000 0.000000 0.000000 0.000000 0.000000 0.032121
#
#
# Mechanical properties :
#
#
# Convention : Reuss Voigt Hill
#
# Bulk Modulus (GPa) = 32.51971 43.03860 37.77916
# Shear Modulus (GPa) = 15.91706 23.49290 19.70498
#
# Velocity S-wave (km/s) = 2.75055 3.34161 3.06038
# Velocity P-wave (km/s) = 5.05413 5.94517 5.51766
#
# Compressibility (1/GPa) = 0.03075058
#
# Stress axis : x y z
#
# Youngs Moduli (GPa) = 26.55211 104.86612 67.50935
#
# Poissons Ratio (x) = 0.99358 0.45036
# Poissons Ratio (y) = 0.25157 -0.03482
# Poissons Ratio (z) = 0.17713 -0.05409
#
# Static dielectric constant tensor:
#      x y z
#    x 1.822740 0.000000 0.000000 
#    y 0.000000 1.899720 0.000000 
#    z 0.000000 0.000000 1.754040 
# 
# From -- ./inp_files/18551.got.cif
#   From: 2010.05.17/outbox.cif.g08.bks.cpg/sg57_10_cif.got.tgz:18551.got - 2010.06.03 13:58:18.
