data_PCOD9438104
_publ_section_title
;
Structure prediction by ZEFSAII (Michael W. Deem and Ramdas Pophale) SiO2 
 PCOD9438104
Probable space group: P B C M
;
_chemical_formula_sum "Si O2"
_cell_formula_units_Z 40
_cell_length_a 6.052103
_cell_length_b 15.741845
_cell_length_c 17.358253
_cell_angle_alpha 90.000000
_cell_angle_beta 90.000000
_cell_angle_gamma 90.000000
_cell_volume 1653.742762
_symmetry_space_group_name_H-M "P B C M"
_symmetry_group_IT_number 57
_symmetry_cell_setting 'orthorhombic'
loop_
_space_group_symop_operation_xyz
x,y,z
-x,-y,1/2+z
x,1/2-y,-z
-x,1/2+y,1/2-z
-x,-y,-z
x,y,1/2-z
-x,1/2+y,z
x,1/2-y,1/2+z
loop_
_atom_site_type_symbol
_atom_site_label
_atom_site_fract_x
_atom_site_fract_y
_atom_site_fract_z
Si Si1 0.556379 0.446765 0.250000
Si Si2 0.822243 0.595123 0.530701
Si Si3 0.438795 0.269676 0.412684
Si Si4 0.532703 0.743021 0.250000
Si Si5 0.146407 0.750000 0.500000
Si Si6 0.866537 0.529645 0.123313
Si Si7 0.178804 0.592984 0.250000
O O1 0.527076 0.344101 0.250000
O O2 0.708308 0.475262 0.177671
O O3 0.337316 0.507795 0.250000
O O4 0.634470 0.632693 0.586100
O O5 0.728400 0.569624 0.447286
O O6 0.011661 0.664321 0.511069
O O7 0.949503 0.523973 0.577664
O O8 0.356357 0.250000 0.500000
O O9 0.352536 0.230686 0.333425
O O10 0.693840 0.247674 0.425100
O O11 0.334667 0.675203 0.250000
O O12 0.014014 0.589536 0.177349
#
# Coordination Sequence:
#
# PCOD9438104 Si02
#       7
#     4   8   8   4   4   8   4
#     4  11  25  45  67 104 140 176 243 285 351 425
#     4  11  21  42  66  95 137 175 230 285 351 418
#     4  10  24  40  67 103 130 176 237 277 354 411
#     4  12  24  46  72 100 138 188 224 300 352 416
#     4  10  20  38  66  96 132 174 230 284 342 418
#     4  10  25  41  65  98 135 185 223 292 351 418
#     4  11  25  47  69 100 144 180 241 283 359 423
#
# _framework density 24.187559
#
# number of rings (size 3 to 8) (size 9 to 14) (size 15 to 20)
#    0.600    0.800    1.000    3.600    2.800    0.800 
#    0.000   10.000    0.000    0.000    0.000    0.000 
#    0.000    0.000    0.000    0.000    0.000    0.000 
#
# Total GULP energy -222984.635234 kJ/mol
# GULP energy per Si atom -5574.615881 kJ/mol
# Density = 2.413251 g / cm^3
# Si number density = 24.187559 Si / 1000 Ang^3
#
#
#
# Elastic Constant Matrix: (Units=GPa)
#
#
# Indices 1 2 3 4 5 6 
#
# 1 49.1418 36.6595 40.5323 0.0000 0.0000 0.0000
# 2 36.6595 96.3396 44.2900 0.0000 0.0000 0.0000
# 3 40.5323 44.2900 189.9959 0.0000 0.0000 0.0000
# 4 0.0000 0.0000 0.0000 25.8699 0.0000 0.0000
# 5 0.0000 0.0000 0.0000 0.0000 32.4436 0.0000
# 6 0.0000 0.0000 0.0000 0.0000 0.0000 49.3926
#
#
#
# Elastic Compliance Matrix: (Units=1/GPa)
#
#
# Indices 1 2 3 4 5 6 
#
# 1 0.031361 -0.009921 -0.004378 0.000000 0.000000 0.000000
# 2 -0.009921 0.014764 -0.001325 0.000000 0.000000 0.000000
# 3 -0.004378 -0.001325 0.006506 0.000000 0.000000 0.000000
# 4 0.000000 0.000000 0.000000 0.038655 0.000000 0.000000
# 5 0.000000 0.000000 0.000000 0.000000 0.030823 0.000000
# 6 0.000000 0.000000 0.000000 0.000000 0.000000 0.020246
#
#
# Mechanical properties :
#
#
# Convention : Reuss Voigt Hill
#
# Bulk Modulus (GPa) = 46.76479 64.27119 55.51799
# Shear Modulus (GPa) = 27.66546 35.80761 31.73654
#
# Velocity S-wave (km/s) = 3.38566 3.85179 3.62622
# Velocity P-wave (km/s) = 5.88726 6.81259 6.36676
#
# Compressibility (1/GPa) = 0.02138361
#
# Stress axis : x y z
#
# Youngs Moduli (GPa) = 31.88674 67.73051 153.70225
#
# Poissons Ratio (x) = 0.67196 0.67285
# Poissons Ratio (y) = 0.31635 0.20369
# Poissons Ratio (z) = 0.13959 0.08976
#
# Static dielectric constant tensor:
#      x y z
#    x 1.901040 0.000000 0.000000 
#    y 0.000000 2.135350 0.000000 
#    z 0.000000 0.000000 2.046180 
# 
# From -- ./inp_files/20061.got.cif
#   From: 2010.05.17/outbox.cif.g08.bks.cpg/sg57_11_cif.got.tgz:20061.got - 2010.06.03 13:58:18.
