data_PCOD9438774
_publ_section_title
;
Structure prediction by ZEFSAII (Michael W. Deem and Ramdas Pophale) SiO2 
 PCOD9438774
Probable space group: P B C M
;
_chemical_formula_sum "Si O2"
_cell_formula_units_Z 56
_cell_length_a 7.779723
_cell_length_b 17.003184
_cell_length_c 21.229763
_cell_angle_alpha 90.000000
_cell_angle_beta 90.000000
_cell_angle_gamma 90.000000
_cell_volume 2808.274358
_symmetry_space_group_name_H-M "P B C M"
_symmetry_group_IT_number 57
_symmetry_cell_setting 'orthorhombic'
loop_
_space_group_symop_operation_xyz
x,y,z
-x,-y,1/2+z
x,1/2-y,-z
-x,1/2+y,1/2-z
-x,-y,-z
x,y,1/2-z
-x,1/2+y,z
x,1/2-y,1/2+z
loop_
_atom_site_type_symbol
_atom_site_label
_atom_site_fract_x
_atom_site_fract_y
_atom_site_fract_z
Si Si1 0.598825 0.926043 0.177622
Si Si2 0.777045 0.796022 0.566737
Si Si3 0.372042 0.691012 0.440042
Si Si4 0.931072 0.585179 0.512752
Si Si5 0.629056 0.487731 0.556637
Si Si6 0.945614 0.659823 0.860972
Si Si7 0.693268 0.205937 0.820597
O O1 0.576075 0.950403 0.250000
O O2 0.794332 0.893310 0.168938
O O3 0.458811 0.856908 0.164831
O O4 0.566623 0.995524 0.127412
O O5 0.788641 0.750000 0.500000
O O6 0.577584 0.817487 0.571966
O O7 0.898187 0.869377 0.551593
O O8 0.850131 0.741576 0.621524
O O9 0.346368 0.750000 0.500000
O O10 0.303419 0.601982 0.449791
O O11 0.301930 0.731084 0.376885
O O12 0.748772 0.563412 0.544027
O O13 0.017126 0.630043 0.570582
O O14 0.000000 0.500000 0.500000
O O15 0.500000 0.500000 0.500000
O O16 0.117026 0.667931 0.820741
O O17 0.658288 0.237209 0.750000
#
# Coordination Sequence:
#
# PCOD9438774 Si02
#       7
#     8   8   8   8   8   8   8
#     4  10  22  42  63  85 118 160 201 250 307 360
#     4   9  18  36  55  84 123 158 196 246 301 358
#     4  11  22  37  63  89 122 160 200 249 302 363
#     4  10  22  34  54  91 125 155 199 253 312 358
#     4  11  22  37  61  90 118 155 199 254 302 356
#     4  10  21  38  61  85 120 161 203 249 297 360
#     4  11  24  39  63  92 119 160 209 246 300 373
#
# _framework density 19.941071999999998
#
# number of rings (size 3 to 8) (size 9 to 14) (size 15 to 20)
#    0.000    1.714    2.857    1.286    6.000    1.143 
#    0.000    0.000    0.000    0.000    0.000    0.000 
#    0.000    0.000    0.000    0.000    0.000    0.000 
#
# Total GULP energy -311994.990749 kJ/mol
# GULP energy per Si atom -5571.339121 kJ/mol
# Density = 1.989569 g / cm^3
# Si number density = 19.941072 Si / 1000 Ang^3
#
#
#
# Elastic Constant Matrix: (Units=GPa)
#
#
# Indices 1 2 3 4 5 6 
#
# 1 64.3501 -1.2974 8.7878 0.0000 0.0000 0.0000
# 2 -1.2974 81.3131 39.6653 0.0000 0.0000 0.0000
# 3 8.7878 39.6653 109.9205 0.0000 0.0000 0.0000
# 4 0.0000 0.0000 0.0000 27.0431 0.0000 0.0000
# 5 0.0000 0.0000 0.0000 0.0000 22.7224 0.0000
# 6 0.0000 0.0000 0.0000 0.0000 0.0000 28.1903
#
#
#
# Elastic Compliance Matrix: (Units=1/GPa)
#
#
# Indices 1 2 3 4 5 6 
#
# 1 0.015785 0.001053 -0.001642 0.000000 0.000000 0.000000
# 2 0.001053 0.014996 -0.005495 0.000000 0.000000 0.000000
# 3 -0.001642 -0.005495 0.011212 0.000000 0.000000 0.000000
# 4 0.000000 0.000000 0.000000 0.036978 0.000000 0.000000
# 5 0.000000 0.000000 0.000000 0.000000 0.044009 0.000000
# 6 0.000000 0.000000 0.000000 0.000000 0.000000 0.035473
#
#
# Mechanical properties :
#
#
# Convention : Reuss Voigt Hill
#
# Bulk Modulus (GPa) = 33.53018 38.87720 36.20369
# Shear Modulus (GPa) = 27.69103 29.48635 28.58869
#
# Velocity S-wave (km/s) = 3.73049 3.84953 3.79048
# Velocity P-wave (km/s) = 5.95034 6.26872 6.11160
#
# Compressibility (1/GPa) = 0.02982387
#
# Stress axis : x y z
#
# Youngs Moduli (GPa) = 63.34949 66.68598 89.19178
#
# Poissons Ratio (x) = -0.07021 0.14644
# Poissons Ratio (y) = -0.06669 0.49015
# Poissons Ratio (z) = 0.10401 0.36647
#
# Static dielectric constant tensor:
#      x y z
#    x 1.748880 0.000000 0.000000 
#    y 0.000000 1.765990 0.000000 
#    z 0.000000 0.000000 1.628150 
# 
# From -- ./inp_files/24517.got.cif
#   From: 2010.05.17/outbox.cif.g08.bks.cpg/sg57_13_cif.got.tgz:24517.got - 2010.06.03 13:58:18.
