data_PCOD9438610
_publ_section_title
;
Structure prediction by ZEFSAII (Michael W. Deem and Ramdas Pophale) SiO2 
 PCOD9438610
Probable space group: P B C M
;
_chemical_formula_sum "Si O2"
_cell_formula_units_Z 48
_cell_length_a 10.207266
_cell_length_b 16.636366
_cell_length_c 13.855386
_cell_angle_alpha 90.000000
_cell_angle_beta 90.000000
_cell_angle_gamma 90.000000
_cell_volume 2352.808217
_symmetry_space_group_name_H-M "P B C M"
_symmetry_group_IT_number 57
_symmetry_cell_setting 'orthorhombic'
loop_
_space_group_symop_operation_xyz
x,y,z
-x,-y,1/2+z
x,1/2-y,-z
-x,1/2+y,1/2-z
-x,-y,-z
x,y,1/2-z
-x,1/2+y,z
x,1/2-y,1/2+z
loop_
_atom_site_type_symbol
_atom_site_label
_atom_site_fract_x
_atom_site_fract_y
_atom_site_fract_z
Si Si1 0.113696 0.885536 0.538418
Si Si2 0.451011 0.815266 0.363723
Si Si3 0.643258 0.025148 0.964508
Si Si4 0.826208 0.882919 0.545445
Si Si5 0.176295 0.770756 0.361563
Si Si6 0.251911 0.286268 0.365391
O O1 0.243861 0.940364 0.537209
O O2 0.120367 0.836143 0.436385
O O3 0.116694 0.815598 0.618161
O O4 0.969884 0.921642 0.553089
O O5 0.464037 0.817289 0.250000
O O6 0.394802 0.900989 0.396116
O O7 0.330195 0.757517 0.386974
O O8 0.594470 0.789933 0.396606
O O9 0.715806 0.946532 0.923857
O O10 0.500000 0.000000 0.000000
O O11 0.807123 0.800079 0.604795
O O12 0.809413 0.854660 0.433809
O O13 0.162997 0.795109 0.250000
O O14 0.238047 0.298932 0.250000
#
# Coordination Sequence:
#
# PCOD9438610 Si02
#       6
#     8   8   8   8   8   8
#     4  10  22  36  57  88 119 147 193 239 280 346
#     4   9  19  36  58  86 113 148 197 241 281 336
#     4  11  22  39  59  80 115 157 190 231 287 339
#     4  11  23  37  59  87 115 153 190 233 295 344
#     4   9  18  35  60  85 114 151 192 238 290 335
#     4  10  21  37  60  88 117 146 194 245 286 340
#
# _framework density 20.401153999999998
#
# number of rings (size 3 to 8) (size 9 to 14) (size 15 to 20)
#    0.000    2.000    1.667    2.500    2.333    4.667 
#    0.000    1.667    0.000    4.000    0.000    0.000 
#    0.000    0.000    0.000    0.000    0.000    0.000 
#
# Total GULP energy -267353.612809 kJ/mol
# GULP energy per Si atom -5569.866934 kJ/mol
# Density = 2.035472 g / cm^3
# Si number density = 20.401154 Si / 1000 Ang^3
#
#
#
# Elastic Constant Matrix: (Units=GPa)
#
#
# Indices 1 2 3 4 5 6 
#
# 1 169.5447 20.9814 -2.5449 0.0000 0.0000 0.0000
# 2 20.9814 56.2192 -8.4041 0.0000 0.0000 0.0000
# 3 -2.5449 -8.4041 67.8978 0.0000 0.0000 0.0000
# 4 0.0000 0.0000 0.0000 10.8863 0.0000 0.0000
# 5 0.0000 0.0000 0.0000 0.0000 20.3680 0.0000
# 6 0.0000 0.0000 0.0000 0.0000 0.0000 23.6582
#
#
#
# Elastic Compliance Matrix: (Units=1/GPa)
#
#
# Indices 1 2 3 4 5 6 
#
# 1 0.006184 -0.002316 -0.000055 0.000000 0.000000 0.000000
# 2 -0.002316 0.018990 0.002264 0.000000 0.000000 0.000000
# 3 -0.000055 0.002264 0.015006 0.000000 0.000000 0.000000
# 4 0.000000 0.000000 0.000000 0.091858 0.000000 0.000000
# 5 0.000000 0.000000 0.000000 0.000000 0.049097 0.000000
# 6 0.000000 0.000000 0.000000 0.000000 0.000000 0.042269
#
#
# Mechanical properties :
#
#
# Convention : Reuss Voigt Hill
#
# Bulk Modulus (GPa) = 25.02132 34.85848 29.93990
# Shear Modulus (GPa) = 21.10235 29.89112 25.49673
#
# Velocity S-wave (km/s) = 3.21965 3.83190 3.53904
# Velocity P-wave (km/s) = 5.11007 6.05818 5.60421
#
# Compressibility (1/GPa) = 0.03996591
#
# Stress axis : x y z
#
# Youngs Moduli (GPa) = 161.70905 52.65845 66.63931
#
# Poissons Ratio (x) = 0.12196 0.00366
# Poissons Ratio (y) = 0.37453 -0.15085
# Poissons Ratio (z) = 0.00888 -0.11920
#
# Static dielectric constant tensor:
#      x y z
#    x 1.828490 0.000000 0.000000 
#    y 0.000000 1.719990 0.000000 
#    z 0.000000 0.000000 1.710190 
# 
# From -- ./inp_files/16355.got.cif
#   From: 2010.05.17/outbox.cif.g08.bks.cpg/sg57_9_cif.got.tgz:16355.got - 2010.06.03 13:58:18.
