data_PCOD9438461
_publ_section_title
;
Structure prediction by ZEFSAII (Michael W. Deem and Ramdas Pophale) SiO2 
 PCOD9438461
Probable space group: P B C M
;
_chemical_formula_sum "Si O2"
_cell_formula_units_Z 64
_cell_length_a 23.225907
_cell_length_b 9.098428
_cell_length_c 14.470250
_cell_angle_alpha 90.000000
_cell_angle_beta 90.000000
_cell_angle_gamma 90.000000
_cell_volume 3057.842270
_symmetry_space_group_name_H-M "P B C M"
_symmetry_group_IT_number 57
_symmetry_cell_setting 'orthorhombic'
loop_
_space_group_symop_operation_xyz
x,y,z
-x,-y,1/2+z
x,1/2-y,-z
-x,1/2+y,1/2-z
-x,-y,-z
x,y,1/2-z
-x,1/2+y,z
x,1/2-y,1/2+z
loop_
_atom_site_type_symbol
_atom_site_label
_atom_site_fract_x
_atom_site_fract_y
_atom_site_fract_z
Si Si1 0.423274 0.114953 0.861738
Si Si2 0.034078 0.641002 0.912479
Si Si3 0.085456 0.096146 0.964687
Si Si4 0.532366 0.292178 0.638056
Si Si5 0.864511 0.339236 0.852165
Si Si6 0.689892 0.595375 0.980985
Si Si7 0.737614 0.155055 0.356067
Si Si8 0.360238 0.903157 0.141655
O O1 0.416500 0.116346 0.750000
O O2 0.468963 0.240152 0.888497
O O3 0.362959 0.129047 0.911981
O O4 0.449795 0.955991 0.888707
O O5 0.084070 0.720515 0.855573
O O6 0.966598 0.622683 0.890062
O O7 0.031097 0.750000 0.000000
O O8 0.055875 0.483405 0.947098
O O9 0.125716 0.971236 0.923318
O O10 0.109812 0.250000 0.000000
O O11 0.533955 0.290657 0.750000
O O12 0.579877 0.171235 0.609965
O O13 0.864560 0.404463 0.750000
O O14 0.800885 0.274944 0.868592
O O15 0.727566 0.472594 0.929859
O O16 0.720444 0.750000 0.000000
O O17 0.662251 0.528237 0.073915
O O18 0.734200 0.098174 0.250000
O O19 0.687042 0.273368 0.364438
O O20 0.365467 0.947924 0.250000
#
# Coordination Sequence:
#
# PCOD9438461 Si02
#       8
#     8   8   8   8   8   8   8   8
#     4  10  21  39  61  88 123 160 195 239 299 360
#     4   8  16  32  53  79 114 157 198 231 275 335
#     4   9  17  32  54  82 121 160 191 232 288 348
#     4   9  19  36  60  87 118 156 193 237 294 348
#     4  10  21  36  59  89 115 152 201 246 294 346
#     4  12  26  39  59  93 119 155 193 246 313 366
#     4  10  22  44  66  82 113 157 206 256 297 353
#     4  10  22  42  63  85 115 156 204 250 294 353
#
# _framework density 20.929790000000001
#
# number of rings (size 3 to 8) (size 9 to 14) (size 15 to 20)
#    0.000    2.250    1.250    1.500    1.750    5.500 
#    0.000    0.625    0.000    3.000    0.000    0.000 
#    0.000    0.000    0.000    0.000    0.000    0.000 
#
# Total GULP energy -357124.219898 kJ/mol
# GULP energy per Si atom -5580.065936 kJ/mol
# Density = 2.088215 g / cm^3
# Si number density = 20.929790 Si / 1000 Ang^3
#
#
#
# Elastic Constant Matrix: (Units=GPa)
#
#
# Indices 1 2 3 4 5 6 
#
# 1 73.7202 -14.4067 8.3435 0.0000 0.0000 0.0000
# 2 -14.4067 69.6505 16.4537 0.0000 0.0000 0.0000
# 3 8.3435 16.4537 60.3899 0.0000 0.0000 0.0000
# 4 0.0000 0.0000 0.0000 19.6071 0.0000 0.0000
# 5 0.0000 0.0000 0.0000 0.0000 39.7836 0.0000
# 6 0.0000 0.0000 0.0000 0.0000 0.0000 20.3458
#
#
#
# Elastic Compliance Matrix: (Units=1/GPa)
#
#
# Indices 1 2 3 4 5 6 
#
# 1 0.014642 0.003748 -0.003044 0.000000 0.000000 0.000000
# 2 0.003748 0.016304 -0.004960 0.000000 0.000000 0.000000
# 3 -0.003044 -0.004960 0.018331 0.000000 0.000000 0.000000
# 4 0.000000 0.000000 0.000000 0.051002 0.000000 0.000000
# 5 0.000000 0.000000 0.000000 0.000000 0.025136 0.000000
# 6 0.000000 0.000000 0.000000 0.000000 0.000000 0.049150
#
#
# Mechanical properties :
#
#
# Convention : Reuss Voigt Hill
#
# Bulk Modulus (GPa) = 24.53128 24.94905 24.74017
# Shear Modulus (GPa) = 25.42381 28.83863 27.13122
#
# Velocity S-wave (km/s) = 3.48906 3.71600 3.60432
# Velocity P-wave (km/s) = 5.28939 5.50979 5.40071
#
# Compressibility (1/GPa) = 0.04076428
#
# Stress axis : x y z
#
# Youngs Moduli (GPa) = 68.29814 61.33359 54.55237
#
# Poissons Ratio (x) = -0.22985 0.16606
# Poissons Ratio (y) = -0.25595 0.27058
# Poissons Ratio (z) = 0.20790 0.30421
#
# Static dielectric constant tensor:
#      x y z
#    x 1.788470 0.000000 0.000000 
#    y 0.000000 1.739980 0.000000 
#    z 0.000000 0.000000 1.842600 
# 
# From -- ./inp_files/19536.got.cif
#   From: 2010.05.17/outbox.cif.g08.bks.cpg/sg57_10_cif.got.tgz:19536.got - 2010.06.03 13:58:18.
