data_PCOD9438965
_publ_section_title
;
Structure prediction by ZEFSAII (Michael W. Deem and Ramdas Pophale) SiO2 
 PCOD9438965
Probable space group: P B C M
;
_chemical_formula_sum "Si O2"
_cell_formula_units_Z 36
_cell_length_a 21.602615
_cell_length_b 9.134249
_cell_length_c 9.180924
_cell_angle_alpha 90.000000
_cell_angle_beta 90.000000
_cell_angle_gamma 90.000000
_cell_volume 1811.613567
_symmetry_space_group_name_H-M "P B C M"
_symmetry_group_IT_number 57
_symmetry_cell_setting 'orthorhombic'
loop_
_space_group_symop_operation_xyz
x,y,z
-x,-y,1/2+z
x,1/2-y,-z
-x,1/2+y,1/2-z
-x,-y,-z
x,y,1/2-z
-x,1/2+y,z
x,1/2-y,1/2+z
loop_
_atom_site_type_symbol
_atom_site_label
_atom_site_fract_x
_atom_site_fract_y
_atom_site_fract_z
Si Si1 0.002290 0.250000 0.000000
Si Si2 0.322434 0.093749 0.077357
Si Si3 0.198769 0.091412 0.923029
Si Si4 0.910784 0.494361 0.095404
Si Si5 0.553229 0.093824 0.577584
O O1 0.957069 0.358193 0.086379
O O2 0.047071 0.139612 0.085310
O O3 0.310266 0.115302 0.250000
O O4 0.381763 0.990920 0.062059
O O5 0.334906 0.250000 0.000000
O O6 0.261726 0.032506 0.995767
O O7 0.204390 0.106149 0.750000
O O8 0.189679 0.250000 0.000000
O O9 0.138778 0.998024 0.966623
O O10 0.876895 0.494535 0.250000
O O11 0.556566 0.250000 0.500000
O O12 0.540056 0.109850 0.750000
O O13 0.500000 0.000000 0.500000
#
# Coordination Sequence:
#
# PCOD9438965 Si02
#       5
#     4   8   8   8   8
#     4  10  24  38  62  90 118 156 198 248 310 366
#     4  10  21  39  63  91 122 162 207 255 306 362
#     4  11  22  37  61  89 119 160 205 252 307 365
#     4  11  22  40  62  88 120 156 201 252 304 369
#     4  11  24  41  65  96 131 170 210 256 307 363
#
# _framework density 19.871787000000001
#
# number of rings (size 3 to 8) (size 9 to 14) (size 15 to 20)
#    0.000    1.333    1.111    6.000    0.000    9.778 
#    2.000    0.000    0.000    0.000    0.000    0.000 
#    0.000    0.000    0.000    0.000    0.000    0.000 
#
# Total GULP energy -201114.236927 kJ/mol
# GULP energy per Si atom -5586.506581 kJ/mol
# Density = 1.982656 g / cm^3
# Si number density = 19.871787 Si / 1000 Ang^3
#
#
#
# Elastic Constant Matrix: (Units=GPa)
#
#
# Indices 1 2 3 4 5 6 
#
# 1 129.4561 49.1501 84.1396 0.0000 0.0000 0.0000
# 2 49.1501 97.6013 54.2355 0.0000 0.0000 0.0000
# 3 84.1396 54.2355 189.4874 0.0000 0.0000 0.0000
# 4 0.0000 0.0000 0.0000 12.5098 0.0000 0.0000
# 5 0.0000 0.0000 0.0000 0.0000 25.5796 0.0000
# 6 0.0000 0.0000 0.0000 0.0000 0.0000 23.7569
#
#
#
# Elastic Compliance Matrix: (Units=1/GPa)
#
#
# Indices 1 2 3 4 5 6 
#
# 1 0.011843 -0.003617 -0.004223 0.000000 0.000000 0.000000
# 2 -0.003617 0.013288 -0.002197 0.000000 0.000000 0.000000
# 3 -0.004223 -0.002197 0.007782 0.000000 0.000000 0.000000
# 4 0.000000 0.000000 0.000000 0.079937 0.000000 0.000000
# 5 0.000000 0.000000 0.000000 0.000000 0.039094 0.000000
# 6 0.000000 0.000000 0.000000 0.000000 0.000000 0.042093
#
#
# Mechanical properties :
#
#
# Convention : Reuss Voigt Hill
#
# Bulk Modulus (GPa) = 77.89764 87.95503 82.92634
# Shear Modulus (GPa) = 22.89469 27.63724 25.26596
#
# Velocity S-wave (km/s) = 3.39797 3.73336 3.56961
# Velocity P-wave (km/s) = 7.39460 7.93356 7.66882
#
# Compressibility (1/GPa) = 0.01283736
#
# Stress axis : x y z
#
# Youngs Moduli (GPa) = 84.43904 75.25475 128.50696
#
# Poissons Ratio (x) = 0.27219 0.54274
# Poissons Ratio (y) = 0.30541 0.28237
# Poissons Ratio (z) = 0.35662 0.16536
#
# Static dielectric constant tensor:
#      x y z
#    x 1.697320 0.000000 0.000000 
#    y 0.000000 1.682950 0.000000 
#    z 0.000000 0.000000 1.720590 
# 
# From -- ./inp_files/7645.got.cif
#   From: 2010.05.17/outbox.cif.g08.bks.cpg/sg57_4_cif.got.tgz:7645.got - 2010.06.03 13:58:18.
