data_PCOD9438387
_publ_section_title
;
Structure prediction by ZEFSAII (Michael W. Deem and Ramdas Pophale) SiO2 
 PCOD9438387
Probable space group: P B C M
;
_chemical_formula_sum "Si O2"
_cell_formula_units_Z 64
_cell_length_a 5.381937
_cell_length_b 28.998172
_cell_length_c 18.366669
_cell_angle_alpha 90.000000
_cell_angle_beta 90.000000
_cell_angle_gamma 90.000000
_cell_volume 2866.418714
_symmetry_space_group_name_H-M "P B C M"
_symmetry_group_IT_number 57
_symmetry_cell_setting 'orthorhombic'
loop_
_space_group_symop_operation_xyz
x,y,z
-x,-y,1/2+z
x,1/2-y,-z
-x,1/2+y,1/2-z
-x,-y,-z
x,y,1/2-z
-x,1/2+y,z
x,1/2-y,1/2+z
loop_
_atom_site_type_symbol
_atom_site_label
_atom_site_fract_x
_atom_site_fract_y
_atom_site_fract_z
Si Si1 0.536277 0.654840 0.473021
Si Si2 0.828841 0.197459 0.672752
Si Si3 0.219536 0.986721 0.917343
Si Si4 0.505497 0.711128 0.335533
Si Si5 0.103241 0.077394 0.508101
Si Si6 0.731382 0.109654 0.608983
Si Si7 0.175687 0.228608 0.935794
Si Si8 0.301533 0.991294 0.163382
O O1 0.435203 0.671464 0.394285
O O2 0.373315 0.628893 0.532887
O O3 0.620083 0.701408 0.516805
O O4 0.762162 0.618290 0.464860
O O5 0.959495 0.199019 0.750000
O O6 0.679286 0.244837 0.663978
O O7 0.675676 0.150696 0.665221
O O8 0.020354 0.192650 0.608405
O O9 0.470674 0.980174 0.872001
O O10 0.971334 0.996484 0.868661
O O11 0.131924 0.943461 0.964982
O O12 0.253313 0.030726 0.971586
O O13 0.538458 0.698053 0.250000
O O14 0.744275 0.734063 0.375527
O O15 0.013713 0.096979 0.585899
O O16 0.637440 0.061513 0.640821
O O17 0.009766 0.250000 0.000000
O O18 0.298503 0.996174 0.250000
#
# Coordination Sequence:
#
# PCOD9438387 Si02
#       8
#     8   8   8   8   8   8   8   8
#     4  11  21  38  61  89 118 161 212 265 311 383
#     4  11  22  36  55  87 124 159 200 259 324 376
#     4  10  23  40  67  97 129 168 214 263 331 393
#     4  10  23  39  56  82 120 164 205 261 325 375
#     4  10  22  39  63  93 122 157 211 270 320 381
#     4  11  22  36  61  92 123 159 208 262 315 386
#     4  10  21  35  59  84 114 159 210 256 308 378
#     4  11  23  42  64  95 136 173 209 261 328 395
#
# _framework density 22.327514999999998
#
# number of rings (size 3 to 8) (size 9 to 14) (size 15 to 20)
#    0.000    1.500    3.750    1.125    3.500    1.500 
#    0.000    2.500    0.000    0.000    0.000    0.000 
#    0.000    0.000    0.000    0.000    0.000    0.000 
#
# Total GULP energy -356620.443254 kJ/mol
# GULP energy per Si atom -5572.194426 kJ/mol
# Density = 2.227670 g / cm^3
# Si number density = 22.327515 Si / 1000 Ang^3
#
#
#
# Elastic Constant Matrix: (Units=GPa)
#
#
# Indices 1 2 3 4 5 6 
#
# 1 46.4223 4.6138 30.3534 0.0000 0.0000 0.0000
# 2 4.6138 72.7137 35.7614 0.0000 0.0000 0.0000
# 3 30.3534 35.7614 165.3691 0.0000 0.0000 0.0000
# 4 0.0000 0.0000 0.0000 8.4593 0.0000 0.0000
# 5 0.0000 0.0000 0.0000 0.0000 28.1634 0.0000
# 6 0.0000 0.0000 0.0000 0.0000 0.0000 25.7273
#
#
#
# Elastic Compliance Matrix: (Units=1/GPa)
#
#
# Indices 1 2 3 4 5 6 
#
# 1 0.024514 0.000736 -0.004659 0.000000 0.000000 0.000000
# 2 0.000736 0.015411 -0.003468 0.000000 0.000000 0.000000
# 3 -0.004659 -0.003468 0.007652 0.000000 0.000000 0.000000
# 4 0.000000 0.000000 0.000000 0.118212 0.000000 0.000000
# 5 0.000000 0.000000 0.000000 0.000000 0.035507 0.000000
# 6 0.000000 0.000000 0.000000 0.000000 0.000000 0.038869
#
#
# Mechanical properties :
#
#
# Convention : Reuss Voigt Hill
#
# Bulk Modulus (GPa) = 30.49124 47.32914 38.91019
# Shear Modulus (GPa) = 18.80546 26.72177 22.76362
#
# Velocity S-wave (km/s) = 2.90531 3.46325 3.19648
# Velocity P-wave (km/s) = 4.99404 6.10211 5.57567
#
# Compressibility (1/GPa) = 0.03279630
#
# Stress axis : x y z
#
# Youngs Moduli (GPa) = 40.79246 64.88711 130.68318
#
# Poissons Ratio (x) = -0.04774 0.60881
# Poissons Ratio (y) = -0.03001 0.45318
# Poissons Ratio (z) = 0.19004 0.22501
#
# Static dielectric constant tensor:
#      x y z
#    x 1.952390 0.000000 0.000000 
#    y 0.000000 1.938620 0.000000 
#    z 0.000000 0.000000 1.833130 
# 
# From -- ./inp_files/20364.got.cif
#   From: 2010.05.17/outbox.cif.g08.bks.cpg/sg57_11_cif.got.tgz:20364.got - 2010.06.03 13:58:18.
