data_PCOD9438602
_publ_section_title
;
Structure prediction by ZEFSAII (Michael W. Deem and Ramdas Pophale) SiO2 
 PCOD9438602
Probable space group: P B C M
;
_chemical_formula_sum "Si O2"
_cell_formula_units_Z 56
_cell_length_a 10.159474
_cell_length_b 12.497845
_cell_length_c 18.518868
_cell_angle_alpha 90.000000
_cell_angle_beta 90.000000
_cell_angle_gamma 90.000000
_cell_volume 2351.369029
_symmetry_space_group_name_H-M "P B C M"
_symmetry_group_IT_number 57
_symmetry_cell_setting 'orthorhombic'
loop_
_space_group_symop_operation_xyz
x,y,z
-x,-y,1/2+z
x,1/2-y,-z
-x,1/2+y,1/2-z
-x,-y,-z
x,y,1/2-z
-x,1/2+y,z
x,1/2-y,1/2+z
loop_
_atom_site_type_symbol
_atom_site_label
_atom_site_fract_x
_atom_site_fract_y
_atom_site_fract_z
Si Si1 0.137568 0.175541 0.933452
Si Si2 0.259892 0.892078 0.666916
Si Si3 0.546134 0.971985 0.667949
Si Si4 0.009139 0.975722 0.334348
Si Si5 0.149034 0.993488 0.467544
Si Si6 0.618391 0.768649 0.580795
Si Si7 0.333596 0.671414 0.598351
O O1 0.024084 0.132901 0.879287
O O2 0.250355 0.224232 0.881607
O O3 0.082205 0.250000 0.000000
O O4 0.206656 0.075585 0.975236
O O5 0.270444 0.857187 0.750000
O O6 0.387053 0.969616 0.655696
O O7 0.267713 0.782006 0.622729
O O8 0.122962 0.953802 0.659223
O O9 0.566046 0.933256 0.750000
O O10 0.593397 0.886371 0.609287
O O11 0.626478 0.081256 0.657410
O O12 0.040309 0.960829 0.250000
O O13 0.121749 0.027680 0.384466
O O14 0.242909 0.890406 0.460025
O O15 0.000000 0.000000 0.500000
O O16 0.665324 0.750000 0.500000
O O17 0.481170 0.707164 0.579326
#
# Coordination Sequence:
#
# PCOD9438602 Si02
#       7
#     8   8   8   8   8   8   8
#     4  10  21  41  63  88 124 162 201 255 323 382
#     4   9  20  38  61  92 126 161 202 252 315 381
#     4  10  21  37  59  91 126 154 192 255 318 374
#     4  10  22  41  63  88 121 165 217 264 307 369
#     4  10  24  41  58  84 122 162 207 264 312 360
#     4  10  22  37  60  92 121 155 201 251 311 384
#     4  11  21  37  63  90 120 163 209 255 314 383
#
# _framework density 23.815913999999999
#
# number of rings (size 3 to 8) (size 9 to 14) (size 15 to 20)
#    0.000    2.000    0.000    3.000    0.000   11.429 
#    0.000    2.857    0.000    0.000    0.000    0.000 
#    0.000    0.000    0.000    0.000    0.000    0.000 
#
# Total GULP energy -311815.496170 kJ/mol
# GULP energy per Si atom -5568.133860 kJ/mol
# Density = 2.376171 g / cm^3
# Si number density = 23.815914 Si / 1000 Ang^3
#
#
#
# Elastic Constant Matrix: (Units=GPa)
#
#
# Indices 1 2 3 4 5 6 
#
# 1 76.3958 16.0380 3.4330 0.0000 0.0000 0.0000
# 2 16.0380 58.0363 33.1811 0.0000 0.0000 0.0000
# 3 3.4330 33.1811 110.9341 0.0000 0.0000 0.0000
# 4 0.0000 0.0000 0.0000 24.9613 0.0000 0.0000
# 5 0.0000 0.0000 0.0000 0.0000 24.1244 0.0000
# 6 0.0000 0.0000 0.0000 0.0000 0.0000 26.3759
#
#
#
# Elastic Compliance Matrix: (Units=1/GPa)
#
#
# Indices 1 2 3 4 5 6 
#
# 1 0.013965 -0.004357 0.000871 0.000000 0.000000 0.000000
# 2 -0.004357 0.022144 -0.006489 0.000000 0.000000 0.000000
# 3 0.000871 -0.006489 0.010928 0.000000 0.000000 0.000000
# 4 0.000000 0.000000 0.000000 0.040062 0.000000 0.000000
# 5 0.000000 0.000000 0.000000 0.000000 0.041452 0.000000
# 6 0.000000 0.000000 0.000000 0.000000 0.000000 0.037913
#
#
# Mechanical properties :
#
#
# Convention : Reuss Voigt Hill
#
# Bulk Modulus (GPa) = 36.91633 38.96336 37.93985
# Shear Modulus (GPa) = 25.58272 27.93993 26.76132
#
# Velocity S-wave (km/s) = 3.28103 3.42886 3.35576
# Velocity P-wave (km/s) = 5.46698 5.66320 5.56596
#
# Compressibility (1/GPa) = 0.02708828
#
# Stress axis : x y z
#
# Youngs Moduli (GPa) = 71.60594 45.15799 91.50625
#
# Poissons Ratio (x) = 0.19677 -0.07971
# Poissons Ratio (y) = 0.31201 0.59376
# Poissons Ratio (z) = -0.06238 0.29302
#
# Static dielectric constant tensor:
#      x y z
#    x 2.116770 0.000000 0.000000 
#    y 0.000000 2.128970 0.000000 
#    z 0.000000 0.000000 1.860800 
# 
# From -- ./inp_files/25057.got.cif
#   From: 2010.05.17/outbox.cif.g08.bks.cpg/sg57_13_cif.got.tgz:25057.got - 2010.06.03 13:58:18.
