data_PCOD9438099
_publ_section_title
;
Structure prediction by ZEFSAII (Michael W. Deem and Ramdas Pophale) SiO2 
 PCOD9438099
Probable space group: P B C M
;
_chemical_formula_sum "Si O2"
_cell_formula_units_Z 48
_cell_length_a 10.104251
_cell_length_b 13.901979
_cell_length_c 16.856739
_cell_angle_alpha 90.000000
_cell_angle_beta 90.000000
_cell_angle_gamma 90.000000
_cell_volume 2367.850707
_symmetry_space_group_name_H-M "P B C M"
_symmetry_group_IT_number 57
_symmetry_cell_setting 'orthorhombic'
loop_
_space_group_symop_operation_xyz
x,y,z
-x,-y,1/2+z
x,1/2-y,-z
-x,1/2+y,1/2-z
-x,-y,-z
x,y,1/2-z
-x,1/2+y,z
x,1/2-y,1/2+z
loop_
_atom_site_type_symbol
_atom_site_label
_atom_site_fract_x
_atom_site_fract_y
_atom_site_fract_z
Si Si1 0.159062 0.646786 0.900409
Si Si2 0.548660 0.088380 0.890501
Si Si3 0.891662 0.940037 0.155196
Si Si4 0.679306 0.786673 0.160449
Si Si5 0.796421 0.355237 0.909882
Si Si6 0.492556 0.132826 0.426171
O O1 0.302125 0.615114 0.868894
O O2 0.133808 0.758573 0.878622
O O3 0.040214 0.580362 0.872512
O O4 0.175522 0.640649 0.995828
O O5 0.440859 0.137258 0.835707
O O6 0.534616 0.974435 0.896182
O O7 0.510005 0.128021 0.978747
O O8 0.883985 0.939996 0.250000
O O9 0.800525 0.850208 0.127296
O O10 0.839054 0.042636 0.124979
O O11 0.709445 0.752169 0.250000
O O12 0.622562 0.701561 0.105855
O O13 0.639328 0.338433 0.896864
#
# Coordination Sequence:
#
# PCOD9438099 Si02
#       6
#     8   8   8   8   8   8
#     4  10  22  40  64  93 121 158 214 261 303 372
#     4  10  20  39  64  92 118 158 212 260 305 358
#     4  11  25  42  59  90 133 168 204 253 314 382
#     4  11  23  38  59  91 128 163 204 247 308 380
#     4  10  20  41  66  88 122 163 207 259 317 364
#     4  10  20  38  66  93 123 159 207 266 305 359
#
# _framework density 20.271549
#
# number of rings (size 3 to 8) (size 9 to 14) (size 15 to 20)
#    0.000    1.667    3.333    1.000    0.000    4.000 
#    6.000    1.667    0.000    0.000    0.000    0.000 
#    0.000    0.000    0.000    0.000    0.000    0.000 
#
# Total GULP energy -268036.190541 kJ/mol
# GULP energy per Si atom -5584.087303 kJ/mol
# Density = 2.022541 g / cm^3
# Si number density = 20.271549 Si / 1000 Ang^3
#
#
#
# Elastic Constant Matrix: (Units=GPa)
#
#
# Indices 1 2 3 4 5 6 
#
# 1 73.9236 17.6633 8.7533 0.0000 0.0000 0.0000
# 2 17.6633 91.2348 27.3573 0.0000 0.0000 0.0000
# 3 8.7533 27.3573 27.5527 0.0000 0.0000 0.0000
# 4 0.0000 0.0000 0.0000 25.3290 0.0000 0.0000
# 5 0.0000 0.0000 0.0000 0.0000 6.0534 0.0000
# 6 0.0000 0.0000 0.0000 0.0000 0.0000 33.9332
#
#
#
# Elastic Compliance Matrix: (Units=1/GPa)
#
#
# Indices 1 2 3 4 5 6 
#
# 1 0.014309 -0.002004 -0.002556 0.000000 0.000000 0.000000
# 2 -0.002004 0.015888 -0.015139 0.000000 0.000000 0.000000
# 3 -0.002556 -0.015139 0.052138 0.000000 0.000000 0.000000
# 4 0.000000 0.000000 0.000000 0.039480 0.000000 0.000000
# 5 0.000000 0.000000 0.000000 0.000000 0.165197 0.000000
# 6 0.000000 0.000000 0.000000 0.000000 0.000000 0.029470
#
#
# Mechanical properties :
#
#
# Convention : Reuss Voigt Hill
#
# Bulk Modulus (GPa) = 23.28995 33.36211 28.32603
# Shear Modulus (GPa) = 13.50648 22.32558 17.91603
#
# Velocity S-wave (km/s) = 2.58404 3.32222 2.97611
# Velocity P-wave (km/s) = 4.51851 5.58655 5.08067
#
# Compressibility (1/GPa) = 0.04293697
#
# Stress axis : x y z
#
# Youngs Moduli (GPa) = 69.88636 62.93993 19.17991
#
# Poissons Ratio (x) = 0.12611 0.04903
# Poissons Ratio (y) = 0.14003 0.29036
# Poissons Ratio (z) = 0.17865 0.95284
#
# Static dielectric constant tensor:
#      x y z
#    x 1.693460 0.000000 0.000000 
#    y 0.000000 1.725600 0.000000 
#    z 0.000000 0.000000 1.718790 
# 
# From -- ./inp_files/20923.got.cif
#   From: 2010.05.17/outbox.cif.g08.bks.cpg/sg57_11_cif.got.tgz:20923.got - 2010.06.03 13:58:18.
