data_PCOD9438842
_publ_section_title
;
Structure prediction by ZEFSAII (Michael W. Deem and Ramdas Pophale) SiO2 
 PCOD9438842
Probable space group: P B C M
;
_chemical_formula_sum "Si O2"
_cell_formula_units_Z 64
_cell_length_a 11.879699
_cell_length_b 10.063200
_cell_length_c 26.780930
_cell_angle_alpha 90.000000
_cell_angle_beta 90.000000
_cell_angle_gamma 90.000000
_cell_volume 3201.600915
_symmetry_space_group_name_H-M "P B C M"
_symmetry_group_IT_number 57
_symmetry_cell_setting 'orthorhombic'
loop_
_space_group_symop_operation_xyz
x,y,z
-x,-y,1/2+z
x,1/2-y,-z
-x,1/2+y,1/2-z
-x,-y,-z
x,y,1/2-z
-x,1/2+y,z
x,1/2-y,1/2+z
loop_
_atom_site_type_symbol
_atom_site_label
_atom_site_fract_x
_atom_site_fract_y
_atom_site_fract_z
Si Si1 0.208011 0.289642 0.555410
Si Si2 0.739455 0.916579 0.693412
Si Si3 0.808022 0.864226 0.155941
Si Si4 0.791209 0.360721 0.880008
Si Si5 0.577835 0.251242 0.439772
Si Si6 0.999256 0.451450 0.943949
Si Si7 0.072547 0.891617 0.149406
Si Si8 0.605943 0.958249 0.903852
O O1 0.241052 0.250000 0.500000
O O2 0.223835 0.184971 0.599608
O O3 0.076551 0.321727 0.557417
O O4 0.277214 0.421538 0.568713
O O5 0.711725 0.950677 0.750000
O O6 0.760367 0.758013 0.687975
O O7 0.642096 0.955833 0.654073
O O8 0.853798 0.995408 0.677288
O O9 0.942952 0.871723 0.166244
O O10 0.763847 0.015441 0.156581
O O11 0.687520 0.301822 0.910614
O O12 0.856798 0.243931 0.850995
O O13 0.879340 0.418353 0.920560
O O14 0.588821 0.250000 0.500000
O O15 0.477135 0.157814 0.421104
O O16 0.559569 0.401799 0.421880
O O17 0.056502 0.557004 0.907095
O O18 0.000000 0.500000 0.000000
#
# Coordination Sequence:
#
# PCOD9438842 Si02
#       8
#     8   8   8   8   8   8   8   8
#     4  11  20  35  59  90 134 178 212 255 321 393
#     4  11  24  46  73  92 125 177 224 282 346 387
#     4  10  21  38  63  94 136 171 212 262 325 400
#     4  11  23  36  63  93 135 172 215 269 320 382
#     4  12  27  43  69  98 133 180 218 265 331 402
#     4  11  22  33  59  96 137 181 220 255 324 397
#     4  11  19  42  58  95 135 173 210 276 320 395
#     4  11  26  47  65  93 132 168 227 280 326 386
#
# _framework density 19.989999000000001
#
# number of rings (size 3 to 8) (size 9 to 14) (size 15 to 20)
#    0.000    1.000    5.000    3.000    8.750    0.500 
#    0.000    1.250    0.000    0.000    0.000    0.000 
#    0.000    0.000    0.000    0.000    0.000    0.000 
#
# Total GULP energy -357347.254642 kJ/mol
# GULP energy per Si atom -5583.550854 kJ/mol
# Density = 1.994450 g / cm^3
# Si number density = 19.989999 Si / 1000 Ang^3
#
#
#
# Elastic Constant Matrix: (Units=GPa)
#
#
# Indices 1 2 3 4 5 6 
#
# 1 63.2461 22.4555 7.7111 0.0000 0.0000 0.0000
# 2 22.4555 108.9261 38.1168 0.0000 0.0000 0.0000
# 3 7.7111 38.1168 88.1412 0.0000 0.0000 0.0000
# 4 0.0000 0.0000 0.0000 9.2416 0.0000 0.0000
# 5 0.0000 0.0000 0.0000 0.0000 7.1572 0.0000
# 6 0.0000 0.0000 0.0000 0.0000 0.0000 35.5308
#
#
#
# Elastic Compliance Matrix: (Units=1/GPa)
#
#
# Indices 1 2 3 4 5 6 
#
# 1 0.017060 -0.003529 0.000033 0.000000 0.000000 0.000000
# 2 -0.003529 0.011547 -0.004685 0.000000 0.000000 0.000000
# 3 0.000033 -0.004685 0.013369 0.000000 0.000000 0.000000
# 4 0.000000 0.000000 0.000000 0.108207 0.000000 0.000000
# 5 0.000000 0.000000 0.000000 0.000000 0.139719 0.000000
# 6 0.000000 0.000000 0.000000 0.000000 0.000000 0.028145
#
#
# Mechanical properties :
#
#
# Convention : Reuss Voigt Hill
#
# Bulk Modulus (GPa) = 39.03877 44.09779 41.56828
# Shear Modulus (GPa) = 14.57958 23.18792 18.88375
#
# Velocity S-wave (km/s) = 2.70357 3.40954 3.07687
# Velocity P-wave (km/s) = 5.41454 6.13251 5.78468
#
# Compressibility (1/GPa) = 0.02561556
#
# Stress axis : x y z
#
# Youngs Moduli (GPa) = 58.61657 86.59949 74.80260
#
# Poissons Ratio (x) = 0.30558 -0.00250
# Poissons Ratio (y) = 0.20684 0.35045
# Poissons Ratio (z) = -0.00196 0.40572
#
# Static dielectric constant tensor:
#      x y z
#    x 1.728850 0.000000 0.000000 
#    y 0.000000 1.768680 0.000000 
#    z 0.000000 0.000000 1.722240 
# 
# From -- ./inp_files/29788.got.cif
#   From: 2010.05.17/outbox.cif.g08.bks.cpg/sg57_15_cif.got.tgz:29788.got - 2010.06.03 13:58:18.
