data_PCOD9438244
_publ_section_title
;
Structure prediction by ZEFSAII (Michael W. Deem and Ramdas Pophale) SiO2 
 PCOD9438244
Probable space group: P B C M
;
_chemical_formula_sum "Si O2"
_cell_formula_units_Z 60
_cell_length_a 12.038891
_cell_length_b 9.498747
_cell_length_c 27.474881
_cell_angle_alpha 90.000000
_cell_angle_beta 90.000000
_cell_angle_gamma 90.000000
_cell_volume 3141.872976
_symmetry_space_group_name_H-M "P B C M"
_symmetry_group_IT_number 57
_symmetry_cell_setting 'orthorhombic'
loop_
_space_group_symop_operation_xyz
x,y,z
-x,-y,1/2+z
x,1/2-y,-z
-x,1/2+y,1/2-z
-x,-y,-z
x,y,1/2-z
-x,1/2+y,z
x,1/2-y,1/2+z
loop_
_atom_site_type_symbol
_atom_site_label
_atom_site_fract_x
_atom_site_fract_y
_atom_site_fract_z
Si Si1 0.945321 0.511837 0.335289
Si Si2 0.736083 0.162193 0.803425
Si Si3 0.556863 0.035668 0.052439
Si Si4 0.903240 0.140143 0.250000
Si Si5 0.036484 0.277877 0.102046
Si Si6 0.216216 0.388394 0.471892
Si Si7 0.173702 0.631847 0.538986
Si Si8 0.391919 0.834724 0.400971
O O1 0.822904 0.459530 0.319947
O O2 0.943614 0.619445 0.380488
O O3 0.010905 0.583719 0.291841
O O4 0.014981 0.374997 0.351147
O O5 0.687449 0.125534 0.750000
O O6 0.816977 0.294554 0.791925
O O7 0.647369 0.191381 0.845615
O O8 0.566256 0.196835 0.069720
O O9 0.680806 0.976055 0.048023
O O10 0.486025 0.951251 0.092312
O O11 0.500000 0.000000 0.000000
O O12 0.137496 0.336783 0.070890
O O13 0.926911 0.303023 0.069600
O O14 0.257388 0.250000 0.500000
O O15 0.150186 0.488893 0.509561
O O16 0.205017 0.750000 0.500000
O O17 0.280477 0.609948 0.572575
#
# Coordination Sequence:
#
# PCOD9438244 Si02
#       8
#     8   8   8   4   8   8   8   8
#     4  12  21  39  64  95 132 176 218 268 321 410
#     4  10  23  43  70  97 133 172 222 275 341 401
#     4  12  25  44  69  94 126 173 234 277 318 400
#     4  10  20  40  66  96 128 168 218 264 326 396
#     4  12  25  36  61  97 138 174 219 261 337 411
#     4  12  25  38  57  93 136 175 218 274 319 394
#     4  12  21  41  62  89 137 181 218 262 343 401
#     4  12  24  45  71  93 125 177 224 283 336 391
#
# _framework density 19.096889000000001
#
# number of rings (size 3 to 8) (size 9 to 14) (size 15 to 20)
#    0.400    0.000    6.000    3.600    1.867    0.000 
#    0.000    0.667    0.000    0.000    0.000    0.000 
#    0.000    0.000    0.000    0.000    0.000    0.000 
#
# Total GULP energy -334070.634848 kJ/mol
# GULP energy per Si atom -5567.843914 kJ/mol
# Density = 1.905342 g / cm^3
# Si number density = 19.096889 Si / 1000 Ang^3
#
#
#
# Elastic Constant Matrix: (Units=GPa)
#
#
# Indices 1 2 3 4 5 6 
#
# 1 70.2622 1.9496 25.5343 0.0000 0.0000 0.0000
# 2 1.9496 52.4552 8.5729 0.0000 0.0000 0.0000
# 3 25.5343 8.5729 93.3813 0.0000 0.0000 0.0000
# 4 0.0000 0.0000 0.0000 16.4734 0.0000 0.0000
# 5 0.0000 0.0000 0.0000 0.0000 39.0639 0.0000
# 6 0.0000 0.0000 0.0000 0.0000 0.0000 23.0900
#
#
#
# Elastic Compliance Matrix: (Units=1/GPa)
#
#
# Indices 1 2 3 4 5 6 
#
# 1 0.015804 0.000121 -0.004332 0.000000 0.000000 0.000000
# 2 0.000121 0.019355 -0.001810 0.000000 0.000000 0.000000
# 3 -0.004332 -0.001810 0.012060 0.000000 0.000000 0.000000
# 4 0.000000 0.000000 0.000000 0.060704 0.000000 0.000000
# 5 0.000000 0.000000 0.000000 0.000000 0.025599 0.000000
# 6 0.000000 0.000000 0.000000 0.000000 0.000000 0.043309
#
#
# Mechanical properties :
#
#
# Convention : Reuss Voigt Hill
#
# Bulk Modulus (GPa) = 28.42923 32.02358 30.22641
# Shear Modulus (GPa) = 24.92542 27.72825 26.32684
#
# Velocity S-wave (km/s) = 3.61669 3.81462 3.71697
# Velocity P-wave (km/s) = 5.68856 6.01724 5.85521
#
# Compressibility (1/GPa) = 0.03517506
#
# Stress axis : x y z
#
# Youngs Moduli (GPa) = 63.27703 51.66572 82.92147
#
# Poissons Ratio (x) = -0.00624 0.35925
# Poissons Ratio (y) = -0.00764 0.15008
# Poissons Ratio (z) = 0.27414 0.09351
#
# Static dielectric constant tensor:
#      x y z
#    x 1.637050 0.000000 0.000000 
#    y 0.000000 1.692520 0.000000 
#    z 0.000000 0.000000 1.702950 
# 
# From -- ./inp_files/28610.got.cif
#   From: 2010.05.17/outbox.cif.g08.bks.cpg/sg57_15_cif.got.tgz:28610.got - 2010.06.03 13:58:18.
