data_PCOD9438378
_publ_section_title
;
Structure prediction by ZEFSAII (Michael W. Deem and Ramdas Pophale) SiO2 
 PCOD9438378
Probable space group: P B C M
;
_chemical_formula_sum "Si O2"
_cell_formula_units_Z 64
_cell_length_a 11.564492
_cell_length_b 30.538948
_cell_length_c 9.624892
_cell_angle_alpha 90.000000
_cell_angle_beta 90.000000
_cell_angle_gamma 90.000000
_cell_volume 3399.198274
_symmetry_space_group_name_H-M "P B C M"
_symmetry_group_IT_number 57
_symmetry_cell_setting 'orthorhombic'
loop_
_space_group_symop_operation_xyz
x,y,z
-x,-y,1/2+z
x,1/2-y,-z
-x,1/2+y,1/2-z
-x,-y,-z
x,y,1/2-z
-x,1/2+y,z
x,1/2-y,1/2+z
loop_
_atom_site_type_symbol
_atom_site_label
_atom_site_fract_x
_atom_site_fract_y
_atom_site_fract_z
Si Si1 0.508776 0.138722 0.914643
Si Si2 0.175203 0.978306 0.084676
Si Si3 0.360430 0.792335 0.590617
Si Si4 0.695201 0.706785 0.587286
Si Si5 0.928206 0.843926 0.088148
Si Si6 0.439482 0.960722 0.416467
Si Si7 0.916925 0.291415 0.907456
Si Si8 0.924408 0.943701 0.087534
O O1 0.539084 0.142604 0.750000
O O2 0.391366 0.166147 0.937155
O O3 0.506473 0.087115 0.946849
O O4 0.598589 0.164424 0.011277
O O5 0.175033 0.985851 0.250000
O O6 0.301810 0.959807 0.049584
O O7 0.061663 0.948777 0.054156
O O8 0.148809 0.023146 0.004480
O O9 0.396571 0.750000 0.500000
O O10 0.403079 0.789630 0.750000
O O11 0.221519 0.792333 0.595143
O O12 0.669438 0.750000 0.500000
O O13 0.686933 0.717766 0.750000
O O14 0.823449 0.688928 0.558697
O O15 0.963484 0.839048 0.250000
O O16 0.888499 0.893700 0.069442
O O17 0.031731 0.833016 0.985329
O O18 0.450866 0.968156 0.250000
O O19 0.500000 0.000000 0.500000
O O20 0.959698 0.287557 0.750000
O O21 0.952395 0.250000 0.000000
O O22 0.910498 0.955373 0.250000
#
# Coordination Sequence:
#
# PCOD9438378 Si02
#       8
#     8   8   8   8   8   8   8   8
#     4  10  22  39  61  85 113 151 195 241 289 345
#     4   9  19  37  57  84 117 147 187 234 290 345
#     4  10  21  37  58  86 118 151 190 236 286 344
#     4  10  22  39  57  83 114 149 193 238 286 341
#     4  10  21  35  57  84 112 147 192 235 281 343
#     4  10  23  40  61  87 118 154 193 242 294 346
#     4  10  21  36  54  80 114 148 183 226 279 335
#     4   9  19  35  59  86 112 149 188 232 285 344
#
# _framework density 18.827970000000001
#
# number of rings (size 3 to 8) (size 9 to 14) (size 15 to 20)
#    0.000    2.250    0.000    1.500    3.500    6.000 
#    0.000    0.000    0.000    0.000    0.000    0.000 
#    0.000    0.000    0.000    0.000    0.000    0.000 
#
# Total GULP energy -357112.323434 kJ/mol
# GULP energy per Si atom -5579.880054 kJ/mol
# Density = 1.878512 g / cm^3
# Si number density = 18.827970 Si / 1000 Ang^3
#
#
#
# Elastic Constant Matrix: (Units=GPa)
#
#
# Indices 1 2 3 4 5 6 
#
# 1 51.4868 35.7772 32.8427 0.0000 0.0000 0.0000
# 2 35.7772 125.5538 61.8186 0.0000 0.0000 0.0000
# 3 32.8427 61.8186 68.6938 0.0000 0.0000 0.0000
# 4 0.0000 0.0000 0.0000 34.1212 0.0000 0.0000
# 5 0.0000 0.0000 0.0000 0.0000 22.6038 0.0000
# 6 0.0000 0.0000 0.0000 0.0000 0.0000 20.7129
#
#
#
# Elastic Compliance Matrix: (Units=1/GPa)
#
#
# Indices 1 2 3 4 5 6 
#
# 1 0.028384 -0.002526 -0.011298 0.000000 0.000000 0.000000
# 2 -0.002526 0.014526 -0.011865 0.000000 0.000000 0.000000
# 3 -0.011298 -0.011865 0.030636 0.000000 0.000000 0.000000
# 4 0.000000 0.000000 0.000000 0.029307 0.000000 0.000000
# 5 0.000000 0.000000 0.000000 0.000000 0.044240 0.000000
# 6 0.000000 0.000000 0.000000 0.000000 0.000000 0.048279
#
#
# Mechanical properties :
#
#
# Convention : Reuss Voigt Hill
#
# Bulk Modulus (GPa) = 45.10564 56.29016 50.69790
# Shear Modulus (GPa) = 19.67418 23.17397 21.42407
#
# Velocity S-wave (km/s) = 3.23607 3.51212 3.37692
# Velocity P-wave (km/s) = 6.16211 6.81239 6.49539
#
# Compressibility (1/GPa) = 0.02217018
#
# Stress axis : x y z
#
# Youngs Moduli (GPa) = 35.23098 68.84058 32.64094
#
# Poissons Ratio (x) = 0.17386 0.36877
# Poissons Ratio (y) = 0.08898 0.38728
# Poissons Ratio (z) = 0.39803 0.81679
#
# Static dielectric constant tensor:
#      x y z
#    x 1.680480 0.000000 0.000000 
#    y 0.000000 1.637990 0.000000 
#    z 0.000000 0.000000 1.634780 
# 
# From -- ./inp_files/3799.got.cif
#   From: 2010.05.17/outbox.cif.g08.bks.cpg/sg57_2_cif.got.tgz:3799.got - 2010.06.03 13:58:18.
