data_PCOD9438849
_publ_section_title
;
Structure prediction by ZEFSAII (Michael W. Deem and Ramdas Pophale) SiO2 
 PCOD9438849
Probable space group: P B C M
;
_chemical_formula_sum "Si O2"
_cell_formula_units_Z 52
_cell_length_a 20.361632
_cell_length_b 8.104344
_cell_length_c 15.169294
_cell_angle_alpha 90.000000
_cell_angle_beta 90.000000
_cell_angle_gamma 90.000000
_cell_volume 2503.201553
_symmetry_space_group_name_H-M "P B C M"
_symmetry_group_IT_number 57
_symmetry_cell_setting 'orthorhombic'
loop_
_space_group_symop_operation_xyz
x,y,z
-x,-y,1/2+z
x,1/2-y,-z
-x,1/2+y,1/2-z
-x,-y,-z
x,y,1/2-z
-x,1/2+y,z
x,1/2-y,1/2+z
loop_
_atom_site_type_symbol
_atom_site_label
_atom_site_fract_x
_atom_site_fract_y
_atom_site_fract_z
Si Si1 0.956400 0.436307 0.350008
Si Si2 0.357762 0.250000 0.500000
Si Si3 0.151224 0.438498 0.975482
Si Si4 0.539162 0.819286 0.647983
Si Si5 0.281415 0.918528 0.050264
Si Si6 0.591132 0.311589 0.152119
Si Si7 0.097877 0.935187 0.849965
O O1 0.944539 0.498362 0.250000
O O2 0.915623 0.537126 0.421560
O O3 0.930816 0.249476 0.355320
O O4 0.034311 0.448105 0.363620
O O5 0.405707 0.257770 0.415018
O O6 0.314958 0.419067 0.504616
O O7 0.211519 0.510583 0.918549
O O8 0.162386 0.250000 0.000000
O O9 0.146164 0.532519 0.069230
O O10 0.541020 0.756216 0.750000
O O11 0.465412 0.800681 0.609689
O O12 0.556105 0.011079 0.652998
O O13 0.338391 0.849854 0.113026
O O14 0.264816 0.750000 0.000000
O O15 0.601166 0.244942 0.250000
O O16 0.123467 0.960668 0.750000
#
# Coordination Sequence:
#
# PCOD9438849 Si02
#       7
#     8   4   8   8   8   8   8
#     4  10  21  38  64  94 124 159 205 261 316 369
#     4  10  22  40  60  86 120 156 194 246 308 354
#     4  12  24  41  61  86 125 170 211 258 309 374
#     4   9  19  35  58  87 116 148 193 243 302 361
#     4  11  24  40  59  85 120 160 206 246 299 371
#     4   9  20  37  59  88 120 152 194 251 306 365
#     4  10  21  39  63  94 125 159 209 260 313 369
#
# _framework density 20.773398
#
# number of rings (size 3 to 8) (size 9 to 14) (size 15 to 20)
#    0.000    1.846    0.769    2.769    3.231    3.692 
#    0.000    1.538    0.000    0.000    0.000    0.000 
#    0.000    0.000    0.000    0.000    0.000    0.000 
#
# Total GULP energy -289931.479803 kJ/mol
# GULP energy per Si atom -5575.605381 kJ/mol
# Density = 2.072612 g / cm^3
# Si number density = 20.773398 Si / 1000 Ang^3
#
#
#
# Elastic Constant Matrix: (Units=GPa)
#
#
# Indices 1 2 3 4 5 6 
#
# 1 57.5631 7.6358 22.0838 0.0000 0.0000 0.0000
# 2 7.6358 50.8169 9.6504 0.0000 0.0000 0.0000
# 3 22.0838 9.6504 57.7788 0.0000 0.0000 0.0000
# 4 0.0000 0.0000 0.0000 11.7120 0.0000 0.0000
# 5 0.0000 0.0000 0.0000 0.0000 256.6214 0.0000
# 6 0.0000 0.0000 0.0000 0.0000 0.0000 30.0117
#
#
#
# Elastic Compliance Matrix: (Units=1/GPa)
#
#
# Indices 1 2 3 4 5 6 
#
# 1 0.020489 -0.001644 -0.007557 0.000000 0.000000 0.000000
# 2 -0.001644 0.020455 -0.002788 0.000000 0.000000 0.000000
# 3 -0.007557 -0.002788 0.020661 0.000000 0.000000 0.000000
# 4 0.000000 0.000000 0.000000 0.085383 0.000000 0.000000
# 5 0.000000 0.000000 0.000000 0.000000 0.003897 0.000000
# 6 0.000000 0.000000 0.000000 0.000000 0.000000 0.033320
#
#
# Mechanical properties :
#
#
# Convention : Reuss Voigt Hill
#
# Bulk Modulus (GPa) = 26.57570 27.21100 26.89335
# Shear Modulus (GPa) = 22.65253 68.12160 45.38707
#
# Velocity S-wave (km/s) = 3.30579 5.73270 4.67932
# Velocity P-wave (km/s) = 5.23373 7.54625 6.49376
#
# Compressibility (1/GPa) = 0.03762836
#
# Stress axis : x y z
#
# Youngs Moduli (GPa) = 48.80576 48.88781 48.39951
#
# Poissons Ratio (x) = 0.08036 0.36574
# Poissons Ratio (y) = 0.08022 0.13495
# Poissons Ratio (z) = 0.36881 0.13631
#
# Static dielectric constant tensor:
#      x y z
#    x 1.774030 0.000000 0.000000 
#    y 0.000000 1.757510 0.000000 
#    z 0.000000 0.000000 1.787040 
# 
# From -- ./inp_files/19297.got.cif
#   From: 2010.05.17/outbox.cif.g08.bks.cpg/sg57_10_cif.got.tgz:19297.got - 2010.06.03 13:58:18.
