data_PCOD9438530
_publ_section_title
;
Structure prediction by ZEFSAII (Michael W. Deem and Ramdas Pophale) SiO2 
 PCOD9438530
Probable space group: P B C M
;
_chemical_formula_sum "Si O2"
_cell_formula_units_Z 56
_cell_length_a 16.896052
_cell_length_b 19.657286
_cell_length_c 8.503002
_cell_angle_alpha 90.000000
_cell_angle_beta 90.000000
_cell_angle_gamma 90.000000
_cell_volume 2824.106531
_symmetry_space_group_name_H-M "P B C M"
_symmetry_group_IT_number 57
_symmetry_cell_setting 'orthorhombic'
loop_
_space_group_symop_operation_xyz
x,y,z
-x,-y,1/2+z
x,1/2-y,-z
-x,1/2+y,1/2-z
-x,-y,-z
x,y,1/2-z
-x,1/2+y,z
x,1/2-y,1/2+z
loop_
_atom_site_type_symbol
_atom_site_label
_atom_site_fract_x
_atom_site_fract_y
_atom_site_fract_z
Si Si1 0.487046 0.174920 0.938973
Si Si2 0.689674 0.673836 0.560325
Si Si3 0.573723 0.456009 0.439800
Si Si4 0.001719 0.577683 0.436067
Si Si5 0.165756 0.419953 0.061646
Si Si6 0.752039 0.050155 0.940392
Si Si7 0.856950 0.327222 0.437880
O O1 0.485909 0.176580 0.750000
O O2 0.398687 0.152769 0.992065
O O3 0.551676 0.120691 0.988254
O O4 0.501657 0.250000 0.000000
O O5 0.702528 0.750000 0.500000
O O6 0.689976 0.674107 0.750000
O O7 0.759363 0.624673 0.507950
O O8 0.500000 0.500000 0.500000
O O9 0.573733 0.460555 0.250000
O O10 0.663295 0.469530 0.493835
O O11 0.012666 0.574671 0.250000
O O12 0.914580 0.604276 0.481266
O O13 0.000000 0.500000 0.500000
O O14 0.068029 0.627612 0.506478
O O15 0.157514 0.415750 0.250000
O O16 0.186695 0.496798 0.013058
O O17 0.754973 0.044750 0.750000
O O18 0.780555 0.126325 0.982356
O O19 0.856486 0.250000 0.500000
O O20 0.859446 0.323682 0.250000
#
# Coordination Sequence:
#
# PCOD9438530 Si02
#       7
#     8   8   8   8   8   8   8
#     4   9  18  34  54  77 110 149 192 239 291 349
#     4   9  19  34  53  80 113 151 192 240 293 351
#     4  10  21  37  57  85 119 155 199 254 306 360
#     4  12  24  41  65  92 122 159 201 249 303 365
#     4  11  22  37  61  89 119 155 199 244 297 362
#     4  10  22  39  60  86 119 159 202 249 306 365
#     4  11  24  43  65  92 126 164 208 258 310 366
#
# _framework density 19.829280000000001
#
# number of rings (size 3 to 8) (size 9 to 14) (size 15 to 20)
#    0.000    1.714    1.429    3.000    0.000    5.143 
#    0.000    4.286    0.000    0.000    0.000    0.000 
#    0.000    0.000    0.000    0.000    0.000    0.000 
#
# Total GULP energy -312662.173663 kJ/mol
# GULP energy per Si atom -5583.253101 kJ/mol
# Density = 1.978415 g / cm^3
# Si number density = 19.829280 Si / 1000 Ang^3
#
#
#
# Elastic Constant Matrix: (Units=GPa)
#
#
# Indices 1 2 3 4 5 6 
#
# 1 103.0395 35.3846 19.1124 0.0000 0.0000 0.0000
# 2 35.3846 68.2938 14.0238 0.0000 0.0000 0.0000
# 3 19.1124 14.0238 32.9669 0.0000 0.0000 0.0000
# 4 0.0000 0.0000 0.0000 33.9632 0.0000 0.0000
# 5 0.0000 0.0000 0.0000 0.0000 15.6984 0.0000
# 6 0.0000 0.0000 0.0000 0.0000 0.0000 35.2523
#
#
#
# Elastic Compliance Matrix: (Units=1/GPa)
#
#
# Indices 1 2 3 4 5 6 
#
# 1 0.012494 -0.005463 -0.004919 0.000000 0.000000 0.000000
# 2 -0.005463 0.018433 -0.004674 0.000000 0.000000 0.000000
# 3 -0.004919 -0.004674 0.035174 0.000000 0.000000 0.000000
# 4 0.000000 0.000000 0.000000 0.029444 0.000000 0.000000
# 5 0.000000 0.000000 0.000000 0.000000 0.063701 0.000000
# 6 0.000000 0.000000 0.000000 0.000000 0.000000 0.028367
#
#
# Mechanical properties :
#
#
# Convention : Reuss Voigt Hill
#
# Bulk Modulus (GPa) = 27.78733 37.92687 32.85710
# Shear Modulus (GPa) = 21.76567 26.03475 23.90021
#
# Velocity S-wave (km/s) = 3.31668 3.62739 3.47551
# Velocity P-wave (km/s) = 5.35825 6.05906 5.71940
#
# Compressibility (1/GPa) = 0.03598762
#
# Stress axis : x y z
#
# Youngs Moduli (GPa) = 80.04153 54.25069 28.43048
#
# Poissons Ratio (x) = 0.29638 0.13985
# Poissons Ratio (y) = 0.43727 0.13288
# Poissons Ratio (z) = 0.39374 0.25357
#
# Static dielectric constant tensor:
#      x y z
#    x 1.719370 0.000000 0.000000 
#    y 0.000000 1.695560 0.000000 
#    z 0.000000 0.000000 1.679260 
# 
# From -- ./inp_files/5137.got.cif
#   From: 2010.05.17/outbox.cif.g08.bks.cpg/sg57_3_cif.got.tgz:5137.got - 2010.06.03 13:58:18.
