data_PCOD9438450
_publ_section_title
;
Structure prediction by ZEFSAII (Michael W. Deem and Ramdas Pophale) SiO2 
 PCOD9438450
Probable space group: P B C M
;
_chemical_formula_sum "Si O2"
_cell_formula_units_Z 52
_cell_length_a 11.576052
_cell_length_b 22.181962
_cell_length_c 9.643874
_cell_angle_alpha 90.000000
_cell_angle_beta 90.000000
_cell_angle_gamma 90.000000
_cell_volume 2476.349583
_symmetry_space_group_name_H-M "P B C M"
_symmetry_group_IT_number 57
_symmetry_cell_setting 'orthorhombic'
loop_
_space_group_symop_operation_xyz
x,y,z
-x,-y,1/2+z
x,1/2-y,-z
-x,1/2+y,1/2-z
-x,-y,-z
x,y,1/2-z
-x,1/2+y,z
x,1/2-y,1/2+z
loop_
_atom_site_type_symbol
_atom_site_label
_atom_site_fract_x
_atom_site_fract_y
_atom_site_fract_z
Si Si1 0.060701 0.926035 0.907768
Si Si2 0.069123 0.238028 0.750000
Si Si3 0.336376 0.103105 0.915108
Si Si4 0.783459 0.304988 0.909697
Si Si5 0.395926 0.630453 0.909027
Si Si6 0.757279 0.008823 0.588236
Si Si7 0.884608 0.663780 0.491924
O O1 0.064597 0.949512 0.750000
O O2 0.135085 0.863502 0.910294
O O3 0.124243 0.969331 0.015603
O O4 0.935593 0.900960 0.947657
O O5 0.052451 0.187030 0.871246
O O6 0.096752 0.289193 0.630355
O O7 0.319218 0.093740 0.750000
O O8 0.469419 0.120404 0.937248
O O9 0.248915 0.154859 0.966136
O O10 0.303113 0.043584 0.000223
O O11 0.773054 0.285896 0.750000
O O12 0.831052 0.250000 0.000000
O O13 0.664930 0.325409 0.982101
O O14 0.382525 0.652574 0.750000
O O15 0.328201 0.566932 0.917150
O O16 0.772631 0.993044 0.750000
#
# Coordination Sequence:
#
# PCOD9438450 Si02
#       7
#     8   4   8   8   8   8   8
#     4  10  22  39  62  89 122 156 197 246 301 360
#     4  10  24  42  62  84 122 158 206 248 286 358
#     4  11  23  41  63  87 122 160 199 246 297 357
#     4  10  21  36  57  87 118 154 196 247 302 353
#     4   9  20  41  60  87 117 156 202 246 299 357
#     4  10  22  38  64  93 121 154 197 249 301 355
#     4  11  23  42  62  91 118 159 204 242 301 349
#
# _framework density 20.998650999999999
#
# number of rings (size 3 to 8) (size 9 to 14) (size 15 to 20)
#    0.000    1.846    1.538    1.385    4.308    2.462 
#    2.769    0.000    0.000    0.000    0.000    0.000 
#    0.000    0.000    0.000    0.000    0.000    0.000 
#
# Total GULP energy -289722.840016 kJ/mol
# GULP energy per Si atom -5571.593077 kJ/mol
# Density = 2.095086 g / cm^3
# Si number density = 20.998651 Si / 1000 Ang^3
#
#
#
# Elastic Constant Matrix: (Units=GPa)
#
#
# Indices 1 2 3 4 5 6 
#
# 1 89.5352 -5.1379 23.5092 0.0000 0.0000 0.0000
# 2 -5.1379 52.7741 26.8501 0.0000 0.0000 0.0000
# 3 23.5092 26.8501 164.5627 0.0000 0.0000 0.0000
# 4 0.0000 0.0000 0.0000 47.4055 0.0000 0.0000
# 5 0.0000 0.0000 0.0000 0.0000 6.0541 0.0000
# 6 0.0000 0.0000 0.0000 0.0000 0.0000 14.3340
#
#
#
# Elastic Compliance Matrix: (Units=1/GPa)
#
#
# Indices 1 2 3 4 5 6 
#
# 1 0.011833 0.002194 -0.002048 0.000000 0.000000 0.000000
# 2 0.002194 0.021071 -0.003751 0.000000 0.000000 0.000000
# 3 -0.002048 -0.003751 0.006981 0.000000 0.000000 0.000000
# 4 0.000000 0.000000 0.000000 0.021095 0.000000 0.000000
# 5 0.000000 0.000000 0.000000 0.000000 0.165178 0.000000
# 6 0.000000 0.000000 0.000000 0.000000 0.000000 0.069764
#
#
# Mechanical properties :
#
#
# Convention : Reuss Voigt Hill
#
# Bulk Modulus (GPa) = 30.60576 44.14610 37.37593
# Shear Modulus (GPa) = 15.92236 31.00209 23.46223
#
# Velocity S-wave (km/s) = 2.75663 3.84654 3.34626
# Velocity P-wave (km/s) = 4.97381 6.38724 5.72432
#
# Compressibility (1/GPa) = 0.03267359
#
# Stress axis : x y z
#
# Youngs Moduli (GPa) = 84.51275 47.45879 143.23733
#
# Poissons Ratio (x) = -0.10413 0.29340
# Poissons Ratio (y) = -0.18543 0.53734
# Poissons Ratio (z) = 0.17311 0.17804
#
# Static dielectric constant tensor:
#      x y z
#    x 1.782920 0.000000 0.000000 
#    y 0.000000 1.765550 0.000000 
#    z 0.000000 0.000000 1.707190 
# 
# From -- ./inp_files/3401.got.cif
#   From: 2010.05.17/outbox.cif.g08.bks.cpg/sg57_2_cif.got.tgz:3401.got - 2010.06.03 13:58:18.
