data_PCOD9438571
_publ_section_title
;
Structure prediction by ZEFSAII (Michael W. Deem and Ramdas Pophale) SiO2 
 PCOD9438571
Probable space group: P B C M
;
_chemical_formula_sum "Si O2"
_cell_formula_units_Z 52
_cell_length_a 13.659718
_cell_length_b 5.332675
_cell_length_c 29.584917
_cell_angle_alpha 90.000000
_cell_angle_beta 90.000000
_cell_angle_gamma 90.000000
_cell_volume 2155.049277
_symmetry_space_group_name_H-M "P B C M"
_symmetry_group_IT_number 57
_symmetry_cell_setting 'orthorhombic'
loop_
_space_group_symop_operation_xyz
x,y,z
-x,-y,1/2+z
x,1/2-y,-z
-x,1/2+y,1/2-z
-x,-y,-z
x,y,1/2-z
-x,1/2+y,z
x,1/2-y,1/2+z
loop_
_atom_site_type_symbol
_atom_site_label
_atom_site_fract_x
_atom_site_fract_y
_atom_site_fract_z
Si Si1 0.363619 0.290240 0.365150
Si Si2 0.432439 0.634841 0.250000
Si Si3 0.353622 0.781039 0.342579
Si Si4 0.864979 0.684200 0.649745
Si Si5 0.148418 0.811247 0.101623
Si Si6 0.056182 0.332696 0.250000
Si Si7 0.930527 0.250000 0.500000
Si Si8 0.437114 0.346329 0.542603
O O1 0.413211 0.562807 0.368243
O O2 0.252705 0.335081 0.350975
O O3 0.370809 0.185199 0.414803
O O4 0.396963 0.057420 0.335347
O O5 0.490159 0.368784 0.250000
O O6 0.359824 0.663325 0.292803
O O7 0.256873 0.813782 0.373829
O O8 0.899940 0.423138 0.628056
O O9 0.893233 0.720802 0.701866
O O10 0.890416 0.918900 0.617755
O O11 0.132815 0.767393 0.047542
O O12 0.031262 0.628340 0.250000
O O13 0.000000 0.500000 0.500000
O O14 0.375506 0.250000 0.500000
O O15 0.479387 0.626930 0.541988
#
# Coordination Sequence:
#
# PCOD9438571 Si02
#       8
#     8   4   8   8   8   4   4   8
#     4  10  21  39  62  91 123 173 211 265 315 383
#     4  12  26  42  66 102 134 174 230 288 344 400
#     4  10  23  42  63  95 130 179 214 275 329 405
#     4  10  23  43  66  98 133 175 218 275 329 410
#     4  10  23  44  67  98 136 182 222 277 335 415
#     4  12  26  42  68 102 130 168 212 268 338 410
#     4  12  26  44  72 106 138 176 230 290 344 404
#     4  10  21  37  58  88 125 162 209 265 318 365
#
# _framework density 24.129380999999999
#
# number of rings (size 3 to 8) (size 9 to 14) (size 15 to 20)
#    0.000    1.538    0.000    3.692    0.000   12.308 
#   11.077    0.000    0.000    0.000    0.000    0.000 
#    0.000    0.000    0.000    0.000    0.000    0.000 
#
# Total GULP energy -289549.070192 kJ/mol
# GULP energy per Si atom -5568.251350 kJ/mol
# Density = 2.407446 g / cm^3
# Si number density = 24.129381 Si / 1000 Ang^3
#
#
#
# Elastic Constant Matrix: (Units=GPa)
#
#
# Indices 1 2 3 4 5 6 
#
# 1 104.2379 3.2331 29.6431 0.0000 0.0000 0.0000
# 2 3.2331 204.2075 17.2996 0.0000 0.0000 0.0000
# 3 29.6431 17.2996 165.5215 0.0000 0.0000 0.0000
# 4 0.0000 0.0000 0.0000 45.3896 0.0000 0.0000
# 5 0.0000 0.0000 0.0000 0.0000 36.8676 0.0000
# 6 0.0000 0.0000 0.0000 0.0000 0.0000 -13.4450
#
#
#
# Elastic Compliance Matrix: (Units=1/GPa)
#
#
# Indices 1 2 3 4 5 6 
#
# 1 0.010108 -0.000007 -0.001810 0.000000 0.000000 0.000000
# 2 -0.000007 0.004941 -0.000515 0.000000 0.000000 0.000000
# 3 -0.001810 -0.000515 0.006419 0.000000 0.000000 0.000000
# 4 0.000000 0.000000 0.000000 0.022032 0.000000 0.000000
# 5 0.000000 0.000000 0.000000 0.000000 0.027124 0.000000
# 6 0.000000 0.000000 0.000000 0.000000 0.000000 -0.074377
#
#
# Mechanical properties :
#
#
# Convention : Reuss Voigt Hill
#
# Bulk Modulus (GPa) = 59.50456 63.81317 61.65887
# Shear Modulus (GPa) = 767.82755 42.01517 404.92136
#
# Velocity S-wave (km/s) = 17.85787 4.17735 12.96830
# Velocity P-wave (km/s) = 21.21129 7.05483 15.80648
#
# Compressibility (1/GPa) = 0.01680543
#
# Stress axis : x y z
#
# Youngs Moduli (GPa) = 98.92905 202.39928 155.77703
#
# Poissons Ratio (x) = 0.00136 0.28189
# Poissons Ratio (y) = 0.00067 0.08025
# Poissons Ratio (z) = 0.17902 0.10427
#
# Static dielectric constant tensor:
#      x y z
#    x 1.985320 0.000000 0.000000 
#    y 0.000000 2.213900 0.000000 
#    z 0.000000 0.000000 2.026890 
# 
# From -- ./inp_files/28850.got.cif
#   From: 2010.05.17/outbox.cif.g08.bks.cpg/sg57_15_cif.got.tgz:28850.got - 2010.06.03 13:58:18.
