data_PCOD9438072
_publ_section_title
;
Structure prediction by ZEFSAII (Michael W. Deem and Ramdas Pophale) SiO2 
 PCOD9438072
Probable space group: P B C M
;
_chemical_formula_sum "Si O2"
_cell_formula_units_Z 40
_cell_length_a 8.393404
_cell_length_b 7.819206
_cell_length_c 24.626083
_cell_angle_alpha 90.000000
_cell_angle_beta 90.000000
_cell_angle_gamma 90.000000
_cell_volume 1616.203792
_symmetry_space_group_name_H-M "P B C M"
_symmetry_group_IT_number 57
_symmetry_cell_setting 'orthorhombic'
loop_
_space_group_symop_operation_xyz
x,y,z
-x,-y,1/2+z
x,1/2-y,-z
-x,1/2+y,1/2-z
-x,-y,-z
x,y,1/2-z
-x,1/2+y,z
x,1/2-y,1/2+z
loop_
_atom_site_type_symbol
_atom_site_label
_atom_site_fract_x
_atom_site_fract_y
_atom_site_fract_z
Si Si1 0.723129 0.868941 0.953767
Si Si2 0.163691 0.394245 0.832859
Si Si3 0.603729 0.194601 0.580278
Si Si4 0.419758 0.399013 0.308965
Si Si5 0.193572 0.789975 0.830810
O O1 0.822401 0.876803 0.898355
O O2 0.549877 0.789353 0.941005
O O3 0.675511 0.064912 0.963699
O O4 0.795762 0.750000 0.000000
O O5 0.192501 0.589716 0.815906
O O6 0.983267 0.351056 0.818360
O O7 0.293895 0.258055 0.812423
O O8 0.752622 0.295369 0.605554
O O9 0.526048 0.106399 0.635909
O O10 0.500652 0.386008 0.250000
O O11 0.321398 0.575810 0.308354
#
# Coordination Sequence:
#
# PCOD9438072 Si02
#       5
#     8   8   8   8   8
#     4  10  20  38  64  92 123 167 212 258 322 379
#     4  10  23  41  65  89 133 165 210 265 314 374
#     4  10  21  40  62  91 127 161 210 270 310 369
#     4  11  24  42  64  90 125 170 214 259 319 380
#     4  11  21  43  64  89 129 171 203 262 320 369
#
# _framework density 24.749354
#
# number of rings (size 3 to 8) (size 9 to 14) (size 15 to 20)
#    0.000    1.600    4.000    0.600    0.000    2.400 
#    0.000    5.000    0.000    0.000    0.000    0.000 
#    0.000    0.000    0.000    0.000    0.000    0.000 
#
# Total GULP energy -223400.025402 kJ/mol
# GULP energy per Si atom -5585.000635 kJ/mol
# Density = 2.469302 g / cm^3
# Si number density = 24.749354 Si / 1000 Ang^3
#
#
#
# Elastic Constant Matrix: (Units=GPa)
#
#
# Indices 1 2 3 4 5 6 
#
# 1 97.8279 20.5286 4.4394 0.0000 0.0000 0.0000
# 2 20.5286 123.7878 8.5065 0.0000 0.0000 0.0000
# 3 4.4394 8.5065 75.7099 0.0000 0.0000 0.0000
# 4 0.0000 0.0000 0.0000 -21.7306 0.0000 0.0000
# 5 0.0000 0.0000 0.0000 0.0000 8.6637 0.0000
# 6 0.0000 0.0000 0.0000 0.0000 0.0000 33.1987
#
#
#
# Elastic Compliance Matrix: (Units=1/GPa)
#
#
# Indices 1 2 3 4 5 6 
#
# 1 0.010604 -0.001729 -0.000428 0.000000 0.000000 0.000000
# 2 -0.001729 0.008423 -0.000845 0.000000 0.000000 0.000000
# 3 -0.000428 -0.000845 0.013328 0.000000 0.000000 0.000000
# 4 0.000000 0.000000 0.000000 -0.046018 0.000000 0.000000
# 5 0.000000 0.000000 0.000000 0.000000 0.115424 0.000000
# 6 0.000000 0.000000 0.000000 0.000000 0.000000 0.030122
#
#
# Mechanical properties :
#
#
# Convention : Reuss Voigt Hill
#
# Bulk Modulus (GPa) = 37.94729 40.47495 39.21112
# Shear Modulus (GPa) = 34.08982 21.61643 27.85312
#
# Velocity S-wave (km/s) = 3.71536 2.95856 3.35835
# Velocity P-wave (km/s) = 5.81130 5.29719 5.56019
#
# Compressibility (1/GPa) = 0.02635234
#
# Stress axis : x y z
#
# Youngs Moduli (GPa) = 94.30134 118.72010 75.02822
#
# Poissons Ratio (x) = 0.20529 0.03208
# Poissons Ratio (y) = 0.16307 0.06340
# Poissons Ratio (z) = 0.04032 0.10032
#
# Static dielectric constant tensor:
#      x y z
#    x 1.915750 0.000000 0.000000 
#    y 0.000000 2.037710 0.000000 
#    z 0.000000 0.000000 2.001230 
# 
# From -- ./inp_files/26507.got.cif
#   From: 2010.05.17/outbox.cif.g08.bks.cpg/sg57_14_cif.got.tgz:26507.got - 2010.06.03 13:58:18.
