data_PCOD9438950
_publ_section_title
;
Structure prediction by ZEFSAII (Michael W. Deem and Ramdas Pophale) SiO2 
 PCOD9438950
Probable space group: P B C M
;
_chemical_formula_sum "Si O2"
_cell_formula_units_Z 36
_cell_length_a 9.044719
_cell_length_b 12.100272
_cell_length_c 13.971970
_cell_angle_alpha 90.000000
_cell_angle_beta 90.000000
_cell_angle_gamma 90.000000
_cell_volume 1529.142138
_symmetry_space_group_name_H-M "P B C M"
_symmetry_group_IT_number 57
_symmetry_cell_setting 'orthorhombic'
loop_
_space_group_symop_operation_xyz
x,y,z
-x,-y,1/2+z
x,1/2-y,-z
-x,1/2+y,1/2-z
-x,-y,-z
x,y,1/2-z
-x,1/2+y,z
x,1/2-y,1/2+z
loop_
_atom_site_type_symbol
_atom_site_label
_atom_site_fract_x
_atom_site_fract_y
_atom_site_fract_z
Si Si1 0.464237 0.599596 0.134653
Si Si2 0.895887 0.908157 0.954000
Si Si3 0.343864 0.250000 0.500000
Si Si4 0.686873 0.428306 0.360279
Si Si5 0.166430 0.795133 0.635005
O O1 0.483713 0.609600 0.250000
O O2 0.535155 0.482554 0.103485
O O3 0.290956 0.612466 0.114512
O O4 0.552242 0.699483 0.082778
O O5 0.772762 0.849534 0.020253
O O6 0.008635 0.821038 0.908626
O O7 0.802692 0.972338 0.873042
O O8 0.000000 0.000000 0.000000
O O9 0.660433 0.401057 0.250000
O O10 0.761693 0.319182 0.401893
O O11 0.149607 0.788609 0.750000
#
# Coordination Sequence:
#
# PCOD9438950 Si02
#       5
#     8   8   4   8   8
#     4   9  20  39  62  88 118 156 207 262 316 373
#     4  11  22  36  54  84 119 154 196 243 299 366
#     4  10  22  38  58  84 118 160 198 246 310 370
#     4   9  19  37  58  80 112 152 195 246 300 358
#     4  10  21  39  63  88 117 157 204 254 307 365
#
# _framework density 23.542611999999998
#
# number of rings (size 3 to 8) (size 9 to 14) (size 15 to 20)
#    0.000    2.222    0.000    2.000    0.000    5.333 
#    0.000    8.889    0.000    0.000    0.000    0.000 
#    0.000    0.000    0.000    0.000    0.000    0.000 
#
# Total GULP energy -201149.316022 kJ/mol
# GULP energy per Si atom -5587.481001 kJ/mol
# Density = 2.348903 g / cm^3
# Si number density = 23.542612 Si / 1000 Ang^3
#
#
#
# Elastic Constant Matrix: (Units=GPa)
#
#
# Indices 1 2 3 4 5 6 
#
# 1 126.6185 27.9424 21.3327 0.0000 0.0000 0.0000
# 2 27.9424 86.9005 3.4884 0.0000 0.0000 0.0000
# 3 21.3327 3.4884 67.6780 0.0000 0.0000 0.0000
# 4 0.0000 0.0000 0.0000 24.3638 0.0000 0.0000
# 5 0.0000 0.0000 0.0000 0.0000 32.2340 0.0000
# 6 0.0000 0.0000 0.0000 0.0000 0.0000 46.2303
#
#
#
# Elastic Compliance Matrix: (Units=1/GPa)
#
#
# Indices 1 2 3 4 5 6 
#
# 1 0.008962 -0.002774 -0.002682 0.000000 0.000000 0.000000
# 2 -0.002774 0.012390 0.000236 0.000000 0.000000 0.000000
# 3 -0.002682 0.000236 0.015609 0.000000 0.000000 0.000000
# 4 0.000000 0.000000 0.000000 0.041045 0.000000 0.000000
# 5 0.000000 0.000000 0.000000 0.000000 0.031023 0.000000
# 6 0.000000 0.000000 0.000000 0.000000 0.000000 0.021631
#
#
# Mechanical properties :
#
#
# Convention : Reuss Voigt Hill
#
# Bulk Modulus (GPa) = 37.70656 42.96935 40.33795
# Shear Modulus (GPa) = 33.34678 35.79450 34.57064
#
# Velocity S-wave (km/s) = 3.76765 3.90348 3.83617
# Velocity P-wave (km/s) = 5.91422 6.21350 6.06570
#
# Compressibility (1/GPa) = 0.02652059
#
# Stress axis : x y z
#
# Youngs Moduli (GPa) = 111.58557 80.71096 64.06542
#
# Poissons Ratio (x) = 0.22389 0.17181
# Poissons Ratio (y) = 0.30953 -0.01510
# Poissons Ratio (z) = 0.29925 -0.01903
#
# Static dielectric constant tensor:
#      x y z
#    x 1.875740 0.000000 0.000000 
#    y 0.000000 1.941610 0.000000 
#    z 0.000000 0.000000 1.899110 
# 
# From -- ./inp_files/20670.got.cif
#   From: 2010.05.17/outbox.cif.g08.bks.cpg/sg57_11_cif.got.tgz:20670.got - 2010.06.03 13:58:18.
