data_PCOD9438681
_publ_section_title
;
Structure prediction by ZEFSAII (Michael W. Deem and Ramdas Pophale) SiO2 
 PCOD9438681
Probable space group: P B C M
;
_chemical_formula_sum "Si O2"
_cell_formula_units_Z 36
_cell_length_a 16.481976
_cell_length_b 5.021234
_cell_length_c 24.597945
_cell_angle_alpha 90.000000
_cell_angle_beta 90.000000
_cell_angle_gamma 90.000000
_cell_volume 2035.722442
_symmetry_space_group_name_H-M "P B C M"
_symmetry_group_IT_number 57
_symmetry_cell_setting 'orthorhombic'
loop_
_space_group_symop_operation_xyz
x,y,z
-x,-y,1/2+z
x,1/2-y,-z
-x,1/2+y,1/2-z
-x,-y,-z
x,y,1/2-z
-x,1/2+y,z
x,1/2-y,1/2+z
loop_
_atom_site_type_symbol
_atom_site_label
_atom_site_fract_x
_atom_site_fract_y
_atom_site_fract_z
Si Si1 0.724306 0.858818 0.685937
Si Si2 0.548338 0.434073 0.183967
Si Si3 0.946371 0.224476 0.935911
Si Si4 0.174472 0.873806 0.843616
Si Si5 0.946679 0.557685 0.750000
O O1 0.719363 0.782272 0.750000
O O2 0.636194 0.960382 0.667290
O O3 0.758249 0.605051 0.653926
O O4 0.785111 0.106774 0.679826
O O5 0.550666 0.430527 0.250000
O O6 0.521486 0.140990 0.166952
O O7 0.870518 0.301776 0.899218
O O8 0.019571 0.431088 0.924055
O O9 0.928357 0.250000 0.000000
O O10 0.106915 0.986653 0.802259
O O11 0.024006 0.361243 0.750000
#
# Coordination Sequence:
#
# PCOD9438681 Si02
#       5
#     8   8   8   8   4
#     4  11  20  33  48  73 107 136 162 199 252 293
#     4   9  17  29  46  67  95 134 169 194 227 289
#     4  10  21  38  56  72  94 129 173 220 258 287
#     4  12  21  34  50  73 102 132 167 206 250 300
#     4  12  22  32  46  66  96 132 164 192 234 298
#
# _framework density 17.684139999999999
#
# number of rings (size 3 to 8) (size 9 to 14) (size 15 to 20)
#    0.000    1.333    2.222    5.333    0.000    3.556 
#    0.000    0.000    0.000    0.000    0.000    0.000 
#    0.000   17.778    0.000    0.000    0.000    0.000 
#
# Total GULP energy -201152.621147 kJ/mol
# GULP energy per Si atom -5587.572810 kJ/mol
# Density = 1.764389 g / cm^3
# Si number density = 17.684140 Si / 1000 Ang^3
#
#
#
# Elastic Constant Matrix: (Units=GPa)
#
#
# Indices 1 2 3 4 5 6 
#
# 1 46.9957 -17.0139 12.8974 0.0000 0.0000 0.0000
# 2 -17.0139 40.8827 -10.2818 0.0000 0.0000 0.0000
# 3 12.8974 -10.2818 23.7384 0.0000 0.0000 0.0000
# 4 0.0000 0.0000 0.0000 10.0188 0.0000 0.0000
# 5 0.0000 0.0000 0.0000 0.0000 15.4778 0.0000
# 6 0.0000 0.0000 0.0000 0.0000 0.0000 28.9474
#
#
#
# Elastic Compliance Matrix: (Units=1/GPa)
#
#
# Indices 1 2 3 4 5 6 
#
# 1 0.027470 0.008617 -0.011192 0.000000 0.000000 0.000000
# 2 0.008617 0.030153 0.008379 0.000000 0.000000 0.000000
# 3 -0.011192 0.008379 0.051836 0.000000 0.000000 0.000000
# 4 0.000000 0.000000 0.000000 0.099813 0.000000 0.000000
# 5 0.000000 0.000000 0.000000 0.000000 0.064609 0.000000
# 6 0.000000 0.000000 0.000000 0.000000 0.000000 0.034545
#
#
# Mechanical properties :
#
#
# Convention : Reuss Voigt Hill
#
# Bulk Modulus (GPa) = 8.25998 9.20225 8.73112
# Shear Modulus (GPa) = 14.82910 19.28980 17.05945
#
# Velocity S-wave (km/s) = 2.89892 3.30630 3.10929
# Velocity P-wave (km/s) = 3.98572 4.44865 4.22353
#
# Compressibility (1/GPa) = 0.12106566
#
# Stress axis : x y z
#
# Youngs Moduli (GPa) = 36.40367 33.16368 19.29166
#
# Poissons Ratio (x) = -0.28577 0.21592
# Poissons Ratio (y) = -0.31369 -0.16164
# Poissons Ratio (z) = 0.40744 -0.27787
#
# Static dielectric constant tensor:
#      x y z
#    x 1.622170 0.000000 0.000000 
#    y 0.000000 1.614680 0.000000 
#    z 0.000000 0.000000 1.576000 
# 
# From -- ./inp_files/25203.got.cif
#   From: 2010.05.17/outbox.cif.g08.bks.cpg/sg57_13_cif.got.tgz:25203.got - 2010.06.03 13:58:18.
