data_PCOD9438159
_publ_section_title
;
Structure prediction by ZEFSAII (Michael W. Deem and Ramdas Pophale) SiO2 
 PCOD9438159
Probable space group: P B C M
;
_chemical_formula_sum "Si O2"
_cell_formula_units_Z 56
_cell_length_a 15.901363
_cell_length_b 12.322366
_cell_length_c 15.218801
_cell_angle_alpha 90.000000
_cell_angle_beta 90.000000
_cell_angle_gamma 90.000000
_cell_volume 2982.008618
_symmetry_space_group_name_H-M "P B C M"
_symmetry_group_IT_number 57
_symmetry_cell_setting 'orthorhombic'
loop_
_space_group_symop_operation_xyz
x,y,z
-x,-y,1/2+z
x,1/2-y,-z
-x,1/2+y,1/2-z
-x,-y,-z
x,y,1/2-z
-x,1/2+y,z
x,1/2-y,1/2+z
loop_
_atom_site_type_symbol
_atom_site_label
_atom_site_fract_x
_atom_site_fract_y
_atom_site_fract_z
Si Si1 0.793332 0.211499 0.592787
Si Si2 0.419546 0.924424 0.487518
Si Si3 0.385567 0.764920 0.648289
Si Si4 0.830676 0.558057 0.653092
Si Si5 0.241774 0.021565 0.039708
Si Si6 0.053550 0.859150 0.850978
Si Si7 0.129599 0.292520 0.901999
O O1 0.756790 0.250000 0.500000
O O2 0.715259 0.241531 0.654286
O O3 0.878808 0.278254 0.605192
O O4 0.804654 0.083259 0.581630
O O5 0.400607 0.866054 0.581741
O O6 0.425583 0.834377 0.409238
O O7 0.500000 0.000000 0.500000
O O8 0.339962 0.996724 0.458033
O O9 0.415733 0.775641 0.750000
O O10 0.794310 0.529066 0.750000
O O11 0.779076 0.534998 0.564191
O O12 0.911888 0.481197 0.640997
O O13 0.853139 0.684710 0.653116
O O14 0.207220 0.124811 0.092247
O O15 0.057221 0.827214 0.750000
O O16 0.957701 0.849325 0.878912
O O17 0.117621 0.250000 0.000000
#
# Coordination Sequence:
#
# PCOD9438159 Si02
#       7
#     8   8   8   8   8   8   8
#     4  11  18  36  62  90 118 154 203 256 309 360
#     4  10  21  41  66  93 124 162 200 256 316 381
#     4  10  20  39  63  96 128 157 203 257 310 372
#     4  10  21  38  55  80 117 154 199 248 297 360
#     4  10  21  39  61  85 114 158 199 243 315 370
#     4  11  22  34  55  84 115 159 209 257 299 348
#     4  10  23  37  53  78 117 158 199 247 295 365
#
# _framework density 18.779288000000001
#
# number of rings (size 3 to 8) (size 9 to 14) (size 15 to 20)
#    0.000    1.714    4.286    1.286    2.000    3.429 
#    7.714    6.429    0.000    0.000    0.000    0.000 
#    0.000    0.000    0.000    0.000    0.000    0.000 
#
# Total GULP energy -311902.189517 kJ/mol
# GULP energy per Si atom -5569.681956 kJ/mol
# Density = 1.873655 g / cm^3
# Si number density = 18.779288 Si / 1000 Ang^3
#
#
#
# Elastic Constant Matrix: (Units=GPa)
#
#
# Indices 1 2 3 4 5 6 
#
# 1 96.2304 63.7585 25.2470 0.0000 0.0000 0.0000
# 2 63.7585 119.4034 40.0962 0.0000 0.0000 0.0000
# 3 25.2470 40.0962 97.9075 0.0000 0.0000 0.0000
# 4 0.0000 0.0000 0.0000 0.2700 0.0000 0.0000
# 5 0.0000 0.0000 0.0000 0.0000 -8.0067 0.0000
# 6 0.0000 0.0000 0.0000 0.0000 0.0000 28.1608
#
#
#
# Elastic Compliance Matrix: (Units=1/GPa)
#
#
# Indices 1 2 3 4 5 6 
#
# 1 0.016126 -0.008365 -0.000733 0.000000 0.000000 0.000000
# 2 -0.008365 0.014049 -0.003597 0.000000 0.000000 0.000000
# 3 -0.000733 -0.003597 0.011876 0.000000 0.000000 0.000000
# 4 0.000000 0.000000 0.000000 3.704108 0.000000 0.000000
# 5 0.000000 0.000000 0.000000 0.000000 -0.124896 0.000000
# 6 0.000000 0.000000 0.000000 0.000000 0.000000 0.035510
#
#
# Mechanical properties :
#
#
# Convention : Reuss Voigt Hill
#
# Bulk Modulus (GPa) = 60.01440 63.52719 61.77079
# Shear Modulus (GPa) = 1.35585 16.38079 8.86832
#
# Velocity S-wave (km/s) = 0.85062 2.95664 2.17546
# Velocity P-wave (km/s) = 5.74386 6.74962 6.26695
#
# Compressibility (1/GPa) = 0.01666267
#
# Stress axis : x y z
#
# Youngs Moduli (GPa) = 62.01055 71.17717 84.20630
#
# Poissons Ratio (x) = 0.59540 0.06170
# Poissons Ratio (y) = 0.51872 0.30286
# Poissons Ratio (z) = 0.04543 0.25600
#
# Static dielectric constant tensor:
#      x y z
#    x 1.706410 0.000000 0.000000 
#    y 0.000000 1.704720 0.000000 
#    z 0.000000 0.000000 1.652650 
# 
# From -- ./inp_files/18533.got.cif
#   From: 2010.05.17/outbox.cif.g08.bks.cpg/sg57_10_cif.got.tgz:18533.got - 2010.06.03 13:58:18.
