data_PCOD9438923
_publ_section_title
;
Structure prediction by ZEFSAII (Michael W. Deem and Ramdas Pophale) SiO2 
 PCOD9438923
Probable space group: P B C M
;
_chemical_formula_sum "Si O2"
_cell_formula_units_Z 48
_cell_length_a 11.052408
_cell_length_b 14.201944
_cell_length_c 14.579778
_cell_angle_alpha 90.000000
_cell_angle_beta 90.000000
_cell_angle_gamma 90.000000
_cell_volume 2288.524760
_symmetry_space_group_name_H-M "P B C M"
_symmetry_group_IT_number 57
_symmetry_cell_setting 'orthorhombic'
loop_
_space_group_symop_operation_xyz
x,y,z
-x,-y,1/2+z
x,1/2-y,-z
-x,1/2+y,1/2-z
-x,-y,-z
x,y,1/2-z
-x,1/2+y,z
x,1/2-y,1/2+z
loop_
_atom_site_type_symbol
_atom_site_label
_atom_site_fract_x
_atom_site_fract_y
_atom_site_fract_z
Si Si1 0.241624 0.643946 0.024639
Si Si2 0.006858 0.571141 0.085654
Si Si3 0.121692 0.906830 0.347607
Si Si4 0.513375 0.888007 0.516453
Si Si5 0.373469 0.238739 0.859694
Si Si6 0.093623 0.241754 0.857931
O O1 0.219272 0.591650 0.928031
O O2 0.380103 0.641832 0.050399
O O3 0.205864 0.750000 0.000000
O O4 0.147024 0.599569 0.095812
O O5 0.940080 0.508014 0.158742
O O6 0.936327 0.668813 0.079407
O O7 0.000000 0.500000 0.000000
O O8 0.174673 0.877587 0.250000
O O9 0.010306 0.836337 0.369982
O O10 0.549208 0.834869 0.421354
O O11 0.602567 0.841102 0.592462
O O12 0.500000 0.000000 0.500000
O O13 0.399603 0.239100 0.750000
O O14 0.231983 0.211536 0.871934
O O15 0.084352 0.270255 0.750000
#
# Coordination Sequence:
#
# PCOD9438923 Si02
#       6
#     8   8   8   8   8   8
#     4  11  21  41  58  90 122 161 206 251 314 370
#     4  10  22  34  60  87 120 153 195 247 307 368
#     4  10  22  38  61  92 123 158 199 251 312 375
#     4  11  26  43  66  94 127 169 223 264 319 383
#     4  10  24  45  66  91 128 173 220 267 316 382
#     4  10  21  39  61  90 123 161 206 252 309 374
#
# _framework density 20.974209999999999
#
# number of rings (size 3 to 8) (size 9 to 14) (size 15 to 20)
#    0.000    1.667    3.333    0.500    7.000    5.333 
#    0.000    1.667    0.000    0.000    0.000    0.000 
#    0.000    0.000    0.000    0.000    0.000    0.000 
#
# Total GULP energy -267476.819957 kJ/mol
# GULP energy per Si atom -5572.433749 kJ/mol
# Density = 2.092647 g / cm^3
# Si number density = 20.974210 Si / 1000 Ang^3
#
#
#
# Elastic Constant Matrix: (Units=GPa)
#
#
# Indices 1 2 3 4 5 6 
#
# 1 55.2826 -22.6956 -18.7571 0.0000 0.0000 0.0000
# 2 -22.6956 97.7630 -7.4167 0.0000 0.0000 0.0000
# 3 -18.7571 -7.4167 74.5079 0.0000 0.0000 0.0000
# 4 0.0000 0.0000 0.0000 30.9488 0.0000 0.0000
# 5 0.0000 0.0000 0.0000 0.0000 7.5112 0.0000
# 6 0.0000 0.0000 0.0000 0.0000 0.0000 22.6508
#
#
#
# Elastic Compliance Matrix: (Units=1/GPa)
#
#
# Indices 1 2 3 4 5 6 
#
# 1 0.022552 0.005709 0.006246 0.000000 0.000000 0.000000
# 2 0.005709 0.011752 0.002607 0.000000 0.000000 0.000000
# 3 0.006246 0.002607 0.015253 0.000000 0.000000 0.000000
# 4 0.000000 0.000000 0.000000 0.032311 0.000000 0.000000
# 5 0.000000 0.000000 0.000000 0.000000 0.133135 0.000000
# 6 0.000000 0.000000 0.000000 0.000000 0.000000 0.044148
#
#
# Mechanical properties :
#
#
# Convention : Reuss Voigt Hill
#
# Bulk Modulus (GPa) = 12.70954 14.42385 13.56670
# Shear Modulus (GPa) = 19.51183 30.65035 25.08109
#
# Velocity S-wave (km/s) = 3.05335 3.82689 3.46179
# Velocity P-wave (km/s) = 4.30156 5.13991 4.73931
#
# Compressibility (1/GPa) = 0.07868104
#
# Stress axis : x y z
#
# Youngs Moduli (GPa) = 44.34222 85.09187 65.55992
#
# Poissons Ratio (x) = -0.48581 -0.40946
# Poissons Ratio (y) = -0.25316 -0.17092
# Poissons Ratio (z) = -0.27695 -0.22184
#
# Static dielectric constant tensor:
#      x y z
#    x 1.725450 0.000000 0.000000 
#    y 0.000000 1.796760 0.000000 
#    z 0.000000 0.000000 1.782180 
# 
# From -- ./inp_files/17618.got.cif
#   From: 2010.05.17/outbox.cif.g08.bks.cpg/sg57_9_cif.got.tgz:17618.got - 2010.06.03 13:58:18.
