data_PCOD9438428
_publ_section_title
;
Structure prediction by ZEFSAII (Michael W. Deem and Ramdas Pophale) SiO2 
 PCOD9438428
Probable space group: P B C M
;
_chemical_formula_sum "Si O2"
_cell_formula_units_Z 64
_cell_length_a 19.714046
_cell_length_b 19.537202
_cell_length_c 8.787167
_cell_angle_alpha 90.000000
_cell_angle_beta 90.000000
_cell_angle_gamma 90.000000
_cell_volume 3384.441507
_symmetry_space_group_name_H-M "P B C M"
_symmetry_group_IT_number 57
_symmetry_cell_setting 'orthorhombic'
loop_
_space_group_symop_operation_xyz
x,y,z
-x,-y,1/2+z
x,1/2-y,-z
-x,1/2+y,1/2-z
-x,-y,-z
x,y,1/2-z
-x,1/2+y,z
x,1/2-y,1/2+z
loop_
_atom_site_type_symbol
_atom_site_label
_atom_site_fract_x
_atom_site_fract_y
_atom_site_fract_z
Si Si1 0.543863 0.674521 0.066813
Si Si2 0.591740 0.406822 0.932511
Si Si3 0.217980 0.454288 0.067939
Si Si4 0.718058 0.325481 0.430929
Si Si5 0.024052 0.824238 0.066387
Si Si6 0.868296 0.823584 0.433127
Si Si7 0.632301 0.546054 0.432438
Si Si8 0.148807 0.584888 0.931669
O O1 0.544665 0.679772 0.250000
O O2 0.472076 0.640174 0.022252
O O3 0.600962 0.619226 0.021538
O O4 0.552282 0.750000 0.000000
O O5 0.593084 0.411209 0.750000
O O6 0.660010 0.371333 0.992711
O O7 0.589519 0.482960 0.000460
O O8 0.226210 0.454839 0.250000
O O9 0.182135 0.383655 0.020211
O O10 0.291142 0.461482 0.991045
O O11 0.170132 0.516583 0.017808
O O12 0.716305 0.250000 0.500000
O O13 0.706107 0.322785 0.250000
O O14 0.790918 0.360458 0.456801
O O15 0.026731 0.820126 0.250000
O O16 0.078081 0.881311 0.018716
O O17 0.946300 0.838986 0.020871
O O18 0.042418 0.750000 0.000000
O O19 0.849680 0.750000 0.500000
O O20 0.867313 0.819560 0.250000
O O21 0.630830 0.541464 0.250000
O O22 0.145985 0.571218 0.750000
#
# Coordination Sequence:
#
# PCOD9438428 Si02
#       8
#     8   8   8   8   8   8   8   8
#     4  10  24  42  62  89 119 151 192 238 288 344
#     4  11  22  39  62  89 117 152 192 235 287 344
#     4  11  23  38  58  85 116 151 194 241 287 344
#     4  11  22  35  54  83 118 156 195 235 280 334
#     4   9  18  35  57  82 114 152 193 237 287 343
#     4   9  20  38  59  84 113 148 193 242 291 343
#     4  11  23  41  62  86 117 154 194 239 290 346
#     4  10  21  36  55  81 116 154 192 236 287 341
#
# _framework density 18.910060999999999
#
# number of rings (size 3 to 8) (size 9 to 14) (size 15 to 20)
#    0.000    1.750    1.250    2.625    0.000    6.000 
#    0.000    2.500    0.000    0.000    0.000    0.000 
#    0.000    0.000    0.000    0.000    0.000    0.000 
#
# Total GULP energy -357611.818544 kJ/mol
# GULP energy per Si atom -5587.684665 kJ/mol
# Density = 1.886702 g / cm^3
# Si number density = 18.910061 Si / 1000 Ang^3
#
#
#
# Elastic Constant Matrix: (Units=GPa)
#
#
# Indices 1 2 3 4 5 6 
#
# 1 25.5271 32.6541 13.6126 0.0000 0.0000 0.0000
# 2 32.6541 144.6923 34.9834 0.0000 0.0000 0.0000
# 3 13.6126 34.9834 31.2801 0.0000 0.0000 0.0000
# 4 0.0000 0.0000 0.0000 36.6496 0.0000 0.0000
# 5 0.0000 0.0000 0.0000 0.0000 14.5667 0.0000
# 6 0.0000 0.0000 0.0000 0.0000 0.0000 35.2750
#
#
#
# Elastic Compliance Matrix: (Units=1/GPa)
#
#
# Indices 1 2 3 4 5 6 
#
# 1 0.059790 -0.009872 -0.014979 0.000000 0.000000 0.000000
# 2 -0.009872 0.011103 -0.008121 0.000000 0.000000 0.000000
# 3 -0.014979 -0.008121 0.047570 0.000000 0.000000 0.000000
# 4 0.000000 0.000000 0.000000 0.027285 0.000000 0.000000
# 5 0.000000 0.000000 0.000000 0.000000 0.068650 0.000000
# 6 0.000000 0.000000 0.000000 0.000000 0.000000 0.028349
#
#
# Mechanical properties :
#
#
# Convention : Reuss Voigt Hill
#
# Bulk Modulus (GPa) = 19.04074 40.44441 29.74257
# Shear Modulus (GPa) = 15.32819 25.31487 20.32153
#
# Velocity S-wave (km/s) = 2.85016 3.66279 3.28173
# Velocity P-wave (km/s) = 4.57408 6.27075 5.48837
#
# Compressibility (1/GPa) = 0.05251896
#
# Stress axis : x y z
#
# Youngs Moduli (GPa) = 16.72528 90.06967 21.02155
#
# Poissons Ratio (x) = 0.88914 0.31488
# Poissons Ratio (y) = 0.16511 0.17071
# Poissons Ratio (z) = 0.25053 0.73145
#
# Static dielectric constant tensor:
#      x y z
#    x 1.648430 0.000000 0.000000 
#    y 0.000000 1.629020 0.000000 
#    z 0.000000 0.000000 1.634930 
# 
# From -- ./inp_files/8610.got.cif
#   From: 2010.05.17/outbox.cif.g08.bks.cpg/sg57_5_cif.got.tgz:8610.got - 2010.06.03 13:58:18.
