data_PCOD9438576
_publ_section_title
;
Structure prediction by ZEFSAII (Michael W. Deem and Ramdas Pophale) SiO2 
 PCOD9438576
Probable space group: P B C M
;
_chemical_formula_sum "Si O2"
_cell_formula_units_Z 64
_cell_length_a 21.726974
_cell_length_b 8.993340
_cell_length_c 14.548149
_cell_angle_alpha 90.000000
_cell_angle_beta 90.000000
_cell_angle_gamma 90.000000
_cell_volume 2842.680155
_symmetry_space_group_name_H-M "P B C M"
_symmetry_group_IT_number 57
_symmetry_cell_setting 'orthorhombic'
loop_
_space_group_symop_operation_xyz
x,y,z
-x,-y,1/2+z
x,1/2-y,-z
-x,1/2+y,1/2-z
-x,-y,-z
x,y,1/2-z
-x,1/2+y,z
x,1/2-y,1/2+z
loop_
_atom_site_type_symbol
_atom_site_label
_atom_site_fract_x
_atom_site_fract_y
_atom_site_fract_z
Si Si1 0.608222 0.094289 0.966695
Si Si2 0.826569 0.090731 0.351454
Si Si3 0.957744 0.464890 0.640675
Si Si4 0.589908 0.529316 0.852474
Si Si5 0.268774 0.670855 0.900462
Si Si6 0.202059 0.101547 0.469405
Si Si7 0.464736 0.358853 0.852795
Si Si8 0.079268 0.302503 0.637964
O O1 0.658879 0.140733 0.890663
O O2 0.564299 0.971747 0.924844
O O3 0.579829 0.250000 0.000000
O O4 0.632694 0.016316 0.061536
O O5 0.828308 0.017362 0.250000
O O6 0.776802 0.221623 0.346675
O O7 0.897261 0.138250 0.372968
O O8 0.810379 0.984837 0.435652
O O9 0.967776 0.468334 0.750000
O O10 0.938810 0.632188 0.615553
O O11 0.021797 0.402737 0.604506
O O12 0.618620 0.534376 0.750000
O O13 0.536359 0.404184 0.849921
O O14 0.555402 0.687963 0.868938
O O15 0.239051 0.509387 0.905401
O O16 0.267796 0.750000 0.000000
O O17 0.236764 0.250000 0.500000
O O18 0.140489 0.149417 0.415344
O O19 0.441151 0.393999 0.750000
O O20 0.086962 0.313753 0.750000
#
# Coordination Sequence:
#
# PCOD9438576 Si02
#       8
#     8   8   8   8   8   8   8   8
#     4  11  22  39  62  89 125 169 218 272 325 379
#     4  10  21  42  64  85 120 164 210 260 314 379
#     4   9  19  35  58  89 124 161 203 253 312 384
#     4  10  21  38  62  95 132 174 217 264 324 383
#     4   9  23  42  60  83 114 161 215 262 312 377
#     4  11  22  39  60  89 121 158 204 261 320 379
#     4  10  21  37  61  95 136 175 219 269 319 384
#     4  10  21  37  58  92 129 161 202 254 318 389
#
# _framework density 22.513964000000001
#
# number of rings (size 3 to 8) (size 9 to 14) (size 15 to 20)
#    0.000    2.000    1.250    1.500    1.750    4.000 
#    0.000    5.000    0.000    0.750    0.000    0.000 
#    0.000    0.000    0.000    0.000    0.000    0.000 
#
# Total GULP energy -356825.232076 kJ/mol
# GULP energy per Si atom -5575.394251 kJ/mol
# Density = 2.246272 g / cm^3
# Si number density = 22.513964 Si / 1000 Ang^3
#
#
#
# Elastic Constant Matrix: (Units=GPa)
#
#
# Indices 1 2 3 4 5 6 
#
# 1 33.0811 22.3923 16.8894 0.0000 0.0000 0.0000
# 2 22.3923 92.9256 33.7154 0.0000 0.0000 0.0000
# 3 16.8894 33.7154 82.7743 0.0000 0.0000 0.0000
# 4 0.0000 0.0000 0.0000 27.6923 0.0000 0.0000
# 5 0.0000 0.0000 0.0000 0.0000 -35.0166 0.0000
# 6 0.0000 0.0000 0.0000 0.0000 0.0000 34.3154
#
#
#
# Elastic Compliance Matrix: (Units=1/GPa)
#
#
# Indices 1 2 3 4 5 6 
#
# 1 0.037599 -0.007365 -0.004672 0.000000 0.000000 0.000000
# 2 -0.007365 0.014070 -0.004228 0.000000 0.000000 0.000000
# 3 -0.004672 -0.004228 0.014757 0.000000 0.000000 0.000000
# 4 0.000000 0.000000 0.000000 0.036111 0.000000 0.000000
# 5 0.000000 0.000000 0.000000 0.000000 -0.028558 0.000000
# 6 0.000000 0.000000 0.000000 0.000000 0.000000 0.029141
#
#
# Mechanical properties :
#
#
# Convention : Reuss Voigt Hill
#
# Bulk Modulus (GPa) = 29.50246 39.41947 34.46096
# Shear Modulus (GPa) = 34.02516 14.45047 24.23781
#
# Velocity S-wave (km/s) = 3.89175 2.53621 3.28467
# Velocity P-wave (km/s) = 5.77294 5.11111 5.45207
#
# Compressibility (1/GPa) = 0.03389548
#
# Stress axis : x y z
#
# Youngs Moduli (GPa) = 26.59613 71.07220 67.76666
#
# Poissons Ratio (x) = 0.52347 0.31659
# Poissons Ratio (y) = 0.19589 0.28653
# Poissons Ratio (z) = 0.12425 0.30051
#
# Static dielectric constant tensor:
#      x y z
#    x 1.899730 0.000000 0.000000 
#    y 0.000000 1.831070 0.000000 
#    z 0.000000 0.000000 1.894360 
# 
# From -- ./inp_files/19503.got.cif
#   From: 2010.05.17/outbox.cif.g08.bks.cpg/sg57_10_cif.got.tgz:19503.got - 2010.06.03 13:58:18.
