data_PCOD9438747
_publ_section_title
;
Structure prediction by ZEFSAII (Michael W. Deem and Ramdas Pophale) SiO2 
 PCOD9438747
Probable space group: P B C M
;
_chemical_formula_sum "Si O2"
_cell_formula_units_Z 64
_cell_length_a 24.320736
_cell_length_b 8.851246
_cell_length_c 15.703516
_cell_angle_alpha 90.000000
_cell_angle_beta 90.000000
_cell_angle_gamma 90.000000
_cell_volume 3380.477316
_symmetry_space_group_name_H-M "P B C M"
_symmetry_group_IT_number 57
_symmetry_cell_setting 'orthorhombic'
loop_
_space_group_symop_operation_xyz
x,y,z
-x,-y,1/2+z
x,1/2-y,-z
-x,1/2+y,1/2-z
-x,-y,-z
x,y,1/2-z
-x,1/2+y,z
x,1/2-y,1/2+z
loop_
_atom_site_type_symbol
_atom_site_label
_atom_site_fract_x
_atom_site_fract_y
_atom_site_fract_z
Si Si1 0.140157 0.568680 0.153378
Si Si2 0.859843 0.068680 0.846622
Si Si3 0.629898 0.429864 0.653108
Si Si4 0.629898 0.070136 0.653108
Si Si5 0.939518 0.067870 1.000000
Si Si6 0.560573 0.930128 1.000000
Si Si7 0.256111 0.072786 0.897592
Si Si8 0.743889 0.927214 0.897592
O O1 0.122521 0.535875 0.250000
O O2 0.147815 0.750000 0.145466
O O3 0.095560 0.522064 0.083115
O O4 0.198235 0.490271 0.134950
O O5 0.877479 0.035875 0.750000
O O6 0.801765 0.990271 0.865050
O O7 0.904440 0.022064 0.916885
O O8 0.612629 0.463917 0.750000
O O9 0.626257 0.250000 0.639812
O O10 0.593488 0.513268 0.582902
O O11 0.692709 0.482573 0.640738
O O12 0.612629 0.036083 0.750000
O O13 0.593488 0.986732 0.582902
O O14 0.692709 0.017427 0.640738
O O15 0.943469 0.250000 0.000000
O O16 0.000000 0.000000 0.000000
O O17 0.557936 0.750000 0.000000
O O18 0.500000 0.000000 0.000000
O O19 0.261477 0.250000 0.876977
O O20 0.257766 0.056540 0.000000
#
# Coordination Sequence:
#
# PCOD9438747 Si02
#       8
#     8   8   8   8   8   8   8   8
#     4  10  21  38  60  85 114 153 197 240 293 356
#     4  10  21  38  60  85 114 153 197 240 293 356
#     4  11  24  42  66  95 127 165 207 252 304 364
#     4  11  24  42  66  95 127 165 207 252 304 364
#     4  10  22  39  58  81 112 149 193 245 293 350
#     4  12  26  45  68  93 124 165 209 259 309 360
#     4  11  22  36  59  92 126 160 197 244 302 359
#     4  11  22  36  59  92 126 160 197 244 302 359
#
# _framework density 18.932237000000001
#
# number of rings (size 3 to 8) (size 9 to 14) (size 15 to 20)
#    0.000    1.250    2.500    3.375    0.000    8.500 
#    0.000    0.000    0.000    0.000    0.000    0.000 
#    0.000    0.000    0.000    0.000    0.000    0.000 
#
# Total GULP energy -357934.763979 kJ/mol
# GULP energy per Si atom -5592.730687 kJ/mol
# Density = 1.888915 g / cm^3
# Si number density = 18.932237 Si / 1000 Ang^3
#
#
#
# Elastic Constant Matrix: (Units=GPa)
#
#
# Indices 1 2 3 4 5 6 
#
# 1 151.7660 56.9924 83.1876 0.0000 0.0000 0.0000
# 2 56.9924 84.4187 83.0991 0.0000 0.0000 0.0000
# 3 83.1876 83.0991 159.2627 0.0000 0.0000 0.0000
# 4 0.0000 0.0000 0.0000 18.8424 0.0000 0.0000
# 5 0.0000 0.0000 0.0000 0.0000 -4.6356 0.0000
# 6 0.0000 0.0000 0.0000 0.0000 0.0000 40.2641
#
#
#
# Elastic Compliance Matrix: (Units=1/GPa)
#
#
# Indices 1 2 3 4 5 6 
#
# 1 0.009632 -0.003187 -0.003368 0.000000 0.000000 0.000000
# 2 -0.003187 0.025410 -0.011593 0.000000 0.000000 0.000000
# 3 -0.003368 -0.011593 0.014087 0.000000 0.000000 0.000000
# 4 0.000000 0.000000 0.000000 0.053072 0.000000 0.000000
# 5 0.000000 0.000000 0.000000 0.000000 -0.215722 0.000000
# 6 0.000000 0.000000 0.000000 0.000000 0.000000 0.024836
#
#
# Mechanical properties :
#
#
# Convention : Reuss Voigt Hill
#
# Bulk Modulus (GPa) = 77.93243 93.55619 85.74431
# Shear Modulus (GPa) = -103.92657 22.37207 -40.77725
#
# Velocity S-wave (km/s) = -7.41708 3.44130 -4.64600
# Velocity P-wave (km/s) = 5.66548 8.08169 4.07530
#
# Compressibility (1/GPa) = 0.01283163
#
# Stress axis : x y z
#
# Youngs Moduli (GPa) = 103.81844 39.35529 70.98655
#
# Poissons Ratio (x) = 0.12544 0.23909
# Poissons Ratio (y) = 0.33091 0.82296
# Poissons Ratio (z) = 0.34967 0.45625
#
# Static dielectric constant tensor:
#      x y z
#    x 1.604680 0.000000 0.000000 
#    y 0.000000 1.635260 0.000000 
#    z 0.000000 0.000000 1.669050 
# 
# From -- ./inp_files/19501.got.cif
#   From: 2010.05.17/outbox.cif.g08.bks.cpg/sg57_10_cif.got.tgz:19501.got - 2010.06.03 13:58:18.
