data_PCOD9438250
_publ_section_title
;
Structure prediction by ZEFSAII (Michael W. Deem and Ramdas Pophale) SiO2 
 PCOD9438250
Probable space group: P B C M
;
_chemical_formula_sum "Si O2"
_cell_formula_units_Z 60
_cell_length_a 17.687995
_cell_length_b 9.593516
_cell_length_c 17.766231
_cell_angle_alpha 90.000000
_cell_angle_beta 90.000000
_cell_angle_gamma 90.000000
_cell_volume 3014.752858
_symmetry_space_group_name_H-M "P B C M"
_symmetry_group_IT_number 57
_symmetry_cell_setting 'orthorhombic'
loop_
_space_group_symop_operation_xyz
x,y,z
-x,-y,1/2+z
x,1/2-y,-z
-x,1/2+y,1/2-z
-x,-y,-z
x,y,1/2-z
-x,1/2+y,z
x,1/2-y,1/2+z
loop_
_atom_site_type_symbol
_atom_site_label
_atom_site_fract_x
_atom_site_fract_y
_atom_site_fract_z
Si Si1 0.978600 0.158690 0.750000
Si Si2 0.297121 0.039082 0.340257
Si Si3 0.287389 0.763254 0.909621
Si Si4 0.831797 0.616262 0.048884
Si Si5 0.983886 0.909597 0.865064
Si Si6 0.415275 0.551760 0.158449
Si Si7 0.439295 0.268404 0.841211
Si Si8 0.133957 0.869391 0.944921
O O1 0.001395 0.274180 0.685317
O O2 0.960637 0.041164 0.815231
O O3 0.290706 0.037789 0.250000
O O4 0.308512 0.881997 0.370006
O O5 0.222344 0.098744 0.379648
O O6 0.367433 0.137447 0.362277
O O7 0.339823 0.885065 0.877274
O O8 0.198976 0.798600 0.894427
O O9 0.295983 0.750000 0.000000
O O10 0.918278 0.620435 0.075599
O O11 0.811935 0.750000 0.000000
O O12 0.823613 0.481738 0.996149
O O13 0.065372 0.939631 0.902053
O O14 0.409511 0.554217 0.250000
O O15 0.431433 0.392272 0.134685
O O16 0.484316 0.652951 0.135307
O O17 0.441122 0.265462 0.750000
O O18 0.102551 0.750000 0.000000
#
# Coordination Sequence:
#
# PCOD9438250 Si02
#       8
#     4   8   8   8   8   8   8   8
#     4  10  24  40  62  98 132 158 210 288 320 378
#     4  11  24  42  66  94 130 173 215 271 331 384
#     4  11  23  41  62  93 129 167 221 267 323 387
#     4  12  25  41  66  94 129 173 220 271 326 392
#     4  11  23  42  65  93 129 173 217 268 329 382
#     4  10  20  40  67  95 127 167 215 262 318 392
#     4   9  20  39  66  97 127 165 210 259 320 393
#     4  11  22  43  64  87 121 173 222 262 314 396
#
# _framework density 19.90213
#
# number of rings (size 3 to 8) (size 9 to 14) (size 15 to 20)
#    0.000    1.333    2.667    3.600    3.733    2.133 
#    3.600    3.333    0.000    0.000    0.000    0.000 
#    0.000    0.000    0.000    0.000    0.000    0.000 
#
# Total GULP energy -334172.654720 kJ/mol
# GULP energy per Si atom -5569.544245 kJ/mol
# Density = 1.985683 g / cm^3
# Si number density = 19.902130 Si / 1000 Ang^3
#
#
#
# Elastic Constant Matrix: (Units=GPa)
#
#
# Indices 1 2 3 4 5 6 
#
# 1 91.2380 -23.8782 27.1429 0.0000 0.0000 0.0000
# 2 -23.8782 -122.6983 91.8444 0.0000 0.0000 0.0000
# 3 27.1429 91.8444 32.7257 0.0000 0.0000 0.0000
# 4 0.0000 0.0000 0.0000 49.3161 0.0000 0.0000
# 5 0.0000 0.0000 0.0000 0.0000 16.4890 0.0000
# 6 0.0000 0.0000 0.0000 0.0000 0.0000 22.1789
#
#
#
# Elastic Compliance Matrix: (Units=1/GPa)
#
#
# Indices 1 2 3 4 5 6 
#
# 1 0.010522 -0.002767 -0.000961 0.000000 0.000000 0.000000
# 2 -0.002767 -0.001901 0.007629 0.000000 0.000000 0.000000
# 3 -0.000961 0.007629 0.009942 0.000000 0.000000 0.000000
# 4 0.000000 0.000000 0.000000 0.020277 0.000000 0.000000
# 5 0.000000 0.000000 0.000000 0.000000 0.060646 0.000000
# 6 0.000000 0.000000 0.000000 0.000000 0.000000 0.045088
#
#
# Mechanical properties :
#
#
# Convention : Reuss Voigt Hill
#
# Bulk Modulus (GPa) = 37.92757 21.27595 29.60176
# Shear Modulus (GPa) = 34.34960 11.34054 22.84507
#
# Velocity S-wave (km/s) = 4.15893 2.38967 3.39170
# Velocity P-wave (km/s) = 6.49313 4.28107 5.49947
#
# Compressibility (1/GPa) = 0.02636604
#
# Stress axis : x y z
#
# Youngs Moduli (GPa) = 95.03821 -526.12365 100.57873
#
# Poissons Ratio (x) = -1.45585 0.09667
# Poissons Ratio (y) = 0.26298 -0.76735
# Poissons Ratio (z) = 0.09134 4.01399
#
# Static dielectric constant tensor:
#      x y z
#    x 1.696130 0.000000 0.000000 
#    y 0.000000 1.647680 0.000000 
#    z 0.000000 0.000000 1.704760 
# 
# From -- ./inp_files/22883.got.cif
#   From: 2010.05.17/outbox.cif.g08.bks.cpg/sg57_12_cif.got.tgz:22883.got - 2010.06.03 13:58:18.
