data_PCOD9438660
_publ_section_title
;
Structure prediction by ZEFSAII (Michael W. Deem and Ramdas Pophale) SiO2 
 PCOD9438660
Probable space group: P B C M
;
_chemical_formula_sum "Si O2"
_cell_formula_units_Z 52
_cell_length_a 5.832461
_cell_length_b 25.649506
_cell_length_c 15.973699
_cell_angle_alpha 90.000000
_cell_angle_beta 90.000000
_cell_angle_gamma 90.000000
_cell_volume 2389.661272
_symmetry_space_group_name_H-M "P B C M"
_symmetry_group_IT_number 57
_symmetry_cell_setting 'orthorhombic'
loop_
_space_group_symop_operation_xyz
x,y,z
-x,-y,1/2+z
x,1/2-y,-z
-x,1/2+y,1/2-z
-x,-y,-z
x,y,1/2-z
-x,1/2+y,z
x,1/2-y,1/2+z
loop_
_atom_site_type_symbol
_atom_site_label
_atom_site_fract_x
_atom_site_fract_y
_atom_site_fract_z
Si Si1 0.776708 0.100625 0.586079
Si Si2 0.934672 0.614954 0.068607
Si Si3 0.761928 0.250000 0.000000
Si Si4 0.399722 0.330125 0.447419
Si Si5 0.059803 0.108206 0.250000
Si Si6 0.981765 0.704643 0.653583
Si Si7 0.433425 0.549911 0.250000
Si Si8 0.636880 0.990155 0.913809
O O1 0.513774 0.118533 0.591039
O O2 0.791674 0.040450 0.609711
O O3 0.846130 0.103134 0.488087
O O4 0.917889 0.145570 0.635199
O O5 0.966436 0.636283 0.161371
O O6 0.793927 0.560946 0.075598
O O7 0.791921 0.655084 0.013400
O O8 0.594542 0.299124 0.004086
O O9 0.903914 0.257459 0.085020
O O10 0.284143 0.297933 0.372987
O O11 0.325319 0.085280 0.250000
O O12 0.826397 0.072498 0.250000
O O13 0.019164 0.717699 0.750000
O O14 0.465912 0.519044 0.163535
O O15 0.500000 0.000000 0.000000
#
# Coordination Sequence:
#
# PCOD9438660 Si02
#       8
#     8   8   4   8   4   8   4   8
#     4  10  21  37  62  93 130 177 222 266 335 401
#     4  10  21  38  62  91 130 177 225 278 338 401
#     4  10  22  44  74  90 134 166 224 278 350 432
#     4  10  21  41  65  96 126 167 218 279 339 417
#     4  10  22  40  60  86 133 176 226 290 335 392
#     4  10  23  43  68 100 135 173 215 282 349 417
#     4  10  24  38  56  90 127 176 236 278 331 398
#     4  11  20  37  61  90 131 181 226 275 331 392
#
# _framework density 21.760407000000001
#
# number of rings (size 3 to 8) (size 9 to 14) (size 15 to 20)
#    0.000    1.846    1.538    1.846    3.231    3.692 
#    1.385    0.000   20.308    0.000    0.000    0.000 
#    0.000    0.000    0.000    0.000    0.000    0.000 
#
# Total GULP energy -289902.250245 kJ/mol
# GULP energy per Si atom -5575.043274 kJ/mol
# Density = 2.171088 g / cm^3
# Si number density = 21.760407 Si / 1000 Ang^3
#
#
#
# Elastic Constant Matrix: (Units=GPa)
#
#
# Indices 1 2 3 4 5 6 
#
# 1 63.9848 7.7139 32.9855 0.0000 0.0000 0.0000
# 2 7.7139 61.7420 19.0234 0.0000 0.0000 0.0000
# 3 32.9855 19.0234 153.2931 0.0000 0.0000 0.0000
# 4 0.0000 0.0000 0.0000 26.3009 0.0000 0.0000
# 5 0.0000 0.0000 0.0000 0.0000 16.9126 0.0000
# 6 0.0000 0.0000 0.0000 0.0000 0.0000 29.6739
#
#
#
# Elastic Compliance Matrix: (Units=1/GPa)
#
#
# Indices 1 2 3 4 5 6 
#
# 1 0.017647 -0.001076 -0.003664 0.000000 0.000000 0.000000
# 2 -0.001076 0.016906 -0.001866 0.000000 0.000000 0.000000
# 3 -0.003664 -0.001866 0.007543 0.000000 0.000000 0.000000
# 4 0.000000 0.000000 0.000000 0.038021 0.000000 0.000000
# 5 0.000000 0.000000 0.000000 0.000000 0.059128 0.000000
# 6 0.000000 0.000000 0.000000 0.000000 0.000000 0.033700
#
#
# Mechanical properties :
#
#
# Convention : Reuss Voigt Hill
#
# Bulk Modulus (GPa) = 34.62104 44.27395 39.44749
# Shear Modulus (GPa) = 25.53812 29.19729 27.36770
#
# Velocity S-wave (km/s) = 3.42951 3.66698 3.55023
# Velocity P-wave (km/s) = 5.62376 6.19026 5.91380
#
# Compressibility (1/GPa) = 0.02888417
#
# Stress axis : x y z
#
# Youngs Moduli (GPa) = 56.66626 59.15081 132.56529
#
# Poissons Ratio (x) = 0.06364 0.48569
# Poissons Ratio (y) = 0.06097 0.24743
# Poissons Ratio (z) = 0.20761 0.11040
#
# Static dielectric constant tensor:
#      x y z
#    x 1.840450 0.000000 0.000000 
#    y 0.000000 1.865690 0.000000 
#    z 0.000000 0.000000 1.789340 
# 
# From -- ./inp_files/20260.got.cif
#   From: 2010.05.17/outbox.cif.g08.bks.cpg/sg57_11_cif.got.tgz:20260.got - 2010.06.03 13:58:18.
