data_PCOD9438348
_publ_section_title
;
Structure prediction by ZEFSAII (Michael W. Deem and Ramdas Pophale) SiO2 
 PCOD9438348
Probable space group: P B C M
;
_chemical_formula_sum "Si O2"
_cell_formula_units_Z 64
_cell_length_a 21.522281
_cell_length_b 17.937577
_cell_length_c 7.683191
_cell_angle_alpha 90.000000
_cell_angle_beta 90.000000
_cell_angle_gamma 90.000000
_cell_volume 2966.154068
_symmetry_space_group_name_H-M "P B C M"
_symmetry_group_IT_number 57
_symmetry_cell_setting 'orthorhombic'
loop_
_space_group_symop_operation_xyz
x,y,z
-x,-y,1/2+z
x,1/2-y,-z
-x,1/2+y,1/2-z
-x,-y,-z
x,y,1/2-z
-x,1/2+y,z
x,1/2-y,1/2+z
loop_
_atom_site_type_symbol
_atom_site_label
_atom_site_fract_x
_atom_site_fract_y
_atom_site_fract_z
Si Si1 0.989254 0.587281 0.458786
Si Si2 0.878425 0.387402 0.543858
Si Si3 0.750362 0.331949 0.540385
Si Si4 0.352728 0.941842 0.546200
Si Si5 0.618111 0.894011 0.457280
Si Si6 0.747878 0.832503 0.956104
Si Si7 0.855337 0.939647 0.538183
Si Si8 0.486007 0.586969 0.543022
O O1 0.989015 0.596341 0.250000
O O2 0.919030 0.602267 0.519098
O O3 0.000000 0.500000 0.500000
O O4 0.052055 0.625702 0.528514
O O5 0.882000 0.372393 0.750000
O O6 0.820223 0.342366 0.470439
O O7 0.860756 0.474877 0.521854
O O8 0.726594 0.250000 0.500000
O O9 0.752791 0.339633 0.750000
O O10 0.703864 0.394899 0.470849
O O11 0.339149 0.952889 0.750000
O O12 0.418189 0.898328 0.533485
O O13 0.362842 0.024377 0.469630
O O14 0.609772 0.902714 0.250000
O O15 0.676970 0.841993 0.484073
O O16 0.549015 0.872527 0.521524
O O17 0.747220 0.840462 0.750000
O O18 0.794330 0.896280 0.025209
O O19 0.770955 0.750000 0.000000
O O20 0.854880 0.941155 0.750000
O O21 0.500000 0.500000 0.500000
O O22 0.479760 0.595978 0.750000
#
# Coordination Sequence:
#
# PCOD9438348 Si02
#       8
#     8   8   8   8   8   8   8   8
#     4   8  14  27  48  73  99 124 155 199 246 290
#     4   9  17  31  53  76  98 129 165 201 245 294
#     4  10  21  35  49  70 101 135 170 205 243 288
#     4   9  18  33  53  76 102 131 163 202 246 292
#     4   9  18  34  55  77 100 126 160 203 246 291
#     4  11  23  36  50  70  99 134 168 204 246 292
#     4   9  18  32  51  76 101 125 160 205 248 291
#     4   9  17  30  51  78 104 128 158 199 245 292
#
# _framework density 21.576763
#
# number of rings (size 3 to 8) (size 9 to 14) (size 15 to 20)
#    0.000    2.750    0.000    2.250    0.000    5.500 
#    0.000    1.250    0.000    1.500    0.000    0.000 
#    0.000    0.000    0.000    0.000    0.000    0.000 
#
# Total GULP energy -356662.020689 kJ/mol
# GULP energy per Si atom -5572.844073 kJ/mol
# Density = 2.152765 g / cm^3
# Si number density = 21.576763 Si / 1000 Ang^3
#
#
#
# Elastic Constant Matrix: (Units=GPa)
#
#
# Indices 1 2 3 4 5 6 
#
# 1 84.0490 1.0547 -9.4907 0.0000 0.0000 0.0000
# 2 1.0547 22.6290 -8.7424 0.0000 0.0000 0.0000
# 3 -9.4907 -8.7424 35.1877 0.0000 0.0000 0.0000
# 4 0.0000 0.0000 0.0000 16.4737 0.0000 0.0000
# 5 0.0000 0.0000 0.0000 0.0000 8.9741 0.0000
# 6 0.0000 0.0000 0.0000 0.0000 0.0000 3.7363
#
#
#
# Elastic Compliance Matrix: (Units=1/GPa)
#
#
# Indices 1 2 3 4 5 6 
#
# 1 0.012284 0.000783 0.003508 0.000000 0.000000 0.000000
# 2 0.000783 0.048933 0.012368 0.000000 0.000000 0.000000
# 3 0.003508 0.012368 0.032438 0.000000 0.000000 0.000000
# 4 0.000000 0.000000 0.000000 0.060703 0.000000 0.000000
# 5 0.000000 0.000000 0.000000 0.000000 0.111432 0.000000
# 6 0.000000 0.000000 0.000000 0.000000 0.000000 0.267642
#
#
# Mechanical properties :
#
#
# Convention : Reuss Voigt Hill
#
# Bulk Modulus (GPa) = 7.87574 11.94546 9.91060
# Shear Modulus (GPa) = 9.21763 16.43975 12.82869
#
# Velocity S-wave (km/s) = 2.06913 2.76328 2.44101
# Velocity P-wave (km/s) = 3.06046 3.96601 3.54229
#
# Compressibility (1/GPa) = 0.12697225
#
# Stress axis : x y z
#
# Youngs Moduli (GPa) = 81.40617 20.43614 30.82800
#
# Poissons Ratio (x) = -0.01599 -0.10813
# Poissons Ratio (y) = -0.06371 -0.38129
# Poissons Ratio (z) = -0.28554 -0.25276
#
# Static dielectric constant tensor:
#      x y z
#    x 1.867240 0.000000 0.000000 
#    y 0.000000 1.777200 0.000000 
#    z 0.000000 0.000000 1.813390 
# 
# From -- ./inp_files/8618.got.cif
#   From: 2010.05.17/outbox.cif.g08.bks.cpg/sg57_5_cif.got.tgz:8618.got - 2010.06.03 13:58:18.
