data_PCOD9438186
_publ_section_title
;
Structure prediction by ZEFSAII (Michael W. Deem and Ramdas Pophale) SiO2 
 PCOD9438186
Probable space group: P B C M
;
_chemical_formula_sum "Si O2"
_cell_formula_units_Z 64
_cell_length_a 17.196375
_cell_length_b 11.102419
_cell_length_c 15.615597
_cell_angle_alpha 90.000000
_cell_angle_beta 90.000000
_cell_angle_gamma 90.000000
_cell_volume 2981.351025
_symmetry_space_group_name_H-M "P B C M"
_symmetry_group_IT_number 57
_symmetry_cell_setting 'orthorhombic'
loop_
_space_group_symop_operation_xyz
x,y,z
-x,-y,1/2+z
x,1/2-y,-z
-x,1/2+y,1/2-z
-x,-y,-z
x,y,1/2-z
-x,1/2+y,z
x,1/2-y,1/2+z
loop_
_atom_site_type_symbol
_atom_site_label
_atom_site_fract_x
_atom_site_fract_y
_atom_site_fract_z
Si Si1 0.049351 0.042416 0.343619
Si Si2 0.843459 0.757016 0.101962
Si Si3 0.260860 0.647923 0.651365
Si Si4 0.124317 0.630768 0.977105
Si Si5 0.526927 0.947027 0.910568
Si Si6 0.309564 0.372709 0.848339
Si Si7 0.566482 0.288660 0.350182
Si Si8 0.132643 0.528044 0.345036
O O1 0.067061 0.985393 0.250000
O O2 0.100934 0.160634 0.353136
O O3 0.072556 0.961002 0.423936
O O4 0.957807 0.065993 0.345335
O O5 0.753772 0.721339 0.119373
O O6 0.861301 0.885337 0.142605
O O7 0.856679 0.750000 0.000000
O O8 0.247947 0.685336 0.750000
O O9 0.191198 0.673546 0.587863
O O10 0.268366 0.502866 0.652137
O O11 0.343923 0.698162 0.620359
O O12 0.076507 0.750000 0.000000
O O13 0.161890 0.576406 0.063195
O O14 0.613555 0.891853 0.904127
O O15 0.474238 0.829473 0.889798
O O16 0.530096 0.075139 0.858098
O O17 0.500000 0.000000 0.000000
O O18 0.333308 0.345531 0.750000
O O19 0.568425 0.263036 0.250000
O O20 0.164662 0.559891 0.250000
#
# Coordination Sequence:
#
# PCOD9438186 Si02
#       8
#     8   8   8   8   8   8   8   8
#     4  11  24  43  67  93 128 178 225 271 339 413
#     4  12  23  41  72 100 134 174 224 286 346 407
#     4   9  19  39  65  93 126 169 224 275 328 405
#     4  12  25  40  63  92 130 174 221 277 331 404
#     4  11  23  39  64 100 137 177 224 284 339 408
#     4  10  20  39  66  95 129 174 226 271 328 408
#     4  10  21  41  67  96 132 177 227 280 342 410
#     4  11  26  43  64  99 137 173 223 288 346 401
#
# _framework density 21.466778000000001
#
# number of rings (size 3 to 8) (size 9 to 14) (size 15 to 20)
#    0.000    1.250    2.500    4.125    1.750    4.000 
#    0.000    1.250    0.000    1.500    0.000    0.000 
#    0.000    0.000    0.000    0.000    0.000    0.000 
#
# Total GULP energy -357192.010268 kJ/mol
# GULP energy per Si atom -5581.125160 kJ/mol
# Density = 2.141792 g / cm^3
# Si number density = 21.466778 Si / 1000 Ang^3
#
#
#
# Elastic Constant Matrix: (Units=GPa)
#
#
# Indices 1 2 3 4 5 6 
#
# 1 72.2870 14.2888 22.5868 0.0000 0.0000 0.0000
# 2 14.2888 74.5036 6.6080 0.0000 0.0000 0.0000
# 3 22.5868 6.6080 107.7642 0.0000 0.0000 0.0000
# 4 0.0000 0.0000 0.0000 19.7275 0.0000 0.0000
# 5 0.0000 0.0000 0.0000 0.0000 34.3786 0.0000
# 6 0.0000 0.0000 0.0000 0.0000 0.0000 8.0789
#
#
#
# Elastic Compliance Matrix: (Units=1/GPa)
#
#
# Indices 1 2 3 4 5 6 
#
# 1 0.015313 -0.002667 -0.003046 0.000000 0.000000 0.000000
# 2 -0.002667 0.013960 -0.000297 0.000000 0.000000 0.000000
# 3 -0.003046 -0.000297 0.009936 0.000000 0.000000 0.000000
# 4 0.000000 0.000000 0.000000 0.050691 0.000000 0.000000
# 5 0.000000 0.000000 0.000000 0.000000 0.029088 0.000000
# 6 0.000000 0.000000 0.000000 0.000000 0.000000 0.123779
#
#
# Mechanical properties :
#
#
# Convention : Reuss Voigt Hill
#
# Bulk Modulus (GPa) = 36.77901 37.94689 37.36295
# Shear Modulus (GPa) = 18.95028 26.50842 22.72935
#
# Velocity S-wave (km/s) = 2.97437 3.51787 3.25747
# Velocity P-wave (km/s) = 5.38201 5.84944 5.62059
#
# Compressibility (1/GPa) = 0.02718942
#
# Stress axis : x y z
#
# Youngs Moduli (GPa) = 65.30580 71.63356 100.64258
#
# Poissons Ratio (x) = 0.19102 0.30655
# Poissons Ratio (y) = 0.17414 0.02990
# Poissons Ratio (z) = 0.19892 0.02128
#
# Static dielectric constant tensor:
#      x y z
#    x 1.783600 0.000000 0.000000 
#    y 0.000000 1.797810 0.000000 
#    z 0.000000 0.000000 1.820720 
# 
# From -- ./inp_files/19123.got.cif
#   From: 2010.05.17/outbox.cif.g08.bks.cpg/sg57_10_cif.got.tgz:19123.got - 2010.06.03 13:58:18.
