data_PCOD9438218
_publ_section_title
;
Structure prediction by ZEFSAII (Michael W. Deem and Ramdas Pophale) SiO2 
 PCOD9438218
Probable space group: P B C M
;
_chemical_formula_sum "Si O2"
_cell_formula_units_Z 56
_cell_length_a 13.544825
_cell_length_b 8.968896
_cell_length_c 22.672482
_cell_angle_alpha 90.000000
_cell_angle_beta 90.000000
_cell_angle_gamma 90.000000
_cell_volume 2754.301332
_symmetry_space_group_name_H-M "P B C M"
_symmetry_group_IT_number 57
_symmetry_cell_setting 'orthorhombic'
loop_
_space_group_symop_operation_xyz
x,y,z
-x,-y,1/2+z
x,1/2-y,-z
-x,1/2+y,1/2-z
-x,-y,-z
x,y,1/2-z
-x,1/2+y,z
x,1/2-y,1/2+z
loop_
_atom_site_type_symbol
_atom_site_label
_atom_site_fract_x
_atom_site_fract_y
_atom_site_fract_z
Si Si1 0.360569 0.308900 0.682312
Si Si2 0.812462 0.211135 0.120437
Si Si3 0.163231 0.067417 0.130218
Si Si4 0.947610 0.001269 0.750000
Si Si5 0.007695 0.629464 0.453177
Si Si6 0.608744 0.189322 0.434634
Si Si7 0.858338 0.169007 0.250000
Si Si8 0.501629 0.556808 0.865825
O O1 0.327892 0.304551 0.750000
O O2 0.267956 0.354194 0.641550
O O3 0.412212 0.153270 0.664768
O O4 0.442115 0.440103 0.674487
O O5 0.824058 0.391009 0.115281
O O6 0.722189 0.160074 0.080497
O O7 0.797313 0.173777 0.189476
O O8 0.910736 0.128794 0.097905
O O9 0.102497 0.066527 0.191569
O O10 0.096775 0.144581 0.080104
O O11 0.922520 0.177303 0.750000
O O12 0.063269 0.964777 0.750000
O O13 0.041156 0.750000 0.500000
O O14 0.000000 0.500000 0.500000
O O15 0.595163 0.250000 0.500000
O O16 0.573202 0.320695 0.391071
O O17 0.546342 0.043299 0.418416
#
# Coordination Sequence:
#
# PCOD9438218 Si02
#       8
#     8   8   8   4   8   8   4   8
#     4  11  22  43  68  98 135 174 217 274 336 398
#     4  11  23  42  66  95 130 172 213 263 333 388
#     4  11  22  41  65  94 129 173 212 266 326 386
#     4  10  20  40  64  87 125 166 212 261 317 377
#     4  12  25  41  64  93 132 172 218 266 319 390
#     4  11  23  44  70  94 132 172 222 276 330 396
#     4  10  22  40  64  91 125 170 212 263 321 391
#     4  10  24  43  66 100 128 171 226 275 333 392
#
# _framework density 20.331835000000002
#
# number of rings (size 3 to 8) (size 9 to 14) (size 15 to 20)
#    0.000    1.143    5.000    1.286    0.000    1.143 
#    9.000    0.714    0.000    0.000    0.000    0.000 
#    0.000    0.000    0.000    0.000    0.000    0.000 
#
# Total GULP energy -312608.262962 kJ/mol
# GULP energy per Si atom -5582.290410 kJ/mol
# Density = 2.028556 g / cm^3
# Si number density = 20.331835 Si / 1000 Ang^3
#
#
#
# Elastic Constant Matrix: (Units=GPa)
#
#
# Indices 1 2 3 4 5 6 
#
# 1 89.8206 6.2866 14.4958 0.0000 0.0000 0.0000
# 2 6.2866 36.8679 2.8220 0.0000 0.0000 0.0000
# 3 14.4958 2.8220 84.0964 0.0000 0.0000 0.0000
# 4 0.0000 0.0000 0.0000 19.3541 0.0000 0.0000
# 5 0.0000 0.0000 0.0000 0.0000 24.0230 0.0000
# 6 0.0000 0.0000 0.0000 0.0000 0.0000 24.2395
#
#
#
# Elastic Compliance Matrix: (Units=1/GPa)
#
#
# Indices 1 2 3 4 5 6 
#
# 1 0.011573 -0.001825 -0.001934 0.000000 0.000000 0.000000
# 2 -0.001825 0.027482 -0.000608 0.000000 0.000000 0.000000
# 3 -0.001934 -0.000608 0.012245 0.000000 0.000000 0.000000
# 4 0.000000 0.000000 0.000000 0.051669 0.000000 0.000000
# 5 0.000000 0.000000 0.000000 0.000000 0.041627 0.000000
# 6 0.000000 0.000000 0.000000 0.000000 0.000000 0.041255
#
#
# Mechanical properties :
#
#
# Convention : Reuss Voigt Hill
#
# Bulk Modulus (GPa) = 23.49271 28.66598 26.07935
# Shear Modulus (GPa) = 23.94958 26.00201 24.97580
#
# Velocity S-wave (km/s) = 3.43583 3.58003 3.50867
# Velocity P-wave (km/s) = 5.22682 5.58735 5.41009
#
# Compressibility (1/GPa) = 0.04256640
#
# Stress axis : x y z
#
# Youngs Moduli (GPa) = 86.40708 36.38793 81.66729
#
# Poissons Ratio (x) = 0.06642 0.15791
# Poissons Ratio (y) = 0.15773 0.04962
# Poissons Ratio (z) = 0.16708 0.02211
#
# Static dielectric constant tensor:
#      x y z
#    x 1.713990 0.000000 0.000000 
#    y 0.000000 1.729030 0.000000 
#    z 0.000000 0.000000 1.670570 
# 
# From -- ./inp_files/25471.got.cif
#   From: 2010.05.17/outbox.cif.g08.bks.cpg/sg57_13_cif.got.tgz:25471.got - 2010.06.03 13:58:18.
