data_PCOD9438472
_publ_section_title
;
Structure prediction by ZEFSAII (Michael W. Deem and Ramdas Pophale) SiO2 
 PCOD9438472
Probable space group: P B C M
;
_chemical_formula_sum "Si O2"
_cell_formula_units_Z 48
_cell_length_a 17.314546
_cell_length_b 13.771501
_cell_length_c 9.790411
_cell_angle_alpha 90.000000
_cell_angle_beta 90.000000
_cell_angle_gamma 90.000000
_cell_volume 2334.496947
_symmetry_space_group_name_H-M "P B C M"
_symmetry_group_IT_number 57
_symmetry_cell_setting 'orthorhombic'
loop_
_space_group_symop_operation_xyz
x,y,z
-x,-y,1/2+z
x,1/2-y,-z
-x,1/2+y,1/2-z
-x,-y,-z
x,y,1/2-z
-x,1/2+y,z
x,1/2-y,1/2+z
loop_
_atom_site_type_symbol
_atom_site_label
_atom_site_fract_x
_atom_site_fract_y
_atom_site_fract_z
Si Si1 0.107283 0.292099 0.750000
Si Si2 0.793505 0.905105 0.523480
Si Si3 0.354494 0.181850 0.603521
Si Si4 0.123198 0.057147 0.750000
Si Si5 0.928115 0.344899 0.750000
Si Si6 0.295592 0.904988 0.098124
Si Si7 0.428124 0.528676 0.095330
Si Si8 0.830682 0.250000 0.000000
O O1 0.149680 0.343618 0.879497
O O2 0.109160 0.174149 0.750000
O O3 0.016760 0.313655 0.750000
O O4 0.730103 0.837910 0.453004
O O5 0.833852 0.955721 0.394137
O O6 0.745486 0.989414 0.598220
O O7 0.399415 0.250000 0.500000
O O8 0.350210 0.230783 0.750000
O O9 0.389156 0.076190 0.613196
O O10 0.068177 0.962934 0.750000
O O11 0.883235 0.300862 0.617371
O O12 0.326973 0.885459 0.250000
O O13 0.227641 0.829564 0.063421
O O14 0.364656 0.907445 0.986611
O O15 0.446265 0.565020 0.250000
O O16 0.500000 0.500000 0.000000
#
# Coordination Sequence:
#
# PCOD9438472 Si02
#       8
#     4   8   8   4   4   8   8   4
#     4  12  28  44  64 104 136 181 234 300 366 438
#     4  11  23  41  66  98 131 174 226 277 350 425
#     4  10  21  36  61  93 127 167 211 268 330 405
#     4  12  24  44  68  92 134 173 227 287 361 416
#     4  12  30  46  70  96 140 184 237 303 363 424
#     4  11  23  43  73 100 134 181 236 291 348 422
#     4  10  23  42  67  99 139 177 226 280 346 411
#     4  12  26  48  70 100 134 188 246 292 352 434
#
# _framework density 20.561174000000001
#
# number of rings (size 3 to 8) (size 9 to 14) (size 15 to 20)
#    0.000    1.000    4.167    2.000    5.833    3.333 
#    1.500    0.000    0.000    0.000    0.000    0.000 
#    0.000    0.000    0.000    0.000    0.000    0.000 
#
# Total GULP energy -267542.618944 kJ/mol
# GULP energy per Si atom -5573.804561 kJ/mol
# Density = 2.051438 g / cm^3
# Si number density = 20.561174 Si / 1000 Ang^3
#
#
#
# Elastic Constant Matrix: (Units=GPa)
#
#
# Indices 1 2 3 4 5 6 
#
# 1 110.5636 13.0777 55.7531 0.0000 0.0000 0.0000
# 2 13.0777 41.2781 23.3150 0.0000 0.0000 0.0000
# 3 55.7531 23.3150 170.1178 0.0000 0.0000 0.0000
# 4 0.0000 0.0000 0.0000 305.2182 0.0000 0.0000
# 5 0.0000 0.0000 0.0000 0.0000 2283.4320 0.0000
# 6 0.0000 0.0000 0.0000 0.0000 0.0000 8.4281
#
#
#
# Elastic Compliance Matrix: (Units=1/GPa)
#
#
# Indices 1 2 3 4 5 6 
#
# 1 0.010927 -0.001560 -0.003367 0.000000 0.000000 0.000000
# 2 -0.001560 0.026481 -0.003118 0.000000 0.000000 0.000000
# 3 -0.003367 -0.003118 0.007409 0.000000 0.000000 0.000000
# 4 0.000000 0.000000 0.000000 0.003276 0.000000 0.000000
# 5 0.000000 0.000000 0.000000 0.000000 0.000438 0.000000
# 6 0.000000 0.000000 0.000000 0.000000 0.000000 0.118651
#
#
# Mechanical properties :
#
#
# Convention : Reuss Voigt Hill
#
# Bulk Modulus (GPa) = 34.81063 56.25014 45.53039
# Shear Modulus (GPa) = 25.92702 534.73658 280.33180
#
# Velocity S-wave (km/s) = 3.55487 16.14421 11.68916
# Velocity P-wave (km/s) = 5.81519 19.36314 14.29593
#
# Compressibility (1/GPa) = 0.02872686
#
# Stress axis : x y z
#
# Youngs Moduli (GPa) = 91.51537 37.76246 134.96693
#
# Poissons Ratio (x) = 0.05891 0.45449
# Poissons Ratio (y) = 0.14276 0.42084
# Poissons Ratio (z) = 0.30817 0.11775
#
# Static dielectric constant tensor:
#      x y z
#    x 1.736460 0.000000 0.000000 
#    y 0.000000 4.136870 0.000000 
#    z 0.000000 0.000000 1.855480 
# 
# From -- ./inp_files/6637.got.cif
#   From: 2010.05.17/outbox.cif.g08.bks.cpg/sg57_4_cif.got.tgz:6637.got - 2010.06.03 13:58:18.
