data_PCOD9438574
_publ_section_title
;
Structure prediction by ZEFSAII (Michael W. Deem and Ramdas Pophale) SiO2 
 PCOD9438574
Probable space group: P B C M
;
_chemical_formula_sum "Si O2"
_cell_formula_units_Z 56
_cell_length_a 23.550258
_cell_length_b 5.163098
_cell_length_c 21.064862
_cell_angle_alpha 90.000000
_cell_angle_beta 90.000000
_cell_angle_gamma 90.000000
_cell_volume 2561.324809
_symmetry_space_group_name_H-M "P B C M"
_symmetry_group_IT_number 57
_symmetry_cell_setting 'orthorhombic'
loop_
_space_group_symop_operation_xyz
x,y,z
-x,-y,1/2+z
x,1/2-y,-z
-x,1/2+y,1/2-z
-x,-y,-z
x,y,1/2-z
-x,1/2+y,z
x,1/2-y,1/2+z
loop_
_atom_site_type_symbol
_atom_site_label
_atom_site_fract_x
_atom_site_fract_y
_atom_site_fract_z
Si Si1 0.133722 0.683373 0.822074
Si Si2 0.822553 0.872034 0.566916
Si Si3 0.661412 0.573066 0.627953
Si Si4 0.697938 0.077300 0.940818
Si Si5 0.465498 0.338745 0.326569
Si Si6 0.031011 0.051304 0.825947
Si Si7 0.775362 0.937467 0.317049
O O1 0.116235 0.591077 0.750000
O O2 0.133400 0.517094 0.886467
O O3 0.093312 0.931439 0.834669
O O4 0.199383 0.772783 0.816413
O O5 0.842282 0.750000 0.500000
O O6 0.798222 0.661835 0.616051
O O7 0.765961 0.041647 0.552641
O O8 0.677633 0.274768 0.613479
O O9 0.596915 0.604525 0.647784
O O10 0.709343 0.627944 0.680486
O O11 0.674105 0.790132 0.573547
O O12 0.677749 0.250000 0.000000
O O13 0.462399 0.342057 0.250000
O O14 0.509283 0.562886 0.346481
O O15 0.024501 0.072486 0.750000
O O16 0.987252 0.831770 0.850231
O O17 0.798493 0.827459 0.250000
#
# Coordination Sequence:
#
# PCOD9438574 Si02
#       7
#     8   8   8   8   8   8   8
#     4  10  21  37  60  91 128 161 204 266 321 367
#     4  11  23  37  59  86 127 170 210 248 310 393
#     4  11  21  38  62  88 121 160 201 251 310 376
#     4  11  22  39  59  87 120 161 205 252 305 368
#     4  10  21  38  60  88 120 158 202 249 307 379
#     4   9  19  35  58  86 119 162 209 254 306 368
#     4  10  21  37  58  92 125 158 200 260 326 374
#
# _framework density 21.863686000000001
#
# number of rings (size 3 to 8) (size 9 to 14) (size 15 to 20)
#    0.000    1.714    1.429    3.857    2.000    0.000 
#    0.000    1.429    0.000    9.429    0.000    0.000 
#    0.000    0.000    0.000    0.000    0.000    0.000 
#
# Total GULP energy -311830.550274 kJ/mol
# GULP energy per Si atom -5568.402683 kJ/mol
# Density = 2.181392 g / cm^3
# Si number density = 21.863686 Si / 1000 Ang^3
#
#
#
# Elastic Constant Matrix: (Units=GPa)
#
#
# Indices 1 2 3 4 5 6 
#
# 1 97.2610 6.6605 15.1520 0.0000 0.0000 0.0000
# 2 6.6605 71.0476 17.8002 0.0000 0.0000 0.0000
# 3 15.1520 17.8002 114.8335 0.0000 0.0000 0.0000
# 4 0.0000 0.0000 0.0000 19.2142 0.0000 0.0000
# 5 0.0000 0.0000 0.0000 0.0000 2.0862 0.0000
# 6 0.0000 0.0000 0.0000 0.0000 0.0000 38.9573
#
#
#
# Elastic Compliance Matrix: (Units=1/GPa)
#
#
# Indices 1 2 3 4 5 6 
#
# 1 0.010527 -0.000665 -0.001286 0.000000 0.000000 0.000000
# 2 -0.000665 0.014686 -0.002189 0.000000 0.000000 0.000000
# 3 -0.001286 -0.002189 0.009217 0.000000 0.000000 0.000000
# 4 0.000000 0.000000 0.000000 0.052045 0.000000 0.000000
# 5 0.000000 0.000000 0.000000 0.000000 0.479345 0.000000
# 6 0.000000 0.000000 0.000000 0.000000 0.000000 0.025669
#
#
# Mechanical properties :
#
#
# Convention : Reuss Voigt Hill
#
# Bulk Modulus (GPa) = 38.23871 40.26306 39.25089
# Shear Modulus (GPa) = 8.21713 28.28684 18.25198
#
# Velocity S-wave (km/s) = 1.94075 3.60082 2.89244
# Velocity P-wave (km/s) = 4.74864 5.97857 5.39875
#
# Compressibility (1/GPa) = 0.02615151
#
# Stress axis : x y z
#
# Youngs Moduli (GPa) = 94.98943 68.09327 108.49254
#
# Poissons Ratio (x) = 0.04526 0.13953
# Poissons Ratio (y) = 0.06314 0.23746
# Poissons Ratio (z) = 0.12216 0.14904
#
# Static dielectric constant tensor:
#      x y z
#    x 1.813700 0.000000 0.000000 
#    y 0.000000 1.907400 0.000000 
#    z 0.000000 0.000000 1.854440 
# 
# From -- ./inp_files/25813.got.cif
#   From: 2010.05.17/outbox.cif.g08.bks.cpg/sg57_13_cif.got.tgz:25813.got - 2010.06.03 13:58:18.
