data_PCOD9438148
_publ_section_title
;
Structure prediction by ZEFSAII (Michael W. Deem and Ramdas Pophale) SiO2 
 PCOD9438148
Probable space group: P B C M
;
_chemical_formula_sum "Si O2"
_cell_formula_units_Z 48
_cell_length_a 5.125380
_cell_length_b 21.326350
_cell_length_c 18.453775
_cell_angle_alpha 90.000000
_cell_angle_beta 90.000000
_cell_angle_gamma 90.000000
_cell_volume 2017.101830
_symmetry_space_group_name_H-M "P B C M"
_symmetry_group_IT_number 57
_symmetry_cell_setting 'orthorhombic'
loop_
_space_group_symop_operation_xyz
x,y,z
-x,-y,1/2+z
x,1/2-y,-z
-x,1/2+y,1/2-z
-x,-y,-z
x,y,1/2-z
-x,1/2+y,z
x,1/2-y,1/2+z
loop_
_atom_site_type_symbol
_atom_site_label
_atom_site_fract_x
_atom_site_fract_y
_atom_site_fract_z
Si Si1 0.528717 0.775429 0.671265
Si Si2 0.297416 0.449177 0.970198
Si Si3 0.704795 0.157503 0.447204
Si Si4 0.093928 0.102287 0.333745
Si Si5 0.085377 0.607601 0.576796
Si Si6 0.592597 0.627974 0.831093
O O1 0.390218 0.785382 0.750000
O O2 0.741050 0.831846 0.667350
O O3 0.613776 0.703757 0.671516
O O4 0.369822 0.781826 0.597273
O O5 0.231978 0.450358 0.884213
O O6 0.455526 0.382609 0.973430
O O7 0.500000 0.500000 0.000000
O O8 0.041070 0.442154 0.020610
O O9 0.841116 0.117564 0.382357
O O10 0.882034 0.163802 0.517944
O O11 0.049773 0.084812 0.250000
O O12 0.869149 0.609210 0.637701
O O13 0.359040 0.604466 0.617989
O O14 0.547133 0.605141 0.750000
#
# Coordination Sequence:
#
# PCOD9438148 Si02
#       6
#     8   8   8   8   8   8
#     4   9  20  37  60  91 129 174 213 256 320 384
#     4  10  22  43  69  90 130 173 216 274 344 387
#     4  10  20  39  62  94 127 165 210 274 319 384
#     4   9  19  36  61  95 129 162 216 272 326 391
#     4  11  23  43  62  95 126 164 221 265 321 384
#     4  11  24  43  64  89 132 179 216 260 317 387
#
# _framework density 23.796517000000001
#
# number of rings (size 3 to 8) (size 9 to 14) (size 15 to 20)
#    0.000    2.000    1.667    1.000    2.333    4.000 
#    6.000    1.667    0.000    0.000    0.000    0.000 
#    0.000    0.000    0.000    0.000    0.000    0.000 
#
# Total GULP energy -267562.943947 kJ/mol
# GULP energy per Si atom -5574.227999 kJ/mol
# Density = 2.374235 g / cm^3
# Si number density = 23.796517 Si / 1000 Ang^3
#
#
#
# Elastic Constant Matrix: (Units=GPa)
#
#
# Indices 1 2 3 4 5 6 
#
# 1 70.2840 -9.6877 41.7594 0.0000 0.0000 0.0000
# 2 -9.6877 53.1412 17.0509 0.0000 0.0000 0.0000
# 3 41.7594 17.0509 185.4215 0.0000 0.0000 0.0000
# 4 0.0000 0.0000 0.0000 23.5336 0.0000 0.0000
# 5 0.0000 0.0000 0.0000 0.0000 42.6905 0.0000
# 6 0.0000 0.0000 0.0000 0.0000 0.0000 16.7424
#
#
#
# Elastic Compliance Matrix: (Units=1/GPa)
#
#
# Indices 1 2 3 4 5 6 
#
# 1 0.017443 0.004575 -0.004349 0.000000 0.000000 0.000000
# 2 0.004575 0.020590 -0.002924 0.000000 0.000000 0.000000
# 3 -0.004349 -0.002924 0.006641 0.000000 0.000000 0.000000
# 4 0.000000 0.000000 0.000000 0.042493 0.000000 0.000000
# 5 0.000000 0.000000 0.000000 0.000000 0.023424 0.000000
# 6 0.000000 0.000000 0.000000 0.000000 0.000000 0.059729
#
#
# Mechanical properties :
#
#
# Convention : Reuss Voigt Hill
#
# Bulk Modulus (GPa) = 25.45899 45.23243 35.34571
# Shear Modulus (GPa) = 26.48197 33.90823 30.19510
#
# Velocity S-wave (km/s) = 3.33956 3.77891 3.56601
# Velocity P-wave (km/s) = 5.05886 6.17167 5.64276
#
# Compressibility (1/GPa) = 0.03927885
#
# Stress axis : x y z
#
# Youngs Moduli (GPa) = 57.33083 48.56726 150.56970
#
# Poissons Ratio (x) = -0.22221 0.65483
# Poissons Ratio (y) = -0.26230 0.44024
# Poissons Ratio (z) = 0.24933 0.14200
#
# Static dielectric constant tensor:
#      x y z
#    x 1.979760 0.000000 0.000000 
#    y 0.000000 1.985470 0.000000 
#    z 0.000000 0.000000 1.921880 
# 
# From -- ./inp_files/20202.got.cif
#   From: 2010.05.17/outbox.cif.g08.bks.cpg/sg57_11_cif.got.tgz:20202.got - 2010.06.03 13:58:18.
