data_PCOD9438408
_publ_section_title
;
Structure prediction by ZEFSAII (Michael W. Deem and Ramdas Pophale) SiO2 
 PCOD9438408
Probable space group: P B C M
;
_chemical_formula_sum "Si O2"
_cell_formula_units_Z 56
_cell_length_a 33.160529
_cell_length_b 5.106232
_cell_length_c 17.061342
_cell_angle_alpha 90.000000
_cell_angle_beta 90.000000
_cell_angle_gamma 90.000000
_cell_volume 2888.917779
_symmetry_space_group_name_H-M "P B C M"
_symmetry_group_IT_number 57
_symmetry_cell_setting 'orthorhombic'
loop_
_space_group_symop_operation_xyz
x,y,z
-x,-y,1/2+z
x,1/2-y,-z
-x,1/2+y,1/2-z
-x,-y,-z
x,y,1/2-z
-x,1/2+y,z
x,1/2-y,1/2+z
loop_
_atom_site_type_symbol
_atom_site_label
_atom_site_fract_x
_atom_site_fract_y
_atom_site_fract_z
Si Si1 0.024971 0.096367 0.655818
Si Si2 0.102215 0.996013 0.945004
Si Si3 0.806416 0.003244 0.055413
Si Si4 0.397353 0.999066 0.445938
Si Si5 0.731875 0.845316 0.341946
Si Si6 0.310076 0.834800 0.090768
Si Si7 0.525870 0.854351 0.843509
O O1 0.027860 0.090830 0.750000
O O2 0.992508 0.876915 0.631476
O O3 0.068037 0.032679 0.619367
O O4 0.147887 0.959558 0.913824
O O5 0.102186 0.250000 0.000000
O O6 0.092845 0.750000 0.000000
O O7 0.773607 0.951822 0.121829
O O8 0.806319 0.750000 0.000000
O O9 0.796435 0.250000 0.000000
O O10 0.408264 0.750000 0.500000
O O11 0.356531 0.920269 0.401093
O O12 0.387792 0.250000 0.500000
O O13 0.434018 0.076069 0.390140
O O14 0.735179 0.791201 0.250000
O O15 0.717406 0.582362 0.386076
O O16 0.700623 0.080722 0.358438
O O17 0.304314 0.750000 0.000000
O O18 0.533126 0.868593 0.750000
O O19 0.508440 0.568755 0.862590
#
# Coordination Sequence:
#
# PCOD9438408 Si02
#       7
#     8   8   8   8   8   8   8
#     4  10  21  36  54  78 110 147 182 223 282 339
#     4  10  21  36  56  83 109 142 189 233 275 329
#     4  10  21  38  59  81 112 152 188 228 286 345
#     4  11  23  39  61  88 113 147 196 240 280 334
#     4  12  24  38  61  92 118 149 197 243 286 341
#     4  11  23  42  62  85 120 159 193 234 294 352
#     4  10  22  39  58  83 117 154 187 227 287 345
#
# _framework density 19.384423000000002
#
# number of rings (size 3 to 8) (size 9 to 14) (size 15 to 20)
#    0.000    1.429    0.000    6.429    0.000    5.143 
#    0.000    1.429    0.000    8.571    0.000    0.000 
#    0.000    0.000    0.000    0.000    0.000    0.000 
#
# Total GULP energy -313094.616115 kJ/mol
# GULP energy per Si atom -5590.975288 kJ/mol
# Density = 1.934030 g / cm^3
# Si number density = 19.384423 Si / 1000 Ang^3
#
#
#
# Elastic Constant Matrix: (Units=GPa)
#
#
# Indices 1 2 3 4 5 6 
#
# 1 89.4413 -8.8041 38.2184 0.0000 0.0000 0.0000
# 2 -8.8041 98.1306 10.2970 0.0000 0.0000 0.0000
# 3 38.2184 10.2970 46.4768 0.0000 0.0000 0.0000
# 4 0.0000 0.0000 0.0000 19.9547 0.0000 0.0000
# 5 0.0000 0.0000 0.0000 0.0000 -14.9185 0.0000
# 6 0.0000 0.0000 0.0000 0.0000 0.0000 31.6763
#
#
#
# Elastic Compliance Matrix: (Units=1/GPa)
#
#
# Indices 1 2 3 4 5 6 
#
# 1 0.018214 0.003282 -0.015705 0.000000 0.000000 0.000000
# 2 0.003282 0.011024 -0.005141 0.000000 0.000000 0.000000
# 3 -0.015705 -0.005141 0.035570 0.000000 0.000000 0.000000
# 4 0.000000 0.000000 0.000000 0.050114 0.000000 0.000000
# 5 0.000000 0.000000 0.000000 0.000000 -0.067031 0.000000
# 6 0.000000 0.000000 0.000000 0.000000 0.000000 0.031569
#
#
# Mechanical properties :
#
#
# Convention : Reuss Voigt Hill
#
# Bulk Modulus (GPa) = 33.69293 34.83013 34.26153
# Shear Modulus (GPa) = 40.16623 20.29831 30.23227
#
# Velocity S-wave (km/s) = 4.55696 3.23947 3.95348
# Velocity P-wave (km/s) = 6.71617 5.65680 6.20912
#
# Compressibility (1/GPa) = 0.02967981
#
# Stress axis : x y z
#
# Youngs Moduli (GPa) = 54.90170 90.70735 28.11386
#
# Poissons Ratio (x) = -0.29771 0.44153
# Poissons Ratio (y) = -0.18019 0.14454
# Poissons Ratio (z) = 0.86223 0.46636
#
# Static dielectric constant tensor:
#      x y z
#    x 1.681420 0.000000 0.000000 
#    y 0.000000 1.646590 0.000000 
#    z 0.000000 0.000000 1.645170 
# 
# From -- ./inp_files/19629.got.cif
#   From: 2010.05.17/outbox.cif.g08.bks.cpg/sg57_10_cif.got.tgz:19629.got - 2010.06.03 13:58:18.
