data_PCOD9438369
_publ_section_title
;
Structure prediction by ZEFSAII (Michael W. Deem and Ramdas Pophale) SiO2 
 PCOD9438369
Probable space group: P B C M
;
_chemical_formula_sum "Si O2"
_cell_formula_units_Z 64
_cell_length_a 31.074303
_cell_length_b 5.505677
_cell_length_c 17.687644
_cell_angle_alpha 90.000000
_cell_angle_beta 90.000000
_cell_angle_gamma 90.000000
_cell_volume 3026.091906
_symmetry_space_group_name_H-M "P B C M"
_symmetry_group_IT_number 57
_symmetry_cell_setting 'orthorhombic'
loop_
_space_group_symop_operation_xyz
x,y,z
-x,-y,1/2+z
x,1/2-y,-z
-x,1/2+y,1/2-z
-x,-y,-z
x,y,1/2-z
-x,1/2+y,z
x,1/2-y,1/2+z
loop_
_atom_site_type_symbol
_atom_site_label
_atom_site_fract_x
_atom_site_fract_y
_atom_site_fract_z
Si Si1 0.756775 0.629466 0.926967
Si Si2 0.976539 0.593529 0.342410
Si Si3 0.829064 0.132046 0.158517
Si Si4 0.613266 0.758321 0.590199
Si Si5 0.329178 0.633262 0.421971
Si Si6 0.476566 0.094013 0.158743
Si Si7 0.122219 0.126848 0.158648
Si Si8 0.699353 0.962654 0.836084
O O1 0.786233 0.430319 0.887760
O O2 0.710668 0.526674 0.954312
O O3 0.741792 0.835641 0.867796
O O4 0.778369 0.750000 0.000000
O O5 0.976785 0.593411 0.250000
O O6 0.926958 0.602631 0.367695
O O7 0.000913 0.840974 0.365850
O O8 0.821678 0.137165 0.250000
O O9 0.858572 0.893429 0.141717
O O10 0.850062 0.389737 0.135571
O O11 0.609014 0.750000 0.500000
O O12 0.628152 0.487322 0.612631
O O13 0.571183 0.863625 0.627663
O O14 0.656330 0.894712 0.617080
O O15 0.344636 0.750000 0.500000
O O16 0.303097 0.754676 0.353279
O O17 0.475559 0.093803 0.250000
O O18 0.503847 0.333615 0.134656
O O19 0.121312 0.113962 0.250000
O O20 0.693688 0.897550 0.750000
#
# Coordination Sequence:
#
# PCOD9438369 Si02
#       8
#     8   8   8   8   8   8   8   8
#     4  11  23  39  59  83 116 156 200 252 303 360
#     4   9  15  24  43  70 103 145 187 231 293 362
#     4  10  21  35  53  78 113 155 196 241 298 358
#     4  11  23  40  65  92 126 162 202 252 306 369
#     4  11  21  40  63  88 120 158 198 254 313 358
#     4  10  24  44  65  94 131 168 209 256 307 364
#     4   9  18  32  48  74 113 151 191 243 298 358
#     4  11  23  39  62  91 120 154 201 251 301 363
#
# _framework density 21.14939
#
# number of rings (size 3 to 8) (size 9 to 14) (size 15 to 20)
#    0.000    1.750    2.500    2.250    3.500    6.500 
#    0.000    0.000    0.000    0.000    0.000    0.000 
#    0.000   10.000    0.000    0.000    0.000    0.000 
#
# Total GULP energy -356619.407572 kJ/mol
# GULP energy per Si atom -5572.178243 kJ/mol
# Density = 2.110125 g / cm^3
# Si number density = 21.149390 Si / 1000 Ang^3
#
#
#
# Elastic Constant Matrix: (Units=GPa)
#
#
# Indices 1 2 3 4 5 6 
#
# 1 86.8171 12.8420 3.4568 0.0000 0.0000 0.0000
# 2 12.8420 62.6831 -1.2411 0.0000 0.0000 0.0000
# 3 3.4568 -1.2411 32.6168 0.0000 0.0000 0.0000
# 4 0.0000 0.0000 0.0000 9.5943 0.0000 0.0000
# 5 0.0000 0.0000 0.0000 0.0000 -8.0717 0.0000
# 6 0.0000 0.0000 0.0000 0.0000 0.0000 30.7878
#
#
#
# Elastic Compliance Matrix: (Units=1/GPa)
#
#
# Indices 1 2 3 4 5 6 
#
# 1 0.011938 -0.002473 -0.001359 0.000000 0.000000 0.000000
# 2 -0.002473 0.016477 0.000889 0.000000 0.000000 0.000000
# 3 -0.001359 0.000889 0.030837 0.000000 0.000000 0.000000
# 4 0.000000 0.000000 0.000000 0.104228 0.000000 0.000000
# 5 0.000000 0.000000 0.000000 0.000000 -0.123890 0.000000
# 6 0.000000 0.000000 0.000000 0.000000 0.000000 0.032480
#
#
# Mechanical properties :
#
#
# Convention : Reuss Voigt Hill
#
# Bulk Modulus (GPa) = 18.73828 23.58139 21.15984
# Shear Modulus (GPa) = 52.22107 17.59937 34.91022
#
# Velocity S-wave (km/s) = 4.97445 2.88782 4.06723
# Velocity P-wave (km/s) = 6.47091 4.72160 5.66419
#
# Compressibility (1/GPa) = 0.05336668
#
# Stress axis : x y z
#
# Youngs Moduli (GPa) = 83.76355 60.68895 32.42860
#
# Poissons Ratio (x) = 0.15007 0.04408
# Poissons Ratio (y) = 0.20713 -0.02883
# Poissons Ratio (z) = 0.11387 -0.05396
#
# Static dielectric constant tensor:
#      x y z
#    x 1.734270 0.000000 0.000000 
#    y 0.000000 2.444250 0.000000 
#    z 0.000000 0.000000 1.754260 
# 
# From -- ./inp_files/25904.got.cif
#   From: 2010.05.17/outbox.cif.g08.bks.cpg/sg57_13_cif.got.tgz:25904.got - 2010.06.03 13:58:18.
