data_PCOD9438653
_publ_section_title
;
Structure prediction by ZEFSAII (Michael W. Deem and Ramdas Pophale) SiO2 
 PCOD9438653
Probable space group: P B C M
;
_chemical_formula_sum "Si O2"
_cell_formula_units_Z 36
_cell_length_a 16.690007
_cell_length_b 5.047383
_cell_length_c 15.084490
_cell_angle_alpha 90.000000
_cell_angle_beta 90.000000
_cell_angle_gamma 90.000000
_cell_volume 1270.730374
_symmetry_space_group_name_H-M "P B C M"
_symmetry_group_IT_number 57
_symmetry_cell_setting 'orthorhombic'
loop_
_space_group_symop_operation_xyz
x,y,z
-x,-y,1/2+z
x,1/2-y,-z
-x,1/2+y,1/2-z
-x,-y,-z
x,y,1/2-z
-x,1/2+y,z
x,1/2-y,1/2+z
loop_
_atom_site_type_symbol
_atom_site_label
_atom_site_fract_x
_atom_site_fract_y
_atom_site_fract_z
Si Si1 0.181168 0.734392 0.646654
Si Si2 0.966590 0.871783 0.900794
Si Si3 0.459312 0.781766 0.250000
Si Si4 0.418372 0.954353 0.941115
Si Si5 0.284260 0.272938 0.353797
O O1 0.158903 0.760936 0.750000
O O2 0.110558 0.562849 0.601059
O O3 0.216375 0.015111 0.613531
O O4 0.253301 0.523429 0.644206
O O5 0.968962 0.577826 0.857413
O O6 0.978211 0.750000 0.000000
O O7 0.539640 0.597443 0.250000
O O8 0.430415 0.686199 0.154320
O O9 0.364053 0.196235 0.910941
O O10 0.369743 0.750000 0.000000
O O11 0.500000 0.000000 0.000000
O O12 0.296536 0.347098 0.250000
#
# Coordination Sequence:
#
# PCOD9438653 Si02
#       5
#     8   8   4   8   8
#     4  10  22  41  66  95 133 183 230 279 353 430
#     4  10  21  37  61  95 134 175 220 279 346 407
#     4  12  26  48  72 100 144 178 218 320 356 424
#     4  12  26  45  74 107 137 185 248 298 373 445
#     4  10  23  43  65  94 137 183 228 296 369 415
#
# _framework density 28.330165000000001
#
# number of rings (size 3 to 8) (size 9 to 14) (size 15 to 20)
#    0.000    1.333    3.333    1.333    0.000    6.222 
#    0.000    0.000    0.000    0.000    0.000    0.000 
#    0.000    0.000    0.000    0.000    0.000    0.000 
#
# Total GULP energy -200950.660783 kJ/mol
# GULP energy per Si atom -5581.962800 kJ/mol
# Density = 2.826568 g / cm^3
# Si number density = 28.330165 Si / 1000 Ang^3
#
#
#
# Elastic Constant Matrix: (Units=GPa)
#
#
# Indices 1 2 3 4 5 6 
#
# 1 119.9784 16.3279 52.1726 0.0000 0.0000 0.0000
# 2 16.3279 177.9623 16.5831 0.0000 0.0000 0.0000
# 3 52.1726 16.5831 151.2873 0.0000 0.0000 0.0000
# 4 0.0000 0.0000 0.0000 45.8589 0.0000 0.0000
# 5 0.0000 0.0000 0.0000 0.0000 39.5720 0.0000
# 6 0.0000 0.0000 0.0000 0.0000 0.0000 54.5837
#
#
#
# Elastic Compliance Matrix: (Units=1/GPa)
#
#
# Indices 1 2 3 4 5 6 
#
# 1 0.009867 -0.000594 -0.003338 0.000000 0.000000 0.000000
# 2 -0.000594 0.005713 -0.000421 0.000000 0.000000 0.000000
# 3 -0.003338 -0.000421 0.007807 0.000000 0.000000 0.000000
# 4 0.000000 0.000000 0.000000 0.021806 0.000000 0.000000
# 5 0.000000 0.000000 0.000000 0.000000 0.025270 0.000000
# 6 0.000000 0.000000 0.000000 0.000000 0.000000 0.018320
#
#
# Mechanical properties :
#
#
# Convention : Reuss Voigt Hill
#
# Bulk Modulus (GPa) = 68.11606 68.82168 68.46887
# Shear Modulus (GPa) = 48.83580 52.27922 50.55751
#
# Velocity S-wave (km/s) = 4.15638 4.30042 4.22901
# Velocity P-wave (km/s) = 6.86512 7.00026 6.93302
#
# Compressibility (1/GPa) = 0.01468082
#
# Stress axis : x y z
#
# Youngs Moduli (GPa) = 101.34727 175.04094 128.08839
#
# Poissons Ratio (x) = 0.10402 0.42751
# Poissons Ratio (y) = 0.06023 0.05396
# Poissons Ratio (z) = 0.33826 0.07374
#
# Static dielectric constant tensor:
#      x y z
#    x 2.409690 0.000000 0.000000 
#    y 0.000000 2.431060 0.000000 
#    z 0.000000 0.000000 2.414250 
# 
# From -- ./inp_files/19218.got.cif
#   From: 2010.05.17/outbox.cif.g08.bks.cpg/sg57_10_cif.got.tgz:19218.got - 2010.06.03 13:58:18.
