data_PCOD9438770
_publ_section_title
;
Structure prediction by ZEFSAII (Michael W. Deem and Ramdas Pophale) SiO2 
 PCOD9438770
Probable space group: P B C M
;
_chemical_formula_sum "Si O2"
_cell_formula_units_Z 40
_cell_length_a 5.020247
_cell_length_b 9.670281
_cell_length_c 28.218695
_cell_angle_alpha 90.000000
_cell_angle_beta 90.000000
_cell_angle_gamma 90.000000
_cell_volume 1369.938607
_symmetry_space_group_name_H-M "P B C M"
_symmetry_group_IT_number 57
_symmetry_cell_setting 'orthorhombic'
loop_
_space_group_symop_operation_xyz
x,y,z
-x,-y,1/2+z
x,1/2-y,-z
-x,1/2+y,1/2-z
-x,-y,-z
x,y,1/2-z
-x,1/2+y,z
x,1/2-y,1/2+z
loop_
_atom_site_type_symbol
_atom_site_label
_atom_site_fract_x
_atom_site_fract_y
_atom_site_fract_z
Si Si1 0.553227 0.562357 0.151859
Si Si2 0.822869 0.207173 0.847503
Si Si3 0.439776 0.947209 0.448220
Si Si4 0.701580 0.952510 0.250000
Si Si5 0.072525 0.185953 0.250000
Si Si6 0.936781 0.701610 0.553234
O O1 0.809944 0.459612 0.152742
O O2 0.472117 0.723925 0.152197
O O3 0.456113 0.520475 0.099056
O O4 0.424780 0.509775 0.201484
O O5 0.954691 0.260489 0.799715
O O6 0.972513 0.258876 0.895327
O O7 0.121801 0.935801 0.445849
O O8 0.618590 0.808477 0.446629
O O9 0.500000 0.000000 0.500000
O O10 0.669487 0.786128 0.250000
O O11 0.998654 0.023757 0.250000
O O12 0.009413 0.750000 0.500000
#
# Coordination Sequence:
#
# PCOD9438770 Si02
#       6
#     8   8   8   4   4   8
#     4  10  22  40  64  96 133 179 230 286 347 416
#     4  10  22  40  64  95 133 177 229 285 348 415
#     4  11  23  41  65  98 135 179 230 284 341 409
#     4  10  21  38  60  92 132 176 230 284 349 416
#     4  10  21  38  60  90 130 176 228 288 347 416
#     4  11  23  41  66  98 135 179 226 283 346 410
#
# _framework density 29.198391000000001
#
# number of rings (size 3 to 8) (size 9 to 14) (size 15 to 20)
#    0.000    1.600    0.000    4.200    0.000    3.200 
#    0.000   10.000    0.000    0.000    0.000    0.000 
#    0.000    0.000    0.000    0.000    0.000    0.000 
#
# Total GULP energy -222770.792788 kJ/mol
# GULP energy per Si atom -5569.269820 kJ/mol
# Density = 2.913193 g / cm^3
# Si number density = 29.198391 Si / 1000 Ang^3
#
#
#
# Elastic Constant Matrix: (Units=GPa)
#
#
# Indices 1 2 3 4 5 6 
#
# 1 69.1019 23.0834 48.6499 0.0000 0.0000 0.0000
# 2 23.0834 75.3298 56.8628 0.0000 0.0000 0.0000
# 3 48.6499 56.8628 350.6661 0.0000 0.0000 0.0000
# 4 0.0000 0.0000 0.0000 63.7700 0.0000 0.0000
# 5 0.0000 0.0000 0.0000 0.0000 50.2296 0.0000
# 6 0.0000 0.0000 0.0000 0.0000 0.0000 32.9959
#
#
#
# Elastic Compliance Matrix: (Units=1/GPa)
#
#
# Indices 1 2 3 4 5 6 
#
# 1 0.016989 -0.003905 -0.001724 0.000000 0.000000 0.000000
# 2 -0.003905 0.016024 -0.002057 0.000000 0.000000 0.000000
# 3 -0.001724 -0.002057 0.003424 0.000000 0.000000 0.000000
# 4 0.000000 0.000000 0.000000 0.015681 0.000000 0.000000
# 5 0.000000 0.000000 0.000000 0.000000 0.019909 0.000000
# 6 0.000000 0.000000 0.000000 0.000000 0.000000 0.030307
#
#
# Mechanical properties :
#
#
# Convention : Reuss Voigt Hill
#
# Bulk Modulus (GPa) = 47.46735 83.58776 65.52755
# Shear Modulus (GPa) = 40.08735 53.83255 46.95995
#
# Velocity S-wave (km/s) = 3.70933 4.29847 4.01472
# Velocity P-wave (km/s) = 5.88537 7.30243 6.63186
#
# Compressibility (1/GPa) = 0.02106711
#
# Stress axis : x y z
#
# Youngs Moduli (GPa) = 58.86011 62.40637 292.02420
#
# Poissons Ratio (x) = 0.24369 0.50340
# Poissons Ratio (y) = 0.22984 0.60059
# Poissons Ratio (z) = 0.10147 0.12835
#
# Static dielectric constant tensor:
#      x y z
#    x 2.375990 0.000000 0.000000 
#    y 0.000000 2.339330 0.000000 
#    z 0.000000 0.000000 2.147170 
# 
# From -- ./inp_files/27830.got.cif
#   From: 2010.05.17/outbox.cif.g08.bks.cpg/sg57_14_cif.got.tgz:27830.got - 2010.06.03 13:58:18.
