data_PCOD9438609
_publ_section_title
;
Structure prediction by ZEFSAII (Michael W. Deem and Ramdas Pophale) SiO2 
 PCOD9438609
Probable space group: P B C M
;
_chemical_formula_sum "Si O2"
_cell_formula_units_Z 48
_cell_length_a 9.070815
_cell_length_b 17.038635
_cell_length_c 16.007371
_cell_angle_alpha 90.000000
_cell_angle_beta 90.000000
_cell_angle_gamma 90.000000
_cell_volume 2474.008115
_symmetry_space_group_name_H-M "P B C M"
_symmetry_group_IT_number 57
_symmetry_cell_setting 'orthorhombic'
loop_
_space_group_symop_operation_xyz
x,y,z
-x,-y,1/2+z
x,1/2-y,-z
-x,1/2+y,1/2-z
-x,-y,-z
x,y,1/2-z
-x,1/2+y,z
x,1/2-y,1/2+z
loop_
_atom_site_type_symbol
_atom_site_label
_atom_site_fract_x
_atom_site_fract_y
_atom_site_fract_z
Si Si1 0.083998 0.471477 0.082890
Si Si2 0.380331 0.782522 0.250000
Si Si3 0.576301 0.528433 0.915556
Si Si4 0.909285 0.783821 0.412749
Si Si5 0.611734 0.473698 0.250000
Si Si6 0.059352 0.715117 0.250000
Si Si7 0.062018 0.038145 0.250000
Si Si8 0.429676 0.216853 0.587331
O O1 0.254103 0.499404 0.086381
O O2 0.087602 0.377376 0.082247
O O3 0.001639 0.499010 0.166140
O O4 0.000000 0.500000 0.000000
O O5 0.354763 0.878443 0.250000
O O6 0.233030 0.731484 0.250000
O O7 0.474135 0.763196 0.167543
O O8 0.484375 0.507514 0.832489
O O9 0.577123 0.622902 0.917730
O O10 0.500000 0.500000 0.000000
O O11 0.967513 0.750000 0.500000
O O12 0.739597 0.755463 0.403285
O O13 0.997776 0.755900 0.333012
O O14 0.762757 0.522671 0.250000
O O15 0.997094 0.626996 0.250000
O O16 0.488766 0.250000 0.500000
#
# Coordination Sequence:
#
# PCOD9438609 Si02
#       8
#     8   4   8   8   4   4   4   8
#     4  11  22  39  62  89 122 157 195 248 304 358
#     4  10  21  38  59  86 115 150 191 242 300 350
#     4  10  21  37  60  88 116 152 197 239 293 361
#     4  10  21  40  62  85 115 156 198 239 290 356
#     4  10  21  40  61  82 117 160 199 244 296 358
#     4  12  25  38  58  88 118 154 199 244 296 356
#     4  12  25  40  58  86 120 160 203 248 302 354
#     4   9  20  38  61  85 113 149 191 237 292 350
#
# _framework density 19.401716
#
# number of rings (size 3 to 8) (size 9 to 14) (size 15 to 20)
#    0.000    1.667    0.000    4.500    0.000    8.667 
#    0.000    2.500    0.000    0.000    0.000    0.000 
#    0.000    0.000    0.000    0.000    0.000    0.000 
#
# Total GULP energy -268199.126960 kJ/mol
# GULP energy per Si atom -5587.481812 kJ/mol
# Density = 1.935756 g / cm^3
# Si number density = 19.401716 Si / 1000 Ang^3
#
#
#
# Elastic Constant Matrix: (Units=GPa)
#
#
# Indices 1 2 3 4 5 6 
#
# 1 150.9772 38.5692 107.9932 0.0000 0.0000 0.0000
# 2 38.5692 48.9878 45.5739 0.0000 0.0000 0.0000
# 3 107.9932 45.5739 221.1805 0.0000 0.0000 0.0000
# 4 0.0000 0.0000 0.0000 36.3857 0.0000 0.0000
# 5 0.0000 0.0000 0.0000 0.0000 70.8040 0.0000
# 6 0.0000 0.0000 0.0000 0.0000 0.0000 12.9307
#
#
#
# Elastic Compliance Matrix: (Units=1/GPa)
#
#
# Indices 1 2 3 4 5 6 
#
# 1 0.010926 -0.004502 -0.004407 0.000000 0.000000 0.000000
# 2 -0.004502 0.027110 -0.003388 0.000000 0.000000 0.000000
# 3 -0.004407 -0.003388 0.007371 0.000000 0.000000 0.000000
# 4 0.000000 0.000000 0.000000 0.027483 0.000000 0.000000
# 5 0.000000 0.000000 0.000000 0.000000 0.014123 0.000000
# 6 0.000000 0.000000 0.000000 0.000000 0.000000 0.077335
#
#
# Mechanical properties :
#
#
# Convention : Reuss Voigt Hill
#
# Bulk Modulus (GPa) = 48.04779 89.49088 68.76933
# Shear Modulus (GPa) = 25.52583 39.29136 32.40859
#
# Velocity S-wave (km/s) = 3.63112 4.50505 4.09148
# Velocity P-wave (km/s) = 6.51142 8.56072 7.60541
#
# Compressibility (1/GPa) = 0.02081261
#
# Stress axis : x y z
#
# Youngs Moduli (GPa) = 91.52459 36.88736 135.66771
#
# Poissons Ratio (x) = 0.16608 0.59789
# Poissons Ratio (y) = 0.41208 0.45958
# Poissons Ratio (z) = 0.40335 0.12496
#
# Static dielectric constant tensor:
#      x y z
#    x 1.726470 0.000000 0.000000 
#    y 0.000000 1.734250 0.000000 
#    z 0.000000 0.000000 1.626710 
# 
# From -- ./inp_files/16478.got.cif
#   From: 2010.05.17/outbox.cif.g08.bks.cpg/sg57_9_cif.got.tgz:16478.got - 2010.06.03 13:58:18.
