data_PCOD9438639
_publ_section_title
;
Structure prediction by ZEFSAII (Michael W. Deem and Ramdas Pophale) SiO2 
 PCOD9438639
Probable space group: P B C M
;
_chemical_formula_sum "Si O2"
_cell_formula_units_Z 40
_cell_length_a 11.844123
_cell_length_b 10.300324
_cell_length_c 15.415671
_cell_angle_alpha 90.000000
_cell_angle_beta 90.000000
_cell_angle_gamma 90.000000
_cell_volume 1880.685723
_symmetry_space_group_name_H-M "P B C M"
_symmetry_group_IT_number 57
_symmetry_cell_setting 'orthorhombic'
loop_
_space_group_symop_operation_xyz
x,y,z
-x,-y,1/2+z
x,1/2-y,-z
-x,1/2+y,1/2-z
-x,-y,-z
x,y,1/2-z
-x,1/2+y,z
x,1/2-y,1/2+z
loop_
_atom_site_type_symbol
_atom_site_label
_atom_site_fract_x
_atom_site_fract_y
_atom_site_fract_z
Si Si1 0.502811 0.125791 0.561412
Si Si2 0.745308 0.683921 0.905229
Si Si3 0.887544 0.919963 0.849781
Si Si4 0.141876 0.582752 0.356287
Si Si5 0.740010 0.154540 0.854372
O O1 0.515304 0.250000 0.500000
O O2 0.384975 0.146511 0.612250
O O3 0.613181 0.120687 0.619979
O O4 0.500000 0.000000 0.500000
O O5 0.806074 0.795854 0.850602
O O6 0.815542 0.552416 0.895011
O O7 0.746883 0.750000 0.000000
O O8 0.908257 0.956244 0.750000
O O9 0.012454 0.891710 0.884447
O O10 0.823257 0.042864 0.890065
O O11 0.148374 0.574538 0.250000
O O12 0.219715 0.703522 0.383811
O O13 0.746944 0.154508 0.750000
#
# Coordination Sequence:
#
# PCOD9438639 Si02
#       5
#     8   8   8   8   8
#     4  11  23  41  60  81 118 159 192 237 297 349
#     4  11  23  38  58  86 116 154 199 239 288 349
#     4  10  21  39  61  86 118 152 189 239 298 354
#     4  10  21  39  62  87 118 154 191 240 300 353
#     4  10  21  37  61  90 115 149 200 247 289 351
#
# _framework density 21.268839
#
# number of rings (size 3 to 8) (size 9 to 14) (size 15 to 20)
#    0.000    1.600    0.000    5.400    0.000    5.600 
#    0.000    9.000    0.000    0.000    0.000    0.000 
#    0.000    0.000    0.000    0.000    0.000    0.000 
#
# Total GULP energy -223456.228660 kJ/mol
# GULP energy per Si atom -5586.405716 kJ/mol
# Density = 2.122043 g / cm^3
# Si number density = 21.268839 Si / 1000 Ang^3
#
#
#
# Elastic Constant Matrix: (Units=GPa)
#
#
# Indices 1 2 3 4 5 6 
#
# 1 151.8901 54.0416 17.0888 0.0000 0.0000 0.0000
# 2 54.0416 172.5940 14.4338 0.0000 0.0000 0.0000
# 3 17.0888 14.4338 22.9199 0.0000 0.0000 0.0000
# 4 0.0000 0.0000 0.0000 29.0923 0.0000 0.0000
# 5 0.0000 0.0000 0.0000 0.0000 -4.6120 0.0000
# 6 0.0000 0.0000 0.0000 0.0000 0.0000 38.1360
#
#
#
# Elastic Compliance Matrix: (Units=1/GPa)
#
#
# Indices 1 2 3 4 5 6 
#
# 1 0.007831 -0.002073 -0.004533 0.000000 0.000000 0.000000
# 2 -0.002073 0.006665 -0.002652 0.000000 0.000000 0.000000
# 3 -0.004533 -0.002652 0.048680 0.000000 0.000000 0.000000
# 4 0.000000 0.000000 0.000000 0.034373 0.000000 0.000000
# 5 0.000000 0.000000 0.000000 0.000000 -0.216828 0.000000
# 6 0.000000 0.000000 0.000000 0.000000 0.000000 0.026222
#
#
# Mechanical properties :
#
#
# Convention : Reuss Voigt Hill
#
# Bulk Modulus (GPa) = 22.39127 57.61472 40.00300
# Shear Modulus (GPa) = -83.81724 29.97925 -26.91900
#
# Velocity S-wave (km/s) = -6.28443 3.75846 -3.56146
# Velocity P-wave (km/s) = 6.48908 6.78102 1.39179
#
# Compressibility (1/GPa) = 0.04466026
#
# Stress axis : x y z
#
# Youngs Moduli (GPa) = 127.69255 150.04275 20.54222
#
# Poissons Ratio (x) = 0.31103 0.09313
# Poissons Ratio (y) = 0.26470 0.05447
# Poissons Ratio (z) = 0.57889 0.39785
#
# Static dielectric constant tensor:
#      x y z
#    x 1.770920 0.000000 0.000000 
#    y 0.000000 1.740780 0.000000 
#    z 0.000000 0.000000 1.837580 
# 
# From -- ./inp_files/21576.got.cif
#   From: 2010.05.17/outbox.cif.g08.bks.cpg/sg57_11_cif.got.tgz:21576.got - 2010.06.03 13:58:18.
