data_PCOD9438765
_publ_section_title
;
Structure prediction by ZEFSAII (Michael W. Deem and Ramdas Pophale) SiO2 
 PCOD9438765
Probable space group: P B C M
;
_chemical_formula_sum "Si O2"
_cell_formula_units_Z 48
_cell_length_a 15.369922
_cell_length_b 19.612973
_cell_length_c 8.638306
_cell_angle_alpha 90.000000
_cell_angle_beta 90.000000
_cell_angle_gamma 90.000000
_cell_volume 2604.016179
_symmetry_space_group_name_H-M "P B C M"
_symmetry_group_IT_number 57
_symmetry_cell_setting 'orthorhombic'
loop_
_space_group_symop_operation_xyz
x,y,z
-x,-y,1/2+z
x,1/2-y,-z
-x,1/2+y,1/2-z
-x,-y,-z
x,y,1/2-z
-x,1/2+y,z
x,1/2-y,1/2+z
loop_
_atom_site_type_symbol
_atom_site_label
_atom_site_fract_x
_atom_site_fract_y
_atom_site_fract_z
Si Si1 0.065057 0.675049 0.063718
Si Si2 0.134049 0.325553 0.563727
Si Si3 0.230713 0.589737 0.437067
Si Si4 0.729098 0.933664 0.435806
Si Si5 0.393842 0.826327 0.065214
Si Si6 0.463787 0.071613 0.064984
O O1 0.066154 0.678535 0.250000
O O2 0.137785 0.620873 0.015310
O O3 0.966021 0.658307 0.016947
O O4 0.086823 0.750000 0.000000
O O5 0.153289 0.250000 0.500000
O O6 0.139079 0.325167 0.750000
O O7 0.200605 0.379937 0.495744
O O8 0.237984 0.595106 0.250000
O O9 0.242446 0.510642 0.478104
O O10 0.307498 0.633872 0.511136
O O11 0.722347 0.929898 0.250000
O O12 0.634955 0.920005 0.509042
O O13 0.397835 0.824904 0.250000
O O14 0.392594 0.750000 0.000000
O O15 0.475344 0.868456 0.999058
O O16 0.468251 0.070203 0.250000
O O17 0.500000 0.000000 0.000000
#
# Coordination Sequence:
#
# PCOD9438765 Si02
#       6
#     8   8   8   8   8   8
#     4   9  19  36  58  85 118 160 202 250 303 357
#     4  10  21  39  61  86 119 157 205 255 305 361
#     4  10  21  38  60  88 124 161 201 248 302 363
#     4  11  23  39  62  90 122 160 202 247 303 362
#     4  12  25  41  63  92 125 161 204 252 303 359
#     4  12  24  42  65  90 121 159 202 247 301 362
#
# _framework density 18.433064999999999
#
# number of rings (size 3 to 8) (size 9 to 14) (size 15 to 20)
#    0.000    1.333    1.667    4.500    0.000    4.667 
#    0.000    3.333    0.000    0.000    0.000    0.000 
#    0.000    0.000    0.000    0.000    0.000    0.000 
#
# Total GULP energy -268368.558651 kJ/mol
# GULP energy per Si atom -5591.011639 kJ/mol
# Density = 1.839111 g / cm^3
# Si number density = 18.433065 Si / 1000 Ang^3
#
#
#
# Elastic Constant Matrix: (Units=GPa)
#
#
# Indices 1 2 3 4 5 6 
#
# 1 170.9866 127.4873 63.1182 0.0000 0.0000 0.0000
# 2 127.4873 179.8599 72.7351 0.0000 0.0000 0.0000
# 3 63.1182 72.7351 90.1012 0.0000 0.0000 0.0000
# 4 0.0000 0.0000 0.0000 31.7552 0.0000 0.0000
# 5 0.0000 0.0000 0.0000 0.0000 31.0031 0.0000
# 6 0.0000 0.0000 0.0000 0.0000 0.0000 41.5746
#
#
#
# Elastic Compliance Matrix: (Units=1/GPa)
#
#
# Indices 1 2 3 4 5 6 
#
# 1 0.012752 -0.008056 -0.002430 0.000000 0.000000 0.000000
# 2 -0.008056 0.013344 -0.005129 0.000000 0.000000 0.000000
# 3 -0.002430 -0.005129 0.016941 0.000000 0.000000 0.000000
# 4 0.000000 0.000000 0.000000 0.031491 0.000000 0.000000
# 5 0.000000 0.000000 0.000000 0.000000 0.032255 0.000000
# 6 0.000000 0.000000 0.000000 0.000000 0.000000 0.024053
#
#
# Mechanical properties :
#
#
# Convention : Reuss Voigt Hill
#
# Bulk Modulus (GPa) = 84.68842 107.51431 96.10136
# Shear Modulus (GPa) = 30.12023 32.70704 31.41363
#
# Velocity S-wave (km/s) = 4.04670 4.21689 4.13267
# Velocity P-wave (km/s) = 8.23880 9.06439 8.66144
#
# Compressibility (1/GPa) = 0.01180799
#
# Stress axis : x y z
#
# Youngs Moduli (GPa) = 78.41878 74.93808 59.02896
#
# Poissons Ratio (x) = 0.60372 0.14342
# Poissons Ratio (y) = 0.63177 0.30274
# Poissons Ratio (z) = 0.19053 0.38434
#
# Static dielectric constant tensor:
#      x y z
#    x 1.620320 0.000000 0.000000 
#    y 0.000000 1.596970 0.000000 
#    z 0.000000 0.000000 1.616090 
# 
# From -- ./inp_files/4682.got.cif
#   From: 2010.05.17/outbox.cif.g08.bks.cpg/sg57_3_cif.got.tgz:4682.got - 2010.06.03 13:58:18.
