data_PCOD9438220
_publ_section_title
;
Structure prediction by ZEFSAII (Michael W. Deem and Ramdas Pophale) SiO2 
 PCOD9438220
Probable space group: P B C M
;
_chemical_formula_sum "Si O2"
_cell_formula_units_Z 56
_cell_length_a 31.072282
_cell_length_b 5.217773
_cell_length_c 14.632743
_cell_angle_alpha 90.000000
_cell_angle_beta 90.000000
_cell_angle_gamma 90.000000
_cell_volume 2372.379026
_symmetry_space_group_name_H-M "P B C M"
_symmetry_group_IT_number 57
_symmetry_cell_setting 'orthorhombic'
loop_
_space_group_symop_operation_xyz
x,y,z
-x,-y,1/2+z
x,1/2-y,-z
-x,1/2+y,1/2-z
-x,-y,-z
x,y,1/2-z
-x,1/2+y,z
x,1/2-y,1/2+z
loop_
_atom_site_type_symbol
_atom_site_label
_atom_site_fract_x
_atom_site_fract_y
_atom_site_fract_z
Si Si1 0.338102 0.364673 0.148783
Si Si2 0.714819 0.151862 0.895503
Si Si3 0.025223 0.659758 0.639357
Si Si4 0.108811 0.356073 0.900008
Si Si5 0.402200 0.250000 0.000000
Si Si6 0.480346 0.473217 0.898555
Si Si7 0.138773 0.043352 0.750000
Si Si8 0.813078 0.290939 0.109652
O O1 0.357294 0.321290 0.250000
O O2 0.307900 0.611545 0.153622
O O3 0.372388 0.412613 0.067906
O O4 0.310953 0.111218 0.120850
O O5 0.764709 0.123054 0.869333
O O6 0.714742 0.250000 0.000000
O O7 0.028256 0.654654 0.750000
O O8 0.070639 0.560109 0.602544
O O9 0.008760 0.938328 0.611035
O O10 0.151487 0.498907 0.863045
O O11 0.103456 0.127823 0.828990
O O12 0.115472 0.250000 0.000000
O O13 0.431633 0.093412 0.073028
O O14 0.493597 0.739750 0.854131
O O15 0.500000 0.500000 0.000000
O O16 0.172744 0.951099 0.669130
O O17 0.816676 0.250000 0.000000
#
# Coordination Sequence:
#
# PCOD9438220 Si02
#       8
#     8   8   8   8   4   8   4   8
#     4  12  26  42  64  98 132 178 229 276 337 408
#     4  11  25  47  68  94 136 179 229 280 338 396
#     4  10  24  43  69  99 137 178 218 268 330 400
#     4  12  26  45  73 105 136 173 228 272 336 408
#     4  10  20  40  64  88 134 176 216 280 338 394
#     4   8  16  30  56  90 116 164 222 264 330 406
#     4  12  26  46  72 100 136 182 216 278 346 380
#     4  11  27  44  71 100 134 175 227 283 334 399
#
# _framework density 23.604994999999999
#
# number of rings (size 3 to 8) (size 9 to 14) (size 15 to 20)
#    0.000    1.429    3.571    0.857    6.000    5.143 
#    0.000    0.000    0.000    7.714    0.000    0.000 
#    0.000    0.000    0.000    0.000    0.000    0.000 
#
# Total GULP energy -312018.838857 kJ/mol
# GULP energy per Si atom -5571.764980 kJ/mol
# Density = 2.355127 g / cm^3
# Si number density = 23.604995 Si / 1000 Ang^3
#
#
#
# Elastic Constant Matrix: (Units=GPa)
#
#
# Indices 1 2 3 4 5 6 
#
# 1 117.5467 40.7709 28.3529 0.0000 0.0000 0.0000
# 2 40.7709 90.7091 -6.7429 0.0000 0.0000 0.0000
# 3 28.3529 -6.7429 124.5951 0.0000 0.0000 0.0000
# 4 0.0000 0.0000 0.0000 36.8722 0.0000 0.0000
# 5 0.0000 0.0000 0.0000 0.0000 53.0337 0.0000
# 6 0.0000 0.0000 0.0000 0.0000 0.0000 20.6766
#
#
#
# Elastic Compliance Matrix: (Units=1/GPa)
#
#
# Indices 1 2 3 4 5 6 
#
# 1 0.010955 -0.005130 -0.002770 0.000000 0.000000 0.000000
# 2 -0.005130 0.013471 0.001896 0.000000 0.000000 0.000000
# 3 -0.002770 0.001896 0.008759 0.000000 0.000000 0.000000
# 4 0.000000 0.000000 0.000000 0.027121 0.000000 0.000000
# 5 0.000000 0.000000 0.000000 0.000000 0.018856 0.000000
# 6 0.000000 0.000000 0.000000 0.000000 0.000000 0.048364
#
#
# Mechanical properties :
#
#
# Convention : Reuss Voigt Hill
#
# Bulk Modulus (GPa) = 47.22118 50.84586 49.03352
# Shear Modulus (GPa) = 34.10827 40.14784 37.12806
#
# Velocity S-wave (km/s) = 3.80539 4.12857 3.97027
# Velocity P-wave (km/s) = 6.27345 6.65687 6.46800
#
# Compressibility (1/GPa) = 0.02117694
#
# Stress axis : x y z
#
# Youngs Moduli (GPa) = 91.28441 74.23410 114.16729
#
# Poissons Ratio (x) = 0.38080 0.31630
# Poissons Ratio (y) = 0.46827 -0.21650
# Poissons Ratio (z) = 0.25290 -0.14077
#
# Static dielectric constant tensor:
#      x y z
#    x 1.924010 0.000000 0.000000 
#    y 0.000000 2.043340 0.000000 
#    z 0.000000 0.000000 1.840950 
# 
# From -- ./inp_files/19662.got.cif
#   From: 2010.05.17/outbox.cif.g08.bks.cpg/sg57_10_cif.got.tgz:19662.got - 2010.06.03 13:58:18.
