data_PCOD9438451
_publ_section_title
;
Structure prediction by ZEFSAII (Michael W. Deem and Ramdas Pophale) SiO2 
 PCOD9438451
Probable space group: P B C M
;
_chemical_formula_sum "Si O2"
_cell_formula_units_Z 64
_cell_length_a 33.254709
_cell_length_b 5.450414
_cell_length_c 17.946321
_cell_angle_alpha 90.000000
_cell_angle_beta 90.000000
_cell_angle_gamma 90.000000
_cell_volume 3252.805345
_symmetry_space_group_name_H-M "P B C M"
_symmetry_group_IT_number 57
_symmetry_cell_setting 'orthorhombic'
loop_
_space_group_symop_operation_xyz
x,y,z
-x,-y,1/2+z
x,1/2-y,-z
-x,1/2+y,1/2-z
-x,-y,-z
x,y,1/2-z
-x,1/2+y,z
x,1/2-y,1/2+z
loop_
_atom_site_type_symbol
_atom_site_label
_atom_site_fract_x
_atom_site_fract_y
_atom_site_fract_z
Si Si1 0.475725 0.989389 0.660958
Si Si2 0.113569 0.692824 0.164415
Si Si3 0.750762 0.339401 0.832757
Si Si4 0.188616 0.590197 0.573365
Si Si5 0.689868 0.996938 0.046578
Si Si6 0.174037 0.296527 0.331240
Si Si7 0.022251 0.728244 0.158995
Si Si8 0.404779 0.002091 0.546508
O O1 0.469430 0.989960 0.750000
O O2 0.500466 0.237780 0.642087
O O3 0.434099 0.993453 0.616739
O O4 0.113627 0.782200 0.250000
O O5 0.148447 0.820481 0.117076
O O6 0.129889 0.414781 0.168175
O O7 0.068758 0.719629 0.134729
O O8 0.737079 0.270275 0.750000
O O9 0.769890 0.119806 0.880351
O O10 0.717127 0.475008 0.880538
O O11 0.790470 0.505992 0.825755
O O12 0.192289 0.750000 0.500000
O O13 0.181100 0.305107 0.585514
O O14 0.642529 0.983609 0.065905
O O15 0.699917 0.750000 0.000000
O O16 0.695611 0.250000 0.000000
O O17 0.177924 0.159562 0.250000
O O18 0.022414 0.725038 0.250000
O O19 0.999216 0.480495 0.135505
O O20 0.410665 0.750000 0.500000
O O21 0.414081 0.250000 0.500000
#
# Coordination Sequence:
#
# PCOD9438451 Si02
#       8
#     8   8   8   8   8   8   8   8
#     4  10  21  36  57  87 122 158 199 251 306 357
#     4   9  19  34  53  79 110 143 181 231 283 333
#     4  10  22  37  56  84 112 148 195 239 291 349
#     4  11  22  34  55  81 110 148 188 235 286 345
#     4  10  23  41  61  86 120 158 197 245 295 349
#     4   9  19  35  55  79 108 141 183 237 285 340
#     4   9  18  31  52  83 112 141 181 228 278 332
#     4  10  21  38  59  86 118 156 202 246 295 355
#
# _framework density 19.675324
#
# number of rings (size 3 to 8) (size 9 to 14) (size 15 to 20)
#    0.000    2.250    0.000    3.000    5.250    3.500 
#    0.000    0.000    0.000    5.250    0.000    0.000 
#    0.000    0.000    0.000    0.000    0.000    0.000 
#
# Total GULP energy -356309.163425 kJ/mol
# GULP energy per Si atom -5567.330679 kJ/mol
# Density = 1.963054 g / cm^3
# Si number density = 19.675324 Si / 1000 Ang^3
#
#
#
# Elastic Constant Matrix: (Units=GPa)
#
#
# Indices 1 2 3 4 5 6 
#
# 1 102.8332 25.3627 36.6241 0.0000 0.0000 0.0000
# 2 25.3627 83.5094 5.2015 0.0000 0.0000 0.0000
# 3 36.6241 5.2015 37.3190 0.0000 0.0000 0.0000
# 4 0.0000 0.0000 0.0000 4.8241 0.0000 0.0000
# 5 0.0000 0.0000 0.0000 0.0000 1.1075 0.0000
# 6 0.0000 0.0000 0.0000 0.0000 0.0000 17.0048
#
#
#
# Elastic Compliance Matrix: (Units=1/GPa)
#
#
# Indices 1 2 3 4 5 6 
#
# 1 0.016146 -0.003951 -0.015295 0.000000 0.000000 0.000000
# 2 -0.003951 0.013046 0.002059 0.000000 0.000000 0.000000
# 3 -0.015295 0.002059 0.041519 0.000000 0.000000 0.000000
# 4 0.000000 0.000000 0.000000 0.207291 0.000000 0.000000
# 5 0.000000 0.000000 0.000000 0.000000 0.902914 0.000000
# 6 0.000000 0.000000 0.000000 0.000000 0.000000 0.058807
#
#
# Mechanical properties :
#
#
# Convention : Reuss Voigt Hill
#
# Bulk Modulus (GPa) = 27.51938 39.78201 33.65069
# Shear Modulus (GPa) = 3.88739 15.01885 9.45312
#
# Velocity S-wave (km/s) = 1.40715 2.76585 2.19431
# Velocity P-wave (km/s) = 4.08132 5.51933 4.85388
#
# Compressibility (1/GPa) = 0.03633803
#
# Stress axis : x y z
#
# Youngs Moduli (GPa) = 61.93386 76.64929 24.08532
#
# Poissons Ratio (x) = 0.30285 0.36838
# Poissons Ratio (y) = 0.24471 -0.04959
# Poissons Ratio (z) = 0.94727 -0.15783
#
# Static dielectric constant tensor:
#      x y z
#    x 1.653000 0.000000 0.000000 
#    y 0.000000 1.849220 0.000000 
#    z 0.000000 0.000000 1.786480 
# 
# From -- ./inp_files/23188.got.cif
#   From: 2010.05.17/outbox.cif.g08.bks.cpg/sg57_12_cif.got.tgz:23188.got - 2010.06.03 13:58:18.
