data_PCOD9438394
_publ_section_title
;
Structure prediction by ZEFSAII (Michael W. Deem and Ramdas Pophale) SiO2 
 PCOD9438394
Probable space group: P B C M
;
_chemical_formula_sum "Si O2"
_cell_formula_units_Z 40
_cell_length_a 6.636722
_cell_length_b 10.383668
_cell_length_c 26.173454
_cell_angle_alpha 90.000000
_cell_angle_beta 90.000000
_cell_angle_gamma 90.000000
_cell_volume 1803.704790
_symmetry_space_group_name_H-M "P B C M"
_symmetry_group_IT_number 57
_symmetry_cell_setting 'orthorhombic'
loop_
_space_group_symop_operation_xyz
x,y,z
-x,-y,1/2+z
x,1/2-y,-z
-x,1/2+y,1/2-z
-x,-y,-z
x,y,1/2-z
-x,1/2+y,z
x,1/2-y,1/2+z
loop_
_atom_site_type_symbol
_atom_site_label
_atom_site_fract_x
_atom_site_fract_y
_atom_site_fract_z
Si Si1 0.188661 0.488129 0.447953
Si Si2 0.159782 0.349071 0.954785
Si Si3 0.942205 0.378152 0.359075
Si Si4 0.188700 0.612763 0.189379
Si Si5 0.444331 0.455030 0.620684
O O1 0.204872 0.474737 0.508828
O O2 0.402087 0.490069 0.421258
O O3 0.068362 0.621400 0.438498
O O4 0.052526 0.386399 0.414861
O O5 0.311965 0.347262 0.908245
O O6 0.191428 0.250000 0.000000
O O7 0.922451 0.238739 0.333677
O O8 0.718535 0.438531 0.363281
O O9 0.070359 0.482245 0.326417
O O10 0.198646 0.624531 0.250000
O O11 0.411901 0.598738 0.164922
#
# Coordination Sequence:
#
# PCOD9438394 Si02
#       5
#     8   8   8   8   8
#     4   9  21  39  58  91 133 172 216 263 325 394
#     4  10  21  35  62  92 129 174 214 263 326 395
#     4  10  24  43  70  96 135 173 225 278 335 400
#     4  11  25  45  70  98 133 177 224 283 341 397
#     4  10  23  40  63  98 130 168 223 273 326 397
#
# _framework density 22.176577999999999
#
# number of rings (size 3 to 8) (size 9 to 14) (size 15 to 20)
#    0.000    2.000    0.000    1.200   11.200    4.000 
#    0.000    0.000    0.000    0.000    0.000    0.000 
#    0.000    0.000    0.000    0.000    0.000    0.000 
#
# Total GULP energy -223241.411086 kJ/mol
# GULP energy per Si atom -5581.035277 kJ/mol
# Density = 2.212610 g / cm^3
# Si number density = 22.176578 Si / 1000 Ang^3
#
#
#
# Elastic Constant Matrix: (Units=GPa)
#
#
# Indices 1 2 3 4 5 6 
#
# 1 130.2084 24.9480 45.0330 0.0000 0.0000 0.0000
# 2 24.9480 63.3230 18.0769 0.0000 0.0000 0.0000
# 3 45.0330 18.0769 140.4544 0.0000 0.0000 0.0000
# 4 0.0000 0.0000 0.0000 28.9615 0.0000 0.0000
# 5 0.0000 0.0000 0.0000 0.0000 29.7300 0.0000
# 6 0.0000 0.0000 0.0000 0.0000 0.0000 23.3386
#
#
#
# Elastic Compliance Matrix: (Units=1/GPa)
#
#
# Indices 1 2 3 4 5 6 
#
# 1 0.009111 -0.002861 -0.002553 0.000000 0.000000 0.000000
# 2 -0.002861 0.017293 -0.001308 0.000000 0.000000 0.000000
# 3 -0.002553 -0.001308 0.008107 0.000000 0.000000 0.000000
# 4 0.000000 0.000000 0.000000 0.034529 0.000000 0.000000
# 5 0.000000 0.000000 0.000000 0.000000 0.033636 0.000000
# 6 0.000000 0.000000 0.000000 0.000000 0.000000 0.042848
#
#
# Mechanical properties :
#
#
# Convention : Reuss Voigt Hill
#
# Bulk Modulus (GPa) = 47.46972 56.67795 52.07383
# Shear Modulus (GPa) = 30.12245 32.80119 31.46182
#
# Velocity S-wave (km/s) = 3.68951 3.85007 3.77064
# Velocity P-wave (km/s) = 6.29300 6.73625 6.51839
#
# Compressibility (1/GPa) = 0.02106606
#
# Stress axis : x y z
#
# Youngs Moduli (GPa) = 109.75616 57.82804 123.35460
#
# Poissons Ratio (x) = 0.16543 0.31493
# Poissons Ratio (y) = 0.31399 0.16139
# Poissons Ratio (z) = 0.28021 0.07566
#
# Static dielectric constant tensor:
#      x y z
#    x 1.815000 0.000000 0.000000 
#    y 0.000000 2.076720 0.000000 
#    z 0.000000 0.000000 1.830700 
# 
# From -- ./inp_files/27784.got.cif
#   From: 2010.05.17/outbox.cif.g08.bks.cpg/sg57_14_cif.got.tgz:27784.got - 2010.06.03 13:58:18.
