data_PCOD9438682
_publ_section_title
;
Structure prediction by ZEFSAII (Michael W. Deem and Ramdas Pophale) SiO2 
 PCOD9438682
Probable space group: P B C M
;
_chemical_formula_sum "Si O2"
_cell_formula_units_Z 48
_cell_length_a 15.983921
_cell_length_b 18.255803
_cell_length_c 8.653187
_cell_angle_alpha 90.000000
_cell_angle_beta 90.000000
_cell_angle_gamma 90.000000
_cell_volume 2524.994021
_symmetry_space_group_name_H-M "P B C M"
_symmetry_group_IT_number 57
_symmetry_cell_setting 'orthorhombic'
loop_
_space_group_symop_operation_xyz
x,y,z
-x,-y,1/2+z
x,1/2-y,-z
-x,1/2+y,1/2-z
-x,-y,-z
x,y,1/2-z
-x,1/2+y,z
x,1/2-y,1/2+z
loop_
_atom_site_type_symbol
_atom_site_label
_atom_site_fract_x
_atom_site_fract_y
_atom_site_fract_z
Si Si1 0.995796 0.170455 0.064030
Si Si2 0.340108 0.832704 0.433859
Si Si3 0.147712 0.433701 0.937320
Si Si4 0.697005 0.667771 0.435940
Si Si5 0.487427 0.167059 0.435328
Si Si6 0.174676 0.905128 0.935173
O O1 0.997159 0.173644 0.250000
O O2 0.064124 0.110087 0.017117
O O3 0.903027 0.146050 0.015046
O O4 0.017457 0.250000 0.000000
O O5 0.332590 0.750000 0.500000
O O6 0.342339 0.828651 0.250000
O O7 0.428085 0.865728 0.494269
O O8 0.260671 0.878164 0.490245
O O9 0.148386 0.441185 0.750000
O O10 0.227744 0.384740 0.983800
O O11 0.153537 0.512830 0.013005
O O12 0.706874 0.750000 0.500000
O O13 0.698956 0.673151 0.250000
O O14 0.604537 0.637458 0.478174
O O15 0.485747 0.250000 0.500000
O O16 0.494839 0.168258 0.250000
O O17 0.181681 0.901220 0.750000
#
# Coordination Sequence:
#
# PCOD9438682 Si02
#       6
#     8   8   8   8   8   8
#     4  10  22  38  59  84 110 139 178 222 267 318
#     4  11  21  35  56  81 108 142 181 226 272 319
#     4  10  21  38  56  80 112 145 178 219 268 321
#     4   9  18  32  54  81 110 142 180 222 268 318
#     4   9  16  29  50  78 108 139 176 222 267 315
#     4  11  23  38  55  80 110 145 184 223 268 321
#
# _framework density 19.009947
#
# number of rings (size 3 to 8) (size 9 to 14) (size 15 to 20)
#    0.000    2.000    0.000    5.000    0.000    4.667 
#    0.000    0.833    0.000    0.000    0.000    0.000 
#    0.000    0.000    0.000    0.000    0.000    0.000 
#
# Total GULP energy -267984.400847 kJ/mol
# GULP energy per Si atom -5583.008351 kJ/mol
# Density = 1.896668 g / cm^3
# Si number density = 19.009947 Si / 1000 Ang^3
#
#
#
# Elastic Constant Matrix: (Units=GPa)
#
#
# Indices 1 2 3 4 5 6 
#
# 1 82.3397 -10.7968 20.3499 0.0000 0.0000 0.0000
# 2 -10.7968 35.4755 4.4429 0.0000 0.0000 0.0000
# 3 20.3499 4.4429 51.8903 0.0000 0.0000 0.0000
# 4 0.0000 0.0000 0.0000 29.9427 0.0000 0.0000
# 5 0.0000 0.0000 0.0000 0.0000 11.8170 0.0000
# 6 0.0000 0.0000 0.0000 0.0000 0.0000 0.9571
#
#
#
# Elastic Compliance Matrix: (Units=1/GPa)
#
#
# Indices 1 2 3 4 5 6 
#
# 1 0.014310 0.005113 -0.006050 0.000000 0.000000 0.000000
# 2 0.005113 0.030321 -0.004601 0.000000 0.000000 0.000000
# 3 -0.006050 -0.004601 0.022038 0.000000 0.000000 0.000000
# 4 0.000000 0.000000 0.000000 0.033397 0.000000 0.000000
# 5 0.000000 0.000000 0.000000 0.000000 0.084624 0.000000
# 6 0.000000 0.000000 0.000000 0.000000 0.000000 1.044773
#
#
# Mechanical properties :
#
#
# Convention : Reuss Voigt Hill
#
# Bulk Modulus (GPa) = 17.98791 21.96640 19.97716
# Shear Modulus (GPa) = 3.97118 18.92400 11.44759
#
# Velocity S-wave (km/s) = 1.44691 3.15854 2.45662
# Velocity P-wave (km/s) = 3.50347 4.98820 4.31025
#
# Compressibility (1/GPa) = 0.05559289
#
# Stress axis : x y z
#
# Youngs Moduli (GPa) = 69.87890 32.98062 45.37616
#
# Poissons Ratio (x) = -0.16863 0.27452
# Poissons Ratio (y) = -0.35729 0.20879
# Poissons Ratio (z) = 0.42276 0.15175
#
# Static dielectric constant tensor:
#      x y z
#    x 1.698020 0.000000 0.000000 
#    y 0.000000 1.584580 0.000000 
#    z 0.000000 0.000000 1.638330 
# 
# From -- ./inp_files/4658.got.cif
#   From: 2010.05.17/outbox.cif.g08.bks.cpg/sg57_3_cif.got.tgz:4658.got - 2010.06.03 13:58:18.
