data_PCOD9438735
_publ_section_title
;
Structure prediction by ZEFSAII (Michael W. Deem and Ramdas Pophale) SiO2 
 PCOD9438735
Probable space group: P B C M
;
_chemical_formula_sum "Si O2"
_cell_formula_units_Z 64
_cell_length_a 22.190216
_cell_length_b 18.138693
_cell_length_c 8.753970
_cell_angle_alpha 90.000000
_cell_angle_beta 90.000000
_cell_angle_gamma 90.000000
_cell_volume 3523.486193
_symmetry_space_group_name_H-M "P B C M"
_symmetry_group_IT_number 57
_symmetry_cell_setting 'orthorhombic'
loop_
_space_group_symop_operation_xyz
x,y,z
-x,-y,1/2+z
x,1/2-y,-z
-x,1/2+y,1/2-z
-x,-y,-z
x,y,1/2-z
-x,1/2+y,z
x,1/2-y,1/2+z
loop_
_atom_site_type_symbol
_atom_site_label
_atom_site_fract_x
_atom_site_fract_y
_atom_site_fract_z
Si Si1 0.189982 0.958713 0.066740
Si Si2 0.611695 0.071799 0.066218
Si Si3 0.502752 0.669541 0.433618
Si Si4 0.936079 0.978410 0.566969
Si Si5 0.245709 0.105667 0.931853
Si Si6 0.126871 0.326797 0.567034
Si Si7 0.720452 0.331490 0.432651
Si Si8 0.373703 0.092034 0.066409
O O1 0.194507 0.972876 0.250000
O O2 0.219878 0.880156 0.035941
O O3 0.120133 0.968940 0.022836
O O4 0.227755 0.022634 0.983447
O O5 0.614920 0.065481 0.250000
O O6 0.548896 0.111151 0.022995
O O7 0.665240 0.123791 0.006521
O O8 0.617496 0.991283 0.993087
O O9 0.490163 0.750000 0.500000
O O10 0.502061 0.674580 0.250000
O O11 0.568300 0.639773 0.480789
O O12 0.940424 0.980292 0.750000
O O13 0.914639 0.896242 0.522249
O O14 0.000000 0.000000 0.500000
O O15 0.245672 0.111034 0.750000
O O16 0.193289 0.156179 0.001929
O O17 0.311472 0.122017 0.997976
O O18 0.104655 0.250000 0.500000
O O19 0.129809 0.324022 0.750000
O O20 0.724072 0.250000 0.500000
O O21 0.711981 0.328190 0.250000
O O22 0.369896 0.091050 0.250000
#
# Coordination Sequence:
#
# PCOD9438735 Si02
#       8
#     8   8   8   8   8   8   8   8
#     4   9  19  37  57  79 113 151 188 231 282 334
#     4  11  22  38  59  85 110 141 191 239 284 346
#     4  10  24  41  57  78 109 146 187 235 288 344
#     4   9  19  36  59  86 116 153 194 236 279 333
#     4  11  21  34  57  86 113 146 187 233 284 340
#     4  10  21  38  59  86 120 155 194 239 288 340
#     4  11  22  36  57  83 114 150 186 234 290 340
#     4  11  22  38  58  82 112 149 188 234 288 343
#
# _framework density 18.163829
#
# number of rings (size 3 to 8) (size 9 to 14) (size 15 to 20)
#    0.000    1.750    1.250    4.125    0.000    6.500 
#    0.000    1.875    0.000    3.000    0.000    0.000 
#    0.000    0.000    0.000    0.000    0.000    0.000 
#
# Total GULP energy -357542.507935 kJ/mol
# GULP energy per Si atom -5586.601686 kJ/mol
# Density = 1.812249 g / cm^3
# Si number density = 18.163829 Si / 1000 Ang^3
#
#
#
# Elastic Constant Matrix: (Units=GPa)
#
#
# Indices 1 2 3 4 5 6 
#
# 1 126.0363 16.2677 28.1012 0.0000 0.0000 0.0000
# 2 16.2677 45.6577 14.1439 0.0000 0.0000 0.0000
# 3 28.1012 14.1439 49.2259 0.0000 0.0000 0.0000
# 4 0.0000 0.0000 0.0000 31.7934 0.0000 0.0000
# 5 0.0000 0.0000 0.0000 0.0000 30.5333 0.0000
# 6 0.0000 0.0000 0.0000 0.0000 0.0000 15.8717
#
#
#
# Elastic Compliance Matrix: (Units=1/GPa)
#
#
# Indices 1 2 3 4 5 6 
#
# 1 0.009227 -0.001818 -0.004745 0.000000 0.000000 0.000000
# 2 -0.001818 0.024400 -0.005973 0.000000 0.000000 0.000000
# 3 -0.004745 -0.005973 0.024740 0.000000 0.000000 0.000000
# 4 0.000000 0.000000 0.000000 0.031453 0.000000 0.000000
# 5 0.000000 0.000000 0.000000 0.000000 0.032751 0.000000
# 6 0.000000 0.000000 0.000000 0.000000 0.000000 0.063005
#
#
# Mechanical properties :
#
#
# Convention : Reuss Voigt Hill
#
# Bulk Modulus (GPa) = 30.03465 37.54947 33.79206
# Shear Modulus (GPa) = 22.54834 26.46680 24.50757
#
# Velocity S-wave (km/s) = 3.52715 3.82136 3.67720
# Velocity P-wave (km/s) = 5.75839 6.33940 6.05587
#
# Compressibility (1/GPa) = 0.03329488
#
# Stress axis : x y z
#
# Youngs Moduli (GPa) = 108.38041 40.98347 40.42118
#
# Poissons Ratio (x) = 0.07449 0.19180
# Poissons Ratio (y) = 0.19699 0.24144
# Poissons Ratio (z) = 0.51426 0.24480
#
# Static dielectric constant tensor:
#      x y z
#    x 1.617480 0.000000 0.000000 
#    y 0.000000 1.606230 0.000000 
#    z 0.000000 0.000000 1.609540 
# 
# From -- ./inp_files/8511.got.cif
#   From: 2010.05.17/outbox.cif.g08.bks.cpg/sg57_5_cif.got.tgz:8511.got - 2010.06.03 13:58:18.
