data_PCOD9438496
_publ_section_title
;
Structure prediction by ZEFSAII (Michael W. Deem and Ramdas Pophale) SiO2 
 PCOD9438496
Probable space group: P B C M
;
_chemical_formula_sum "Si O2"
_cell_formula_units_Z 48
_cell_length_a 10.100687
_cell_length_b 28.565863
_cell_length_c 7.825328
_cell_angle_alpha 90.000000
_cell_angle_beta 90.000000
_cell_angle_gamma 90.000000
_cell_volume 2257.879771
_symmetry_space_group_name_H-M "P B C M"
_symmetry_group_IT_number 57
_symmetry_cell_setting 'orthorhombic'
loop_
_space_group_symop_operation_xyz
x,y,z
-x,-y,1/2+z
x,1/2-y,-z
-x,1/2+y,1/2-z
-x,-y,-z
x,y,1/2-z
-x,1/2+y,z
x,1/2-y,1/2+z
loop_
_atom_site_type_symbol
_atom_site_label
_atom_site_fract_x
_atom_site_fract_y
_atom_site_fract_z
Si Si1 0.544714 0.301762 0.450963
Si Si2 0.658148 0.624886 0.949518
Si Si3 0.117585 0.562245 0.044270
Si Si4 0.830204 0.334382 0.543912
Si Si5 0.119463 0.302725 0.545334
Si Si6 0.184467 0.461109 0.456682
O O1 0.498280 0.250000 0.500000
O O2 0.525789 0.304706 0.250000
O O3 0.461350 0.344925 0.528815
O O4 0.699023 0.307700 0.490056
O O5 0.627796 0.615972 0.750000
O O6 0.706236 0.575255 0.023695
O O7 0.783653 0.659590 0.962204
O O8 0.127892 0.562473 0.250000
O O9 0.172038 0.611785 0.981506
O O10 0.187904 0.514792 0.981061
O O11 0.962068 0.557760 0.001350
O O12 0.832584 0.334751 0.750000
O O13 0.968332 0.311523 0.487303
O O14 0.158398 0.250000 0.500000
O O15 0.126034 0.309130 0.750000
O O16 0.192575 0.461846 0.250000
#
# Coordination Sequence:
#
# PCOD9438496 Si02
#       6
#     8   8   8   8   8   8
#     4  11  24  40  57  77 107 146 188 228 274 330
#     4  10  21  37  56  82 111 144 183 224 273 325
#     4   9  17  32  54  83 114 143 178 220 268 322
#     4  10  21  37  56  81 111 144 183 225 273 324
#     4  11  22  35  54  80 108 138 179 230 276 326
#     4   9  17  31  55  83 113 145 177 219 270 321
#
# _framework density 21.258882
#
# number of rings (size 3 to 8) (size 9 to 14) (size 15 to 20)
#    0.000    2.000    1.667    2.000    0.000    6.000 
#    0.000    0.833    0.000    0.000    0.000    0.000 
#    0.000    0.000    0.000    0.000    0.000    0.000 
#
# Total GULP energy -268016.746306 kJ/mol
# GULP energy per Si atom -5583.682215 kJ/mol
# Density = 2.121050 g / cm^3
# Si number density = 21.258882 Si / 1000 Ang^3
#
#
#
# Elastic Constant Matrix: (Units=GPa)
#
#
# Indices 1 2 3 4 5 6 
#
# 1 45.1588 -7.2203 -8.6092 0.0000 0.0000 0.0000
# 2 -7.2203 93.4134 -0.7985 0.0000 0.0000 0.0000
# 3 -8.6092 -0.7985 26.3232 0.0000 0.0000 0.0000
# 4 0.0000 0.0000 0.0000 11.0505 0.0000 0.0000
# 5 0.0000 0.0000 0.0000 0.0000 13.6081 0.0000
# 6 0.0000 0.0000 0.0000 0.0000 0.0000 43.3032
#
#
#
# Elastic Compliance Matrix: (Units=1/GPa)
#
#
# Indices 1 2 3 4 5 6 
#
# 1 0.023956 0.001919 0.007893 0.000000 0.000000 0.000000
# 2 0.001919 0.010862 0.000957 0.000000 0.000000 0.000000
# 3 0.007893 0.000957 0.040600 0.000000 0.000000 0.000000
# 4 0.000000 0.000000 0.000000 0.090494 0.000000 0.000000
# 5 0.000000 0.000000 0.000000 0.000000 0.073486 0.000000
# 6 0.000000 0.000000 0.000000 0.000000 0.000000 0.023093
#
#
# Mechanical properties :
#
#
# Convention : Reuss Voigt Hill
#
# Bulk Modulus (GPa) = 10.31398 14.62660 12.47029
# Shear Modulus (GPa) = 18.29697 25.69392 21.99545
#
# Velocity S-wave (km/s) = 2.93691 3.48029 3.22008
# Velocity P-wave (km/s) = 4.04508 4.80053 4.43891
#
# Compressibility (1/GPa) = 0.09695577
#
# Stress axis : x y z
#
# Youngs Moduli (GPa) = 41.74372 92.06730 24.63068
#
# Poissons Ratio (x) = -0.17669 -0.19441
# Poissons Ratio (y) = -0.08011 -0.02357
# Poissons Ratio (z) = -0.32949 -0.08812
#
# Static dielectric constant tensor:
#      x y z
#    x 1.763200 0.000000 0.000000 
#    y 0.000000 1.806750 0.000000 
#    z 0.000000 0.000000 1.764180 
# 
# From -- ./inp_files/2052.got.cif
#   From: 2010.05.17/outbox.cif.g08.bks.cpg/sg57_2_cif.got.tgz:2052.got - 2010.06.03 13:58:18.
