data_PCOD9438967
_publ_section_title
;
Structure prediction by ZEFSAII (Michael W. Deem and Ramdas Pophale) SiO2 
 PCOD9438967
Probable space group: P B C M
;
_chemical_formula_sum "Si O2"
_cell_formula_units_Z 40
_cell_length_a 12.711249
_cell_length_b 18.702261
_cell_length_c 8.762584
_cell_angle_alpha 90.000000
_cell_angle_beta 90.000000
_cell_angle_gamma 90.000000
_cell_volume 2083.121177
_symmetry_space_group_name_H-M "P B C M"
_symmetry_group_IT_number 57
_symmetry_cell_setting 'orthorhombic'
loop_
_space_group_symop_operation_xyz
x,y,z
-x,-y,1/2+z
x,1/2-y,-z
-x,1/2+y,1/2-z
-x,-y,-z
x,y,1/2-z
-x,1/2+y,z
x,1/2-y,1/2+z
loop_
_atom_site_type_symbol
_atom_site_label
_atom_site_fract_x
_atom_site_fract_y
_atom_site_fract_z
Si Si1 0.470415 0.671859 0.933685
Si Si2 0.662810 0.929125 0.067210
Si Si3 0.957525 0.425302 0.567956
Si Si4 0.726262 0.079338 0.567591
Si Si5 0.863926 0.672039 0.931891
O O1 0.474804 0.675973 0.750000
O O2 0.560416 0.615603 0.980695
O O3 0.356705 0.640549 0.977311
O O4 0.489421 0.750000 0.000000
O O5 0.657049 0.942612 0.250000
O O6 0.765176 0.880126 0.039102
O O7 0.676733 0.003442 0.980851
O O8 0.960981 0.429260 0.750000
O O9 0.838718 0.413713 0.512266
O O10 0.000000 0.500000 0.500000
O O11 0.033924 0.363404 0.507444
O O12 0.740310 0.080949 0.750000
O O13 0.878334 0.676814 0.750000
O O14 0.843574 0.750000 0.000000
#
# Coordination Sequence:
#
# PCOD9438967 Si02
#       5
#     8   8   8   8   8
#     4  10  23  41  61  90 125 164 207 255 307 368
#     4  10  21  39  63  91 124 161 207 256 307 366
#     4  12  24  41  64  90 123 162 207 257 311 368
#     4  11  23  39  63  92 124 162 210 256 308 372
#     4  11  23  39  62  93 127 163 206 254 310 371
#
# _framework density 19.201955000000002
#
# number of rings (size 3 to 8) (size 9 to 14) (size 15 to 20)
#    0.000    1.200    2.000    4.200    0.000    4.000 
#    0.000    2.000    0.000    0.000    0.000    0.000 
#    0.000    0.000    0.000    0.000    0.000    0.000 
#
# Total GULP energy -223758.381904 kJ/mol
# GULP energy per Si atom -5593.959548 kJ/mol
# Density = 1.915825 g / cm^3
# Si number density = 19.201955 Si / 1000 Ang^3
#
#
#
# Elastic Constant Matrix: (Units=GPa)
#
#
# Indices 1 2 3 4 5 6 
#
# 1 97.0705 -14.9183 29.5452 0.0000 0.0000 0.0000
# 2 -14.9183 24.1550 11.7744 0.0000 0.0000 0.0000
# 3 29.5452 11.7744 61.8172 0.0000 0.0000 0.0000
# 4 0.0000 0.0000 0.0000 34.4979 0.0000 0.0000
# 5 0.0000 0.0000 0.0000 0.0000 25.6228 0.0000
# 6 0.0000 0.0000 0.0000 0.0000 0.0000 18.8352
#
#
#
# Elastic Compliance Matrix: (Units=1/GPa)
#
#
# Indices 1 2 3 4 5 6 
#
# 1 0.015702 0.014723 -0.010309 0.000000 0.000000 0.000000
# 2 0.014723 0.059441 -0.018359 0.000000 0.000000 0.000000
# 3 -0.010309 -0.018359 0.024601 0.000000 0.000000 0.000000
# 4 0.000000 0.000000 0.000000 0.028987 0.000000 0.000000
# 5 0.000000 0.000000 0.000000 0.000000 0.039028 0.000000
# 6 0.000000 0.000000 0.000000 0.000000 0.000000 0.053092
#
#
# Mechanical properties :
#
#
# Convention : Reuss Voigt Hill
#
# Bulk Modulus (GPa) = 13.91695 26.20503 20.06099
# Shear Modulus (GPa) = 18.33567 26.23394 22.28481
#
# Velocity S-wave (km/s) = 3.09347 3.70024 3.41038
# Velocity P-wave (km/s) = 4.47469 5.65088 5.09683
#
# Compressibility (1/GPa) = 0.07185481
#
# Stress axis : x y z
#
# Youngs Moduli (GPa) = 63.68500 16.82332 40.64923
#
# Poissons Ratio (x) = -0.24769 0.41906
# Poissons Ratio (y) = -0.93764 0.74626
# Poissons Ratio (z) = 0.65654 0.30885
#
# Static dielectric constant tensor:
#      x y z
#    x 1.660390 0.000000 0.000000 
#    y 0.000000 1.631120 0.000000 
#    z 0.000000 0.000000 1.642970 
# 
# From -- ./inp_files/2635.got.cif
#   From: 2010.05.17/outbox.cif.g08.bks.cpg/sg57_2_cif.got.tgz:2635.got - 2010.06.03 13:58:18.
