data_PCOD9438254
_publ_section_title
;
Structure prediction by ZEFSAII (Michael W. Deem and Ramdas Pophale) SiO2 
 PCOD9438254
Probable space group: P B C M
;
_chemical_formula_sum "Si O2"
_cell_formula_units_Z 60
_cell_length_a 17.184727
_cell_length_b 8.844832
_cell_length_c 18.654585
_cell_angle_alpha 90.000000
_cell_angle_beta 90.000000
_cell_angle_gamma 90.000000
_cell_volume 2835.422736
_symmetry_space_group_name_H-M "P B C M"
_symmetry_group_IT_number 57
_symmetry_cell_setting 'orthorhombic'
loop_
_space_group_symop_operation_xyz
x,y,z
-x,-y,1/2+z
x,1/2-y,-z
-x,1/2+y,1/2-z
-x,-y,-z
x,y,1/2-z
-x,1/2+y,z
x,1/2-y,1/2+z
loop_
_atom_site_type_symbol
_atom_site_label
_atom_site_fract_x
_atom_site_fract_y
_atom_site_fract_z
Si Si1 0.056917 0.490330 0.163137
Si Si2 0.461426 0.367275 0.136827
Si Si3 0.754428 0.972238 0.833255
Si Si4 0.365527 0.653392 0.903435
Si Si5 0.528568 0.610856 0.250000
Si Si6 0.324307 0.525008 0.441899
Si Si7 0.182527 0.193567 0.578149
Si Si8 0.100450 0.829510 0.163387
O O1 0.063581 0.482557 0.250000
O O2 0.113089 0.367912 0.127095
O O3 0.080677 0.659455 0.139167
O O4 0.968712 0.444898 0.143735
O O5 0.542078 0.330766 0.096509
O O6 0.486003 0.505312 0.188200
O O7 0.440112 0.227571 0.187233
O O8 0.392644 0.415252 0.084592
O O9 0.767985 0.935431 0.750000
O O10 0.669534 0.047472 0.841436
O O11 0.817069 0.099517 0.857643
O O12 0.771487 0.827151 0.881276
O O13 0.330180 0.820458 0.896781
O O14 0.338422 0.576350 0.976810
O O15 0.243043 0.442209 0.433479
O O16 0.156052 0.250000 0.500000
O O17 0.101233 0.821712 0.250000
#
# Coordination Sequence:
#
# PCOD9438254 Si02
#       8
#     8   8   8   8   4   8   8   8
#     4  10  20  40  68  96 131 171 216 264 318 389
#     4  11  23  43  64  95 127 170 213 270 327 384
#     4  11  24  41  67  96 129 171 216 272 328 381
#     4  11  24  43  66  91 123 170 220 265 323 396
#     4  10  24  40  64  96 132 158 210 280 322 380
#     4  11  25  44  63  87 128 174 213 267 325 391
#     4  12  25  43  62  95 132 168 219 272 326 389
#     4   9  19  39  68 101 132 168 216 263 318 387
#
# _framework density 21.160867
#
# number of rings (size 3 to 8) (size 9 to 14) (size 15 to 20)
#    0.000    1.333    2.667    2.400    3.733    2.133 
#    6.000    2.667    0.000    0.000    0.000    0.000 
#    0.000    0.000    0.000    0.000    0.000    0.000 
#
# Total GULP energy -334360.948519 kJ/mol
# GULP energy per Si atom -5572.682475 kJ/mol
# Density = 2.111270 g / cm^3
# Si number density = 21.160867 Si / 1000 Ang^3
#
#
#
# Elastic Constant Matrix: (Units=GPa)
#
#
# Indices 1 2 3 4 5 6 
#
# 1 79.7614 4.5411 -3.4719 0.0000 0.0000 0.0000
# 2 4.5411 80.0256 15.7130 0.0000 0.0000 0.0000
# 3 -3.4719 15.7130 41.9414 0.0000 0.0000 0.0000
# 4 0.0000 0.0000 0.0000 -24.9065 0.0000 0.0000
# 5 0.0000 0.0000 0.0000 0.0000 -22.2171 0.0000
# 6 0.0000 0.0000 0.0000 0.0000 0.0000 34.2166
#
#
#
# Elastic Compliance Matrix: (Units=1/GPa)
#
#
# Indices 1 2 3 4 5 6 
#
# 1 0.012656 -0.000997 0.001421 0.000000 0.000000 0.000000
# 2 -0.000997 0.013567 -0.005165 0.000000 0.000000 0.000000
# 3 0.001421 -0.005165 0.025896 0.000000 0.000000 0.000000
# 4 0.000000 0.000000 0.000000 -0.040150 0.000000 0.000000
# 5 0.000000 0.000000 0.000000 0.000000 -0.045010 0.000000
# 6 0.000000 0.000000 0.000000 0.000000 0.000000 0.029226
#
#
# Mechanical properties :
#
#
# Convention : Reuss Voigt Hill
#
# Bulk Modulus (GPa) = 23.45438 26.14365 24.79902
# Shear Modulus (GPa) = 251.53830 9.74836 130.64333
#
# Velocity S-wave (km/s) = 10.91456 2.14867 7.86589
# Velocity P-wave (km/s) = 13.03629 4.30549 9.70778
#
# Compressibility (1/GPa) = 0.04263596
#
# Stress axis : x y z
#
# Youngs Moduli (GPa) = 79.01366 73.70947 38.61667
#
# Poissons Ratio (x) = 0.07351 -0.05488
# Poissons Ratio (y) = 0.07880 0.19946
# Poissons Ratio (z) = -0.11230 0.38073
#
# Static dielectric constant tensor:
#      x y z
#    x 1.747130 0.000000 0.000000 
#    y 0.000000 1.773920 0.000000 
#    z 0.000000 0.000000 1.742950 
# 
# From -- ./inp_files/22890.got.cif
#   From: 2010.05.17/outbox.cif.g08.bks.cpg/sg57_12_cif.got.tgz:22890.got - 2010.06.03 13:58:18.
