data_PCOD9438662
_publ_section_title
;
Structure prediction by ZEFSAII (Michael W. Deem and Ramdas Pophale) SiO2 
 PCOD9438662
Probable space group: P B C M
;
_chemical_formula_sum "Si O2"
_cell_formula_units_Z 40
_cell_length_a 7.219763
_cell_length_b 7.794573
_cell_length_c 27.437136
_cell_angle_alpha 90.000000
_cell_angle_beta 90.000000
_cell_angle_gamma 90.000000
_cell_volume 1544.023998
_symmetry_space_group_name_H-M "P B C M"
_symmetry_group_IT_number 57
_symmetry_cell_setting 'orthorhombic'
loop_
_space_group_symop_operation_xyz
x,y,z
-x,-y,1/2+z
x,1/2-y,-z
-x,1/2+y,1/2-z
-x,-y,-z
x,y,1/2-z
-x,1/2+y,z
x,1/2-y,1/2+z
loop_
_atom_site_type_symbol
_atom_site_label
_atom_site_fract_x
_atom_site_fract_y
_atom_site_fract_z
Si Si1 0.706210 0.418189 0.195406
Si Si2 0.465838 0.474452 0.595423
Si Si3 0.154051 0.406491 0.968472
Si Si4 0.103170 0.954425 0.804538
Si Si5 0.222583 0.342274 0.102910
O O1 0.624002 0.428706 0.250000
O O2 0.575313 0.463752 0.150761
O O3 0.879824 0.549216 0.193024
O O4 0.795790 0.228323 0.189784
O O5 0.309194 0.526192 0.555749
O O6 0.677360 0.493607 0.578504
O O7 0.406894 0.275139 0.600655
O O8 0.080120 0.287511 0.922918
O O9 0.239113 0.250000 0.000000
O O10 0.000000 0.500000 0.000000
O O11 0.146642 0.018409 0.750000
O O12 0.157752 0.085946 0.846369
#
# Coordination Sequence:
#
# PCOD9438662 Si02
#       5
#     8   8   8   8   8
#     4  10  21  37  63  99 141 185 230 280 336 416
#     4  10  23  42  68  98 134 178 225 288 351 424
#     4  10  26  48  69 101 127 178 235 293 355 419
#     4  10  21  37  63 100 140 182 230 276 333 413
#     4  10  23  42  69  98 132 180 221 290 349 421
#
# _framework density 25.906334999999999
#
# number of rings (size 3 to 8) (size 9 to 14) (size 15 to 20)
#    1.200    0.800    0.000    2.400    2.800    4.000 
#    3.600    0.000    0.000    0.000    0.000    0.000 
#    0.000    0.000    0.000    0.000    0.000    0.000 
#
# Total GULP energy -222916.582501 kJ/mol
# GULP energy per Si atom -5572.914563 kJ/mol
# Density = 2.584737 g / cm^3
# Si number density = 25.906335 Si / 1000 Ang^3
#
#
#
# Elastic Constant Matrix: (Units=GPa)
#
#
# Indices 1 2 3 4 5 6 
#
# 1 95.8839 20.0435 53.5309 0.0000 0.0000 0.0000
# 2 20.0435 54.4679 46.3702 0.0000 0.0000 0.0000
# 3 53.5309 46.3702 142.6220 0.0000 0.0000 0.0000
# 4 0.0000 0.0000 0.0000 53.4715 0.0000 0.0000
# 5 0.0000 0.0000 0.0000 0.0000 -0.3821 0.0000
# 6 0.0000 0.0000 0.0000 0.0000 0.0000 31.5191
#
#
#
# Elastic Compliance Matrix: (Units=1/GPa)
#
#
# Indices 1 2 3 4 5 6 
#
# 1 0.013225 -0.000886 -0.004676 0.000000 0.000000 0.000000
# 2 -0.000886 0.025445 -0.007940 0.000000 0.000000 0.000000
# 3 -0.004676 -0.007940 0.011348 0.000000 0.000000 0.000000
# 4 0.000000 0.000000 0.000000 0.018702 0.000000 0.000000
# 5 0.000000 0.000000 0.000000 0.000000 -2.616905 0.000000
# 6 0.000000 0.000000 0.000000 0.000000 0.000000 0.031727
#
#
# Mechanical properties :
#
#
# Convention : Reuss Voigt Hill
#
# Bulk Modulus (GPa) = 43.45156 59.20702 51.32929
# Shear Modulus (GPa) = -2.01468 28.45698 13.22115
#
# Velocity S-wave (km/s) = -0.88282 3.31789 2.26153
# Velocity P-wave (km/s) = 3.97112 6.13040 5.16486
#
# Compressibility (1/GPa) = 0.02301413
#
# Stress axis : x y z
#
# Youngs Moduli (GPa) = 75.61508 39.29981 88.12023
#
# Poissons Ratio (x) = 0.03482 0.41202
# Poissons Ratio (y) = 0.06700 0.69971
# Poissons Ratio (z) = 0.35355 0.31206
#
# Static dielectric constant tensor:
#      x y z
#    x 2.204610 0.000000 0.000000 
#    y 0.000000 2.132800 0.000000 
#    z 0.000000 0.000000 2.203460 
# 
# From -- ./inp_files/28255.got.cif
#   From: 2010.05.17/outbox.cif.g08.bks.cpg/sg57_15_cif.got.tgz:28255.got - 2010.06.03 13:58:18.
