data_PCOD9438695
_publ_section_title
;
Structure prediction by ZEFSAII (Michael W. Deem and Ramdas Pophale) SiO2 
 PCOD9438695
Probable space group: P B C M
;
_chemical_formula_sum "Si O2"
_cell_formula_units_Z 48
_cell_length_a 11.992572
_cell_length_b 26.107086
_cell_length_c 8.722111
_cell_angle_alpha 90.000000
_cell_angle_beta 90.000000
_cell_angle_gamma 90.000000
_cell_volume 2730.815402
_symmetry_space_group_name_H-M "P B C M"
_symmetry_group_IT_number 57
_symmetry_cell_setting 'orthorhombic'
loop_
_space_group_symop_operation_xyz
x,y,z
-x,-y,1/2+z
x,1/2-y,-z
-x,1/2+y,1/2-z
-x,-y,-z
x,y,1/2-z
-x,1/2+y,z
x,1/2-y,1/2+z
loop_
_atom_site_type_symbol
_atom_site_label
_atom_site_fract_x
_atom_site_fract_y
_atom_site_fract_z
Si Si1 0.629002 0.305547 0.934748
Si Si2 0.001108 0.942405 0.432601
Si Si3 0.227876 0.097035 0.434186
Si Si4 0.623614 0.003229 0.933249
Si Si5 0.627975 0.805654 0.564997
Si Si6 0.231146 0.904181 0.934360
O O1 0.630613 0.303173 0.750000
O O2 0.500532 0.316859 0.981375
O O3 0.711407 0.350870 0.982615
O O4 0.659037 0.250000 0.000000
O O5 0.006932 0.945900 0.250000
O O6 0.109642 0.913553 0.496063
O O7 0.888814 0.914107 0.485029
O O8 0.000000 0.000000 0.500000
O O9 0.210049 0.099069 0.250000
O O10 0.289296 0.149143 0.483411
O O11 0.309779 0.049259 0.464487
O O12 0.619807 0.010240 0.750000
O O13 0.690463 0.049716 0.009203
O O14 0.500000 0.000000 0.000000
O O15 0.657818 0.750000 0.500000
O O16 0.629871 0.803692 0.750000
O O17 0.224456 0.905258 0.750000
#
# Coordination Sequence:
#
# PCOD9438695 Si02
#       6
#     8   8   8   8   8   8
#     4   9  19  36  59  86 116 151 187 232 286 341
#     4  12  24  39  59  83 112 151 194 236 287 343
#     4  10  21  38  58  81 113 151 191 235 284 338
#     4  11  22  35  55  83 116 150 187 234 290 345
#     4   9  18  35  58  84 115 149 186 231 283 338
#     4  11  22  38  59  84 115 150 192 238 288 342
#
# _framework density 17.577166999999999
#
# number of rings (size 3 to 8) (size 9 to 14) (size 15 to 20)
#    0.000    1.667    1.667    3.500    0.000    5.333 
#    0.000    4.167    0.000    0.000    0.000    0.000 
#    0.000    0.000    0.000    0.000    0.000    0.000 
#
# Total GULP energy -268168.650754 kJ/mol
# GULP energy per Si atom -5586.846891 kJ/mol
# Density = 1.753716 g / cm^3
# Si number density = 17.577167 Si / 1000 Ang^3
#
#
#
# Elastic Constant Matrix: (Units=GPa)
#
#
# Indices 1 2 3 4 5 6 
#
# 1 171.0555 110.4241 67.6619 0.0000 0.0000 0.0000
# 2 110.4241 169.2292 61.4555 0.0000 0.0000 0.0000
# 3 67.6619 61.4555 61.5393 0.0000 0.0000 0.0000
# 4 0.0000 0.0000 0.0000 31.5592 0.0000 0.0000
# 5 0.0000 0.0000 0.0000 0.0000 27.7276 0.0000
# 6 0.0000 0.0000 0.0000 0.0000 0.0000 15.6101
#
#
#
# Elastic Compliance Matrix: (Units=1/GPa)
#
#
# Indices 1 2 3 4 5 6 
#
# 1 0.012557 -0.004989 -0.008824 0.000000 0.000000 0.000000
# 2 -0.004989 0.011254 -0.005753 0.000000 0.000000 0.000000
# 3 -0.008824 -0.005753 0.031697 0.000000 0.000000 0.000000
# 4 0.000000 0.000000 0.000000 0.031687 0.000000 0.000000
# 5 0.000000 0.000000 0.000000 0.000000 0.036065 0.000000
# 6 0.000000 0.000000 0.000000 0.000000 0.000000 0.064061
#
#
# Mechanical properties :
#
#
# Convention : Reuss Voigt Hill
#
# Bulk Modulus (GPa) = 61.06705 97.87858 79.47281
# Shear Modulus (GPa) = 21.55991 25.79819 23.67905
#
# Velocity S-wave (km/s) = 3.50606 3.83523 3.67433
# Velocity P-wave (km/s) = 7.15595 8.68435 7.95693
#
# Compressibility (1/GPa) = 0.01637544
#
# Stress axis : x y z
#
# Youngs Moduli (GPa) = 79.63477 88.85824 31.54888
#
# Poissons Ratio (x) = 0.44334 0.27839
# Poissons Ratio (y) = 0.39732 0.18150
# Poissons Ratio (z) = 0.70271 0.51119
#
# Static dielectric constant tensor:
#      x y z
#    x 1.579050 0.000000 0.000000 
#    y 0.000000 1.578230 0.000000 
#    z 0.000000 0.000000 1.594410 
# 
# From -- ./inp_files/3134.got.cif
#   From: 2010.05.17/outbox.cif.g08.bks.cpg/sg57_2_cif.got.tgz:3134.got - 2010.06.03 13:58:18.
