data_PCOD9438402
_publ_section_title
;
Structure prediction by ZEFSAII (Michael W. Deem and Ramdas Pophale) SiO2 
 PCOD9438402
Probable space group: P B C M
;
_chemical_formula_sum "Si O2"
_cell_formula_units_Z 64
_cell_length_a 18.204351
_cell_length_b 23.044660
_cell_length_c 8.629624
_cell_angle_alpha 90.000000
_cell_angle_beta 90.000000
_cell_angle_gamma 90.000000
_cell_volume 3620.240138
_symmetry_space_group_name_H-M "P B C M"
_symmetry_group_IT_number 57
_symmetry_cell_setting 'orthorhombic'
loop_
_space_group_symop_operation_xyz
x,y,z
-x,-y,1/2+z
x,1/2-y,-z
-x,1/2+y,1/2-z
-x,-y,-z
x,y,1/2-z
-x,1/2+y,z
x,1/2-y,1/2+z
loop_
_atom_site_type_symbol
_atom_site_label
_atom_site_fract_x
_atom_site_fract_y
_atom_site_fract_z
Si Si1 0.150332 0.581756 0.562404
Si Si2 0.423424 0.523732 0.065687
Si Si3 0.989972 0.935130 0.436547
Si Si4 0.326244 0.411309 0.065040
Si Si5 0.747932 0.311212 0.062769
Si Si6 0.830340 0.951181 0.437751
Si Si7 0.588157 0.349493 0.065179
Si Si8 0.569016 0.812049 0.933472
O O1 0.153768 0.578203 0.750000
O O2 0.205050 0.632763 0.511777
O O3 0.169286 0.517732 0.497944
O O4 0.065579 0.596238 0.516668
O O5 0.429864 0.534014 0.250000
O O6 0.363576 0.473908 0.039246
O O7 0.500000 0.500000 0.000000
O O8 0.404979 0.583213 0.980710
O O9 0.989819 0.935924 0.250000
O O10 0.906865 0.920120 0.485284
O O11 0.000000 0.000000 0.500000
O O12 0.327449 0.400535 0.250000
O O13 0.242295 0.417176 0.010990
O O14 0.375903 0.362486 0.987107
O O15 0.749257 0.310319 0.250000
O O16 0.663176 0.319021 0.012152
O O17 0.776401 0.250000 0.000000
O O18 0.828151 0.954230 0.250000
O O19 0.582303 0.343909 0.250000
O O20 0.513233 0.325735 0.992765
O O21 0.567306 0.809629 0.750000
O O22 0.592260 0.750000 0.000000
#
# Coordination Sequence:
#
# PCOD9438402 Si02
#       8
#     8   8   8   8   8   8   8   8
#     4   9  17  31  50  75 106 138 169 207 255 306
#     4  11  21  33  52  77 106 138 171 212 260 311
#     4   8  14  26  47  74 104 133 162 196 242 298
#     4  10  21  36  53  76 107 137 171 212 256 305
#     4  10  22  36  51  72 100 137 177 217 257 302
#     4   9  17  30  51  80 107 135 168 207 255 307
#     4  11  22  37  55  76 104 134 172 217 259 309
#     4  12  25  40  58  75  96 130 173 216 261 308
#
# _framework density 17.678384999999999
#
# number of rings (size 3 to 8) (size 9 to 14) (size 15 to 20)
#    0.000    2.000    1.250    3.000    0.000    3.500 
#    0.000    0.000    0.000    0.750    0.000    1.750 
#    0.000    0.000    0.000    0.000    0.000    0.000 
#
# Total GULP energy -357002.654667 kJ/mol
# GULP energy per Si atom -5578.166479 kJ/mol
# Density = 1.763815 g / cm^3
# Si number density = 17.678385 Si / 1000 Ang^3
#
#
#
# Elastic Constant Matrix: (Units=GPa)
#
#
# Indices 1 2 3 4 5 6 
#
# 1 138.8933 32.7516 24.8163 0.0000 0.0000 0.0000
# 2 32.7516 72.2972 15.5626 0.0000 0.0000 0.0000
# 3 24.8163 15.5626 23.8168 0.0000 0.0000 0.0000
# 4 0.0000 0.0000 0.0000 26.9709 0.0000 0.0000
# 5 0.0000 0.0000 0.0000 0.0000 12.3324 0.0000
# 6 0.0000 0.0000 0.0000 0.0000 0.0000 9.3191
#
#
#
# Elastic Compliance Matrix: (Units=1/GPa)
#
#
# Indices 1 2 3 4 5 6 
#
# 1 0.009205 -0.002450 -0.007991 0.000000 0.000000 0.000000
# 2 -0.002450 0.016748 -0.008391 0.000000 0.000000 0.000000
# 3 -0.007991 -0.008391 0.055796 0.000000 0.000000 0.000000
# 4 0.000000 0.000000 0.000000 0.037077 0.000000 0.000000
# 5 0.000000 0.000000 0.000000 0.000000 0.081087 0.000000
# 6 0.000000 0.000000 0.000000 0.000000 0.000000 0.107307
#
#
# Mechanical properties :
#
#
# Convention : Reuss Voigt Hill
#
# Bulk Modulus (GPa) = 22.68280 42.36312 32.52296
# Shear Modulus (GPa) = 13.90522 20.51628 17.21075
#
# Velocity S-wave (km/s) = 2.80762 3.41035 3.12356
# Velocity P-wave (km/s) = 4.83415 6.28670 5.60765
#
# Compressibility (1/GPa) = 0.04408626
#
# Stress axis : x y z
#
# Youngs Moduli (GPa) = 108.63441 59.70911 17.92251
#
# Poissons Ratio (x) = 0.14629 0.14321
# Poissons Ratio (y) = 0.26616 0.15038
# Poissons Ratio (z) = 0.86805 0.50100
#
# Static dielectric constant tensor:
#      x y z
#    x 1.596360 0.000000 0.000000 
#    y 0.000000 1.563030 0.000000 
#    z 0.000000 0.000000 1.593800 
# 
# From -- ./inp_files/7291.got.cif
#   From: 2010.05.17/outbox.cif.g08.bks.cpg/sg57_4_cif.got.tgz:7291.got - 2010.06.03 13:58:18.
