data_PCOD9438447
_publ_section_title
;
Structure prediction by ZEFSAII (Michael W. Deem and Ramdas Pophale) SiO2 
 PCOD9438447
Probable space group: P B C M
;
_chemical_formula_sum "Si O2"
_cell_formula_units_Z 64
_cell_length_a 7.261776
_cell_length_b 14.752226
_cell_length_c 25.193737
_cell_angle_alpha 90.000000
_cell_angle_beta 90.000000
_cell_angle_gamma 90.000000
_cell_volume 2698.938551
_symmetry_space_group_name_H-M "P B C M"
_symmetry_group_IT_number 57
_symmetry_cell_setting 'orthorhombic'
loop_
_space_group_symop_operation_xyz
x,y,z
-x,-y,1/2+z
x,1/2-y,-z
-x,1/2+y,1/2-z
-x,-y,-z
x,y,1/2-z
-x,1/2+y,z
x,1/2-y,1/2+z
loop_
_atom_site_type_symbol
_atom_site_label
_atom_site_fract_x
_atom_site_fract_y
_atom_site_fract_z
Si Si1 0.538863 0.562563 0.374236
Si Si2 0.998626 0.416486 0.115005
Si Si3 0.438932 0.136379 0.604127
Si Si4 0.872594 0.391150 0.611946
Si Si5 0.030559 0.768749 0.308950
Si Si6 0.610215 0.593261 0.491290
Si Si7 0.983134 0.355909 0.497113
Si Si8 0.393491 0.223529 0.191551
O O1 0.553406 0.454516 0.381270
O O2 0.321822 0.576879 0.366690
O O3 0.586905 0.613532 0.429438
O O4 0.626142 0.619593 0.326988
O O5 0.218278 0.388548 0.109833
O O6 0.989052 0.524442 0.118282
O O7 0.923558 0.366008 0.166396
O O8 0.907762 0.379722 0.060741
O O9 0.455544 0.155148 0.540811
O O10 0.485599 0.217065 0.644622
O O11 0.924698 0.304498 0.645936
O O12 0.861228 0.373089 0.548881
O O13 0.105009 0.751762 0.250000
O O14 0.810464 0.763153 0.304412
O O15 0.500000 0.500000 0.500000
O O16 0.830508 0.585282 0.497732
O O17 0.036960 0.250000 0.500000
O O18 0.478869 0.230127 0.250000
#
# Coordination Sequence:
#
# PCOD9438447 Si02
#       8
#     8   8   8   8   8   8   8   8
#     4  10  21  36  57  86 118 146 185 242 294 345
#     4   9  19  36  59  82 114 151 193 235 287 348
#     4   8  18  36  56  82 111 148 187 228 287 349
#     4  11  22  38  58  88 122 154 190 239 300 355
#     4  10  21  39  60  82 109 151 206 243 283 355
#     4   9  19  35  57  87 115 147 189 232 280 342
#     4  11  20  36  63  86 118 161 196 233 286 356
#     4  10  21  38  60  82 107 150 201 242 283 342
#
# _framework density 23.713025999999999
#
# number of rings (size 3 to 8) (size 9 to 14) (size 15 to 20)
#    0.000    2.250    1.250    1.875    3.500    1.500 
#    2.250    6.250    0.000    0.000    0.000    0.000 
#    0.000    0.000    0.000    0.000    0.000    0.000 
#
# Total GULP energy -357552.422255 kJ/mol
# GULP energy per Si atom -5586.756598 kJ/mol
# Density = 2.365905 g / cm^3
# Si number density = 23.713026 Si / 1000 Ang^3
#
#
#
# Elastic Constant Matrix: (Units=GPa)
#
#
# Indices 1 2 3 4 5 6 
#
# 1 44.1504 1.6983 -1.4446 0.0000 0.0000 0.0000
# 2 1.6983 84.9108 53.5597 0.0000 0.0000 0.0000
# 3 -1.4446 53.5597 151.4637 0.0000 0.0000 0.0000
# 4 0.0000 0.0000 0.0000 9.0027 0.0000 0.0000
# 5 0.0000 0.0000 0.0000 0.0000 3.3638 0.0000
# 6 0.0000 0.0000 0.0000 0.0000 0.0000 20.6910
#
#
#
# Elastic Compliance Matrix: (Units=1/GPa)
#
#
# Indices 1 2 3 4 5 6 
#
# 1 0.022695 -0.000760 0.000485 0.000000 0.000000 0.000000
# 2 -0.000760 0.015184 -0.005376 0.000000 0.000000 0.000000
# 3 0.000485 -0.005376 0.008508 0.000000 0.000000 0.000000
# 4 0.000000 0.000000 0.000000 0.111078 0.000000 0.000000
# 5 0.000000 0.000000 0.000000 0.000000 0.297281 0.000000
# 6 0.000000 0.000000 0.000000 0.000000 0.000000 0.048330
#
#
# Mechanical properties :
#
#
# Convention : Reuss Voigt Hill
#
# Bulk Modulus (GPa) = 28.50284 43.12798 35.81541
# Shear Modulus (GPa) = 9.50439 21.72561 15.61500
#
# Velocity S-wave (km/s) = 2.00419 3.03014 2.56891
# Velocity P-wave (km/s) = 4.17154 5.51990 4.89239
#
# Compressibility (1/GPa) = 0.03508422
#
# Stress axis : x y z
#
# Youngs Moduli (GPa) = 44.06268 65.86076 117.53605
#
# Poissons Ratio (x) = 0.05005 -0.05703
# Poissons Ratio (y) = 0.03349 0.63192
# Poissons Ratio (z) = -0.02138 0.35409
#
# Static dielectric constant tensor:
#      x y z
#    x 1.950750 0.000000 0.000000 
#    y 0.000000 1.904990 0.000000 
#    z 0.000000 0.000000 1.895000 
# 
# From -- ./inp_files/26867.got.cif
#   From: 2010.05.17/outbox.cif.g08.bks.cpg/sg57_14_cif.got.tgz:26867.got - 2010.06.03 13:58:18.
