data_PCOD9438258
_publ_section_title
;
Structure prediction by ZEFSAII (Michael W. Deem and Ramdas Pophale) SiO2 
 PCOD9438258
Probable space group: P B C M
;
_chemical_formula_sum "Si O2"
_cell_formula_units_Z 36
_cell_length_a 5.173358
_cell_length_b 13.530786
_cell_length_c 22.277637
_cell_angle_alpha 90.000000
_cell_angle_beta 90.000000
_cell_angle_gamma 90.000000
_cell_volume 1559.425679
_symmetry_space_group_name_H-M "P B C M"
_symmetry_group_IT_number 57
_symmetry_cell_setting 'orthorhombic'
loop_
_space_group_symop_operation_xyz
x,y,z
-x,-y,1/2+z
x,1/2-y,-z
-x,1/2+y,1/2-z
-x,-y,-z
x,y,1/2-z
-x,1/2+y,z
x,1/2-y,1/2+z
loop_
_atom_site_type_symbol
_atom_site_label
_atom_site_fract_x
_atom_site_fract_y
_atom_site_fract_z
Si Si1 0.771738 0.197276 0.250000
Si Si2 0.511506 0.119415 0.750000
Si Si3 0.191641 0.432315 0.143795
Si Si4 0.570666 0.364135 0.620376
Si Si5 0.872587 0.534826 0.250000
Si Si6 0.067379 0.242968 0.070486
O O1 0.766060 0.314828 0.250000
O O2 0.629992 0.164072 0.310519
O O3 0.052712 0.148539 0.250000
O O4 0.358848 0.134302 0.810609
O O5 0.585311 0.004580 0.750000
O O6 0.368675 0.518415 0.114706
O O7 0.071896 0.353588 0.098440
O O8 0.997272 0.489523 0.189116
O O9 0.290016 0.326076 0.600286
O O10 0.790592 0.306225 0.583271
O O11 0.118060 0.250000 0.000000
#
# Coordination Sequence:
#
# PCOD9438258 Si02
#       6
#     4   4   8   8   4   8
#     4  10  20  40  69 102 133 177 212 290 350 419
#     4  11  19  41  66  97 140 177 220 284 361 418
#     4  10  24  41  66 100 136 180 226 292 350 412
#     4  11  26  44  71 105 137 178 229 291 351 416
#     4   9  21  37  61 103 137 170 222 278 361 421
#     4  12  27  47  70  98 139 192 242 280 335 408
#
# _framework density 23.085422999999999
#
# number of rings (size 3 to 8) (size 9 to 14) (size 15 to 20)
#    0.000    1.333    2.222    2.667    6.222    3.556 
#    0.000    0.000    0.000    0.000    0.000    0.000 
#    0.000    0.000    0.000    0.000    0.000    0.000 
#
# Total GULP energy -201398.164920 kJ/mol
# GULP energy per Si atom -5594.393470 kJ/mol
# Density = 2.303288 g / cm^3
# Si number density = 23.085423 Si / 1000 Ang^3
#
#
#
# Elastic Constant Matrix: (Units=GPa)
#
#
# Indices 1 2 3 4 5 6 
#
# 1 56.2583 2.1905 4.4715 0.0000 0.0000 0.0000
# 2 2.1905 127.3980 22.4294 0.0000 0.0000 0.0000
# 3 4.4715 22.4294 108.8780 0.0000 0.0000 0.0000
# 4 0.0000 0.0000 0.0000 20.7873 0.0000 0.0000
# 5 0.0000 0.0000 0.0000 0.0000 16.5870 0.0000
# 6 0.0000 0.0000 0.0000 0.0000 0.0000 34.9118
#
#
#
# Elastic Compliance Matrix: (Units=1/GPa)
#
#
# Indices 1 2 3 4 5 6 
#
# 1 0.017838 -0.000184 -0.000695 0.000000 0.000000 0.000000
# 2 -0.000184 0.008147 -0.001671 0.000000 0.000000 0.000000
# 3 -0.000695 -0.001671 0.009557 0.000000 0.000000 0.000000
# 4 0.000000 0.000000 0.000000 0.048106 0.000000 0.000000
# 5 0.000000 0.000000 0.000000 0.000000 0.060288 0.000000
# 6 0.000000 0.000000 0.000000 0.000000 0.000000 0.028644
#
#
# Mechanical properties :
#
#
# Convention : Reuss Voigt Hill
#
# Bulk Modulus (GPa) = 32.84913 38.96855 35.90884
# Shear Modulus (GPa) = 26.62033 32.02007 29.32020
#
# Velocity S-wave (km/s) = 3.39945 3.72832 3.56768
# Velocity P-wave (km/s) = 5.44689 5.95404 5.70610
#
# Compressibility (1/GPa) = 0.03044221
#
# Stress axis : x y z
#
# Youngs Moduli (GPa) = 56.06150 122.74872 104.63218
#
# Poissons Ratio (x) = 0.02264 0.07267
# Poissons Ratio (y) = 0.01034 0.17481
# Poissons Ratio (z) = 0.03894 0.20508
#
# Static dielectric constant tensor:
#      x y z
#    x 1.884420 0.000000 0.000000 
#    y 0.000000 1.863070 0.000000 
#    z 0.000000 0.000000 1.822880 
# 
# From -- ./inp_files/23498.got.cif
#   From: 2010.05.17/outbox.cif.g08.bks.cpg/sg57_12_cif.got.tgz:23498.got - 2010.06.03 13:58:18.
