data_PCOD9438846
_publ_section_title
;
Structure prediction by ZEFSAII (Michael W. Deem and Ramdas Pophale) SiO2 
 PCOD9438846
Probable space group: P B C M
;
_chemical_formula_sum "Si O2"
_cell_formula_units_Z 52
_cell_length_a 20.785861
_cell_length_b 8.772695
_cell_length_c 13.991090
_cell_angle_alpha 90.000000
_cell_angle_beta 90.000000
_cell_angle_gamma 90.000000
_cell_volume 2551.247543
_symmetry_space_group_name_H-M "P B C M"
_symmetry_group_IT_number 57
_symmetry_cell_setting 'orthorhombic'
loop_
_space_group_symop_operation_xyz
x,y,z
-x,-y,1/2+z
x,1/2-y,-z
-x,1/2+y,1/2-z
-x,-y,-z
x,y,1/2-z
-x,1/2+y,z
x,1/2-y,1/2+z
loop_
_atom_site_type_symbol
_atom_site_label
_atom_site_fract_x
_atom_site_fract_y
_atom_site_fract_z
Si Si1 0.928854 0.927125 0.136624
Si Si2 0.585017 0.630671 0.576052
Si Si3 0.646127 0.363564 0.250000
Si Si4 0.313794 0.578042 0.962075
Si Si5 0.935161 0.928287 0.863659
Si Si6 0.169372 0.568264 0.502500
Si Si7 0.412367 0.177912 0.250000
Si Si8 0.550857 0.413011 0.750000
O O1 0.924303 0.941728 0.250000
O O2 0.932040 0.749490 0.112080
O O3 0.995690 0.005465 0.106844
O O4 0.867546 0.003430 0.088837
O O5 0.551567 0.750000 0.500000
O O6 0.632932 0.529853 0.511465
O O7 0.616212 0.743452 0.655645
O O8 0.550740 0.512802 0.651117
O O9 0.683179 0.399511 0.347770
O O10 0.593305 0.497151 0.250000
O O11 0.613759 0.196627 0.250000
O O12 0.243128 0.518323 0.989516
O O13 0.323503 0.750000 0.000000
O O14 0.931086 0.944924 0.750000
O O15 0.875735 0.012938 0.911527
O O16 0.170008 0.750000 0.500000
O O17 0.489392 0.196982 0.250000
#
# Coordination Sequence:
#
# PCOD9438846 Si02
#       8
#     8   8   4   8   8   8   4   4
#     4  10  21  40  61  93 126 164 215 277 337 389
#     4  11  23  45  68 101 141 176 224 277 341 390
#     4  12  22  46  72  96 146 174 228 276 338 404
#     4  11  25  46  66  95 133 187 225 276 340 404
#     4  10  21  38  64  91 128 165 212 277 339 391
#     4  11  24  40  61  90 124 174 225 262 325 399
#     4  11  25  45  69 109 131 178 222 279 334 402
#     4  11  25  45  73 103 143 174 228 275 336 412
#
# _framework density 20.382185
#
# number of rings (size 3 to 8) (size 9 to 14) (size 15 to 20)
#    0.000    1.231    3.077    2.769    1.077    3.692 
#    9.692    0.000    0.000    0.000    0.000    0.000 
#    0.000    0.000    0.000    0.000    0.000    0.000 
#
# Total GULP energy -290100.044874 kJ/mol
# GULP energy per Si atom -5578.847017 kJ/mol
# Density = 2.033579 g / cm^3
# Si number density = 20.382185 Si / 1000 Ang^3
#
#
#
# Elastic Constant Matrix: (Units=GPa)
#
#
# Indices 1 2 3 4 5 6 
#
# 1 70.6095 34.9970 15.8507 0.0000 0.0000 0.0000
# 2 34.9970 84.6072 36.9977 0.0000 0.0000 0.0000
# 3 15.8507 36.9977 140.1770 0.0000 0.0000 0.0000
# 4 0.0000 0.0000 0.0000 43.6364 0.0000 0.0000
# 5 0.0000 0.0000 0.0000 0.0000 23.5989 0.0000
# 6 0.0000 0.0000 0.0000 0.0000 0.0000 27.9279
#
#
#
# Elastic Compliance Matrix: (Units=1/GPa)
#
#
# Indices 1 2 3 4 5 6 
#
# 1 0.017816 -0.007335 -0.000079 0.000000 0.000000 0.000000
# 2 -0.007335 0.016381 -0.003494 0.000000 0.000000 0.000000
# 3 -0.000079 -0.003494 0.008065 0.000000 0.000000 0.000000
# 4 0.000000 0.000000 0.000000 0.022917 0.000000 0.000000
# 5 0.000000 0.000000 0.000000 0.000000 0.042375 0.000000
# 6 0.000000 0.000000 0.000000 0.000000 0.000000 0.035806
#
#
# Mechanical properties :
#
#
# Convention : Reuss Voigt Hill
#
# Bulk Modulus (GPa) = 48.90816 52.34270 50.62543
# Shear Modulus (GPa) = 29.07135 32.86919 30.97027
#
# Velocity S-wave (km/s) = 3.78075 4.02013 3.90228
# Velocity P-wave (km/s) = 6.56555 6.87641 6.72277
#
# Compressibility (1/GPa) = 0.02044648
#
# Stress axis : x y z
#
# Youngs Moduli (GPa) = 56.13089 61.04518 123.99294
#
# Poissons Ratio (x) = 0.44776 0.00974
# Poissons Ratio (y) = 0.41171 0.43326
# Poissons Ratio (z) = 0.00441 0.21331
#
# Static dielectric constant tensor:
#      x y z
#    x 1.686040 0.000000 0.000000 
#    y 0.000000 1.739240 0.000000 
#    z 0.000000 0.000000 1.757120 
# 
# From -- ./inp_files/19307.got.cif
#   From: 2010.05.17/outbox.cif.g08.bks.cpg/sg57_10_cif.got.tgz:19307.got - 2010.06.03 13:58:18.
