data_PCOD9438566
_publ_section_title
;
Structure prediction by ZEFSAII (Michael W. Deem and Ramdas Pophale) SiO2 
 PCOD9438566
Probable space group: P B C M
;
_chemical_formula_sum "Si O2"
_cell_formula_units_Z 64
_cell_length_a 26.601139
_cell_length_b 15.091561
_cell_length_c 8.726825
_cell_angle_alpha 90.000000
_cell_angle_beta 90.000000
_cell_angle_gamma 90.000000
_cell_volume 3503.407562
_symmetry_space_group_name_H-M "P B C M"
_symmetry_group_IT_number 57
_symmetry_cell_setting 'orthorhombic'
loop_
_space_group_symop_operation_xyz
x,y,z
-x,-y,1/2+z
x,1/2-y,-z
-x,1/2+y,1/2-z
-x,-y,-z
x,y,1/2-z
-x,1/2+y,z
x,1/2-y,1/2+z
loop_
_atom_site_type_symbol
_atom_site_label
_atom_site_fract_x
_atom_site_fract_y
_atom_site_fract_z
Si Si1 0.631465 0.649683 0.565561
Si Si2 0.891159 0.658448 0.065881
Si Si3 0.819008 0.499953 0.434457
Si Si4 0.366705 0.849972 0.066306
Si Si5 0.893610 0.340351 0.432379
Si Si6 0.708025 0.493731 0.567011
Si Si7 0.001199 0.901457 0.565862
Si Si8 0.444182 0.005579 0.065776
O O1 0.633970 0.750000 0.500000
O O2 0.628485 0.655265 0.750000
O O3 0.678740 0.585211 0.524539
O O4 0.584840 0.591160 0.502307
O O5 0.891928 0.659175 0.250000
O O6 0.853211 0.582391 0.016608
O O7 0.948698 0.642279 0.015129
O O8 0.872944 0.750000 0.000000
O O9 0.812034 0.503385 0.250000
O O10 0.854100 0.416443 0.469921
O O11 0.765224 0.497724 0.512810
O O12 0.364332 0.843343 0.250000
O O13 0.413630 0.915069 0.025713
O O14 0.369212 0.750000 0.000000
O O15 0.319736 0.908643 0.006672
O O16 0.873364 0.250000 0.500000
O O17 0.899610 0.336741 0.250000
O O18 0.948361 0.357150 0.504136
O O19 0.704756 0.485262 0.750000
O O20 0.002323 0.902840 0.750000
O O21 0.000000 0.000000 0.500000
O O22 0.444658 0.012734 0.250000
O O23 0.500000 0.000000 0.000000
#
# Coordination Sequence:
#
# PCOD9438566 Si02
#       8
#     8   8   8   8   8   8   8   8
#     4  10  21  38  60  86 117 154 198 245 291 345
#     4  10  22  39  57  82 112 146 184 226 278 336
#     4  10  22  41  59  79 115 151 185 234 289 343
#     4  10  21  38  61  87 116 155 197 239 289 341
#     4  11  23  40  59  84 114 147 188 232 283 343
#     4  10  22  39  60  86 114 147 192 241 291 345
#     4  11  21  37  60  84 113 149 186 228 281 340
#     4  10  21  37  58  87 124 162 200 242 290 340
#
# _framework density 18.267928999999999
#
# number of rings (size 3 to 8) (size 9 to 14) (size 15 to 20)
#    0.000    1.750    1.250    2.625    0.000    8.000 
#    0.000    5.000    0.000    0.000    0.000    0.000 
#    0.000    0.000    0.000    0.000    0.000    0.000 
#
# Total GULP energy -357297.300554 kJ/mol
# GULP energy per Si atom -5582.770321 kJ/mol
# Density = 1.822635 g / cm^3
# Si number density = 18.267929 Si / 1000 Ang^3
#
#
#
# Elastic Constant Matrix: (Units=GPa)
#
#
# Indices 1 2 3 4 5 6 
#
# 1 152.2359 83.4183 55.9225 0.0000 0.0000 0.0000
# 2 83.4183 195.8132 63.2576 0.0000 0.0000 0.0000
# 3 55.9225 63.2576 52.1588 0.0000 0.0000 0.0000
# 4 0.0000 0.0000 0.0000 35.0375 0.0000 0.0000
# 5 0.0000 0.0000 0.0000 0.0000 41.7293 0.0000
# 6 0.0000 0.0000 0.0000 0.0000 0.0000 31.0998
#
#
#
# Elastic Compliance Matrix: (Units=1/GPa)
#
#
# Indices 1 2 3 4 5 6 
#
# 1 0.011082 -0.001451 -0.010122 0.000000 0.000000 0.000000
# 2 -0.001451 0.008587 -0.008858 0.000000 0.000000 0.000000
# 3 -0.010122 -0.008858 0.040767 0.000000 0.000000 0.000000
# 4 0.000000 0.000000 0.000000 0.028541 0.000000 0.000000
# 5 0.000000 0.000000 0.000000 0.000000 0.023964 0.000000
# 6 0.000000 0.000000 0.000000 0.000000 0.000000 0.032155
#
#
# Mechanical properties :
#
#
# Convention : Reuss Voigt Hill
#
# Bulk Modulus (GPa) = 51.08777 89.48943 70.28860
# Shear Modulus (GPa) = 25.97651 34.74730 30.36190
#
# Velocity S-wave (km/s) = 3.77500 4.36603 4.08123
# Velocity P-wave (km/s) = 6.85765 8.63191 7.79542
#
# Compressibility (1/GPa) = 0.01957416
#
# Stress axis : x y z
#
# Youngs Moduli (GPa) = 90.23569 116.45909 24.52962
#
# Poissons Ratio (x) = 0.16901 0.24828
# Poissons Ratio (y) = 0.13095 0.21728
# Poissons Ratio (z) = 0.91334 1.03158
#
# Static dielectric constant tensor:
#      x y z
#    x 1.599690 0.000000 0.000000 
#    y 0.000000 1.612110 0.000000 
#    z 0.000000 0.000000 1.617930 
# 
# From -- ./inp_files/9267.got.cif
#   From: 2010.05.17/outbox.cif.g08.bks.cpg/sg57_5_cif.got.tgz:9267.got - 2010.06.03 13:58:18.
