data_PCOD9438954
_publ_section_title
;
Structure prediction by ZEFSAII (Michael W. Deem and Ramdas Pophale) SiO2 
 PCOD9438954
Probable space group: P B C M
;
_chemical_formula_sum "Si O2"
_cell_formula_units_Z 40
_cell_length_a 14.580785
_cell_length_b 8.450993
_cell_length_c 16.247806
_cell_angle_alpha 90.000000
_cell_angle_beta 90.000000
_cell_angle_gamma 90.000000
_cell_volume 2002.088970
_symmetry_space_group_name_H-M "P B C M"
_symmetry_group_IT_number 57
_symmetry_cell_setting 'orthorhombic'
loop_
_space_group_symop_operation_xyz
x,y,z
-x,-y,1/2+z
x,1/2-y,-z
-x,1/2+y,1/2-z
-x,-y,-z
x,y,1/2-z
-x,1/2+y,z
x,1/2-y,1/2+z
loop_
_atom_site_type_symbol
_atom_site_label
_atom_site_fract_x
_atom_site_fract_y
_atom_site_fract_z
Si Si1 0.899967 0.845177 0.086466
Si Si2 0.931034 0.518484 0.155372
Si Si3 0.245390 0.851836 0.079910
Si Si4 0.722997 0.474162 0.845101
Si Si5 0.397561 0.437566 0.488363
O O1 0.919656 0.706117 0.151089
O O2 0.808238 0.940341 0.108955
O O3 0.984548 0.964262 0.098316
O O4 0.893681 0.750000 0.000000
O O5 0.944615 0.468469 0.250000
O O6 0.838679 0.446610 0.117424
O O7 0.272524 0.715276 0.144008
O O8 0.327298 0.965599 0.048072
O O9 0.215638 0.750000 0.000000
O O10 0.723981 0.518035 0.750000
O O11 0.634541 0.526900 0.895684
O O12 0.391238 0.250000 0.500000
O O13 0.500000 0.500000 0.500000
#
# Coordination Sequence:
#
# PCOD9438954 Si02
#       5
#     8   8   8   8   8
#     4  12  24  40  61  86 125 172 219 262 320 390
#     4  12  23  37  57  88 123 163 210 264 316 372
#     4  10  21  39  63  89 122 161 202 247 310 381
#     4  11  22  40  64  95 127 162 208 267 320 373
#     4  11  23  44  69  92 123 164 208 254 314 386
#
# _framework density 19.979132
#
# number of rings (size 3 to 8) (size 9 to 14) (size 15 to 20)
#    0.000    0.800    0.000   10.800    0.000    0.000 
#    0.000    6.000    0.000    0.000    0.000    0.000 
#    0.000    0.000    0.000    0.000    0.000    0.000 
#
# Total GULP energy -223623.137767 kJ/mol
# GULP energy per Si atom -5590.578444 kJ/mol
# Density = 1.993366 g / cm^3
# Si number density = 19.979132 Si / 1000 Ang^3
#
#
#
# Elastic Constant Matrix: (Units=GPa)
#
#
# Indices 1 2 3 4 5 6 
#
# 1 120.5438 48.4340 70.9305 0.0000 0.0000 0.0000
# 2 48.4340 125.7490 27.9363 0.0000 0.0000 0.0000
# 3 70.9305 27.9363 131.5029 0.0000 0.0000 0.0000
# 4 0.0000 0.0000 0.0000 29.2949 0.0000 0.0000
# 5 0.0000 0.0000 0.0000 0.0000 -52.2894 0.0000
# 6 0.0000 0.0000 0.0000 0.0000 0.0000 39.9677
#
#
#
# Elastic Compliance Matrix: (Units=1/GPa)
#
#
# Indices 1 2 3 4 5 6 
#
# 1 0.013700 -0.003815 -0.006579 0.000000 0.000000 0.000000
# 2 -0.003815 0.009409 0.000059 0.000000 0.000000 0.000000
# 3 -0.006579 0.000059 0.011140 0.000000 0.000000 0.000000
# 4 0.000000 0.000000 0.000000 0.034136 0.000000 0.000000
# 5 0.000000 0.000000 0.000000 0.000000 -0.019124 0.000000
# 6 0.000000 0.000000 0.000000 0.000000 0.000000 0.025020
#
#
# Mechanical properties :
#
#
# Convention : Reuss Voigt Hill
#
# Bulk Modulus (GPa) = 73.64394 74.71082 74.17738
# Shear Modulus (GPa) = 50.26292 18.76097 34.51195
#
# Velocity S-wave (km/s) = 5.02119 3.06768 4.16071
# Velocity P-wave (km/s) = 8.39981 7.07271 7.76467
#
# Compressibility (1/GPa) = 0.01357885
#
# Stress axis : x y z
#
# Youngs Moduli (GPa) = 72.99349 106.28486 89.76299
#
# Poissons Ratio (x) = 0.40549 0.59055
# Poissons Ratio (y) = 0.27848 -0.00530
# Poissons Ratio (z) = 0.48022 -0.00627
#
# Static dielectric constant tensor:
#      x y z
#    x 1.676810 0.000000 0.000000 
#    y 0.000000 1.728330 0.000000 
#    z 0.000000 0.000000 1.733690 
# 
# From -- ./inp_files/18198.got.cif
#   From: 2010.05.17/outbox.cif.g08.bks.cpg/sg57_10_cif.got.tgz:18198.got - 2010.06.03 13:58:18.
