data_PCOD9438466
_publ_section_title
;
Structure prediction by ZEFSAII (Michael W. Deem and Ramdas Pophale) SiO2 
 PCOD9438466
Probable space group: P B C M
;
_chemical_formula_sum "Si O2"
_cell_formula_units_Z 48
_cell_length_a 5.320639
_cell_length_b 28.970407
_cell_length_c 13.885314
_cell_angle_alpha 90.000000
_cell_angle_beta 90.000000
_cell_angle_gamma 90.000000
_cell_volume 2140.297259
_symmetry_space_group_name_H-M "P B C M"
_symmetry_group_IT_number 57
_symmetry_cell_setting 'orthorhombic'
loop_
_space_group_symop_operation_xyz
x,y,z
-x,-y,1/2+z
x,1/2-y,-z
-x,1/2+y,1/2-z
-x,-y,-z
x,y,1/2-z
-x,1/2+y,z
x,1/2-y,1/2+z
loop_
_atom_site_type_symbol
_atom_site_label
_atom_site_fract_x
_atom_site_fract_y
_atom_site_fract_z
Si Si1 0.594759 0.097986 0.354425
Si Si2 0.076194 0.847246 0.975586
Si Si3 0.765635 0.779479 0.639331
Si Si4 0.272187 0.782038 0.360791
Si Si5 0.213380 0.062339 0.996835
Si Si6 0.071250 0.993897 0.854467
O O1 0.463886 0.102120 0.250000
O O2 0.760987 0.142497 0.379527
O O3 0.432053 0.088478 0.448414
O O4 0.767819 0.052711 0.347684
O O5 0.834658 0.818633 0.938080
O O6 0.995384 0.897783 0.012888
O O7 0.228021 0.820292 0.057434
O O8 0.742196 0.796517 0.750000
O O9 0.515452 0.749802 0.618951
O O10 0.014713 0.747445 0.636186
O O11 0.300942 0.799407 0.250000
O O12 0.144110 0.021071 0.071400
O O13 0.235306 0.035464 0.897315
O O14 0.968664 0.005473 0.750000
#
# Coordination Sequence:
#
# PCOD9438466 Si02
#       6
#     8   8   8   8   8   8
#     4  10  21  37  60  92 128 164 211 271 329 391
#     4  11  24  38  63  95 129 164 219 275 333 394
#     4  10  23  43  66  91 125 173 221 269 331 397
#     4  10  24  44  66  93 130 174 220 271 331 399
#     4  10  21  36  60  91 125 168 211 267 329 397
#     4   9  19  38  59  87 125 168 213 259 321 399
#
# _framework density 22.426788999999999
#
# number of rings (size 3 to 8) (size 9 to 14) (size 15 to 20)
#    0.000    2.000    0.000    2.000    4.667    4.000 
#    0.000    0.833    0.000    0.000    0.000    0.000 
#    0.000    0.000    0.000    0.000    0.000    0.000 
#
# Total GULP energy -267975.865331 kJ/mol
# GULP energy per Si atom -5582.830528 kJ/mol
# Density = 2.237575 g / cm^3
# Si number density = 22.426789 Si / 1000 Ang^3
#
#
#
# Elastic Constant Matrix: (Units=GPa)
#
#
# Indices 1 2 3 4 5 6 
#
# 1 59.6692 3.0680 5.6055 0.0000 0.0000 0.0000
# 2 3.0680 69.8976 54.3817 0.0000 0.0000 0.0000
# 3 5.6055 54.3817 114.3913 0.0000 0.0000 0.0000
# 4 0.0000 0.0000 0.0000 -2.3842 0.0000 0.0000
# 5 0.0000 0.0000 0.0000 0.0000 16.7950 0.0000
# 6 0.0000 0.0000 0.0000 0.0000 0.0000 14.4307
#
#
#
# Elastic Compliance Matrix: (Units=1/GPa)
#
#
# Indices 1 2 3 4 5 6 
#
# 1 0.016838 -0.000154 -0.000752 0.000000 0.000000 0.000000
# 2 -0.000154 0.022706 -0.010787 0.000000 0.000000 0.000000
# 3 -0.000752 -0.010787 0.013907 0.000000 0.000000 0.000000
# 4 0.000000 0.000000 0.000000 -0.419436 0.000000 0.000000
# 5 0.000000 0.000000 0.000000 0.000000 0.059542 0.000000
# 6 0.000000 0.000000 0.000000 0.000000 0.000000 0.069297
#
#
# Mechanical properties :
#
#
# Convention : Reuss Voigt Hill
#
# Bulk Modulus (GPa) = 33.26156 41.11872 37.19014
# Shear Modulus (GPa) = -24.54106 17.82849 -3.35628
#
# Velocity S-wave (km/s) = -3.31157 2.82257 -1.22466
# Velocity P-wave (km/s) = 0.49130 5.38488 3.82350
#
# Compressibility (1/GPa) = 0.03006474
#
# Stress axis : x y z
#
# Youngs Moduli (GPa) = 59.39087 44.04175 71.90728
#
# Poissons Ratio (x) = 0.00679 0.05406
# Poissons Ratio (y) = 0.00915 0.77565
# Poissons Ratio (z) = 0.04465 0.47507
#
# Static dielectric constant tensor:
#      x y z
#    x 1.912300 0.000000 0.000000 
#    y 0.000000 1.830510 0.000000 
#    z 0.000000 0.000000 1.912500 
# 
# From -- ./inp_files/15114.got.cif
#   From: 2010.05.17/outbox.cif.g08.bks.cpg/sg57_8_cif.got.tgz:15114.got - 2010.06.03 13:58:18.
