data_PCOD9438920
_publ_section_title
;
Structure prediction by ZEFSAII (Michael W. Deem and Ramdas Pophale) SiO2 
 PCOD9438920
Probable space group: P B C M
;
_chemical_formula_sum "Si O2"
_cell_formula_units_Z 64
_cell_length_a 14.753182
_cell_length_b 25.567560
_cell_length_c 8.252268
_cell_angle_alpha 90.000000
_cell_angle_beta 90.000000
_cell_angle_gamma 90.000000
_cell_volume 3112.779140
_symmetry_space_group_name_H-M "P B C M"
_symmetry_group_IT_number 57
_symmetry_cell_setting 'orthorhombic'
loop_
_space_group_symop_operation_xyz
x,y,z
-x,-y,1/2+z
x,1/2-y,-z
-x,1/2+y,1/2-z
-x,-y,-z
x,y,1/2-z
-x,1/2+y,z
x,1/2-y,1/2+z
loop_
_atom_site_type_symbol
_atom_site_label
_atom_site_fract_x
_atom_site_fract_y
_atom_site_fract_z
Si Si1 0.180830 0.305174 0.445724
Si Si2 0.985923 0.333392 0.060788
Si Si3 0.969666 0.055804 0.066203
Si Si4 0.206853 0.977779 0.433265
Si Si5 0.345940 0.901820 0.941942
Si Si6 0.733468 0.914540 0.058349
Si Si7 0.782835 0.191636 0.945455
Si Si8 0.465189 0.442994 0.943345
O O1 0.221071 0.250000 0.500000
O O2 0.177737 0.306226 0.250000
O O3 0.077059 0.308558 0.510468
O O4 0.234514 0.357240 0.496657
O O5 0.982682 0.319586 0.250000
O O6 0.886462 0.319211 0.993594
O O7 0.999431 0.395475 0.040626
O O8 0.998932 0.063654 0.250000
O O9 0.861247 0.051609 0.052527
O O10 0.000000 0.000000 0.000000
O O11 0.175847 0.968336 0.250000
O O12 0.302752 0.950551 0.462020
O O13 0.212923 0.038899 0.469676
O O14 0.336609 0.911597 0.750000
O O15 0.452831 0.902500 0.977622
O O16 0.288361 0.850859 0.989211
O O17 0.751777 0.919515 0.250000
O O18 0.627811 0.925491 0.026146
O O19 0.783330 0.187451 0.750000
O O20 0.758448 0.250000 0.000000
O O21 0.449908 0.445018 0.750000
O O22 0.500000 0.500000 0.000000
#
# Coordination Sequence:
#
# PCOD9438920 Si02
#       8
#     8   8   8   8   8   8   8   8
#     4  10  23  42  64  89 122 163 208 259 308 361
#     4  10  21  39  61  89 123 162 209 257 307 366
#     4  12  24  37  56  84 123 167 209 256 310 372
#     4  12  23  37  60  90 125 163 203 252 312 373
#     4  11  23  40  62  90 125 162 204 255 312 371
#     4  11  23  40  63  93 127 165 208 257 312 374
#     4  11  23  39  63  91 125 166 211 259 309 370
#     4  11  23  39  64  94 126 162 203 256 314 377
#
# _framework density 20.560403999999998
#
# number of rings (size 3 to 8) (size 9 to 14) (size 15 to 20)
#    0.000    1.000    2.500    4.875    0.000    4.500 
#    0.000    0.625    0.000    1.500    0.000    0.000 
#    0.000    0.000    0.000    0.000    0.000    0.000 
#
# Total GULP energy -357784.032627 kJ/mol
# GULP energy per Si atom -5590.375510 kJ/mol
# Density = 2.051361 g / cm^3
# Si number density = 20.560404 Si / 1000 Ang^3
#
#
#
# Elastic Constant Matrix: (Units=GPa)
#
#
# Indices 1 2 3 4 5 6 
#
# 1 71.1225 29.9515 3.9328 0.0000 0.0000 0.0000
# 2 29.9515 136.3766 0.5396 0.0000 0.0000 0.0000
# 3 3.9328 0.5396 43.3623 0.0000 0.0000 0.0000
# 4 0.0000 0.0000 0.0000 28.8984 0.0000 0.0000
# 5 0.0000 0.0000 0.0000 0.0000 25.9985 0.0000
# 6 0.0000 0.0000 0.0000 0.0000 0.0000 18.1639
#
#
#
# Elastic Compliance Matrix: (Units=1/GPa)
#
#
# Indices 1 2 3 4 5 6 
#
# 1 0.015574 -0.003415 -0.001370 0.000000 0.000000 0.000000
# 2 -0.003415 0.008082 0.000209 0.000000 0.000000 0.000000
# 3 -0.001370 0.000209 0.023183 0.000000 0.000000 0.000000
# 4 0.000000 0.000000 0.000000 0.034604 0.000000 0.000000
# 5 0.000000 0.000000 0.000000 0.000000 0.038464 0.000000
# 6 0.000000 0.000000 0.000000 0.000000 0.000000 0.055054
#
#
# Mechanical properties :
#
#
# Convention : Reuss Voigt Hill
#
# Bulk Modulus (GPa) = 26.53409 35.52324 31.02867
# Shear Modulus (GPa) = 25.42261 29.04135 27.23198
#
# Velocity S-wave (km/s) = 3.52018 3.76239 3.64330
# Velocity P-wave (km/s) = 5.42731 6.01574 5.72908
#
# Compressibility (1/GPa) = 0.03768736
#
# Stress axis : x y z
#
# Youngs Moduli (GPa) = 64.20891 123.73437 43.13481
#
# Poissons Ratio (x) = 0.42256 0.05910
# Poissons Ratio (y) = 0.21928 -0.00902
# Poissons Ratio (z) = 0.08797 -0.02588
#
# Static dielectric constant tensor:
#      x y z
#    x 1.791230 0.000000 0.000000 
#    y 0.000000 1.714890 0.000000 
#    z 0.000000 0.000000 1.702840 
# 
# From -- ./inp_files/5765.got.cif
#   From: 2010.05.17/outbox.cif.g08.bks.cpg/sg57_3_cif.got.tgz:5765.got - 2010.06.03 13:58:18.
