data_PCOD9438640
_publ_section_title
;
Structure prediction by ZEFSAII (Michael W. Deem and Ramdas Pophale) SiO2 
 PCOD9438640
Probable space group: P B C M
;
_chemical_formula_sum "Si O2"
_cell_formula_units_Z 64
_cell_length_a 13.399305
_cell_length_b 14.133858
_cell_length_c 17.368057
_cell_angle_alpha 90.000000
_cell_angle_beta 90.000000
_cell_angle_gamma 90.000000
_cell_volume 3289.229921
_symmetry_space_group_name_H-M "P B C M"
_symmetry_group_IT_number 57
_symmetry_cell_setting 'orthorhombic'
loop_
_space_group_symop_operation_xyz
x,y,z
-x,-y,1/2+z
x,1/2-y,-z
-x,1/2+y,1/2-z
-x,-y,-z
x,y,1/2-z
-x,1/2+y,z
x,1/2-y,1/2+z
loop_
_atom_site_type_symbol
_atom_site_label
_atom_site_fract_x
_atom_site_fract_y
_atom_site_fract_z
Si Si1 0.062348 0.007028 0.078529
Si Si2 0.413977 0.064367 0.039674
Si Si3 0.750105 0.352380 0.841178
Si Si4 0.604863 0.091545 0.836068
Si Si5 0.128353 0.037225 0.839535
Si Si6 0.205477 0.362360 0.012312
Si Si7 0.557903 0.274187 0.917112
Si Si8 0.832412 0.163054 0.661378
O O1 0.116844 0.910129 0.103603
O O2 0.141971 0.088259 0.057221
O O3 0.977834 0.014254 0.144272
O O4 0.000000 0.000000 0.000000
O O5 0.462120 0.162928 0.066320
O O6 0.388102 0.001714 0.113653
O O7 0.315079 0.088779 0.991351
O O8 0.500000 0.000000 0.000000
O O9 0.744751 0.337208 0.750000
O O10 0.790256 0.456079 0.854838
O O11 0.640777 0.335145 0.873933
O O12 0.827184 0.270878 0.868383
O O13 0.570128 0.071959 0.750000
O O14 0.539925 0.175215 0.874317
O O15 0.716110 0.134382 0.833989
O O16 0.133562 0.068041 0.750000
O O17 0.150993 0.114327 0.905951
O O18 0.212765 0.250000 0.000000
O O19 0.603854 0.250000 0.000000
O O20 0.872597 0.157394 0.750000
#
# Coordination Sequence:
#
# PCOD9438640 Si02
#       8
#     8   8   8   8   8   8   8   8
#     4  10  21  37  61  90 123 164 206 259 311 377
#     4  12  23  40  65  91 124 175 220 259 318 384
#     4   9  20  37  61  91 123 154 198 263 324 376
#     4  10  22  39  61  89 121 157 208 264 313 371
#     4  10  22  41  65  95 127 166 214 266 323 383
#     4  11  25  44  63  91 137 177 219 265 322 395
#     4  11  21  35  61  91 121 161 205 259 314 374
#     4   9  17  35  59  85 118 156 197 256 314 368
#
# _framework density 19.457440999999999
#
# number of rings (size 3 to 8) (size 9 to 14) (size 15 to 20)
#    0.000    1.750    2.500    2.625    0.000    4.000 
#    0.000    3.750    0.000    0.000    0.000    0.000 
#    0.000    0.000    0.000    0.000    0.000    0.000 
#
# Total GULP energy -356741.052880 kJ/mol
# GULP energy per Si atom -5574.078951 kJ/mol
# Density = 1.941316 g / cm^3
# Si number density = 19.457441 Si / 1000 Ang^3
#
#
#
# Elastic Constant Matrix: (Units=GPa)
#
#
# Indices 1 2 3 4 5 6 
#
# 1 68.2181 29.0415 13.6472 0.0000 0.0000 0.0000
# 2 29.0415 71.2343 52.8568 0.0000 0.0000 0.0000
# 3 13.6472 52.8568 82.1136 0.0000 0.0000 0.0000
# 4 0.0000 0.0000 0.0000 29.8448 0.0000 0.0000
# 5 0.0000 0.0000 0.0000 0.0000 33.1243 0.0000
# 6 0.0000 0.0000 0.0000 0.0000 0.0000 30.8047
#
#
#
# Elastic Compliance Matrix: (Units=1/GPa)
#
#
# Indices 1 2 3 4 5 6 
#
# 1 0.018207 -0.009912 0.003354 0.000000 0.000000 0.000000
# 2 -0.009912 0.032270 -0.019125 0.000000 0.000000 0.000000
# 3 0.003354 -0.019125 0.023932 0.000000 0.000000 0.000000
# 4 0.000000 0.000000 0.000000 0.033507 0.000000 0.000000
# 5 0.000000 0.000000 0.000000 0.000000 0.030189 0.000000
# 6 0.000000 0.000000 0.000000 0.000000 0.000000 0.032463
#
#
# Mechanical properties :
#
#
# Convention : Reuss Voigt Hill
#
# Bulk Modulus (GPa) = 43.39548 45.85080 44.62314
# Shear Modulus (GPa) = 21.77557 27.15612 24.46585
#
# Velocity S-wave (km/s) = 3.34898 3.73992 3.54983
# Velocity P-wave (km/s) = 6.10782 6.50116 6.30756
#
# Compressibility (1/GPa) = 0.02304387
#
# Stress axis : x y z
#
# Youngs Moduli (GPa) = 54.92243 30.98823 41.78554
#
# Poissons Ratio (x) = 0.30715 -0.14016
# Poissons Ratio (y) = 0.54439 0.79916
# Poissons Ratio (z) = -0.18423 0.59266
#
# Static dielectric constant tensor:
#      x y z
#    x 1.719340 0.000000 0.000000 
#    y 0.000000 1.732350 0.000000 
#    z 0.000000 0.000000 1.700550 
# 
# From -- ./inp_files/22013.got.cif
#   From: 2010.05.17/outbox.cif.g08.bks.cpg/sg57_12_cif.got.tgz:22013.got - 2010.06.03 13:58:18.
