data_PCOD9438479
_publ_section_title
;
Structure prediction by ZEFSAII (Michael W. Deem and Ramdas Pophale) SiO2 
 PCOD9438479
Probable space group: P B C M
;
_chemical_formula_sum "Si O2"
_cell_formula_units_Z 56
_cell_length_a 15.202935
_cell_length_b 23.142293
_cell_length_c 7.809982
_cell_angle_alpha 90.000000
_cell_angle_beta 90.000000
_cell_angle_gamma 90.000000
_cell_volume 2747.792029
_symmetry_space_group_name_H-M "P B C M"
_symmetry_group_IT_number 57
_symmetry_cell_setting 'orthorhombic'
loop_
_space_group_symop_operation_xyz
x,y,z
-x,-y,1/2+z
x,1/2-y,-z
-x,1/2+y,1/2-z
-x,-y,-z
x,y,1/2-z
-x,1/2+y,z
x,1/2-y,1/2+z
loop_
_atom_site_type_symbol
_atom_site_label
_atom_site_fract_x
_atom_site_fract_y
_atom_site_fract_z
Si Si1 0.103822 0.443300 0.958299
Si Si2 0.706142 0.585839 0.458940
Si Si3 0.091554 0.925128 0.451888
Si Si4 0.423831 0.186125 0.455987
Si Si5 0.809252 0.314483 0.446263
Si Si6 0.403870 0.524478 0.955020
Si Si7 0.383450 0.655673 0.051586
O O1 0.098904 0.443497 0.750000
O O2 0.192515 0.410742 0.010936
O O3 0.110619 0.510208 0.019510
O O4 0.012914 0.417397 0.025610
O O5 0.704436 0.586909 0.250000
O O6 0.641933 0.636618 0.519777
O O7 0.665636 0.524138 0.509321
O O8 0.113495 0.929190 0.250000
O O9 0.144583 0.870936 0.528875
O O10 0.392553 0.250000 0.500000
O O11 0.428755 0.179859 0.250000
O O12 0.523597 0.177818 0.521533
O O13 0.834164 0.250000 0.500000
O O14 0.834698 0.317536 0.250000
O O15 0.704418 0.321901 0.463795
O O16 0.397624 0.531866 0.750000
O O17 0.500000 0.500000 0.000000
O O18 0.387741 0.586329 0.038218
O O19 0.377188 0.673153 0.250000
#
# Coordination Sequence:
#
# PCOD9438479 Si02
#       7
#     8   8   8   8   8   8   8
#     4   9  17  33  60  84 104 140 181 219 275 337
#     4   9  18  35  55  77 109 144 178 222 275 329
#     4   9  19  36  56  82 113 140 174 224 281 335
#     4  10  21  37  53  72 103 143 184 224 266 317
#     4  11  23  39  58  82 113 152 190 231 282 337
#     4  11  20  34  55  81 114 148 184 228 281 333
#     4  11  22  37  56  81 112 147 188 232 278 332
#
# _framework density 20.380001
#
# number of rings (size 3 to 8) (size 9 to 14) (size 15 to 20)
#    0.000    2.000    1.429    2.571    0.000    5.714 
#    0.000    5.714    0.000    3.429    0.000    0.000 
#    0.000    0.000    0.000    0.000    0.000    0.000 
#
# Total GULP energy -312695.541612 kJ/mol
# GULP energy per Si atom -5583.848957 kJ/mol
# Density = 2.033361 g / cm^3
# Si number density = 20.380001 Si / 1000 Ang^3
#
#
#
# Elastic Constant Matrix: (Units=GPa)
#
#
# Indices 1 2 3 4 5 6 
#
# 1 85.4439 29.9971 -17.0064 0.0000 0.0000 0.0000
# 2 29.9971 87.4145 -4.4952 0.0000 0.0000 0.0000
# 3 -17.0064 -4.4952 19.4000 0.0000 0.0000 0.0000
# 4 0.0000 0.0000 0.0000 25.1795 0.0000 0.0000
# 5 0.0000 0.0000 0.0000 0.0000 14.2555 0.0000
# 6 0.0000 0.0000 0.0000 0.0000 0.0000 11.0651
#
#
#
# Elastic Compliance Matrix: (Units=1/GPa)
#
#
# Indices 1 2 3 4 5 6 
#
# 1 0.015955 -0.004813 0.012871 0.000000 0.000000 0.000000
# 2 -0.004813 0.013030 -0.001200 0.000000 0.000000 0.000000
# 3 0.012871 -0.001200 0.062552 0.000000 0.000000 0.000000
# 4 0.000000 0.000000 0.000000 0.039715 0.000000 0.000000
# 5 0.000000 0.000000 0.000000 0.000000 0.070148 0.000000
# 6 0.000000 0.000000 0.000000 0.000000 0.000000 0.090374
#
#
# Mechanical properties :
#
#
# Convention : Reuss Voigt Hill
#
# Bulk Modulus (GPa) = 9.50097 23.24994 16.37546
# Shear Modulus (GPa) = 15.96717 22.35087 19.15902
#
# Velocity S-wave (km/s) = 2.80209 3.31525 3.06941
# Velocity P-wave (km/s) = 3.89114 5.10759 4.54029
#
# Compressibility (1/GPa) = 0.10525236
#
# Stress axis : x y z
#
# Youngs Moduli (GPa) = 62.67504 76.74732 15.98678
#
# Poissons Ratio (x) = 0.36941 -0.20577
# Poissons Ratio (y) = 0.30168 0.01919
# Poissons Ratio (z) = -0.80672 0.09212
#
# Static dielectric constant tensor:
#      x y z
#    x 1.712110 0.000000 0.000000 
#    y 0.000000 1.712610 0.000000 
#    z 0.000000 0.000000 1.741420 
# 
# From -- ./inp_files/5203.got.cif
#   From: 2010.05.17/outbox.cif.g08.bks.cpg/sg57_3_cif.got.tgz:5203.got - 2010.06.03 13:58:18.
