data_PCOD9438361
_publ_section_title
;
Structure prediction by ZEFSAII (Michael W. Deem and Ramdas Pophale) SiO2 
 PCOD9438361
Probable space group: P B C M
;
_chemical_formula_sum "Si O2"
_cell_formula_units_Z 48
_cell_length_a 15.460474
_cell_length_b 13.657928
_cell_length_c 13.605206
_cell_angle_alpha 90.000000
_cell_angle_beta 90.000000
_cell_angle_gamma 90.000000
_cell_volume 2872.848643
_symmetry_space_group_name_H-M "P B C M"
_symmetry_group_IT_number 57
_symmetry_cell_setting 'orthorhombic'
loop_
_space_group_symop_operation_xyz
x,y,z
-x,-y,1/2+z
x,1/2-y,-z
-x,1/2+y,1/2-z
-x,-y,-z
x,y,1/2-z
-x,1/2+y,z
x,1/2-y,1/2+z
loop_
_atom_site_type_symbol
_atom_site_label
_atom_site_fract_x
_atom_site_fract_y
_atom_site_fract_z
Si Si1 0.580571 0.635747 0.023732
Si Si2 0.577557 0.466591 0.633747
Si Si3 0.069917 0.639338 0.470171
Si Si4 0.270872 0.637151 0.476404
Si Si5 0.069057 0.478702 0.862325
Si Si6 0.268108 0.031837 0.365934
O O1 0.501987 0.596587 0.090835
O O2 0.668194 0.608180 0.081914
O O3 0.573900 0.750000 0.000000
O O4 0.577770 0.569488 0.925048
O O5 0.570907 0.479317 0.750000
O O6 0.664235 0.409197 0.602099
O O7 0.051860 0.750000 0.500000
O O8 0.171075 0.631989 0.442013
O O9 0.058041 0.569750 0.564707
O O10 0.003498 0.600038 0.389612
O O11 0.291354 0.750000 0.500000
O O12 0.279299 0.570299 0.574642
O O13 0.061167 0.510254 0.750000
O O14 0.167075 0.440266 0.876442
O O15 0.287291 0.021515 0.250000
#
# Coordination Sequence:
#
# PCOD9438361 Si02
#       6
#     8   8   8   8   8   8
#     4  10  21  37  55  75 101 133 168 203 243 292
#     4  10  21  35  52  77 105 131 164 205 246 290
#     4   9  18  32  51  72  99 133 166 204 250 297
#     4   9  18  33  51  75 103 131 164 203 249 298
#     4   9  18  32  49  72 101 131 166 207 248 292
#     4   9  18  33  52  73  99 132 168 205 246 293
#
# _framework density 16.708154
#
# number of rings (size 3 to 8) (size 9 to 14) (size 15 to 20)
#    0.000    2.667    0.000    1.000    0.000    4.000 
#    0.000    3.333    0.000    0.000    0.000    0.000 
#    0.000    0.000    0.000    0.000    0.000    0.000 
#
# Total GULP energy -267588.685506 kJ/mol
# GULP energy per Si atom -5574.764281 kJ/mol
# Density = 1.667013 g / cm^3
# Si number density = 16.708154 Si / 1000 Ang^3
#
#
#
# Elastic Constant Matrix: (Units=GPa)
#
#
# Indices 1 2 3 4 5 6 
#
# 1 75.2400 56.8755 56.5201 0.0000 0.0000 0.0000
# 2 56.8755 116.3252 42.5949 0.0000 0.0000 0.0000
# 3 56.5201 42.5949 120.8198 0.0000 0.0000 0.0000
# 4 0.0000 0.0000 0.0000 6.6943 0.0000 0.0000
# 5 0.0000 0.0000 0.0000 0.0000 23.1812 0.0000
# 6 0.0000 0.0000 0.0000 0.0000 0.0000 23.9708
#
#
#
# Elastic Compliance Matrix: (Units=1/GPa)
#
#
# Indices 1 2 3 4 5 6 
#
# 1 0.028310 -0.010325 -0.009603 0.000000 0.000000 0.000000
# 2 -0.010325 0.013637 0.000023 0.000000 0.000000 0.000000
# 3 -0.009603 0.000023 0.012761 0.000000 0.000000 0.000000
# 4 0.000000 0.000000 0.000000 0.149381 0.000000 0.000000
# 5 0.000000 0.000000 0.000000 0.000000 0.043138 0.000000
# 6 0.000000 0.000000 0.000000 0.000000 0.000000 0.041717
#
#
# Mechanical properties :
#
#
# Convention : Reuss Voigt Hill
#
# Bulk Modulus (GPa) = 67.13253 69.37399 68.25326
# Shear Modulus (GPa) = 14.98252 21.19555 18.08904
#
# Velocity S-wave (km/s) = 2.99778 3.56557 3.29393
# Velocity P-wave (km/s) = 7.22834 7.65260 7.44349
#
# Compressibility (1/GPa) = 0.01489591
#
# Stress axis : x y z
#
# Youngs Moduli (GPa) = 35.32333 73.33154 78.36176
#
# Poissons Ratio (x) = 0.75717 0.75254
# Poissons Ratio (y) = 0.36472 -0.00177
# Poissons Ratio (z) = 0.33922 -0.00166
#
# Static dielectric constant tensor:
#      x y z
#    x 1.583600 0.000000 0.000000 
#    y 0.000000 1.528180 0.000000 
#    z 0.000000 0.000000 1.541130 
# 
# From -- ./inp_files/14109.got.cif
#   From: 2010.05.17/outbox.cif.g08.bks.cpg/sg57_8_cif.got.tgz:14109.got - 2010.06.03 13:58:18.
