data_PCOD9438881
_publ_section_title
;
Structure prediction by ZEFSAII (Michael W. Deem and Ramdas Pophale) SiO2 
 PCOD9438881
Probable space group: P B C M
;
_chemical_formula_sum "Si O2"
_cell_formula_units_Z 48
_cell_length_a 11.892469
_cell_length_b 11.335818
_cell_length_c 13.879605
_cell_angle_alpha 90.000000
_cell_angle_beta 90.000000
_cell_angle_gamma 90.000000
_cell_volume 1871.121544
_symmetry_space_group_name_H-M "P B C M"
_symmetry_group_IT_number 57
_symmetry_cell_setting 'orthorhombic'
loop_
_space_group_symop_operation_xyz
x,y,z
-x,-y,1/2+z
x,1/2-y,-z
-x,1/2+y,1/2-z
-x,-y,-z
x,y,1/2-z
-x,1/2+y,z
x,1/2-y,1/2+z
loop_
_atom_site_type_symbol
_atom_site_label
_atom_site_fract_x
_atom_site_fract_y
_atom_site_fract_z
Si Si1 0.250782 0.305441 0.399206
Si Si2 0.735147 0.329452 0.638308
Si Si3 0.308940 0.945581 0.361632
Si Si4 0.555622 0.985368 0.362464
Si Si5 0.888124 0.482044 0.981531
Si Si6 0.091992 0.090682 0.161882
O O1 0.285395 0.250000 0.500000
O O2 0.364052 0.369231 0.363686
O O3 0.159279 0.409016 0.416975
O O4 0.182786 0.197404 0.351614
O O5 0.756562 0.364040 0.750000
O O6 0.703121 0.194027 0.636926
O O7 0.630696 0.407165 0.601468
O O8 0.833479 0.364559 0.565920
O O9 0.314678 0.985746 0.250000
O O10 0.430299 0.979443 0.404592
O O11 0.198870 0.992928 0.419108
O O12 0.539132 0.010089 0.250000
O O13 0.014734 0.346765 0.750000
O O14 0.019827 0.449996 0.933698
O O15 0.106653 0.994357 0.250000
#
# Coordination Sequence:
#
# PCOD9438881 Si02
#       6
#     8   8   8   8   8   8
#     4   9  19  37  55  84 115 146 197 246 293 360
#     4   9  19  37  58  89 126 159 207 258 301 366
#     4   9  19  34  55  88 124 162 201 239 302 371
#     4   9  17  31  56  83 115 159 197 238 292 357
#     4  10  22  42  64  85 115 155 206 255 312 365
#     4  10  21  39  59  86 121 154 196 250 301 362
#
# _framework density 25.653061000000001
#
# number of rings (size 3 to 8) (size 9 to 14) (size 15 to 20)
#    0.000    2.667    0.000    0.500    2.333    2.000 
#   12.000    2.500    0.000    0.000    0.000    0.000 
#    0.000    0.000    0.000    0.000    0.000    0.000 
#
# Total GULP energy -267202.991972 kJ/mol
# GULP energy per Si atom -5566.728999 kJ/mol
# Density = 2.559467 g / cm^3
# Si number density = 25.653061 Si / 1000 Ang^3
#
#
#
# Elastic Constant Matrix: (Units=GPa)
#
#
# Indices 1 2 3 4 5 6 
#
# 1 280.2150 60.1577 63.9540 0.0000 0.0000 0.0000
# 2 60.1577 99.2509 26.7581 0.0000 0.0000 0.0000
# 3 63.9540 26.7581 149.3815 0.0000 0.0000 0.0000
# 4 0.0000 0.0000 0.0000 34.3087 0.0000 0.0000
# 5 0.0000 0.0000 0.0000 0.0000 23.6801 0.0000
# 6 0.0000 0.0000 0.0000 0.0000 0.0000 9.1932
#
#
#
# Elastic Compliance Matrix: (Units=1/GPa)
#
#
# Indices 1 2 3 4 5 6 
#
# 1 0.004391 -0.002264 -0.001474 0.000000 0.000000 0.000000
# 2 -0.002264 0.011754 -0.001136 0.000000 0.000000 0.000000
# 3 -0.001474 -0.001136 0.007529 0.000000 0.000000 0.000000
# 4 0.000000 0.000000 0.000000 0.029147 0.000000 0.000000
# 5 0.000000 0.000000 0.000000 0.000000 0.042230 0.000000
# 6 0.000000 0.000000 0.000000 0.000000 0.000000 0.108776
#
#
# Mechanical properties :
#
#
# Convention : Reuss Voigt Hill
#
# Bulk Modulus (GPa) = 71.81332 92.28744 82.05038
# Shear Modulus (GPa) = 22.91279 38.63490 30.77385
#
# Velocity S-wave (km/s) = 2.99185 3.88500 3.46731
# Velocity P-wave (km/s) = 6.32374 7.49517 6.93424
#
# Compressibility (1/GPa) = 0.01392499
#
# Stress axis : x y z
#
# Youngs Moduli (GPa) = 227.72429 85.07670 132.81921
#
# Poissons Ratio (x) = 0.19262 0.19584
# Poissons Ratio (y) = 0.51559 0.15090
# Poissons Ratio (z) = 0.33577 0.09666
#
# Static dielectric constant tensor:
#      x y z
#    x 2.179980 0.000000 0.000000 
#    y 0.000000 2.018030 0.000000 
#    z 0.000000 0.000000 2.441540 
# 
# From -- ./inp_files/21799.got.cif
#   From: 2010.05.17/outbox.cif.g08.bks.cpg/sg57_11_cif.got.tgz:21799.got - 2010.06.03 13:58:18.
