data_PCOD9438221
_publ_section_title
;
Structure prediction by ZEFSAII (Michael W. Deem and Ramdas Pophale) SiO2 
 PCOD9438221
Probable space group: P B C M
;
_chemical_formula_sum "Si O2"
_cell_formula_units_Z 40
_cell_length_a 5.978594
_cell_length_b 17.244841
_cell_length_c 16.385832
_cell_angle_alpha 90.000000
_cell_angle_beta 90.000000
_cell_angle_gamma 90.000000
_cell_volume 1689.377689
_symmetry_space_group_name_H-M "P B C M"
_symmetry_group_IT_number 57
_symmetry_cell_setting 'orthorhombic'
loop_
_space_group_symop_operation_xyz
x,y,z
-x,-y,1/2+z
x,1/2-y,-z
-x,1/2+y,1/2-z
-x,-y,-z
x,y,1/2-z
-x,1/2+y,z
x,1/2-y,1/2+z
loop_
_atom_site_type_symbol
_atom_site_label
_atom_site_fract_x
_atom_site_fract_y
_atom_site_fract_z
Si Si1 0.463712 0.444019 0.750000
Si Si2 0.146894 0.472851 0.250000
Si Si3 0.813333 0.503263 0.395219
Si Si4 0.843512 0.795036 0.750000
Si Si5 0.514934 0.337504 0.250000
Si Si6 0.823002 0.262398 0.116471
Si Si7 0.868279 0.123564 0.479680
O O1 0.731419 0.442653 0.750000
O O2 0.395565 0.481841 0.836730
O O3 0.293257 0.373263 0.750000
O O4 0.353022 0.412378 0.250000
O O5 0.994785 0.467429 0.330540
O O6 0.756119 0.446865 0.470390
O O7 0.933603 0.579942 0.431528
O O8 0.656831 0.731162 0.750000
O O9 0.998210 0.777880 0.673688
O O10 0.667228 0.318856 0.170599
O O11 0.719854 0.184767 0.073171
O O12 0.943781 0.317723 0.051182
#
# Coordination Sequence:
#
# PCOD9438221 Si02
#       7
#     4   4   8   4   4   8   8
#     4  11  22  39  64  91 118 163 212 248 310 365
#     4  11  24  40  65  95 125 165 209 259 304 376
#     4  10  22  41  65  88 128 159 208 250 313 370
#     4  11  22  39  64  89 116 165 212 254 298 377
#     4  11  24  40  63  91 119 163 207 253 304 370
#     4  10  22  41  64  85 127 157 207 254 309 360
#     4  10  20  40  64  89 120 169 192 255 316 364
#
# _framework density 23.677358999999999
#
# number of rings (size 3 to 8) (size 9 to 14) (size 15 to 20)
#    0.000    1.600    2.000    2.400    2.800    3.200 
#    0.000   21.000    0.000    0.000    0.000    0.000 
#    0.000    0.000    0.000    0.000    0.000    0.000 
#
# Total GULP energy -223016.924639 kJ/mol
# GULP energy per Si atom -5575.423116 kJ/mol
# Density = 2.362347 g / cm^3
# Si number density = 23.677359 Si / 1000 Ang^3
#
#
#
# Elastic Constant Matrix: (Units=GPa)
#
#
# Indices 1 2 3 4 5 6 
#
# 1 46.0945 4.6909 13.1982 0.0000 0.0000 0.0000
# 2 4.6909 101.7804 41.2827 0.0000 0.0000 0.0000
# 3 13.1982 41.2827 103.2417 0.0000 0.0000 0.0000
# 4 0.0000 0.0000 0.0000 50.9494 0.0000 0.0000
# 5 0.0000 0.0000 0.0000 0.0000 2.7717 0.0000
# 6 0.0000 0.0000 0.0000 0.0000 0.0000 38.1622
#
#
#
# Elastic Compliance Matrix: (Units=1/GPa)
#
#
# Indices 1 2 3 4 5 6 
#
# 1 0.022521 0.000155 -0.002941 0.000000 0.000000 0.000000
# 2 0.000155 0.011728 -0.004709 0.000000 0.000000 0.000000
# 3 -0.002941 -0.004709 0.011945 0.000000 0.000000 0.000000
# 4 0.000000 0.000000 0.000000 0.019627 0.000000 0.000000
# 5 0.000000 0.000000 0.000000 0.000000 0.360791 0.000000
# 6 0.000000 0.000000 0.000000 0.000000 0.000000 0.026204
#
#
# Mechanical properties :
#
#
# Convention : Reuss Voigt Hill
#
# Bulk Modulus (GPa) = 32.04810 41.05114 36.54962
# Shear Modulus (GPa) = 10.45570 31.17298 20.81434
#
# Velocity S-wave (km/s) = 2.10369 3.63240 2.96815
# Velocity P-wave (km/s) = 4.41196 5.91336 5.21695
#
# Compressibility (1/GPa) = 0.03120310
#
# Stress axis : x y z
#
# Youngs Moduli (GPa) = 44.40319 85.26516 83.71616
#
# Poissons Ratio (x) = -0.01321 0.24621
# Poissons Ratio (y) = -0.00688 0.39426
# Poissons Ratio (z) = 0.13059 0.40155
#
# Static dielectric constant tensor:
#      x y z
#    x 1.712250 0.000000 0.000000 
#    y 0.000000 1.749120 0.000000 
#    z 0.000000 0.000000 1.392750 
# 
# From -- ./inp_files/20055.got.cif
#   From: 2010.05.17/outbox.cif.g08.bks.cpg/sg57_11_cif.got.tgz:20055.got - 2010.06.03 13:58:18.
