data_PCOD9438340
_publ_section_title
;
Structure prediction by ZEFSAII (Michael W. Deem and Ramdas Pophale) SiO2 
 PCOD9438340
Probable space group: P B C M
;
_chemical_formula_sum "Si O2"
_cell_formula_units_Z 56
_cell_length_a 13.493723
_cell_length_b 10.177133
_cell_length_c 20.709627
_cell_angle_alpha 90.000000
_cell_angle_beta 90.000000
_cell_angle_gamma 90.000000
_cell_volume 2843.999513
_symmetry_space_group_name_H-M "P B C M"
_symmetry_group_IT_number 57
_symmetry_cell_setting 'orthorhombic'
loop_
_space_group_symop_operation_xyz
x,y,z
-x,-y,1/2+z
x,1/2-y,-z
-x,1/2+y,1/2-z
-x,-y,-z
x,y,1/2-z
-x,1/2+y,z
x,1/2-y,1/2+z
loop_
_atom_site_type_symbol
_atom_site_label
_atom_site_fract_x
_atom_site_fract_y
_atom_site_fract_z
Si Si1 0.296352 0.934193 0.628692
Si Si2 0.099383 0.582300 0.922162
Si Si3 0.582470 0.108469 0.997919
Si Si4 0.382764 0.293022 0.326172
Si Si5 0.741639 0.546553 0.323378
Si Si6 0.390397 0.828614 0.357170
Si Si7 0.909129 0.394920 0.573996
O O1 0.345853 0.915746 0.557763
O O2 0.329478 0.799654 0.662629
O O3 0.179782 0.940736 0.619557
O O4 0.340007 0.063111 0.660571
O O5 0.180142 0.524233 0.871555
O O6 0.076254 0.738435 0.912338
O O7 0.005104 0.485329 0.915927
O O8 0.124655 0.582610 0.999105
O O9 0.636154 0.122562 0.929704
O O10 0.530591 0.250000 0.000000
O O11 0.500000 0.000000 0.000000
O O12 0.393422 0.269769 0.250000
O O13 0.304571 0.183158 0.349877
O O14 0.493913 0.292479 0.354447
O O15 0.781970 0.565028 0.250000
O O16 0.645401 0.452702 0.317676
#
# Coordination Sequence:
#
# PCOD9438340 Si02
#       7
#     8   8   8   8   8   8   8
#     4  11  22  39  61  91 125 162 208 259 314 372
#     4  10  22  44  68  95 126 154 204 261 319 380
#     4  10  21  34  56  89 123 158 200 256 309 364
#     4  11  25  40  58  88 130 171 216 258 296 374
#     4  11  24  42  64  92 127 168 211 259 314 371
#     4  11  21  39  62  88 126 169 209 253 314 375
#     4  10  22  42  70  95 121 158 201 262 323 375
#
# _framework density 19.690581000000002
#
# number of rings (size 3 to 8) (size 9 to 14) (size 15 to 20)
#    0.000    1.429    2.857    2.143    8.000    2.286 
#    0.000    2.857    0.000    0.000    0.000    0.000 
#    0.000    0.000    0.000    0.000    0.000    0.000 
#
# Total GULP energy -312174.190743 kJ/mol
# GULP energy per Si atom -5574.539120 kJ/mol
# Density = 1.964576 g / cm^3
# Si number density = 19.690581 Si / 1000 Ang^3
#
#
#
# Elastic Constant Matrix: (Units=GPa)
#
#
# Indices 1 2 3 4 5 6 
#
# 1 68.7814 19.7718 -3.3398 0.0000 0.0000 0.0000
# 2 19.7718 91.7545 1.4370 0.0000 0.0000 0.0000
# 3 -3.3398 1.4370 40.3475 0.0000 0.0000 0.0000
# 4 0.0000 0.0000 0.0000 96.2771 0.0000 0.0000
# 5 0.0000 0.0000 0.0000 0.0000 20.0057 0.0000
# 6 0.0000 0.0000 0.0000 0.0000 0.0000 36.2442
#
#
#
# Elastic Compliance Matrix: (Units=1/GPa)
#
#
# Indices 1 2 3 4 5 6 
#
# 1 0.015579 -0.003379 0.001410 0.000000 0.000000 0.000000
# 2 -0.003379 0.011638 -0.000694 0.000000 0.000000 0.000000
# 3 0.001410 -0.000694 0.024926 0.000000 0.000000 0.000000
# 4 0.000000 0.000000 0.000000 0.010387 0.000000 0.000000
# 5 0.000000 0.000000 0.000000 0.000000 0.049986 0.000000
# 6 0.000000 0.000000 0.000000 0.000000 0.000000 0.027591
#
#
# Mechanical properties :
#
#
# Convention : Reuss Voigt Hill
#
# Bulk Modulus (GPa) = 21.36037 26.29127 23.82582
# Shear Modulus (GPa) = 31.04871 42.70638 36.87754
#
# Velocity S-wave (km/s) = 3.97524 4.66217 4.33234
# Velocity P-wave (km/s) = 5.65169 6.50863 6.09524
#
# Compressibility (1/GPa) = 0.04681567
#
# Stress axis : x y z
#
# Youngs Moduli (GPa) = 64.19056 85.92798 40.11854
#
# Poissons Ratio (x) = 0.29035 -0.05656
# Poissons Ratio (y) = 0.21690 0.02785
# Poissons Ratio (z) = -0.09050 0.05965
#
# Static dielectric constant tensor:
#      x y z
#    x 1.681060 0.000000 0.000000 
#    y 0.000000 1.692110 0.000000 
#    z 0.000000 0.000000 1.761050 
# 
# From -- ./inp_files/25392.got.cif
#   From: 2010.05.17/outbox.cif.g08.bks.cpg/sg57_13_cif.got.tgz:25392.got - 2010.06.03 13:58:18.
