data_PCOD9438830
_publ_section_title
;
Structure prediction by ZEFSAII (Michael W. Deem and Ramdas Pophale) SiO2 
 PCOD9438830
Probable space group: P B C M
;
_chemical_formula_sum "Si O2"
_cell_formula_units_Z 64
_cell_length_a 8.137312
_cell_length_b 23.150178
_cell_length_c 15.648718
_cell_angle_alpha 90.000000
_cell_angle_beta 90.000000
_cell_angle_gamma 90.000000
_cell_volume 2947.908959
_symmetry_space_group_name_H-M "P B C M"
_symmetry_group_IT_number 57
_symmetry_cell_setting 'orthorhombic'
loop_
_space_group_symop_operation_xyz
x,y,z
-x,-y,1/2+z
x,1/2-y,-z
-x,1/2+y,1/2-z
-x,-y,-z
x,y,1/2-z
-x,1/2+y,z
x,1/2-y,1/2+z
loop_
_atom_site_type_symbol
_atom_site_label
_atom_site_fract_x
_atom_site_fract_y
_atom_site_fract_z
Si Si1 0.380675 0.898093 0.652481
Si Si2 0.009311 0.880444 0.849342
Si Si3 0.868092 0.246607 0.399919
Si Si4 0.682650 0.588794 0.847446
Si Si5 0.484199 0.778220 0.907441
Si Si6 0.610704 0.009740 0.654507
Si Si7 0.797216 0.716949 0.847281
Si Si8 0.843235 0.538451 0.017885
O O1 0.397475 0.875418 0.750000
O O2 0.444546 0.846570 0.592650
O O3 0.483701 0.956236 0.647391
O O4 0.188210 0.910413 0.639877
O O5 0.956425 0.886310 0.750000
O O6 0.052770 0.813913 0.869343
O O7 0.887734 0.908526 0.917945
O O8 0.836017 0.250000 0.500000
O O9 0.023509 0.288778 0.389453
O O10 0.681385 0.249335 0.363094
O O11 0.742574 0.573570 0.750000
O O12 0.495662 0.567531 0.850347
O O13 0.701960 0.656958 0.857770
O O14 0.772208 0.559737 0.927765
O O15 0.664039 0.765927 0.869424
O O16 0.498747 0.750000 0.000000
O O17 0.687862 0.006403 0.750000
O O18 0.725314 0.001986 0.573936
O O19 0.841817 0.726054 0.750000
O O20 0.000000 0.500000 0.000000
#
# Coordination Sequence:
#
# PCOD9438830 Si02
#       8
#     8   8   8   8   8   8   8   8
#     4   9  19  37  63  91 125 165 208 268 326 380
#     4  10  21  38  62  95 133 166 213 278 335 391
#     4  10  21  40  62  94 132 169 216 271 330 395
#     4  10  24  45  62  88 128 172 216 266 324 391
#     4  10  22  37  61  96 127 167 210 267 325 387
#     4  10  22  42  67  93 123 165 219 271 326 397
#     4  11  23  39  62  88 125 174 215 258 319 389
#     4  12  25  40  64  97 123 166 212 268 337 394
#
# _framework density 21.710304000000001
#
# number of rings (size 3 to 8) (size 9 to 14) (size 15 to 20)
#    0.000    1.750    0.000    3.375    3.500    3.500 
#    6.750    0.000    0.000    0.000    0.000    0.000 
#    0.000    0.000    0.000    0.000    0.000    0.000 
#
# Total GULP energy -357079.242833 kJ/mol
# GULP energy per Si atom -5579.363169 kJ/mol
# Density = 2.166089 g / cm^3
# Si number density = 21.710304 Si / 1000 Ang^3
#
#
#
# Elastic Constant Matrix: (Units=GPa)
#
#
# Indices 1 2 3 4 5 6 
#
# 1 61.1621 -4.0602 14.2793 0.0000 0.0000 0.0000
# 2 -4.0602 18.6251 1.1510 0.0000 0.0000 0.0000
# 3 14.2793 1.1510 91.9540 0.0000 0.0000 0.0000
# 4 0.0000 0.0000 0.0000 19.8641 0.0000 0.0000
# 5 0.0000 0.0000 0.0000 0.0000 70.2953 0.0000
# 6 0.0000 0.0000 0.0000 0.0000 0.0000 19.4823
#
#
#
# Elastic Compliance Matrix: (Units=1/GPa)
#
#
# Indices 1 2 3 4 5 6 
#
# 1 0.017248 0.003928 -0.002727 0.000000 0.000000 0.000000
# 2 0.003928 0.054627 -0.001294 0.000000 0.000000 0.000000
# 3 -0.002727 -0.001294 0.011315 0.000000 0.000000 0.000000
# 4 0.000000 0.000000 0.000000 0.050342 0.000000 0.000000
# 5 0.000000 0.000000 0.000000 0.000000 0.014226 0.000000
# 6 0.000000 0.000000 0.000000 0.000000 0.000000 0.051329
#
#
# Mechanical properties :
#
#
# Convention : Reuss Voigt Hill
#
# Bulk Modulus (GPa) = 12.04761 21.60904 16.82832
# Shear Modulus (GPa) = 22.03228 32.61975 27.32601
#
# Velocity S-wave (km/s) = 3.18910 3.88042 3.55162
# Velocity P-wave (km/s) = 4.37284 5.48195 4.95851
#
# Compressibility (1/GPa) = 0.08300403
#
# Stress axis : x y z
#
# Youngs Moduli (GPa) = 57.97925 18.30581 88.38026
#
# Poissons Ratio (x) = -0.07191 0.24106
# Poissons Ratio (y) = -0.22777 0.11435
# Poissons Ratio (z) = 0.15814 0.02368
#
# Static dielectric constant tensor:
#      x y z
#    x 1.906760 0.000000 0.000000 
#    y 0.000000 1.796990 0.000000 
#    z 0.000000 0.000000 1.810750 
# 
# From -- ./inp_files/16954.got.cif
#   From: 2010.05.17/outbox.cif.g08.bks.cpg/sg57_9_cif.got.tgz:16954.got - 2010.06.03 13:58:18.
