data_PCOD9438102
_publ_section_title
;
Structure prediction by ZEFSAII (Michael W. Deem and Ramdas Pophale) SiO2 
 PCOD9438102
Probable space group: P B C M
;
_chemical_formula_sum "Si O2"
_cell_formula_units_Z 40
_cell_length_a 5.245277
_cell_length_b 18.053884
_cell_length_c 20.143663
_cell_angle_alpha 90.000000
_cell_angle_beta 90.000000
_cell_angle_gamma 90.000000
_cell_volume 1907.556995
_symmetry_space_group_name_H-M "P B C M"
_symmetry_group_IT_number 57
_symmetry_cell_setting 'orthorhombic'
loop_
_space_group_symop_operation_xyz
x,y,z
-x,-y,1/2+z
x,1/2-y,-z
-x,1/2+y,1/2-z
-x,-y,-z
x,y,1/2-z
-x,1/2+y,z
x,1/2-y,1/2+z
loop_
_atom_site_type_symbol
_atom_site_label
_atom_site_fract_x
_atom_site_fract_y
_atom_site_fract_z
Si Si1 0.230937 0.993490 0.170810
Si Si2 0.720675 0.666615 0.325929
Si Si3 0.911201 0.289891 0.180198
Si Si4 0.743936 0.592619 0.630442
Si Si5 0.519281 0.282293 0.428551
O O1 0.177936 0.984767 0.250000
O O2 0.494255 0.951576 0.153691
O O3 0.987699 0.961564 0.130699
O O4 0.266249 0.080544 0.157867
O O5 0.617506 0.673767 0.250000
O O6 0.584387 0.715477 0.382051
O O7 0.998229 0.705379 0.323062
O O8 0.774416 0.304008 0.250000
O O9 0.759149 0.308776 0.114475
O O10 0.160091 0.341979 0.179378
O O11 0.664333 0.645451 0.568485
O O12 0.577676 0.250000 0.500000
#
# Coordination Sequence:
#
# PCOD9438102 Si02
#       5
#     8   8   8   8   8
#     4  11  22  39  66 100 134 165 206 273 337 386
#     4   9  22  40  65  97 130 168 216 271 330 387
#     4  10  20  38  66  96 126 167 219 272 318 381
#     4  11  23  40  64  98 128 167 213 265 324 387
#     4  11  24  43  66  93 131 179 222 265 318 386
#
# _framework density 20.969231000000001
#
# number of rings (size 3 to 8) (size 9 to 14) (size 15 to 20)
#    0.000    1.600    2.000    2.400    2.800    6.400 
#    0.000    2.000    0.000    0.000    0.000    0.000 
#    0.000    0.000    0.000    0.000    0.000    0.000 
#
# Total GULP energy -222853.610362 kJ/mol
# GULP energy per Si atom -5571.340259 kJ/mol
# Density = 2.092150 g / cm^3
# Si number density = 20.969231 Si / 1000 Ang^3
#
#
#
# Elastic Constant Matrix: (Units=GPa)
#
#
# Indices 1 2 3 4 5 6 
#
# 1 108.1553 50.8480 22.9150 0.0000 0.0000 0.0000
# 2 50.8480 168.5479 21.9035 0.0000 0.0000 0.0000
# 3 22.9150 21.9035 86.4276 0.0000 0.0000 0.0000
# 4 0.0000 0.0000 0.0000 16.4080 0.0000 0.0000
# 5 0.0000 0.0000 0.0000 0.0000 -27.6975 0.0000
# 6 0.0000 0.0000 0.0000 0.0000 0.0000 29.4224
#
#
#
# Elastic Compliance Matrix: (Units=1/GPa)
#
#
# Indices 1 2 3 4 5 6 
#
# 1 0.011157 -0.003083 -0.002177 0.000000 0.000000 0.000000
# 2 -0.003083 0.006987 -0.000953 0.000000 0.000000 0.000000
# 3 -0.002177 -0.000953 0.012389 0.000000 0.000000 0.000000
# 4 0.000000 0.000000 0.000000 0.060946 0.000000 0.000000
# 5 0.000000 0.000000 0.000000 0.000000 -0.036104 0.000000
# 6 0.000000 0.000000 0.000000 0.000000 0.000000 0.033988
#
#
# Mechanical properties :
#
#
# Convention : Reuss Voigt Hill
#
# Bulk Modulus (GPa) = 55.22788 61.60708 58.41748
# Shear Modulus (GPa) = 46.37230 21.45756 33.91493
#
# Velocity S-wave (km/s) = 4.70770 3.20236 4.02601
# Velocity P-wave (km/s) = 7.47962 6.56635 7.03782
#
# Compressibility (1/GPa) = 0.01810680
#
# Stress axis : x y z
#
# Youngs Moduli (GPa) = 89.63380 143.12365 80.71613
#
# Poissons Ratio (x) = 0.44123 0.17569
# Poissons Ratio (y) = 0.27633 0.07695
# Poissons Ratio (z) = 0.19510 0.13645
#
# Static dielectric constant tensor:
#      x y z
#    x 1.860420 0.000000 0.000000 
#    y 0.000000 1.773260 0.000000 
#    z 0.000000 0.000000 1.636520 
# 
# From -- ./inp_files/23582.got.cif
#   From: 2010.05.17/outbox.cif.g08.bks.cpg/sg57_12_cif.got.tgz:23582.got - 2010.06.03 13:58:18.
