data_PCOD9438448
_publ_section_title
;
Structure prediction by ZEFSAII (Michael W. Deem and Ramdas Pophale) SiO2 
 PCOD9438448
Probable space group: P B C M
;
_chemical_formula_sum "Si O2"
_cell_formula_units_Z 64
_cell_length_a 17.261203
_cell_length_b 22.499113
_cell_length_c 8.054185
_cell_angle_alpha 90.000000
_cell_angle_beta 90.000000
_cell_angle_gamma 90.000000
_cell_volume 3127.937436
_symmetry_space_group_name_H-M "P B C M"
_symmetry_group_IT_number 57
_symmetry_cell_setting 'orthorhombic'
loop_
_space_group_symop_operation_xyz
x,y,z
-x,-y,1/2+z
x,1/2-y,-z
-x,1/2+y,1/2-z
-x,-y,-z
x,y,1/2-z
-x,1/2+y,z
x,1/2-y,1/2+z
loop_
_atom_site_type_symbol
_atom_site_label
_atom_site_fract_x
_atom_site_fract_y
_atom_site_fract_z
Si Si1 0.054066 0.818615 0.549050
Si Si2 0.705248 0.687203 0.051151
Si Si3 0.384266 0.616595 0.946910
Si Si4 0.213704 0.431619 0.547623
Si Si5 0.453078 0.363859 0.550237
Si Si6 0.373848 0.485544 0.952692
Si Si7 0.230619 0.682931 0.447313
Si Si8 0.961273 0.562389 0.450885
O O1 0.032892 0.750000 0.500000
O O2 0.053146 0.819160 0.750000
O O3 0.143113 0.829542 0.489752
O O4 0.002263 0.875453 0.493358
O O5 0.703091 0.683635 0.250000
O O6 0.757291 0.633011 0.992663
O O7 0.617048 0.677886 0.990744
O O8 0.737104 0.750000 0.000000
O O9 0.383725 0.612850 0.750000
O O10 0.396981 0.550017 0.015972
O O11 0.460818 0.652549 0.996771
O O12 0.301255 0.641736 0.997855
O O13 0.211672 0.432722 0.750000
O O14 0.284120 0.474653 0.499615
O O15 0.127343 0.441992 0.488363
O O16 0.452138 0.364402 0.750000
O O17 0.426050 0.429948 0.491849
O O18 0.376940 0.484833 0.750000
O O19 0.249553 0.750000 0.500000
O O20 0.226536 0.679922 0.250000
O O21 0.961128 0.565166 0.250000
O O22 0.000000 0.500000 0.500000
#
# Coordination Sequence:
#
# PCOD9438448 Si02
#       8
#     8   8   8   8   8   8   8   8
#     4   9  20  38  58  81 110 146 188 230 275 331
#     4   9  18  33  54  76 101 137 177 215 259 313
#     4  11  21  31  51  80 104 131 175 222 265 319
#     4   8  16  33  53  75 105 141 174 208 256 317
#     4   9  18  34  51  70 102 141 178 217 264 313
#     4   8  16  31  51  74 101 136 179 216 254 314
#     4  10  21  38  55  73 102 137 175 220 266 316
#     4  10  21  36  57  86 118 148 183 228 277 331
#
# _framework density 20.460766
#
# number of rings (size 3 to 8) (size 9 to 14) (size 15 to 20)
#    0.000    2.750    0.000    2.625    1.750    2.500 
#    0.000    2.500    0.000    2.250    0.000    0.000 
#    0.000    0.000    0.000    0.000    0.000    0.000 
#
# Total GULP energy -356728.644568 kJ/mol
# GULP energy per Si atom -5573.885071 kJ/mol
# Density = 2.041420 g / cm^3
# Si number density = 20.460766 Si / 1000 Ang^3
#
#
#
# Elastic Constant Matrix: (Units=GPa)
#
#
# Indices 1 2 3 4 5 6 
#
# 1 125.0868 40.3214 4.1381 0.0000 0.0000 0.0000
# 2 40.3214 65.7035 -0.6328 0.0000 0.0000 0.0000
# 3 4.1381 -0.6328 14.9761 0.0000 0.0000 0.0000
# 4 0.0000 0.0000 0.0000 22.0278 0.0000 0.0000
# 5 0.0000 0.0000 0.0000 0.0000 2.1255 0.0000
# 6 0.0000 0.0000 0.0000 0.0000 0.0000 7.6735
#
#
#
# Elastic Compliance Matrix: (Units=1/GPa)
#
#
# Indices 1 2 3 4 5 6 
#
# 1 0.010104 -0.006230 -0.003055 0.000000 0.000000 0.000000
# 2 -0.006230 0.019067 0.002527 0.000000 0.000000 0.000000
# 3 -0.003055 0.002527 0.067724 0.000000 0.000000 0.000000
# 4 0.000000 0.000000 0.000000 0.045397 0.000000 0.000000
# 5 0.000000 0.000000 0.000000 0.000000 0.470482 0.000000
# 6 0.000000 0.000000 0.000000 0.000000 0.000000 0.130319
#
#
# Mechanical properties :
#
#
# Convention : Reuss Voigt Hill
#
# Bulk Modulus (GPa) = 11.99339 32.60221 22.29780
# Shear Modulus (GPa) = 6.37428 17.16133 11.76781
#
# Velocity S-wave (km/s) = 1.76696 2.89925 2.40081
# Velocity P-wave (km/s) = 3.16816 5.21307 4.31355
#
# Compressibility (1/GPa) = 0.08337925
#
# Stress axis : x y z
#
# Youngs Moduli (GPa) = 98.97348 52.44537 14.76584
#
# Poissons Ratio (x) = 0.32673 0.04511
# Poissons Ratio (y) = 0.61660 -0.03731
# Poissons Ratio (z) = 0.30237 -0.13253
#
# Static dielectric constant tensor:
#      x y z
#    x 1.739250 0.000000 0.000000 
#    y 0.000000 1.740840 0.000000 
#    z 0.000000 0.000000 1.730150 
# 
# From -- ./inp_files/5709.got.cif
#   From: 2010.05.17/outbox.cif.g08.bks.cpg/sg57_3_cif.got.tgz:5709.got - 2010.06.03 13:58:18.
