data_PCOD9438573
_publ_section_title
;
Structure prediction by ZEFSAII (Michael W. Deem and Ramdas Pophale) SiO2 
 PCOD9438573
Probable space group: P B C M
;
_chemical_formula_sum "Si O2"
_cell_formula_units_Z 44
_cell_length_a 16.278475
_cell_length_b 15.418246
_cell_length_c 7.621601
_cell_angle_alpha 90.000000
_cell_angle_beta 90.000000
_cell_angle_gamma 90.000000
_cell_volume 1912.911582
_symmetry_space_group_name_H-M "P B C M"
_symmetry_group_IT_number 57
_symmetry_cell_setting 'orthorhombic'
loop_
_space_group_symop_operation_xyz
x,y,z
-x,-y,1/2+z
x,1/2-y,-z
-x,1/2+y,1/2-z
-x,-y,-z
x,y,1/2-z
-x,1/2+y,z
x,1/2-y,1/2+z
loop_
_atom_site_type_symbol
_atom_site_label
_atom_site_fract_x
_atom_site_fract_y
_atom_site_fract_z
Si Si1 0.507381 0.654759 0.041346
Si Si2 0.190749 0.127952 0.250000
Si Si3 0.344633 0.928179 0.961652
Si Si4 0.692000 0.876704 0.049319
Si Si5 0.819050 0.347348 0.049487
Si Si6 0.906546 0.519422 0.551978
O O1 0.518394 0.644109 0.250000
O O2 0.437485 0.588454 0.977859
O O3 0.473259 0.750000 0.000000
O O4 0.596396 0.649118 0.955428
O O5 0.252539 0.166872 0.403715
O O6 0.135010 0.080834 0.406695
O O7 0.345631 0.925133 0.750000
O O8 0.311470 0.022243 0.014044
O O9 0.278909 0.858887 0.027632
O O10 0.720750 0.873447 0.250000
O O11 0.841606 0.362392 0.250000
O O12 0.843281 0.250000 0.000000
O O13 0.859991 0.426513 0.946864
O O14 0.903365 0.555849 0.750000
O O15 0.000000 0.500000 0.500000
#
# Coordination Sequence:
#
# PCOD9438573 Si02
#       6
#     8   4   8   8   8   8
#     4  11  23  39  56  86 124 170 219 268 316 365
#     4  12  22  42  66  96 128 160 214 258 302 382
#     4  10  21  37  58  89 126 165 211 260 315 376
#     4  11  22  40  64  90 125 164 213 263 311 369
#     4  12  23  38  60  95 132 169 204 257 320 384
#     4  12  23  42  68 101 129 165 208 257 316 384
#
# _framework density 23.001587000000001
#
# number of rings (size 3 to 8) (size 9 to 14) (size 15 to 20)
#    0.000    0.727    4.545    3.818    0.000    2.909 
#    0.000    0.000    0.000    1.091    4.727    0.000 
#    0.000    0.000    0.000    0.000    0.000    0.000 
#
# Total GULP energy -245184.200507 kJ/mol
# GULP energy per Si atom -5572.368193 kJ/mol
# Density = 2.294923 g / cm^3
# Si number density = 23.001587 Si / 1000 Ang^3
#
#
#
# Elastic Constant Matrix: (Units=GPa)
#
#
# Indices 1 2 3 4 5 6 
#
# 1 127.9452 9.1410 35.6814 0.0000 0.0000 0.0000
# 2 9.1410 44.0347 7.1071 0.0000 0.0000 0.0000
# 3 35.6814 7.1071 175.0940 0.0000 0.0000 0.0000
# 4 0.0000 0.0000 0.0000 19.3505 0.0000 0.0000
# 5 0.0000 0.0000 0.0000 0.0000 0.4045 0.0000
# 6 0.0000 0.0000 0.0000 0.0000 0.0000 8.8955
#
#
#
# Elastic Compliance Matrix: (Units=1/GPa)
#
#
# Indices 1 2 3 4 5 6 
#
# 1 0.008381 -0.001474 -0.001648 0.000000 0.000000 0.000000
# 2 -0.001474 0.023118 -0.000638 0.000000 0.000000 0.000000
# 3 -0.001648 -0.000638 0.006073 0.000000 0.000000 0.000000
# 4 0.000000 0.000000 0.000000 0.051678 0.000000 0.000000
# 5 0.000000 0.000000 0.000000 0.000000 2.472208 0.000000
# 6 0.000000 0.000000 0.000000 0.000000 0.000000 0.112416
#
#
# Mechanical properties :
#
#
# Convention : Reuss Voigt Hill
#
# Bulk Modulus (GPa) = 33.27530 50.10366 41.68948
# Shear Modulus (GPa) = 1.85776 25.40641 13.63209
#
# Velocity S-wave (km/s) = 0.89968 3.32708 2.43710
# Velocity P-wave (km/s) = 3.94679 6.04891 5.10717
#
# Compressibility (1/GPa) = 0.03005232
#
# Stress axis : x y z
#
# Youngs Moduli (GPa) = 119.32119 43.25580 164.66437
#
# Poissons Ratio (x) = 0.06375 0.27137
# Poissons Ratio (y) = 0.17585 0.10506
# Poissons Ratio (z) = 0.19665 0.02760
#
# Static dielectric constant tensor:
#      x y z
#    x 1.866630 0.000000 0.000000 
#    y 0.000000 2.046530 0.000000 
#    z 0.000000 0.000000 2.070330 
# 
# From -- ./inp_files/4486.got.cif
#   From: 2010.05.17/outbox.cif.g08.bks.cpg/sg57_3_cif.got.tgz:4486.got - 2010.06.03 13:58:18.
