data_PCOD9438212
_publ_section_title
;
Structure prediction by ZEFSAII (Michael W. Deem and Ramdas Pophale) SiO2 
 PCOD9438212
Probable space group: P B C M
;
_chemical_formula_sum "Si O2"
_cell_formula_units_Z 48
_cell_length_a 8.806231
_cell_length_b 9.048602
_cell_length_c 28.725866
_cell_angle_alpha 90.000000
_cell_angle_beta 90.000000
_cell_angle_gamma 90.000000
_cell_volume 2288.994188
_symmetry_space_group_name_H-M "P B C M"
_symmetry_group_IT_number 57
_symmetry_cell_setting 'orthorhombic'
loop_
_space_group_symop_operation_xyz
x,y,z
-x,-y,1/2+z
x,1/2-y,-z
-x,1/2+y,1/2-z
-x,-y,-z
x,y,1/2-z
-x,1/2+y,z
x,1/2-y,1/2+z
loop_
_atom_site_type_symbol
_atom_site_label
_atom_site_fract_x
_atom_site_fract_y
_atom_site_fract_z
Si Si1 0.536152 0.693403 0.643036
Si Si2 0.104438 0.889565 0.029998
Si Si3 0.288729 0.892942 0.750000
Si Si4 0.976566 0.766274 0.881949
Si Si5 0.498700 0.335786 0.250000
Si Si6 0.825294 0.505185 0.653563
Si Si7 0.311106 0.033327 0.104474
O O1 0.552578 0.724445 0.698791
O O2 0.675032 0.581620 0.633532
O O3 0.562821 0.837479 0.611363
O O4 0.381432 0.605626 0.632156
O O5 0.994119 0.819847 0.069613
O O6 0.244582 0.972654 0.055526
O O7 0.158078 0.750000 0.000000
O O8 0.000000 0.000000 0.000000
O O9 0.328883 0.720628 0.750000
O O10 0.204122 0.942171 0.795795
O O11 0.443451 0.994881 0.750000
O O12 0.948970 0.635971 0.845418
O O13 0.836866 0.879604 0.876876
O O14 0.121761 0.868189 0.876768
#
# Coordination Sequence:
#
# PCOD9438212 Si02
#       7
#     8   8   4   8   4   8   8
#     4  10  23  41  68 104 137 182 231 274 338 391
#     4  12  24  45  73  97 124 175 235 279 350 430
#     4  10  22  36  58  92 138 172 226 272 326 399
#     4  11  22  42  70  92 130 178 229 275 353 407
#     4  10  20  40  62  94 140 188 224 258 324 419
#     4  10  22  39  62  97 133 175 224 274 329 415
#     4  11  24  42  70 101 137 178 224 289 339 419
#
# _framework density 20.969909999999999
#
# number of rings (size 3 to 8) (size 9 to 14) (size 15 to 20)
#    0.000    1.333    3.333    2.000    4.667    0.667 
#    0.000    2.500    0.000    0.000    0.000    0.000 
#    0.000    0.000    0.000    0.000    0.000    0.000 
#
# Total GULP energy -267363.152867 kJ/mol
# GULP energy per Si atom -5570.065685 kJ/mol
# Density = 2.092218 g / cm^3
# Si number density = 20.969910 Si / 1000 Ang^3
#
#
#
# Elastic Constant Matrix: (Units=GPa)
#
#
# Indices 1 2 3 4 5 6 
#
# 1 54.6972 61.6684 42.7154 0.0000 0.0000 0.0000
# 2 61.6684 126.6091 70.4334 0.0000 0.0000 0.0000
# 3 42.7154 70.4334 90.2327 0.0000 0.0000 0.0000
# 4 0.0000 0.0000 0.0000 34.4819 0.0000 0.0000
# 5 0.0000 0.0000 0.0000 0.0000 26.0470 0.0000
# 6 0.0000 0.0000 0.0000 0.0000 0.0000 57.2034
#
#
#
# Elastic Compliance Matrix: (Units=1/GPa)
#
#
# Indices 1 2 3 4 5 6 
#
# 1 0.042965 -0.016990 -0.007077 0.000000 0.000000 0.000000
# 2 -0.016990 0.020679 -0.008099 0.000000 0.000000 0.000000
# 3 -0.007077 -0.008099 0.020754 0.000000 0.000000 0.000000
# 4 0.000000 0.000000 0.000000 0.029001 0.000000 0.000000
# 5 0.000000 0.000000 0.000000 0.000000 0.038392 0.000000
# 6 0.000000 0.000000 0.000000 0.000000 0.000000 0.017481
#
#
# Mechanical properties :
#
#
# Convention : Reuss Voigt Hill
#
# Bulk Modulus (GPa) = 49.83435 69.01926 59.42681
# Shear Modulus (GPa) = 20.80791 29.99456 25.40124
#
# Velocity S-wave (km/s) = 3.15346 3.78612 3.48418
# Velocity P-wave (km/s) = 6.08895 7.21788 6.67732
#
# Compressibility (1/GPa) = 0.02006648
#
# Stress axis : x y z
#
# Youngs Moduli (GPa) = 23.27488 48.35798 48.18276
#
# Poissons Ratio (x) = 0.82161 0.34100
# Poissons Ratio (y) = 0.39544 0.39021
# Poissons Ratio (z) = 0.16472 0.39163
#
# Static dielectric constant tensor:
#      x y z
#    x 1.800930 0.000000 0.000000 
#    y 0.000000 1.806950 0.000000 
#    z 0.000000 0.000000 1.763550 
# 
# From -- ./inp_files/29518.got.cif
#   From: 2010.05.17/outbox.cif.g08.bks.cpg/sg57_15_cif.got.tgz:29518.got - 2010.06.03 13:58:18.
