data_PCOD9439558
_publ_section_title
;
Structure prediction by ZEFSAII (Michael W. Deem and Ramdas Pophale) SiO2 
 PCOD9439558
Probable space group: P B C M
;
_chemical_formula_sum "Si O2"
_cell_formula_units_Z 32
_cell_length_a 6.585420
_cell_length_b 15.863234
_cell_length_c 13.004732
_cell_angle_alpha 90.000000
_cell_angle_beta 90.000000
_cell_angle_gamma 90.000000
_cell_volume 1358.553093
_symmetry_space_group_name_H-M "P B C M"
_symmetry_group_IT_number 57
_symmetry_cell_setting 'orthorhombic'
loop_
_space_group_symop_operation_xyz
x,y,z
-x,-y,1/2+z
x,1/2-y,-z
-x,1/2+y,1/2-z
-x,-y,-z
x,y,1/2-z
-x,1/2+y,z
x,1/2-y,1/2+z
loop_
_atom_site_type_symbol
_atom_site_label
_atom_site_fract_x
_atom_site_fract_y
_atom_site_fract_z
Si Si1 0.831286 0.051035 0.567988
Si Si2 0.707914 0.318961 0.576319
Si Si3 0.603824 0.739623 0.250000
Si Si4 0.067520 0.114302 0.750000
Si Si5 0.343667 0.059614 0.250000
Si Si6 0.828130 0.082507 0.250000
O O1 0.667331 0.099721 0.496828
O O2 0.940444 0.119609 0.644062
O O3 0.722267 0.989031 0.648044
O O4 0.000000 0.000000 0.500000
O O5 0.789881 0.250000 0.500000
O O6 0.537467 0.273460 0.647614
O O7 0.869569 0.360619 0.651996
O O8 0.738693 0.824008 0.250000
O O9 0.736568 0.654718 0.250000
O O10 0.107373 0.013274 0.750000
O O11 0.584092 0.071298 0.250000
#
# Coordination Sequence:
#
# PCOD9439558 Si02
#       6
#     8   8   4   4   4   4
#     4  11  23  42  68 101 138 182 226 288 360 415
#     4  10  23  42  68 101 135 181 226 283 343 413
#     4  10  26  44  67 102 137 179 236 288 330 424
#     4  11  24  42  69 102 140 178 236 293 340 405
#     4   9  24  40  65  96 131 185 222 286 349 408
#     4  10  22  42  67  96 140 176 234 277 327 433
#
# _framework density 23.554470999999999
#
# number of rings (size 3 to 8) (size 9 to 14) (size 15 to 20)
#    0.000    2.000    2.500    0.000    3.500   13.000 
#    0.000    0.000    0.000    0.000    0.000    0.000 
#    0.000    0.000    0.000    0.000    0.000    0.000 
#
# Total GULP energy -178274.067161 kJ/mol
# GULP energy per Si atom -5571.064599 kJ/mol
# Density = 2.350086 g / cm^3
# Si number density = 23.554471 Si / 1000 Ang^3
#
#
#
# Elastic Constant Matrix: (Units=GPa)
#
#
# Indices 1 2 3 4 5 6 
#
# 1 87.8684 16.5558 38.7399 0.0000 0.0000 0.0000
# 2 16.5558 134.7269 79.8844 0.0000 0.0000 0.0000
# 3 38.7399 79.8844 167.8419 0.0000 0.0000 0.0000
# 4 0.0000 0.0000 0.0000 46.9040 0.0000 0.0000
# 5 0.0000 0.0000 0.0000 0.0000 19.5976 0.0000
# 6 0.0000 0.0000 0.0000 0.0000 0.0000 0.7721
#
#
#
# Elastic Compliance Matrix: (Units=1/GPa)
#
#
# Indices 1 2 3 4 5 6 
#
# 1 0.012676 0.000247 -0.003043 0.000000 0.000000 0.000000
# 2 0.000247 0.010345 -0.004981 0.000000 0.000000 0.000000
# 3 -0.003043 -0.004981 0.009031 0.000000 0.000000 0.000000
# 4 0.000000 0.000000 0.000000 0.021320 0.000000 0.000000
# 5 0.000000 0.000000 0.000000 0.000000 0.051027 0.000000
# 6 0.000000 0.000000 0.000000 0.000000 0.000000 1.295228
#
#
# Mechanical properties :
#
#
# Convention : Reuss Voigt Hill
#
# Bulk Modulus (GPa) = 60.61438 73.42192 67.01815
# Shear Modulus (GPa) = 3.51944 30.47189 16.99567
#
# Velocity S-wave (km/s) = 1.22369 3.60067 2.68908
# Velocity P-wave (km/s) = 5.27125 6.96601 6.17703
#
# Compressibility (1/GPa) = 0.01649774
#
# Stress axis : x y z
#
# Youngs Moduli (GPa) = 78.89016 96.66109 110.72942
#
# Poissons Ratio (x) = -0.02385 0.33697
# Poissons Ratio (y) = -0.01947 0.55153
# Poissons Ratio (z) = 0.24008 0.48145
#
# Static dielectric constant tensor:
#      x y z
#    x 1.920100 0.000000 0.000000 
#    y 0.000000 1.913840 0.000000 
#    z 0.000000 0.000000 1.999040 
# 
# From -- ./inp_files/11453.got.cif
#   From: 2010.05.17/outbox.cif.g08.bks.cpg/sg57_6_cif.got.tgz:11453.got - 2010.06.03 13:58:18.
