data_PCOD9439525
_publ_section_title
;
Structure prediction by ZEFSAII (Michael W. Deem and Ramdas Pophale) SiO2 
 PCOD9439525
Probable space group: P B C M
;
_chemical_formula_sum "Si O2"
_cell_formula_units_Z 40
_cell_length_a 26.146477
_cell_length_b 7.659820
_cell_length_c 9.613360
_cell_angle_alpha 90.000000
_cell_angle_beta 90.000000
_cell_angle_gamma 90.000000
_cell_volume 1925.337856
_symmetry_space_group_name_H-M "P B C M"
_symmetry_group_IT_number 57
_symmetry_cell_setting 'orthorhombic'
loop_
_space_group_symop_operation_xyz
x,y,z
-x,-y,1/2+z
x,1/2-y,-z
-x,1/2+y,1/2-z
-x,-y,-z
x,y,1/2-z
-x,1/2+y,z
x,1/2-y,1/2+z
loop_
_atom_site_type_symbol
_atom_site_label
_atom_site_fract_x
_atom_site_fract_y
_atom_site_fract_z
Si Si1 0.374125 0.750000 0.500000
Si Si2 0.955458 0.414505 0.407844
Si Si3 0.699968 0.163623 0.750000
Si Si4 0.846439 0.546744 0.024351
Si Si5 0.793027 0.051520 0.250000
Si Si6 0.767032 0.638187 0.250000
Si Si7 0.550969 0.932005 0.420188
O O1 0.335818 0.802704 0.379408
O O2 0.408349 0.586372 0.449390
O O3 0.944074 0.250000 0.500000
O O4 0.973591 0.385108 0.250000
O O5 0.899532 0.498160 0.404780
O O6 0.000000 0.500000 0.500000
O O7 0.748921 0.299922 0.750000
O O8 0.713758 0.958166 0.750000
O O9 0.797032 0.553564 0.120925
O O10 0.855151 0.750000 0.000000
O O11 0.829898 0.443307 0.885584
O O12 0.770494 0.849575 0.250000
O O13 0.564618 0.750000 0.500000
O O14 0.544587 0.909958 0.250000
O O15 0.500000 0.000000 0.500000
#
# Coordination Sequence:
#
# PCOD9439525 Si02
#       7
#     4   8   4   8   4   4   8
#     4  12  28  48  70 114 156 194 248 310 378 428
#     4  12  27  44  67  98 136 177 225 288 363 438
#     4  12  26  44  72 102 150 196 244 308 364 436
#     4  10  22  41  67  98 134 177 233 290 353 431
#     4  10  24  40  69 103 136 187 245 300 354 429
#     4  10  22  44  67  97 138 187 245 300 356 429
#     4  12  27  47  80 113 152 199 253 310 373 449
#
# _framework density 20.775575
#
# number of rings (size 3 to 8) (size 9 to 14) (size 15 to 20)
#    0.000    0.800    3.000    3.000    8.400    1.600 
#    0.000    0.000    0.000    0.000    0.000    0.000 
#    0.000    0.000    0.000    0.000    0.000    0.000 
#
# Total GULP energy -222992.253833 kJ/mol
# GULP energy per Si atom -5574.806346 kJ/mol
# Density = 2.072829 g / cm^3
# Si number density = 20.775575 Si / 1000 Ang^3
#
#
#
# Elastic Constant Matrix: (Units=GPa)
#
#
# Indices 1 2 3 4 5 6 
#
# 1 75.9203 45.0160 24.7727 0.0000 0.0000 0.0000
# 2 45.0160 79.6178 39.5858 0.0000 0.0000 0.0000
# 3 24.7727 39.5858 173.7130 0.0000 0.0000 0.0000
# 4 0.0000 0.0000 0.0000 28.4079 0.0000 0.0000
# 5 0.0000 0.0000 0.0000 0.0000 37.5997 0.0000
# 6 0.0000 0.0000 0.0000 0.0000 0.0000 3104.2020
#
#
#
# Elastic Compliance Matrix: (Units=1/GPa)
#
#
# Indices 1 2 3 4 5 6 
#
# 1 0.019829 -0.011058 -0.000308 0.000000 0.000000 0.000000
# 2 -0.011058 0.020332 -0.003056 0.000000 0.000000 0.000000
# 3 -0.000308 -0.003056 0.006497 0.000000 0.000000 0.000000
# 4 0.000000 0.000000 0.000000 0.035202 0.000000 0.000000
# 5 0.000000 0.000000 0.000000 0.000000 0.026596 0.000000
# 6 0.000000 0.000000 0.000000 0.000000 0.000000 0.000322
#
#
# Mechanical properties :
#
#
# Convention : Reuss Voigt Hill
#
# Bulk Modulus (GPa) = 56.13809 60.88891 58.51350
# Shear Modulus (GPa) = 34.82860 648.70035 341.76447
#
# Velocity S-wave (km/s) = 4.09885 17.68954 12.83979
# Velocity P-wave (km/s) = 7.03425 21.13286 15.74926
#
# Compressibility (1/GPa) = 0.01781322
#
# Stress axis : x y z
#
# Youngs Moduli (GPa) = 50.43109 49.18360 153.91771
#
# Poissons Ratio (x) = 0.54389 0.04737
# Poissons Ratio (y) = 0.55768 0.47041
# Poissons Ratio (z) = 0.01552 0.15032
#
# Static dielectric constant tensor:
#      x y z
#    x 1.617110 0.000000 0.000000 
#    y 0.000000 1.561490 0.000000 
#    z 0.000000 0.000000 1.732910 
# 
# From -- ./inp_files/9023.got.cif
#   From: 2010.05.17/outbox.cif.g08.bks.cpg/sg57_5_cif.got.tgz:9023.got - 2010.06.03 13:58:18.
