data_PCOD9439113
_publ_section_title
;
Structure prediction by ZEFSAII (Michael W. Deem and Ramdas Pophale) SiO2 
 PCOD9439113
Probable space group: P B C M
;
_chemical_formula_sum "Si O2"
_cell_formula_units_Z 48
_cell_length_a 16.735957
_cell_length_b 9.325785
_cell_length_c 15.617812
_cell_angle_alpha 90.000000
_cell_angle_beta 90.000000
_cell_angle_gamma 90.000000
_cell_volume 2437.564638
_symmetry_space_group_name_H-M "P B C M"
_symmetry_group_IT_number 57
_symmetry_cell_setting 'orthorhombic'
loop_
_space_group_symop_operation_xyz
x,y,z
-x,-y,1/2+z
x,1/2-y,-z
-x,1/2+y,1/2-z
-x,-y,-z
x,y,1/2-z
-x,1/2+y,z
x,1/2-y,1/2+z
loop_
_atom_site_type_symbol
_atom_site_label
_atom_site_fract_x
_atom_site_fract_y
_atom_site_fract_z
Si Si1 0.134999 0.565015 0.347732
Si Si2 0.458324 0.392528 0.250000
Si Si3 0.024671 0.120746 0.066805
Si Si4 0.179259 0.244339 0.102058
Si Si5 0.609909 0.212509 0.250000
Si Si6 0.350162 0.180224 0.908914
Si Si7 0.704435 0.149411 0.079309
O O1 0.158542 0.588997 0.250000
O O2 0.046950 0.622951 0.366004
O O3 0.141592 0.393800 0.365019
O O4 0.200163 0.639451 0.407933
O O5 0.549757 0.345218 0.250000
O O6 0.440584 0.562853 0.250000
O O7 0.416748 0.329024 0.164389
O O8 0.111556 0.122423 0.112480
O O9 0.026708 0.250000 0.000000
O O10 0.000000 0.000000 0.000000
O O11 0.271301 0.240987 0.131326
O O12 0.191527 0.250000 0.000000
O O13 0.663881 0.208143 0.165387
O O14 0.323698 0.015971 0.928981
O O15 0.373907 0.250000 0.000000
O O16 0.683809 0.250000 0.000000
#
# Coordination Sequence:
#
# PCOD9439113 Si02
#       7
#     8   4   8   8   4   8   8
#     4  11  21  36  60  87 119 158 206 253 300 359
#     4  10  22  40  66  89 126 160 195 254 313 369
#     4  11  20  37  58  82 119 162 205 250 303 353
#     4   9  18  35  59  80 113 153 201 240 289 351
#     4  10  22  42  64  95 122 160 203 246 313 383
#     4   9  20  38  62  89 117 158 208 243 306 373
#     4  10  21  40  65  90 120 164 204 255 308 368
#
# _framework density 19.691784999999999
#
# number of rings (size 3 to 8) (size 9 to 14) (size 15 to 20)
#    0.000    2.000    4.167    0.500    3.500    2.667 
#    0.000    3.333    0.000    0.000    0.000    0.000 
#    0.000    0.000    0.000    0.000    0.000    0.000 
#
# Total GULP energy -267441.922971 kJ/mol
# GULP energy per Si atom -5571.706729 kJ/mol
# Density = 1.964697 g / cm^3
# Si number density = 19.691785 Si / 1000 Ang^3
#
#
#
# Elastic Constant Matrix: (Units=GPa)
#
#
# Indices 1 2 3 4 5 6 
#
# 1 49.4197 10.0320 8.6635 0.0000 0.0000 0.0000
# 2 10.0320 34.4277 23.6802 0.0000 0.0000 0.0000
# 3 8.6635 23.6802 97.9220 0.0000 0.0000 0.0000
# 4 0.0000 0.0000 0.0000 26.5063 0.0000 0.0000
# 5 0.0000 0.0000 0.0000 0.0000 13.0447 0.0000
# 6 0.0000 0.0000 0.0000 0.0000 0.0000 27.9195
#
#
#
# Elastic Compliance Matrix: (Units=1/GPa)
#
#
# Indices 1 2 3 4 5 6 
#
# 1 0.021525 -0.005952 -0.000465 0.000000 0.000000 0.000000
# 2 -0.005952 0.036488 -0.008297 0.000000 0.000000 0.000000
# 3 -0.000465 -0.008297 0.012260 0.000000 0.000000 0.000000
# 4 0.000000 0.000000 0.000000 0.037727 0.000000 0.000000
# 5 0.000000 0.000000 0.000000 0.000000 0.076659 0.000000
# 6 0.000000 0.000000 0.000000 0.000000 0.000000 0.035817
#
#
# Mechanical properties :
#
#
# Convention : Reuss Voigt Hill
#
# Bulk Modulus (GPa) = 24.48373 29.61344 27.04858
# Shear Modulus (GPa) = 18.97396 22.78702 20.88049
#
# Velocity S-wave (km/s) = 3.10747 3.40543 3.25986
# Velocity P-wave (km/s) = 5.03345 5.52573 5.28533
#
# Compressibility (1/GPa) = 0.04084345
#
# Stress axis : x y z
#
# Youngs Moduli (GPa) = 46.45838 27.40640 81.56727
#
# Poissons Ratio (x) = 0.16313 0.03792
# Poissons Ratio (y) = 0.27654 0.67677
# Poissons Ratio (z) = 0.02160 0.22739
#
# Static dielectric constant tensor:
#      x y z
#    x 1.783470 0.000000 0.000000 
#    y 0.000000 1.685750 0.000000 
#    z 0.000000 0.000000 2.536910 
# 
# From -- ./inp_files/18990.got.cif
#   From: 2010.05.17/outbox.cif.g08.bks.cpg/sg57_10_cif.got.tgz:18990.got - 2010.06.03 13:58:18.
