data_PCOD9439304
_publ_section_title
;
Structure prediction by ZEFSAII (Michael W. Deem and Ramdas Pophale) SiO2 
 PCOD9439304
Probable space group: P B C M
;
_chemical_formula_sum "Si O2"
_cell_formula_units_Z 40
_cell_length_a 18.657314
_cell_length_b 5.213497
_cell_length_c 16.428199
_cell_angle_alpha 90.000000
_cell_angle_beta 90.000000
_cell_angle_gamma 90.000000
_cell_volume 1597.968462
_symmetry_space_group_name_H-M "P B C M"
_symmetry_group_IT_number 57
_symmetry_cell_setting 'orthorhombic'
loop_
_space_group_symop_operation_xyz
x,y,z
-x,-y,1/2+z
x,1/2-y,-z
-x,1/2+y,1/2-z
-x,-y,-z
x,y,1/2-z
-x,1/2+y,z
x,1/2-y,1/2+z
loop_
_atom_site_type_symbol
_atom_site_label
_atom_site_fract_x
_atom_site_fract_y
_atom_site_fract_z
Si Si1 0.452877 0.735281 0.151499
Si Si2 0.326217 0.234387 0.250000
Si Si3 0.027191 0.872350 0.590842
Si Si4 0.345556 0.395771 0.081027
Si Si5 0.769522 0.245012 0.250000
Si Si6 0.186908 0.587657 0.081785
O O1 0.438013 0.733364 0.250000
O O2 0.496465 0.990833 0.132332
O O3 0.381668 0.673128 0.098298
O O4 0.366449 0.252916 0.164955
O O5 0.273369 0.477352 0.250000
O O6 0.284038 0.976035 0.250000
O O7 0.011311 0.750000 0.500000
O O8 0.105248 0.007780 0.584798
O O9 0.022582 0.589257 0.631687
O O10 0.258487 0.414532 0.080225
O O11 0.368405 0.250000 0.000000
O O12 0.809473 0.250621 0.335352
O O13 0.192362 0.750000 0.000000
#
# Coordination Sequence:
#
# PCOD9439304 Si02
#       6
#     8   4   8   8   4   8
#     4  10  23  44  67  93 128 170 212 261 319 382
#     4  10  22  40  58  90 128 162 205 258 313 380
#     4   9  19  36  60  87 123 169 212 258 316 376
#     4  11  23  40  67  98 130 170 214 269 323 381
#     4  10  22  38  60  88 126 166 203 258 323 368
#     4  10  22  40  64  97 131 168 218 269 319 383
#
# _framework density 25.031783000000001
#
# number of rings (size 3 to 8) (size 9 to 14) (size 15 to 20)
#    0.000    2.000    1.000    1.200    0.000   12.800 
#    0.000    1.000    0.000    0.000    0.000    0.000 
#    0.000    0.000    0.000    0.000    0.000    0.000 
#
# Total GULP energy -223219.430713 kJ/mol
# GULP energy per Si atom -5580.485768 kJ/mol
# Density = 2.497481 g / cm^3
# Si number density = 25.031783 Si / 1000 Ang^3
#
#
#
# Elastic Constant Matrix: (Units=GPa)
#
#
# Indices 1 2 3 4 5 6 
#
# 1 141.1901 36.0938 8.0344 0.0000 0.0000 0.0000
# 2 36.0938 112.5919 4.7734 0.0000 0.0000 0.0000
# 3 8.0344 4.7734 154.0160 0.0000 0.0000 0.0000
# 4 0.0000 0.0000 0.0000 17.9971 0.0000 0.0000
# 5 0.0000 0.0000 0.0000 0.0000 61.3253 0.0000
# 6 0.0000 0.0000 0.0000 0.0000 0.0000 48.5592
#
#
#
# Elastic Compliance Matrix: (Units=1/GPa)
#
#
# Indices 1 2 3 4 5 6 
#
# 1 0.007731 -0.002465 -0.000327 0.000000 0.000000 0.000000
# 2 -0.002465 0.009679 -0.000171 0.000000 0.000000 0.000000
# 3 -0.000327 -0.000171 0.006515 0.000000 0.000000 0.000000
# 4 0.000000 0.000000 0.000000 0.055565 0.000000 0.000000
# 5 0.000000 0.000000 0.000000 0.000000 0.016306 0.000000
# 6 0.000000 0.000000 0.000000 0.000000 0.000000 0.020593
#
#
# Mechanical properties :
#
#
# Convention : Reuss Voigt Hill
#
# Bulk Modulus (GPa) = 55.55667 56.17791 55.86729
# Shear Modulus (GPa) = 38.96639 49.50274 44.23456
#
# Velocity S-wave (km/s) = 3.94975 4.45184 4.20829
# Velocity P-wave (km/s) = 6.56075 6.99404 6.78085
#
# Compressibility (1/GPa) = 0.01799964
#
# Stress axis : x y z
#
# Youngs Moduli (GPa) = 129.34438 103.31673 153.48731
#
# Poissons Ratio (x) = 0.25463 0.05018
# Poissons Ratio (y) = 0.31878 0.02631
# Poissons Ratio (z) = 0.04229 0.01771
#
# Static dielectric constant tensor:
#      x y z
#    x 2.077910 0.000000 0.000000 
#    y 0.000000 2.127320 0.000000 
#    z 0.000000 0.000000 2.140930 
# 
# From -- ./inp_files/22787.got.cif
#   From: 2010.05.17/outbox.cif.g08.bks.cpg/sg57_12_cif.got.tgz:22787.got - 2010.06.03 13:58:18.
