data_PCOD9439517
_publ_section_title
;
Structure prediction by ZEFSAII (Michael W. Deem and Ramdas Pophale) SiO2 
 PCOD9439517
Probable space group: P B C M
;
_chemical_formula_sum "Si O2"
_cell_formula_units_Z 40
_cell_length_a 5.125204
_cell_length_b 19.235464
_cell_length_c 19.287662
_cell_angle_alpha 90.000000
_cell_angle_beta 90.000000
_cell_angle_gamma 90.000000
_cell_volume 1901.487217
_symmetry_space_group_name_H-M "P B C M"
_symmetry_group_IT_number 57
_symmetry_cell_setting 'orthorhombic'
loop_
_space_group_symop_operation_xyz
x,y,z
-x,-y,1/2+z
x,1/2-y,-z
-x,1/2+y,1/2-z
-x,-y,-z
x,y,1/2-z
-x,1/2+y,z
x,1/2-y,1/2+z
loop_
_atom_site_type_symbol
_atom_site_label
_atom_site_fract_x
_atom_site_fract_y
_atom_site_fract_z
Si Si1 0.160129 0.912714 0.449664
Si Si2 0.329539 0.470963 0.388417
Si Si3 0.922578 0.842500 0.326941
Si Si4 0.679732 0.807980 0.831423
Si Si5 0.812753 0.123950 0.392194
O O1 0.386784 0.961973 0.420601
O O2 0.214165 0.882601 0.524882
O O3 0.883429 0.952284 0.447614
O O4 0.122162 0.853977 0.390194
O O5 0.264574 0.410225 0.333647
O O6 0.266242 0.547922 0.363298
O O7 0.041790 0.840538 0.250000
O O8 0.763919 0.772125 0.337956
O O9 0.682808 0.825741 0.750000
O O10 0.395897 0.822370 0.862015
O O11 0.897900 0.853756 0.870505
#
# Coordination Sequence:
#
# PCOD9439517 Si02
#       5
#     8   8   8   8   8
#     4  10  22  41  69  97 127 172 218 271 330 378
#     4  10  22  41  66  99 127 172 217 268 326 386
#     4   9  24  44  64  92 135 176 219 264 324 391
#     4  11  26  44  63  93 137 178 212 272 336 387
#     4  12  23  43  69  98 135 166 222 276 326 393
#
# _framework density 21.036166999999999
#
# number of rings (size 3 to 8) (size 9 to 14) (size 15 to 20)
#    1.200    0.400    0.000    4.200    2.800    3.200 
#    0.000    0.000    0.000    0.000    0.000    0.000 
#    0.000    0.000    0.000    0.000    0.000    0.000 
#
# Total GULP energy -223320.985414 kJ/mol
# GULP energy per Si atom -5583.024635 kJ/mol
# Density = 2.098829 g / cm^3
# Si number density = 21.036167 Si / 1000 Ang^3
#
#
#
# Elastic Constant Matrix: (Units=GPa)
#
#
# Indices 1 2 3 4 5 6 
#
# 1 57.5088 -13.9115 -7.7268 0.0000 0.0000 0.0000
# 2 -13.9115 76.5724 27.9348 0.0000 0.0000 0.0000
# 3 -7.7268 27.9348 49.3975 0.0000 0.0000 0.0000
# 4 0.0000 0.0000 0.0000 24.6535 0.0000 0.0000
# 5 0.0000 0.0000 0.0000 0.0000 19.3716 0.0000
# 6 0.0000 0.0000 0.0000 0.0000 0.0000 25.4438
#
#
#
# Elastic Compliance Matrix: (Units=1/GPa)
#
#
# Indices 1 2 3 4 5 6 
#
# 1 0.018247 0.002865 0.001234 0.000000 0.000000 0.000000
# 2 0.002865 0.016904 -0.009111 0.000000 0.000000 0.000000
# 3 0.001234 -0.009111 0.025590 0.000000 0.000000 0.000000
# 4 0.000000 0.000000 0.000000 0.040562 0.000000 0.000000
# 5 0.000000 0.000000 0.000000 0.000000 0.051622 0.000000
# 6 0.000000 0.000000 0.000000 0.000000 0.000000 0.039302
#
#
# Mechanical properties :
#
#
# Convention : Reuss Voigt Hill
#
# Bulk Modulus (GPa) = 19.71741 21.78575 20.75158
# Shear Modulus (GPa) = 22.81468 25.70594 24.26031
#
# Velocity S-wave (km/s) = 3.29682 3.49949 3.39966
# Velocity P-wave (km/s) = 4.88727 5.16792 5.02955
#
# Compressibility (1/GPa) = 0.05071660
#
# Stress axis : x y z
#
# Youngs Moduli (GPa) = 54.80204 59.15775 39.07852
#
# Poissons Ratio (x) = -0.16948 -0.04823
# Poissons Ratio (y) = -0.15700 0.35605
# Poissons Ratio (z) = -0.06763 0.53900
#
# Static dielectric constant tensor:
#      x y z
#    x 1.723140 0.000000 0.000000 
#    y 0.000000 1.778080 0.000000 
#    z 0.000000 0.000000 1.736330 
# 
# From -- ./inp_files/20106.got.cif
#   From: 2010.05.17/outbox.cif.g08.bks.cpg/sg57_11_cif.got.tgz:20106.got - 2010.06.03 13:58:18.
