data_PCOD9439553
_publ_section_title
;
Structure prediction by ZEFSAII (Michael W. Deem and Ramdas Pophale) SiO2 
 PCOD9439553
Probable space group: P B C M
;
_chemical_formula_sum "Si O2"
_cell_formula_units_Z 48
_cell_length_a 9.827907
_cell_length_b 16.471228
_cell_length_c 14.739010
_cell_angle_alpha 90.000000
_cell_angle_beta 90.000000
_cell_angle_gamma 90.000000
_cell_volume 2385.916994
_symmetry_space_group_name_H-M "P B C M"
_symmetry_group_IT_number 57
_symmetry_cell_setting 'orthorhombic'
loop_
_space_group_symop_operation_xyz
x,y,z
-x,-y,1/2+z
x,1/2-y,-z
-x,1/2+y,1/2-z
-x,-y,-z
x,y,1/2-z
-x,1/2+y,z
x,1/2-y,1/2+z
loop_
_atom_site_type_symbol
_atom_site_label
_atom_site_fract_x
_atom_site_fract_y
_atom_site_fract_z
Si Si1 0.383689 0.960412 0.439533
Si Si2 0.864170 0.993313 0.059578
Si Si3 0.989504 0.769347 0.750000
Si Si4 0.695963 0.231991 0.750000
Si Si5 0.981477 0.455692 0.750000
Si Si6 0.495699 0.214664 0.599723
Si Si7 0.811397 0.802832 0.091686
Si Si8 0.729080 0.035023 0.750000
O O1 0.447301 0.875354 0.411277
O O2 0.337654 0.998765 0.342920
O O3 0.500000 0.000000 0.500000
O O4 0.251756 0.959456 0.503836
O O5 0.824102 0.898380 0.069428
O O6 0.894698 0.028453 0.159267
O O7 0.000000 0.000000 0.000000
O O8 0.957901 0.864982 0.750000
O O9 0.924956 0.725540 0.837300
O O10 0.152469 0.764659 0.750000
O O11 0.603999 0.257424 0.664605
O O12 0.712059 0.133217 0.750000
O O13 0.111026 0.515575 0.750000
O O14 0.493494 0.250000 0.500000
O O15 0.339589 0.213056 0.632126
O O16 0.824740 0.750000 0.000000
#
# Coordination Sequence:
#
# PCOD9439553 Si02
#       8
#     8   8   4   4   4   8   8   4
#     4  11  23  42  67 100 131 175 228 277 340 408
#     4  12  24  42  70  97 137 175 226 279 338 407
#     4  12  27  41  65  98 132 168 227 275 335 405
#     4  10  23  42  61  96 126 173 213 273 343 385
#     4  12  26  43  65 103 133 180 224 280 343 402
#     4  10  23  42  67  91 134 174 222 276 339 402
#     4  11  24  44  68  96 128 180 222 271 336 407
#     4  10  22  42  67  87 135 175 212 272 339 402
#
# _framework density 20.118051000000001
#
# number of rings (size 3 to 8) (size 9 to 14) (size 15 to 20)
#    0.000    1.000    3.333    3.000    4.667    1.333 
#    0.000    0.833    0.000    0.000    0.000    0.000 
#    0.000    0.000    0.000    0.000    0.000    0.000 
#
# Total GULP energy -268095.951838 kJ/mol
# GULP energy per Si atom -5585.332330 kJ/mol
# Density = 2.007226 g / cm^3
# Si number density = 20.118051 Si / 1000 Ang^3
#
#
#
# Elastic Constant Matrix: (Units=GPa)
#
#
# Indices 1 2 3 4 5 6 
#
# 1 138.0672 -24.7655 48.3038 0.0000 0.0000 0.0000
# 2 -24.7655 17.8204 -13.6497 0.0000 0.0000 0.0000
# 3 48.3038 -13.6497 133.7404 0.0000 0.0000 0.0000
# 4 0.0000 0.0000 0.0000 20.5622 0.0000 0.0000
# 5 0.0000 0.0000 0.0000 0.0000 62.9337 0.0000
# 6 0.0000 0.0000 0.0000 0.0000 0.0000 20.7033
#
#
#
# Elastic Compliance Matrix: (Units=1/GPa)
#
#
# Indices 1 2 3 4 5 6 
#
# 1 0.010344 0.012491 -0.002461 0.000000 0.000000 0.000000
# 2 0.012491 0.075956 0.003241 0.000000 0.000000 0.000000
# 3 -0.002461 0.003241 0.008697 0.000000 0.000000 0.000000
# 4 0.000000 0.000000 0.000000 0.048633 0.000000 0.000000
# 5 0.000000 0.000000 0.000000 0.000000 0.015890 0.000000
# 6 0.000000 0.000000 0.000000 0.000000 0.000000 0.048302
#
#
# Mechanical properties :
#
#
# Convention : Reuss Voigt Hill
#
# Bulk Modulus (GPa) = 8.22788 34.37837 21.30312
# Shear Modulus (GPa) = 22.54342 39.48913 31.01627
#
# Velocity S-wave (km/s) = 3.35110 4.43524 3.93073
# Velocity P-wave (km/s) = 4.36714 6.58436 5.58685
#
# Compressibility (1/GPa) = 0.12153803
#
# Stress axis : x y z
#
# Youngs Moduli (GPa) = 96.67009 13.16546 114.98326
#
# Poissons Ratio (x) = -0.16445 0.28302
# Poissons Ratio (y) = -1.20747 -0.37264
# Poissons Ratio (z) = 0.23794 -0.04267
#
# Static dielectric constant tensor:
#      x y z
#    x 1.723990 0.000000 0.000000 
#    y 0.000000 1.689800 0.000000 
#    z 0.000000 0.000000 1.747460 
# 
# From -- ./inp_files/16461.got.cif
#   From: 2010.05.17/outbox.cif.g08.bks.cpg/sg57_9_cif.got.tgz:16461.got - 2010.06.03 13:58:18.
