data_PCOD9439422
_publ_section_title
;
Structure prediction by ZEFSAII (Michael W. Deem and Ramdas Pophale) SiO2 
 PCOD9439422
Probable space group: P B C M
;
_chemical_formula_sum "Si O2"
_cell_formula_units_Z 40
_cell_length_a 5.637064
_cell_length_b 23.764408
_cell_length_c 14.262981
_cell_angle_alpha 90.000000
_cell_angle_beta 90.000000
_cell_angle_gamma 90.000000
_cell_volume 1910.690170
_symmetry_space_group_name_H-M "P B C M"
_symmetry_group_IT_number 57
_symmetry_cell_setting 'orthorhombic'
loop_
_space_group_symop_operation_xyz
x,y,z
-x,-y,1/2+z
x,1/2-y,-z
-x,1/2+y,1/2-z
-x,-y,-z
x,y,1/2-z
-x,1/2+y,z
x,1/2-y,1/2+z
loop_
_atom_site_type_symbol
_atom_site_label
_atom_site_fract_x
_atom_site_fract_y
_atom_site_fract_z
Si Si1 0.917052 0.910000 0.534335
Si Si2 0.307128 0.978699 0.427393
Si Si3 0.591253 0.614844 0.853546
Si Si4 0.593541 0.262650 0.361397
Si Si5 0.909349 0.792214 0.636338
O O1 0.758727 0.894377 0.443008
O O2 0.937470 0.854767 0.596222
O O3 0.148532 0.935526 0.486418
O O4 0.825383 0.963307 0.595993
O O5 0.430951 0.940897 0.350236
O O6 0.500000 0.000000 0.500000
O O7 0.706557 0.623046 0.750000
O O8 0.439284 0.670708 0.873653
O O9 0.595785 0.251965 0.250000
O O10 0.347392 0.233125 0.394928
O O11 0.851965 0.241416 0.394136
O O12 0.905705 0.792299 0.750000
#
# Coordination Sequence:
#
# PCOD9439422 Si02
#       5
#     8   8   8   8   8
#     4  10  22  40  64  92 126 164 221 270 317 395
#     4   9  21  41  60  87 124 162 211 274 316 379
#     4  10  22  40  63  92 131 173 213 269 330 387
#     4   9  21  40  62  93 132 169 215 266 321 389
#     4  10  22  41  65  94 132 171 211 269 328 384
#
# _framework density 20.934842
#
# number of rings (size 3 to 8) (size 9 to 14) (size 15 to 20)
#    0.000    2.400    0.000    0.000    8.400    2.400 
#    0.000    8.000    0.000    0.000    0.000    0.000 
#    0.000    0.000    0.000    0.000    0.000    0.000 
#
# Total GULP energy -222890.189604 kJ/mol
# GULP energy per Si atom -5572.254740 kJ/mol
# Density = 2.088719 g / cm^3
# Si number density = 20.934842 Si / 1000 Ang^3
#
#
#
# Elastic Constant Matrix: (Units=GPa)
#
#
# Indices 1 2 3 4 5 6 
#
# 1 101.0478 33.7162 30.3218 0.0000 0.0000 0.0000
# 2 33.7162 94.7609 47.6499 0.0000 0.0000 0.0000
# 3 30.3218 47.6499 82.5048 0.0000 0.0000 0.0000
# 4 0.0000 0.0000 0.0000 31.2714 0.0000 0.0000
# 5 0.0000 0.0000 0.0000 0.0000 -90.8067 0.0000
# 6 0.0000 0.0000 0.0000 0.0000 0.0000 38.8657
#
#
#
# Elastic Compliance Matrix: (Units=1/GPa)
#
#
# Indices 1 2 3 4 5 6 
#
# 1 0.011628 -0.002802 -0.002655 0.000000 0.000000 0.000000
# 2 -0.002802 0.015547 -0.007949 0.000000 0.000000 0.000000
# 3 -0.002655 -0.007949 0.017687 0.000000 0.000000 0.000000
# 4 0.000000 0.000000 0.000000 0.031978 0.000000 0.000000
# 5 0.000000 0.000000 0.000000 0.000000 -0.011012 0.000000
# 6 0.000000 0.000000 0.000000 0.000000 0.000000 0.025730
#
#
# Mechanical properties :
#
#
# Convention : Reuss Voigt Hill
#
# Bulk Modulus (GPa) = 55.40357 55.74328 55.57343
# Shear Modulus (GPa) = 40.19699 6.97444 23.58572
#
# Velocity S-wave (km/s) = 4.38665 1.82722 3.36016
# Velocity P-wave (km/s) = 7.22351 5.58001 6.45429
#
# Compressibility (1/GPa) = 0.01804938
#
# Stress axis : x y z
#
# Youngs Moduli (GPa) = 85.99914 64.32053 56.53767
#
# Poissons Ratio (x) = 0.18024 0.15011
# Poissons Ratio (y) = 0.24099 0.44943
# Poissons Ratio (z) = 0.22834 0.51130
#
# Static dielectric constant tensor:
#      x y z
#    x 0.662740 0.000000 0.000000 
#    y 0.000000 1.814080 0.000000 
#    z 0.000000 0.000000 1.717870 
# 
# From -- ./inp_files/14963.got.cif
#   From: 2010.05.17/outbox.cif.g08.bks.cpg/sg57_8_cif.got.tgz:14963.got - 2010.06.03 13:58:18.
