data_PCOD9439728
_publ_section_title
;
Structure prediction by ZEFSAII (Michael W. Deem and Ramdas Pophale) SiO2 
 PCOD9439728
Probable space group: P B C M
;
_chemical_formula_sum "Si O2"
_cell_formula_units_Z 40
_cell_length_a 10.049900
_cell_length_b 22.827743
_cell_length_c 8.748697
_cell_angle_alpha 90.000000
_cell_angle_beta 90.000000
_cell_angle_gamma 90.000000
_cell_volume 2007.095746
_symmetry_space_group_name_H-M "P B C M"
_symmetry_group_IT_number 57
_symmetry_cell_setting 'orthorhombic'
loop_
_space_group_symop_operation_xyz
x,y,z
-x,-y,1/2+z
x,1/2-y,-z
-x,1/2+y,1/2-z
-x,-y,-z
x,y,1/2-z
-x,1/2+y,z
x,1/2-y,1/2+z
loop_
_atom_site_type_symbol
_atom_site_label
_atom_site_fract_x
_atom_site_fract_y
_atom_site_fract_z
Si Si1 0.561841 0.687856 0.930756
Si Si2 0.353014 0.987850 0.568406
Si Si3 0.769538 0.899797 0.931854
Si Si4 0.722888 0.136063 0.569067
Si Si5 0.989534 0.814032 0.433296
O O1 0.592107 0.685171 0.750000
O O2 0.405014 0.677299 0.952017
O O3 0.601639 0.750000 0.000000
O O4 0.640042 0.637032 0.017431
O O5 0.361152 0.993869 0.750000
O O6 0.252102 0.036072 0.501474
O O7 0.500000 0.000000 0.500000
O O8 0.304178 0.923512 0.521583
O O9 0.779235 0.902950 0.750000
O O10 0.892154 0.863370 0.000180
O O11 0.729730 0.121468 0.750000
O O12 0.859379 0.167952 0.526383
O O13 0.958037 0.750000 0.500000
O O14 0.976582 0.812157 0.250000
#
# Coordination Sequence:
#
# PCOD9439728 Si02
#       5
#     8   8   8   8   8
#     4  11  22  38  62  92 126 164 213 267 319 382
#     4  12  24  41  67  97 131 168 212 267 324 383
#     4  12  25  42  65  93 127 171 217 266 322 381
#     4  10  23  42  66  94 128 170 215 264 320 382
#     4  11  24  44  67  95 132 173 216 266 321 383
#
# _framework density 19.929296000000001
#
# number of rings (size 3 to 8) (size 9 to 14) (size 15 to 20)
#    0.000    0.800    2.000    6.000    0.000    3.200 
#    0.000    0.000    0.000    0.000    0.000    0.000 
#    0.000    0.000    0.000    0.000    0.000    0.000 
#
# Total GULP energy -223889.076389 kJ/mol
# GULP energy per Si atom -5597.226910 kJ/mol
# Density = 1.988394 g / cm^3
# Si number density = 19.929296 Si / 1000 Ang^3
#
#
#
# Elastic Constant Matrix: (Units=GPa)
#
#
# Indices 1 2 3 4 5 6 
#
# 1 68.9403 -13.7145 20.1232 0.0000 0.0000 0.0000
# 2 -13.7145 83.9637 33.5517 0.0000 0.0000 0.0000
# 3 20.1232 33.5517 99.8451 0.0000 0.0000 0.0000
# 4 0.0000 0.0000 0.0000 35.7890 0.0000 0.0000
# 5 0.0000 0.0000 0.0000 0.0000 5.4408 0.0000
# 6 0.0000 0.0000 0.0000 0.0000 0.0000 24.7921
#
#
#
# Elastic Compliance Matrix: (Units=1/GPa)
#
#
# Indices 1 2 3 4 5 6 
#
# 1 0.016916 0.004765 -0.005011 0.000000 0.000000 0.000000
# 2 0.004765 0.015100 -0.006034 0.000000 0.000000 0.000000
# 3 -0.005011 -0.006034 0.013053 0.000000 0.000000 0.000000
# 4 0.000000 0.000000 0.000000 0.027942 0.000000 0.000000
# 5 0.000000 0.000000 0.000000 0.000000 0.183797 0.000000
# 6 0.000000 0.000000 0.000000 0.000000 0.000000 0.040335
#
#
# Mechanical properties :
#
#
# Convention : Reuss Voigt Hill
#
# Bulk Modulus (GPa) = 30.76073 36.96333 33.86203
# Shear Modulus (GPa) = 15.59874 27.39030 21.49452
#
# Velocity S-wave (km/s) = 2.80072 3.71128 3.28767
# Velocity P-wave (km/s) = 5.09187 6.07884 5.60711
#
# Compressibility (1/GPa) = 0.03250898
#
# Stress axis : x y z
#
# Youngs Moduli (GPa) = 59.11630 66.22699 76.60984
#
# Poissons Ratio (x) = -0.31559 0.38386
# Poissons Ratio (y) = -0.28170 0.46230
# Poissons Ratio (z) = 0.29621 0.39964
#
# Static dielectric constant tensor:
#      x y z
#    x 1.703730 0.000000 0.000000 
#    y 0.000000 1.794090 0.000000 
#    z 0.000000 0.000000 1.665490 
# 
# From -- ./inp_files/1511.got.cif
#   From: 2010.05.17/outbox.cif.g08.bks.cpg/sg57_1_cif.got.tgz:1511.got - 2010.06.03 13:58:18.
