data_PCOD9439902
_publ_section_title
;
Structure prediction by ZEFSAII (Michael W. Deem and Ramdas Pophale) SiO2 
 PCOD9439902
Probable space group: P B C M
;
_chemical_formula_sum "Si O2"
_cell_formula_units_Z 32
_cell_length_a 4.859403
_cell_length_b 10.332155
_cell_length_c 23.385873
_cell_angle_alpha 90.000000
_cell_angle_beta 90.000000
_cell_angle_gamma 90.000000
_cell_volume 1174.160367
_symmetry_space_group_name_H-M "P B C M"
_symmetry_group_IT_number 57
_symmetry_cell_setting 'orthorhombic'
loop_
_space_group_symop_operation_xyz
x,y,z
-x,-y,1/2+z
x,1/2-y,-z
-x,1/2+y,1/2-z
-x,-y,-z
x,y,1/2-z
-x,1/2+y,z
x,1/2-y,1/2+z
loop_
_atom_site_type_symbol
_atom_site_label
_atom_site_fract_x
_atom_site_fract_y
_atom_site_fract_z
Si Si1 0.745065 0.162779 0.099365
Si Si2 0.594378 0.502001 0.185560
Si Si3 0.905796 0.826354 0.184948
Si Si4 0.000000 0.000000 0.000000
Si Si5 0.405142 0.250000 0.000000
O O1 0.974158 0.233062 0.137165
O O2 0.515197 0.102309 0.140208
O O3 0.856185 0.048418 0.059509
O O4 0.608595 0.262740 0.054317
O O5 0.545114 0.550077 0.250000
O O6 0.906187 0.455578 0.180549
O O7 0.405274 0.373981 0.179095
O O8 0.948399 0.776676 0.250000
O O9 0.781688 0.876103 0.995064
#
# Coordination Sequence:
#
# PCOD9439902 Si02
#       5
#     8   8   8   4   4
#     4  12  27  46  75 108 158 211 269 338 398 493
#     4  10  24  45  76 113 151 202 263 334 411 486
#     4  10  24  46  74 112 152 199 261 331 410 484
#     4  12  30  50  78 112 162 214 284 328 410 484
#     4  12  30  52  74 116 156 220 280 340 406 488
#
# _framework density 27.253519000000001
#
# number of rings (size 3 to 8) (size 9 to 14) (size 15 to 20)
#    0.000    1.000    0.000    3.750   14.000    0.000 
#    0.000    7.500    0.000    0.000    0.000    0.000 
#    0.000    0.000    0.000    0.000    0.000    0.000 
#
# Total GULP energy -178919.299641 kJ/mol
# GULP energy per Si atom -5591.228114 kJ/mol
# Density = 2.719149 g / cm^3
# Si number density = 27.253519 Si / 1000 Ang^3
#
#
#
# Elastic Constant Matrix: (Units=GPa)
#
#
# Indices 1 2 3 4 5 6 
#
# 1 99.7462 33.6351 37.1563 0.0000 0.0000 0.0000
# 2 33.6351 68.3476 50.0383 0.0000 0.0000 0.0000
# 3 37.1563 50.0383 160.5104 0.0000 0.0000 0.0000
# 4 0.0000 0.0000 0.0000 48.7224 0.0000 0.0000
# 5 0.0000 0.0000 0.0000 0.0000 1.1109 0.0000
# 6 0.0000 0.0000 0.0000 0.0000 0.0000 41.5474
#
#
#
# Elastic Compliance Matrix: (Units=1/GPa)
#
#
# Indices 1 2 3 4 5 6 
#
# 1 0.012206 -0.005103 -0.001235 0.000000 0.000000 0.000000
# 2 -0.005103 0.021091 -0.005394 0.000000 0.000000 0.000000
# 3 -0.001235 -0.005394 0.008197 0.000000 0.000000 0.000000
# 4 0.000000 0.000000 0.000000 0.020524 0.000000 0.000000
# 5 0.000000 0.000000 0.000000 0.000000 0.900172 0.000000
# 6 0.000000 0.000000 0.000000 0.000000 0.000000 0.024069
#
#
# Mechanical properties :
#
#
# Convention : Reuss Voigt Hill
#
# Bulk Modulus (GPa) = 55.45738 63.36262 59.41000
# Shear Modulus (GPa) = 4.92255 32.12779 18.52517
#
# Velocity S-wave (km/s) = 1.34541 3.43716 2.61000
# Velocity P-wave (km/s) = 4.77560 6.24915 5.56140
#
# Compressibility (1/GPa) = 0.01803187
#
# Stress axis : x y z
#
# Youngs Moduli (GPa) = 81.92606 47.41320 121.98901
#
# Poissons Ratio (x) = 0.24194 0.15063
# Poissons Ratio (y) = 0.41806 0.65799
# Poissons Ratio (z) = 0.10116 0.25574
#
# Static dielectric constant tensor:
#      x y z
#    x 2.092270 0.000000 0.000000 
#    y 0.000000 2.165380 0.000000 
#    z 0.000000 0.000000 2.045810 
# 
# From -- ./inp_files/23387.got.cif
#   From: 2010.05.17/outbox.cif.g08.bks.cpg/sg57_12_cif.got.tgz:23387.got - 2010.06.03 13:58:18.
