data_PCOD9439883
_publ_section_title
;
Structure prediction by ZEFSAII (Michael W. Deem and Ramdas Pophale) SiO2 
 PCOD9439883
Probable space group: P B C M
;
_chemical_formula_sum "Si O2"
_cell_formula_units_Z 40
_cell_length_a 12.698438
_cell_length_b 9.061491
_cell_length_c 14.902643
_cell_angle_alpha 90.000000
_cell_angle_beta 90.000000
_cell_angle_gamma 90.000000
_cell_volume 1714.799168
_symmetry_space_group_name_H-M "P B C M"
_symmetry_group_IT_number 57
_symmetry_cell_setting 'orthorhombic'
loop_
_space_group_symop_operation_xyz
x,y,z
-x,-y,1/2+z
x,1/2-y,-z
-x,1/2+y,1/2-z
-x,-y,-z
x,y,1/2-z
-x,1/2+y,z
x,1/2-y,1/2+z
loop_
_atom_site_type_symbol
_atom_site_label
_atom_site_fract_x
_atom_site_fract_y
_atom_site_fract_z
Si Si1 0.196102 0.267475 0.644739
Si Si2 0.602430 0.179375 0.145347
Si Si3 0.018062 0.863586 0.065747
Si Si4 0.227284 0.588560 0.852396
Si Si5 0.407224 0.140910 0.585794
O O1 0.172709 0.287864 0.750000
O O2 0.234214 0.425697 0.604809
O O3 0.294159 0.160904 0.632542
O O4 0.091503 0.203766 0.599287
O O5 0.617121 0.132473 0.250000
O O6 0.702822 0.276089 0.113339
O O7 0.503661 0.290182 0.141341
O O8 0.580287 0.036419 0.083389
O O9 0.101805 0.887139 0.143706
O O10 0.074457 0.750000 0.000000
O O11 0.000000 0.000000 0.000000
O O12 0.264762 0.573500 0.750000
O O13 0.404574 0.250000 0.500000
#
# Coordination Sequence:
#
# PCOD9439883 Si02
#       5
#     8   8   8   8   8
#     4  11  24  45  69  96 139 186 233 288 348 423
#     4  11  24  45  71 102 139 187 237 288 352 426
#     4  12  25  43  67  99 139 181 226 290 351 410
#     4  10  24  44  69  99 137 184 235 284 346 418
#     4  12  26  43  70 103 141 181 236 292 356 413
#
# _framework density 23.326347999999999
#
# number of rings (size 3 to 8) (size 9 to 14) (size 15 to 20)
#    0.000    0.800    2.000    4.800    2.800    2.400 
#    0.000    0.000    0.000    0.000    0.000    0.000 
#    0.000    0.000    0.000    0.000    0.000    0.000 
#
# Total GULP energy -223386.578876 kJ/mol
# GULP energy per Si atom -5584.664472 kJ/mol
# Density = 2.327326 g / cm^3
# Si number density = 23.326348 Si / 1000 Ang^3
#
#
#
# Elastic Constant Matrix: (Units=GPa)
#
#
# Indices 1 2 3 4 5 6 
#
# 1 131.8951 49.6701 22.4187 0.0000 0.0000 0.0000
# 2 49.6701 157.2658 25.4406 0.0000 0.0000 0.0000
# 3 22.4187 25.4406 81.9350 0.0000 0.0000 0.0000
# 4 0.0000 0.0000 0.0000 28.6963 0.0000 0.0000
# 5 0.0000 0.0000 0.0000 0.0000 30.5544 0.0000
# 6 0.0000 0.0000 0.0000 0.0000 0.0000 42.6374
#
#
#
# Elastic Compliance Matrix: (Units=1/GPa)
#
#
# Indices 1 2 3 4 5 6 
#
# 1 0.008807 -0.002518 -0.001628 0.000000 0.000000 0.000000
# 2 -0.002518 0.007415 -0.001613 0.000000 0.000000 0.000000
# 3 -0.001628 -0.001613 0.013151 0.000000 0.000000 0.000000
# 4 0.000000 0.000000 0.000000 0.034848 0.000000 0.000000
# 5 0.000000 0.000000 0.000000 0.000000 0.032728 0.000000
# 6 0.000000 0.000000 0.000000 0.000000 0.000000 0.023454
#
#
# Mechanical properties :
#
#
# Convention : Reuss Voigt Hill
#
# Bulk Modulus (GPa) = 56.00887 62.90608 59.45747
# Shear Modulus (GPa) = 36.26536 38.61540 37.44038
#
# Velocity S-wave (km/s) = 3.94724 4.07313 4.01068
# Velocity P-wave (km/s) = 6.69607 7.01048 6.85508
#
# Compressibility (1/GPa) = 0.01785432
#
# Stress axis : x y z
#
# Youngs Moduli (GPa) = 113.54890 134.86230 76.03920
#
# Poissons Ratio (x) = 0.33961 0.12378
# Poissons Ratio (y) = 0.28594 0.12268
# Poissons Ratio (z) = 0.18483 0.21758
#
# Static dielectric constant tensor:
#      x y z
#    x 1.847280 0.000000 0.000000 
#    y 0.000000 1.893530 0.000000 
#    z 0.000000 0.000000 1.905890 
# 
# From -- ./inp_files/21568.got.cif
#   From: 2010.05.17/outbox.cif.g08.bks.cpg/sg57_11_cif.got.tgz:21568.got - 2010.06.03 13:58:18.
