data_PCOD9439430
_publ_section_title
;
Structure prediction by ZEFSAII (Michael W. Deem and Ramdas Pophale) SiO2 
 PCOD9439430
Probable space group: P B C M
;
_chemical_formula_sum "Si O2"
_cell_formula_units_Z 40
_cell_length_a 9.116322
_cell_length_b 8.086749
_cell_length_c 24.165512
_cell_angle_alpha 90.000000
_cell_angle_beta 90.000000
_cell_angle_gamma 90.000000
_cell_volume 1781.515565
_symmetry_space_group_name_H-M "P B C M"
_symmetry_group_IT_number 57
_symmetry_cell_setting 'orthorhombic'
loop_
_space_group_symop_operation_xyz
x,y,z
-x,-y,1/2+z
x,1/2-y,-z
-x,1/2+y,1/2-z
-x,-y,-z
x,y,1/2-z
-x,1/2+y,z
x,1/2-y,1/2+z
loop_
_atom_site_type_symbol
_atom_site_label
_atom_site_fract_x
_atom_site_fract_y
_atom_site_fract_z
Si Si1 0.227031 0.412948 0.528337
Si Si2 0.067554 0.245256 0.369715
Si Si3 0.275391 0.500288 0.411408
Si Si4 0.810438 0.072026 0.686125
Si Si5 0.418043 0.854744 0.393602
O O1 0.295219 0.250000 0.500000
O O2 0.103120 0.340839 0.570259
O O3 0.196895 0.511557 0.471715
O O4 0.336359 0.523745 0.563460
O O5 0.154009 0.420100 0.371709
O O6 0.905850 0.302342 0.352255
O O7 0.133132 0.112688 0.327194
O O8 0.358229 0.671171 0.402081
O O9 0.410224 0.371694 0.402643
O O10 0.830431 0.112202 0.750000
O O11 0.643088 0.087659 0.665893
#
# Coordination Sequence:
#
# PCOD9439430 Si02
#       5
#     8   8   8   8   8
#     4   9  19  36  59  89 125 162 198 243 302 368
#     4  10  22  40  64  91 122 160 209 254 307 379
#     4  11  21  39  61  91 128 163 202 255 313 375
#     4  11  23  43  64  88 120 161 209 265 316 363
#     4  11  22  38  64  93 126 166 213 257 308 379
#
# _framework density 22.452793
#
# number of rings (size 3 to 8) (size 9 to 14) (size 15 to 20)
#    0.000    1.600    0.000    6.600    0.000    1.600 
#    0.000   44.000    0.000    0.000    0.000    0.000 
#    0.000    0.000    0.000    0.000    0.000    0.000 
#
# Total GULP energy -223071.048840 kJ/mol
# GULP energy per Si atom -5576.776221 kJ/mol
# Density = 2.240169 g / cm^3
# Si number density = 22.452793 Si / 1000 Ang^3
#
#
#
# Elastic Constant Matrix: (Units=GPa)
#
#
# Indices 1 2 3 4 5 6 
#
# 1 89.5609 12.8128 56.2578 0.0000 0.0000 0.0000
# 2 12.8128 79.1270 5.9409 0.0000 0.0000 0.0000
# 3 56.2578 5.9409 61.8852 0.0000 0.0000 0.0000
# 4 0.0000 0.0000 0.0000 16.8583 0.0000 0.0000
# 5 0.0000 0.0000 0.0000 0.0000 17.4785 0.0000
# 6 0.0000 0.0000 0.0000 0.0000 0.0000 26.3873
#
#
#
# Elastic Compliance Matrix: (Units=1/GPa)
#
#
# Indices 1 2 3 4 5 6 
#
# 1 0.026512 -0.002501 -0.023861 0.000000 0.000000 0.000000
# 2 -0.002501 0.012966 0.001029 0.000000 0.000000 0.000000
# 3 -0.023861 0.001029 0.037751 0.000000 0.000000 0.000000
# 4 0.000000 0.000000 0.000000 0.059318 0.000000 0.000000
# 5 0.000000 0.000000 0.000000 0.000000 0.057213 0.000000
# 6 0.000000 0.000000 0.000000 0.000000 0.000000 0.037897
#
#
# Mechanical properties :
#
#
# Convention : Reuss Voigt Hill
#
# Bulk Modulus (GPa) = 37.64675 42.28845 39.96760
# Shear Modulus (GPa) = 17.17173 22.51560 19.84366
#
# Velocity S-wave (km/s) = 2.76849 3.17013 2.97609
# Velocity P-wave (km/s) = 5.19835 5.68110 5.44508
#
# Compressibility (1/GPa) = 0.02656272
#
# Stress axis : x y z
#
# Youngs Moduli (GPa) = 37.71935 77.12670 26.48928
#
# Poissons Ratio (x) = 0.19293 0.63205
# Poissons Ratio (y) = 0.09435 -0.02727
# Poissons Ratio (z) = 0.90001 -0.07939
#
# Static dielectric constant tensor:
#      x y z
#    x 1.812950 0.000000 0.000000 
#    y 0.000000 1.940890 0.000000 
#    z 0.000000 0.000000 1.852720 
# 
# From -- ./inp_files/26510.got.cif
#   From: 2010.05.17/outbox.cif.g08.bks.cpg/sg57_14_cif.got.tgz:26510.got - 2010.06.03 13:58:18.
