data_PCOD9439171
_publ_section_title
;
Structure prediction by ZEFSAII (Michael W. Deem and Ramdas Pophale) SiO2 
 PCOD9439171
Probable space group: P B C M
;
_chemical_formula_sum "Si O2"
_cell_formula_units_Z 40
_cell_length_a 4.917600
_cell_length_b 29.592201
_cell_length_c 13.536961
_cell_angle_alpha 90.000000
_cell_angle_beta 90.000000
_cell_angle_gamma 90.000000
_cell_volume 1969.933864
_symmetry_space_group_name_H-M "P B C M"
_symmetry_group_IT_number 57
_symmetry_cell_setting 'orthorhombic'
loop_
_space_group_symop_operation_xyz
x,y,z
-x,-y,1/2+z
x,1/2-y,-z
-x,1/2+y,1/2-z
-x,-y,-z
x,y,1/2-z
-x,1/2+y,z
x,1/2-y,1/2+z
loop_
_atom_site_type_symbol
_atom_site_label
_atom_site_fract_x
_atom_site_fract_y
_atom_site_fract_z
Si Si1 0.069680 0.656039 0.544930
Si Si2 0.291242 0.555129 0.957156
Si Si3 0.220776 0.009741 0.634003
Si Si4 0.894634 0.802528 0.250000
Si Si5 0.415404 0.202633 0.043816
Si Si6 0.602059 0.239818 0.250000
O O1 0.178874 0.605390 0.540354
O O2 0.957681 0.668921 0.652581
O O3 0.325140 0.687877 0.520062
O O4 0.825572 0.666757 0.468988
O O5 0.582162 0.549582 0.905416
O O6 0.083837 0.524319 0.893838
O O7 0.298567 0.533192 0.066276
O O8 0.252164 0.002523 0.750000
O O9 0.090820 0.758296 0.250000
O O10 0.588734 0.784328 0.250000
O O11 0.522735 0.211702 0.153307
O O12 0.306458 0.250000 0.000000
#
# Coordination Sequence:
#
# PCOD9439171 Si02
#       6
#     8   8   8   4   8   4
#     4  12  24  40  63  91 123 155 201 259 292 353
#     4  10  23  41  62  95 122 154 202 246 299 360
#     4  10  21  41  66  89 124 161 192 241 306 366
#     4  12  22  36  62  92 115 154 211 250 298 344
#     4  12  23  43  60  86 124 163 199 249 304 348
#     4  12  24  40  62  84 115 170 207 238 306 356
#
# _framework density 20.305250999999998
#
# number of rings (size 3 to 8) (size 9 to 14) (size 15 to 20)
#    0.000    0.800    4.000    3.600    2.800    0.000 
#    3.600    0.000    0.000    0.000    0.000    0.000 
#    0.000    0.000    0.000    0.000    0.000    0.000 
#
# Total GULP energy -223818.307175 kJ/mol
# GULP energy per Si atom -5595.457679 kJ/mol
# Density = 2.025904 g / cm^3
# Si number density = 20.305251 Si / 1000 Ang^3
#
#
#
# Elastic Constant Matrix: (Units=GPa)
#
#
# Indices 1 2 3 4 5 6 
#
# 1 56.8449 -17.9517 -10.9030 0.0000 0.0000 0.0000
# 2 -17.9517 43.8077 31.3076 0.0000 0.0000 0.0000
# 3 -10.9030 31.3076 124.7348 0.0000 0.0000 0.0000
# 4 0.0000 0.0000 0.0000 8.2965 0.0000 0.0000
# 5 0.0000 0.0000 0.0000 0.0000 21.0426 0.0000
# 6 0.0000 0.0000 0.0000 0.0000 0.0000 17.4654
#
#
#
# Elastic Compliance Matrix: (Units=1/GPa)
#
#
# Indices 1 2 3 4 5 6 
#
# 1 0.020222 0.008558 -0.000381 0.000000 0.000000 0.000000
# 2 0.008558 0.031439 -0.007143 0.000000 0.000000 0.000000
# 3 -0.000381 -0.007143 0.009777 0.000000 0.000000 0.000000
# 4 0.000000 0.000000 0.000000 0.120533 0.000000 0.000000
# 5 0.000000 0.000000 0.000000 0.000000 0.047523 0.000000
# 6 0.000000 0.000000 0.000000 0.000000 0.000000 0.057256
#
#
# Mechanical properties :
#
#
# Convention : Reuss Voigt Hill
#
# Bulk Modulus (GPa) = 15.74631 25.58814 20.66722
# Shear Modulus (GPa) = 16.34801 24.22320 20.28561
#
# Velocity S-wave (km/s) = 2.84053 3.45766 3.16418
# Velocity P-wave (km/s) = 4.30462 5.34506 4.85280
#
# Compressibility (1/GPa) = 0.06350694
#
# Stress axis : x y z
#
# Youngs Moduli (GPa) = 49.45231 31.80778 102.28558
#
# Poissons Ratio (x) = -0.27222 0.03893
# Poissons Ratio (y) = -0.42323 0.73061
# Poissons Ratio (z) = 0.01882 0.22720
#
# Static dielectric constant tensor:
#      x y z
#    x 1.715030 0.000000 0.000000 
#    y 0.000000 1.715580 0.000000 
#    z 0.000000 0.000000 1.706080 
# 
# From -- ./inp_files/10986.got.cif
#   From: 2010.05.17/outbox.cif.g08.bks.cpg/sg57_6_cif.got.tgz:10986.got - 2010.06.03 13:58:18.
