data_PCOD9439640
_publ_section_title
;
Structure prediction by ZEFSAII (Michael W. Deem and Ramdas Pophale) SiO2 
 PCOD9439640
Probable space group: P B C M
;
_chemical_formula_sum "Si O2"
_cell_formula_units_Z 36
_cell_length_a 5.062106
_cell_length_b 14.250790
_cell_length_c 21.580485
_cell_angle_alpha 90.000000
_cell_angle_beta 90.000000
_cell_angle_gamma 90.000000
_cell_volume 1556.794814
_symmetry_space_group_name_H-M "P B C M"
_symmetry_group_IT_number 57
_symmetry_cell_setting 'orthorhombic'
loop_
_space_group_symop_operation_xyz
x,y,z
-x,-y,1/2+z
x,1/2-y,-z
-x,1/2+y,1/2-z
-x,-y,-z
x,y,1/2-z
-x,1/2+y,z
x,1/2-y,1/2+z
loop_
_atom_site_type_symbol
_atom_site_label
_atom_site_fract_x
_atom_site_fract_y
_atom_site_fract_z
Si Si1 0.244802 0.555321 0.859389
Si Si2 0.160609 0.042625 0.750000
Si Si3 0.091677 0.662247 0.250000
Si Si4 0.262461 0.745489 0.570900
Si Si5 0.511071 0.166953 0.750000
Si Si6 0.764783 0.846155 0.622865
O O1 0.205135 0.639312 0.907406
O O2 0.448265 0.596005 0.808199
O O3 0.310346 0.454887 0.888228
O O4 0.998374 0.537439 0.814826
O O5 0.199694 0.159100 0.750000
O O6 0.268233 0.934248 0.750000
O O7 0.306348 0.745397 0.250000
O O8 0.900653 0.662336 0.309786
O O9 0.350532 0.750000 0.500000
O O10 0.499936 0.785883 0.613283
O O11 0.997273 0.806644 0.579069
#
# Coordination Sequence:
#
# PCOD9439640 Si02
#       6
#     8   4   4   8   4   8
#     4  10  25  42  67 105 141 186 230 298 358 422
#     4   9  23  42  65 108 149 180 232 289 376 431
#     4  10  22  45  70 110 141 184 226 297 369 429
#     4  12  28  48  73 102 140 196 249 288 343 420
#     4  11  21  39  71 104 142 184 224 290 361 436
#     4  11  27  47  72 106 144 181 235 299 360 425
#
# _framework density 23.124433
#
# number of rings (size 3 to 8) (size 9 to 14) (size 15 to 20)
#    0.000    1.333    2.222    1.333    9.333    4.444 
#    0.000    0.000    0.000    0.000    0.000    0.000 
#    0.000    0.000    0.000    0.000    0.000    0.000 
#
# Total GULP energy -200766.207859 kJ/mol
# GULP energy per Si atom -5576.839107 kJ/mol
# Density = 2.307180 g / cm^3
# Si number density = 23.124433 Si / 1000 Ang^3
#
#
#
# Elastic Constant Matrix: (Units=GPa)
#
#
# Indices 1 2 3 4 5 6 
#
# 1 72.5862 65.6886 -0.8735 0.0000 0.0000 0.0000
# 2 65.6886 222.1973 37.8300 0.0000 0.0000 0.0000
# 3 -0.8735 37.8300 79.0040 0.0000 0.0000 0.0000
# 4 0.0000 0.0000 0.0000 17.3967 0.0000 0.0000
# 5 0.0000 0.0000 0.0000 0.0000 -28.3244 0.0000
# 6 0.0000 0.0000 0.0000 0.0000 0.0000 39.2947
#
#
#
# Elastic Compliance Matrix: (Units=1/GPa)
#
#
# Indices 1 2 3 4 5 6 
#
# 1 0.019545 -0.006331 0.003248 0.000000 0.000000 0.000000
# 2 -0.006331 0.006951 -0.003398 0.000000 0.000000 0.000000
# 3 0.003248 -0.003398 0.014321 0.000000 0.000000 0.000000
# 4 0.000000 0.000000 0.000000 0.057482 0.000000 0.000000
# 5 0.000000 0.000000 0.000000 0.000000 -0.035305 0.000000
# 6 0.000000 0.000000 0.000000 0.000000 0.000000 0.025449
#
#
# Mechanical properties :
#
#
# Convention : Reuss Voigt Hill
#
# Bulk Modulus (GPa) = 35.90237 64.34198 50.12217
# Shear Modulus (GPa) = 45.17097 23.74955 34.46026
#
# Velocity S-wave (km/s) = 4.42451 3.20821 3.86451
# Velocity P-wave (km/s) = 6.45454 6.45044 6.45249
#
# Compressibility (1/GPa) = 0.02785331
#
# Stress axis : x y z
#
# Youngs Moduli (GPa) = 51.16311 143.86906 69.82893
#
# Poissons Ratio (x) = 0.91086 -0.22678
# Poissons Ratio (y) = 0.32392 0.23730
# Poissons Ratio (z) = -0.16616 0.48891
#
# Static dielectric constant tensor:
#      x y z
#    x 2.205610 0.000000 0.000000 
#    y 0.000000 1.962150 0.000000 
#    z 0.000000 0.000000 1.919360 
# 
# From -- ./inp_files/23527.got.cif
#   From: 2010.05.17/outbox.cif.g08.bks.cpg/sg57_12_cif.got.tgz:23527.got - 2010.06.03 13:58:18.
