data_PCOD9439000
_publ_section_title
;
Structure prediction by ZEFSAII (Michael W. Deem and Ramdas Pophale) SiO2 
 PCOD9439000
Probable space group: P B C M
;
_chemical_formula_sum "Si O2"
_cell_formula_units_Z 64
_cell_length_a 24.189966
_cell_length_b 15.349062
_cell_length_c 8.977742
_cell_angle_alpha 90.000000
_cell_angle_beta 90.000000
_cell_angle_gamma 90.000000
_cell_volume 3333.375345
_symmetry_space_group_name_H-M "P B C M"
_symmetry_group_IT_number 57
_symmetry_cell_setting 'orthorhombic'
loop_
_space_group_symop_operation_xyz
x,y,z
-x,-y,1/2+z
x,1/2-y,-z
-x,1/2+y,1/2-z
-x,-y,-z
x,y,1/2-z
-x,1/2+y,z
x,1/2-y,1/2+z
loop_
_atom_site_type_symbol
_atom_site_label
_atom_site_fract_x
_atom_site_fract_y
_atom_site_fract_z
Si Si1 0.493441 0.848420 0.070167
Si Si2 0.892130 0.585072 0.080419
Si Si3 0.420084 0.017186 0.071902
Si Si4 0.878018 0.119627 0.579346
Si Si5 0.212324 0.160001 0.926608
Si Si6 0.699312 0.987173 0.071352
Si Si7 0.236681 0.835248 0.926498
Si Si8 0.005482 0.660659 0.072269
O O1 0.497360 0.839359 0.250000
O O2 0.444504 0.919741 0.037067
O O3 0.488640 0.750000 0.000000
O O4 0.545243 0.904781 0.006390
O O5 0.887390 0.619132 0.250000
O O6 0.875209 0.484721 0.080047
O O7 0.956525 0.592766 0.037975
O O8 0.849350 0.635780 0.978542
O O9 0.424399 0.028050 0.250000
O O10 0.357616 0.022498 0.015277
O O11 0.878619 0.151582 0.750000
O O12 0.824350 0.152944 0.494446
O O13 0.935334 0.142811 0.500124
O O14 0.213139 0.167050 0.750000
O O15 0.255301 0.084918 0.971186
O O16 0.229149 0.250000 0.000000
O O17 0.689579 0.980658 0.250000
O O18 0.727110 0.080189 0.040816
O O19 0.232194 0.825229 0.750000
O O20 0.262263 0.750000 0.000000
O O21 0.011810 0.666906 0.250000
O O22 0.984665 0.750000 0.000000
#
# Coordination Sequence:
#
# PCOD9439000 Si02
#       8
#     8   8   8   8   8   8   8   8
#     4  10  21  39  64  95 131 170 211 253 304 358
#     4  10  22  39  60  85 112 147 192 243 301 364
#     4  10  22  39  63  94 128 168 210 256 306 356
#     4  11  22  38  60  85 112 147 192 244 303 365
#     4  11  23  40  62  88 118 157 201 248 304 362
#     4  10  23  42  62  87 124 165 206 253 304 358
#     4  11  23  41  62  87 118 158 203 250 306 363
#     4  11  23  38  55  80 112 146 188 239 298 365
#
# _framework density 19.199759
#
# number of rings (size 3 to 8) (size 9 to 14) (size 15 to 20)
#    0.000    1.500    1.250    3.375    0.000    7.000 
#    0.000    3.750    0.000    0.000    0.000    0.000 
#    0.000    0.000    0.000    0.000    0.000    0.000 
#
# Total GULP energy -357433.486758 kJ/mol
# GULP energy per Si atom -5584.898231 kJ/mol
# Density = 1.915606 g / cm^3
# Si number density = 19.199759 Si / 1000 Ang^3
#
#
#
# Elastic Constant Matrix: (Units=GPa)
#
#
# Indices 1 2 3 4 5 6 
#
# 1 85.5482 17.7222 43.1548 0.0000 0.0000 0.0000
# 2 17.7222 105.7314 44.8289 0.0000 0.0000 0.0000
# 3 43.1548 44.8289 70.8451 0.0000 0.0000 0.0000
# 4 0.0000 0.0000 0.0000 33.2797 0.0000 0.0000
# 5 0.0000 0.0000 0.0000 0.0000 36.4001 0.0000
# 6 0.0000 0.0000 0.0000 0.0000 0.0000 8.5233
#
#
#
# Elastic Compliance Matrix: (Units=1/GPa)
#
#
# Indices 1 2 3 4 5 6 
#
# 1 0.017220 0.002133 -0.011839 0.000000 0.000000 0.000000
# 2 0.002133 0.013190 -0.009646 0.000000 0.000000 0.000000
# 3 -0.011839 -0.009646 0.027431 0.000000 0.000000 0.000000
# 4 0.000000 0.000000 0.000000 0.030048 0.000000 0.000000
# 5 0.000000 0.000000 0.000000 0.000000 0.027472 0.000000
# 6 0.000000 0.000000 0.000000 0.000000 0.000000 0.117325
#
#
# Mechanical properties :
#
#
# Convention : Reuss Voigt Hill
#
# Bulk Modulus (GPa) = 52.25451 52.61519 52.43485
# Shear Modulus (GPa) = 18.00059 26.06853 22.03456
#
# Velocity S-wave (km/s) = 3.06525 3.68877 3.39137
# Velocity P-wave (km/s) = 6.30896 6.75324 6.53488
#
# Compressibility (1/GPa) = 0.01913710
#
# Stress axis : x y z
#
# Youngs Moduli (GPa) = 58.07327 75.81454 36.45550
#
# Poissons Ratio (x) = -0.16174 0.43160
# Poissons Ratio (y) = -0.12389 0.35165
# Poissons Ratio (z) = 0.68754 0.73130
#
# Static dielectric constant tensor:
#      x y z
#    x 1.642770 0.000000 0.000000 
#    y 0.000000 1.697730 0.000000 
#    z 0.000000 0.000000 1.656000 
# 
# From -- ./inp_files/9397.got.cif
#   From: 2010.05.17/outbox.cif.g08.bks.cpg/sg57_5_cif.got.tgz:9397.got - 2010.06.03 13:58:18.
