data_PCOD9439035
_publ_section_title
;
Structure prediction by ZEFSAII (Michael W. Deem and Ramdas Pophale) SiO2 
 PCOD9439035
Probable space group: P B C M
;
_chemical_formula_sum "Si O2"
_cell_formula_units_Z 56
_cell_length_a 22.118374
_cell_length_b 15.269579
_cell_length_c 8.666945
_cell_angle_alpha 90.000000
_cell_angle_beta 90.000000
_cell_angle_gamma 90.000000
_cell_volume 2927.158916
_symmetry_space_group_name_H-M "P B C M"
_symmetry_group_IT_number 57
_symmetry_cell_setting 'orthorhombic'
loop_
_space_group_symop_operation_xyz
x,y,z
-x,-y,1/2+z
x,1/2-y,-z
-x,1/2+y,1/2-z
-x,-y,-z
x,y,1/2-z
-x,1/2+y,z
x,1/2-y,1/2+z
loop_
_atom_site_type_symbol
_atom_site_label
_atom_site_fract_x
_atom_site_fract_y
_atom_site_fract_z
Si Si1 0.695239 0.658297 0.935566
Si Si2 0.437399 0.397056 0.065101
Si Si3 0.563058 0.102668 0.434887
Si Si4 0.998050 0.349988 0.064451
Si Si5 0.091182 0.995959 0.564692
Si Si6 0.773935 0.999637 0.565824
Si Si7 0.304195 0.658140 0.435602
O O1 0.696663 0.654953 0.750000
O O2 0.625274 0.645610 0.986429
O O3 0.717318 0.750000 0.000000
O O4 0.736412 0.582623 0.003556
O O5 0.440038 0.392290 0.250000
O O6 0.433684 0.499851 0.020990
O O7 0.500259 0.361050 0.999966
O O8 0.560473 0.107464 0.250000
O O9 0.625839 0.145059 0.486349
O O10 0.994623 0.344321 0.250000
O O11 0.054884 0.414108 0.023788
O O12 0.000483 0.250000 0.000000
O O13 0.942613 0.409881 0.002377
O O14 0.091125 0.989379 0.750000
O O15 0.158649 0.000605 0.500917
O O16 0.775717 0.999571 0.750000
O O17 0.737162 0.082736 0.503869
O O18 0.282411 0.750000 0.500000
O O19 0.302720 0.654731 0.250000
#
# Coordination Sequence:
#
# PCOD9439035 Si02
#       7
#     8   8   8   8   8   8   8
#     4  11  23  41  61  86 119 157 203 253 308 366
#     4   9  18  34  56  81 111 149 192 245 306 367
#     4   9  18  34  56  81 111 149 191 245 307 367
#     4  10  21  39  66  99 132 165 203 246 293 346
#     4  10  22  41  65  93 128 168 205 248 297 348
#     4  12  25  42  64  90 122 163 207 252 303 360
#     4  11  23  41  61  86 119 156 202 253 308 368
#
# _framework density 19.131178999999999
#
# number of rings (size 3 to 8) (size 9 to 14) (size 15 to 20)
#    0.000    1.714    1.429    3.000    0.000    5.714 
#    0.000    7.143    0.000    0.000    0.000    0.000 
#    0.000    0.000    0.000    0.000    0.000    0.000 
#
# Total GULP energy -312780.206102 kJ/mol
# GULP energy per Si atom -5585.360823 kJ/mol
# Density = 1.908764 g / cm^3
# Si number density = 19.131179 Si / 1000 Ang^3
#
#
#
# Elastic Constant Matrix: (Units=GPa)
#
#
# Indices 1 2 3 4 5 6 
#
# 1 166.2489 89.3650 53.1588 0.0000 0.0000 0.0000
# 2 89.3650 179.7992 54.2649 0.0000 0.0000 0.0000
# 3 53.1588 54.2649 68.0550 0.0000 0.0000 0.0000
# 4 0.0000 0.0000 0.0000 28.0222 0.0000 0.0000
# 5 0.0000 0.0000 0.0000 0.0000 42.3508 0.0000
# 6 0.0000 0.0000 0.0000 0.0000 0.0000 322.3795
#
#
#
# Elastic Compliance Matrix: (Units=1/GPa)
#
#
# Indices 1 2 3 4 5 6 
#
# 1 0.009211 -0.003169 -0.004668 0.000000 0.000000 0.000000
# 2 -0.003169 0.008415 -0.004234 0.000000 0.000000 0.000000
# 3 -0.004668 -0.004234 0.021716 0.000000 0.000000 0.000000
# 4 0.000000 0.000000 0.000000 0.035686 0.000000 0.000000
# 5 0.000000 0.000000 0.000000 0.000000 0.023612 0.000000
# 6 0.000000 0.000000 0.000000 0.000000 0.000000 0.003102
#
#
# Mechanical properties :
#
#
# Convention : Reuss Voigt Hill
#
# Bulk Modulus (GPa) = 65.79084 89.74228 77.76656
# Shear Modulus (GPa) = 38.18180 93.03813 65.60996
#
# Velocity S-wave (km/s) = 4.47227 6.98121 5.86253
# Velocity P-wave (km/s) = 7.81871 10.58271 9.30392
#
# Compressibility (1/GPa) = 0.01519968
#
# Stress axis : x y z
#
# Youngs Moduli (GPa) = 108.56135 118.83593 46.04833
#
# Poissons Ratio (x) = 0.37665 0.21495
# Poissons Ratio (y) = 0.34408 0.19497
# Poissons Ratio (z) = 0.50675 0.50316
#
# Static dielectric constant tensor:
#      x y z
#    x 1.655610 0.000000 0.000000 
#    y 0.000000 1.646360 0.000000 
#    z 0.000000 0.000000 1.642770 
# 
# From -- ./inp_files/8060.got.cif
#   From: 2010.05.17/outbox.cif.g08.bks.cpg/sg57_5_cif.got.tgz:8060.got - 2010.06.03 13:58:18.
