data_PCOD9439459
_publ_section_title
;
Structure prediction by ZEFSAII (Michael W. Deem and Ramdas Pophale) SiO2 
 PCOD9439459
Probable space group: P B C M
;
_chemical_formula_sum "Si O2"
_cell_formula_units_Z 40
_cell_length_a 12.042524
_cell_length_b 9.173280
_cell_length_c 16.711100
_cell_angle_alpha 90.000000
_cell_angle_beta 90.000000
_cell_angle_gamma 90.000000
_cell_volume 1846.065935
_symmetry_space_group_name_H-M "P B C M"
_symmetry_group_IT_number 57
_symmetry_cell_setting 'orthorhombic'
loop_
_space_group_symop_operation_xyz
x,y,z
-x,-y,1/2+z
x,1/2-y,-z
-x,1/2+y,1/2-z
-x,-y,-z
x,y,1/2-z
-x,1/2+y,z
x,1/2-y,1/2+z
loop_
_atom_site_type_symbol
_atom_site_label
_atom_site_fract_x
_atom_site_fract_y
_atom_site_fract_z
Si Si1 0.447815 0.881951 0.441680
Si Si2 0.730181 0.549473 0.160720
Si Si3 0.077457 0.879630 0.397629
Si Si4 0.328715 0.371793 0.154226
Si Si5 0.861701 0.446577 0.581717
O O1 0.416791 0.750000 0.500000
O O2 0.546582 0.850768 0.378670
O O3 0.500000 0.000000 0.500000
O O4 0.344965 0.950001 0.395592
O O5 0.682094 0.546499 0.250000
O O6 0.851584 0.481852 0.159568
O O7 0.729386 0.717295 0.134866
O O8 0.102381 0.709959 0.382379
O O9 0.122450 0.921054 0.486788
O O10 0.949830 0.928004 0.394706
O O11 0.327487 0.396711 0.250000
O O12 0.258976 0.498608 0.109865
#
# Coordination Sequence:
#
# PCOD9439459 Si02
#       5
#     8   8   8   8   8
#     4  12  25  44  69  94 125 169 218 270 322 388
#     4  11  25  43  65  95 133 171 215 269 326 389
#     4  10  22  40  66  98 130 169 219 265 317 381
#     4  11  25  44  65  94 133 173 215 268 327 387
#     4  10  22  40  67  97 130 172 216 266 318 380
#
# _framework density 21.667697
#
# number of rings (size 3 to 8) (size 9 to 14) (size 15 to 20)
#    0.000    1.200    2.000    3.000    5.600    3.200 
#    0.000    0.000    0.000    0.000    0.000    0.000 
#    0.000    0.000    0.000    0.000    0.000    0.000 
#
# Total GULP energy -223646.853329 kJ/mol
# GULP energy per Si atom -5591.171333 kJ/mol
# Density = 2.161838 g / cm^3
# Si number density = 21.667697 Si / 1000 Ang^3
#
#
#
# Elastic Constant Matrix: (Units=GPa)
#
#
# Indices 1 2 3 4 5 6 
#
# 1 86.0328 17.0485 19.2825 0.0000 0.0000 0.0000
# 2 17.0485 115.0424 23.9086 0.0000 0.0000 0.0000
# 3 19.2825 23.9086 37.8209 0.0000 0.0000 0.0000
# 4 0.0000 0.0000 0.0000 25.5112 0.0000 0.0000
# 5 0.0000 0.0000 0.0000 0.0000 18.1111 0.0000
# 6 0.0000 0.0000 0.0000 0.0000 0.0000 41.5179
#
#
#
# Elastic Compliance Matrix: (Units=1/GPa)
#
#
# Indices 1 2 3 4 5 6 
#
# 1 0.013164 -0.000640 -0.006307 0.000000 0.000000 0.000000
# 2 -0.000640 0.010038 -0.006019 0.000000 0.000000 0.000000
# 3 -0.006307 -0.006019 0.033461 0.000000 0.000000 0.000000
# 4 0.000000 0.000000 0.000000 0.039198 0.000000 0.000000
# 5 0.000000 0.000000 0.000000 0.000000 0.055215 0.000000
# 6 0.000000 0.000000 0.000000 0.000000 0.000000 0.024086
#
#
# Mechanical properties :
#
#
# Convention : Reuss Voigt Hill
#
# Bulk Modulus (GPa) = 32.54086 39.93060 36.23573
# Shear Modulus (GPa) = 23.65874 28.93847 26.29860
#
# Velocity S-wave (km/s) = 3.30796 3.65849 3.48763
# Velocity P-wave (km/s) = 5.44434 6.02617 5.74263
#
# Compressibility (1/GPa) = 0.03073060
#
# Stress axis : x y z
#
# Youngs Moduli (GPa) = 75.96567 99.61865 29.88557
#
# Poissons Ratio (x) = 0.06377 0.18848
# Poissons Ratio (y) = 0.04863 0.17989
# Poissons Ratio (z) = 0.47910 0.59964
#
# Static dielectric constant tensor:
#      x y z
#    x 1.307700 0.000000 0.000000 
#    y 0.000000 1.706160 0.000000 
#    z 0.000000 0.000000 1.806580 
# 
# From -- ./inp_files/21611.got.cif
#   From: 2010.05.17/outbox.cif.g08.bks.cpg/sg57_11_cif.got.tgz:21611.got - 2010.06.03 13:58:18.
