data_PCOD9439054
_publ_section_title
;
Structure prediction by ZEFSAII (Michael W. Deem and Ramdas Pophale) SiO2 
 PCOD9439054
Probable space group: P B C M
;
_chemical_formula_sum "Si O2"
_cell_formula_units_Z 44
_cell_length_a 16.218212
_cell_length_b 5.347222
_cell_length_c 24.991535
_cell_angle_alpha 90.000000
_cell_angle_beta 90.000000
_cell_angle_gamma 90.000000
_cell_volume 2167.325395
_symmetry_space_group_name_H-M "P B C M"
_symmetry_group_IT_number 57
_symmetry_cell_setting 'orthorhombic'
loop_
_space_group_symop_operation_xyz
x,y,z
-x,-y,1/2+z
x,1/2-y,-z
-x,1/2+y,1/2-z
-x,-y,-z
x,y,1/2-z
-x,1/2+y,z
x,1/2-y,1/2+z
loop_
_atom_site_type_symbol
_atom_site_label
_atom_site_fract_x
_atom_site_fract_y
_atom_site_fract_z
Si Si1 0.797422 0.750000 0.000000
Si Si2 0.324942 0.862606 0.050514
Si Si3 0.444980 0.098943 0.367307
Si Si4 0.829898 0.406477 0.910797
Si Si5 0.554908 0.604654 0.250000
Si Si6 0.054062 0.563201 0.187111
Si Si7 0.946604 0.250000 0.000000
O O1 0.839914 0.659312 0.945791
O O2 0.740036 0.975143 0.982332
O O3 0.379180 0.038094 0.087567
O O4 0.265736 0.682018 0.086169
O O5 0.375800 0.750000 0.000000
O O6 0.510832 0.868848 0.371632
O O7 0.403755 0.086164 0.308087
O O8 0.868126 0.428464 0.852469
O O9 0.888914 0.233628 0.947491
O O10 0.508383 0.870997 0.250000
O O11 0.077124 0.565242 0.250000
O O12 0.998145 0.809762 0.177178
O O13 0.000000 0.500000 0.000000
#
# Coordination Sequence:
#
# PCOD9439054 Si02
#       7
#     4   8   8   8   4   8   4
#     4  10  21  40  60  83 128 162 200 246 315 348
#     4  10  23  39  59  85 126 165 194 249 304 361
#     4  10  22  39  64  91 119 158 203 248 296 357
#     4  11  22  39  60  88 125 163 200 257 302 365
#     4   8  16  36  60  84 116 146 188 248 294 334
#     4  10  23  42  64  89 123 163 203 255 308 361
#     4  12  23  34  58  91 112 150 206 242 293 348
#
# _framework density 20.301518999999999
#
# number of rings (size 3 to 8) (size 9 to 14) (size 15 to 20)
#    0.000    1.818    2.727    1.636    7.636    0.727 
#    1.636    0.000    2.000    0.000    0.000    0.000 
#    0.000    0.000    0.000    0.000    0.000    0.000 
#
# Total GULP energy -245100.378935 kJ/mol
# GULP energy per Si atom -5570.463158 kJ/mol
# Density = 2.025531 g / cm^3
# Si number density = 20.301519 Si / 1000 Ang^3
#
#
#
# Elastic Constant Matrix: (Units=GPa)
#
#
# Indices 1 2 3 4 5 6 
#
# 1 22.7880 -8.8840 8.4257 0.0000 0.0000 0.0000
# 2 -8.8840 83.8408 -13.0928 0.0000 0.0000 0.0000
# 3 8.4257 -13.0928 88.1296 0.0000 0.0000 0.0000
# 4 0.0000 0.0000 0.0000 20.2374 0.0000 0.0000
# 5 0.0000 0.0000 0.0000 0.0000 21.2152 0.0000
# 6 0.0000 0.0000 0.0000 0.0000 0.0000 -49.4592
#
#
#
# Elastic Compliance Matrix: (Units=1/GPa)
#
#
# Indices 1 2 3 4 5 6 
#
# 1 0.047012 0.004381 -0.003844 0.000000 0.000000 0.000000
# 2 0.004381 0.012619 0.001456 0.000000 0.000000 0.000000
# 3 -0.003844 0.001456 0.011931 0.000000 0.000000 0.000000
# 4 0.000000 0.000000 0.000000 0.049413 0.000000 0.000000
# 5 0.000000 0.000000 0.000000 0.000000 0.047136 0.000000
# 6 0.000000 0.000000 0.000000 0.000000 0.000000 -0.020219
#
#
# Mechanical properties :
#
#
# Convention : Reuss Voigt Hill
#
# Bulk Modulus (GPa) = 13.23656 18.62846 15.93251
# Shear Modulus (GPa) = 29.57035 12.28598 20.92816
#
# Velocity S-wave (km/s) = 3.82063 2.46270 3.21419
# Velocity P-wave (km/s) = 5.09873 4.15720 4.65185
#
# Compressibility (1/GPa) = 0.07554835
#
# Stress axis : x y z
#
# Youngs Moduli (GPa) = 21.27121 79.24578 83.81739
#
# Poissons Ratio (x) = -0.34720 0.32217
# Poissons Ratio (y) = -0.09319 -0.12203
# Poissons Ratio (z) = 0.08176 -0.11537
#
# Static dielectric constant tensor:
#      x y z
#    x 1.758040 0.000000 0.000000 
#    y 0.000000 1.801290 0.000000 
#    z 0.000000 0.000000 1.548410 
# 
# From -- ./inp_files/27553.got.cif
#   From: 2010.05.17/outbox.cif.g08.bks.cpg/sg57_14_cif.got.tgz:27553.got - 2010.06.03 13:58:18.
