data_PCOD9439328
_publ_section_title
;
Structure prediction by ZEFSAII (Michael W. Deem and Ramdas Pophale) SiO2 
 PCOD9439328
Probable space group: P B C M
;
_chemical_formula_sum "Si O2"
_cell_formula_units_Z 48
_cell_length_a 7.804808
_cell_length_b 9.743192
_cell_length_c 29.436094
_cell_angle_alpha 90.000000
_cell_angle_beta 90.000000
_cell_angle_gamma 90.000000
_cell_volume 2238.430763
_symmetry_space_group_name_H-M "P B C M"
_symmetry_group_IT_number 57
_symmetry_cell_setting 'orthorhombic'
loop_
_space_group_symop_operation_xyz
x,y,z
-x,-y,1/2+z
x,1/2-y,-z
-x,1/2+y,1/2-z
-x,-y,-z
x,y,1/2-z
-x,1/2+y,z
x,1/2-y,1/2+z
loop_
_atom_site_type_symbol
_atom_site_label
_atom_site_fract_x
_atom_site_fract_y
_atom_site_fract_z
Si Si1 0.302048 0.727174 0.849016
Si Si2 0.215823 0.474784 0.590696
Si Si3 0.649726 0.628420 0.250000
Si Si4 0.823485 0.585569 0.994388
Si Si5 0.821049 0.495976 0.895152
Si Si6 0.698715 0.303126 0.250000
Si Si7 0.305941 0.242737 0.657280
O O1 0.235765 0.621364 0.886232
O O2 0.283351 0.876248 0.870919
O O3 0.213952 0.719766 0.799232
O O4 0.500039 0.687359 0.839855
O O5 0.277397 0.464774 0.538871
O O6 0.309811 0.362376 0.620379
O O7 0.012996 0.442526 0.595434
O O8 0.644571 0.463883 0.250000
O O9 0.458366 0.693430 0.250000
O O10 0.738358 0.687997 0.205042
O O11 0.754753 0.549044 0.944323
O O12 0.849391 0.750000 0.000000
O O13 0.000000 0.500000 0.000000
O O14 0.816564 0.624466 0.861031
#
# Coordination Sequence:
#
# PCOD9439328 Si02
#       7
#     8   8   4   8   8   4   8
#     4  11  24  40  65  93 125 166 210 258 312 373
#     4  11  22  42  65  90 128 160 211 259 307 375
#     4  10  22  38  65  89 124 170 208 251 306 390
#     4  10  22  39  64  90 125 169 212 249 310 388
#     4  11  24  40  64  94 123 167 209 256 315 368
#     4  10  22  40  63  91 124 168 214 245 312 386
#     4  11  22  42  64  91 126 160 211 256 311 369
#
# _framework density 21.443594999999998
#
# number of rings (size 3 to 8) (size 9 to 14) (size 15 to 20)
#    0.000    1.333    3.333    2.000   14.000    0.000 
#    0.000   10.000    0.000    0.000    0.000    0.000 
#    0.000    0.000    0.000    0.000    0.000    0.000 
#
# Total GULP energy -267876.711664 kJ/mol
# GULP energy per Si atom -5580.764826 kJ/mol
# Density = 2.139479 g / cm^3
# Si number density = 21.443595 Si / 1000 Ang^3
#
#
#
# Elastic Constant Matrix: (Units=GPa)
#
#
# Indices 1 2 3 4 5 6 
#
# 1 28.8217 -5.8823 4.1465 0.0000 0.0000 0.0000
# 2 -5.8823 134.2026 58.8562 0.0000 0.0000 0.0000
# 3 4.1465 58.8562 177.1414 0.0000 0.0000 0.0000
# 4 0.0000 0.0000 0.0000 41.0809 0.0000 0.0000
# 5 0.0000 0.0000 0.0000 0.0000 2.8243 0.0000
# 6 0.0000 0.0000 0.0000 0.0000 0.0000 30.2979
#
#
#
# Elastic Compliance Matrix: (Units=1/GPa)
#
#
# Indices 1 2 3 4 5 6 
#
# 1 0.035380 0.002240 -0.001573 0.000000 0.000000 0.000000
# 2 0.002240 0.008864 -0.002998 0.000000 0.000000 0.000000
# 3 -0.001573 -0.002998 0.006678 0.000000 0.000000 0.000000
# 4 0.000000 0.000000 0.000000 0.024342 0.000000 0.000000
# 5 0.000000 0.000000 0.000000 0.000000 0.354065 0.000000
# 6 0.000000 0.000000 0.000000 0.000000 0.000000 0.033006
#
#
# Mechanical properties :
#
#
# Convention : Reuss Voigt Hill
#
# Bulk Modulus (GPa) = 21.61590 50.48963 36.05277
# Shear Modulus (GPa) = 10.36451 33.71031 22.03741
#
# Velocity S-wave (km/s) = 2.20088 3.96920 3.20924
# Velocity P-wave (km/s) = 4.06949 6.67851 5.53007
#
# Compressibility (1/GPa) = 0.04626223
#
# Stress axis : x y z
#
# Youngs Moduli (GPa) = 28.26490 112.81239 149.74532
#
# Poissons Ratio (x) = -0.25274 0.23548
# Poissons Ratio (y) = -0.06332 0.44888
# Poissons Ratio (z) = 0.04445 0.33817
#
# Static dielectric constant tensor:
#      x y z
#    x 1.788500 0.000000 0.000000 
#    y 0.000000 1.769570 0.000000 
#    z 0.000000 0.000000 1.879980 
# 
# From -- ./inp_files/29507.got.cif
#   From: 2010.05.17/outbox.cif.g08.bks.cpg/sg57_15_cif.got.tgz:29507.got - 2010.06.03 13:58:18.
