data_PCOD9439440
_publ_section_title
;
Structure prediction by ZEFSAII (Michael W. Deem and Ramdas Pophale) SiO2 
 PCOD9439440
Probable space group: P B C M
;
_chemical_formula_sum "Si O2"
_cell_formula_units_Z 48
_cell_length_a 15.398311
_cell_length_b 10.045079
_cell_length_c 15.145158
_cell_angle_alpha 90.000000
_cell_angle_beta 90.000000
_cell_angle_gamma 90.000000
_cell_volume 2342.611397
_symmetry_space_group_name_H-M "P B C M"
_symmetry_group_IT_number 57
_symmetry_cell_setting 'orthorhombic'
loop_
_space_group_symop_operation_xyz
x,y,z
-x,-y,1/2+z
x,1/2-y,-z
-x,1/2+y,1/2-z
-x,-y,-z
x,y,1/2-z
-x,1/2+y,z
x,1/2-y,1/2+z
loop_
_atom_site_type_symbol
_atom_site_label
_atom_site_fract_x
_atom_site_fract_y
_atom_site_fract_z
Si Si1 0.947402 0.238805 0.853686
Si Si2 0.906905 0.964606 0.142373
Si Si3 0.420246 0.760784 0.393487
Si Si4 0.262667 0.400820 0.031980
Si Si5 0.235499 0.652450 0.584445
Si Si6 0.572637 0.960401 0.151274
O O1 0.965134 0.252882 0.750000
O O2 0.938387 0.389096 0.888447
O O3 0.854783 0.167094 0.865385
O O4 0.024611 0.146842 0.888662
O O5 0.901875 0.965246 0.250000
O O6 0.813709 0.935156 0.100716
O O7 0.420285 0.750000 0.500000
O O8 0.321715 0.796591 0.366252
O O9 0.446289 0.617000 0.357289
O O10 0.487352 0.873368 0.365340
O O11 0.354477 0.425397 0.079489
O O12 0.256061 0.250000 0.000000
O O13 0.252558 0.505010 0.951900
O O14 0.226614 0.750000 0.500000
O O15 0.605633 0.932634 0.250000
#
# Coordination Sequence:
#
# PCOD9439440 Si02
#       6
#     8   8   8   8   8   8
#     4  10  22  40  65  92 126 166 207 260 316 374
#     4  10  22  42  64  91 126 166 208 257 317 375
#     4  11  23  43  68  94 128 167 208 262 315 377
#     4  12  26  42  64  94 126 169 210 265 316 369
#     4  11  22  43  64  91 122 164 213 249 315 379
#     4  12  25  43  67  96 128 167 212 259 316 378
#
# _framework density 20.489954999999998
#
# number of rings (size 3 to 8) (size 9 to 14) (size 15 to 20)
#    0.000    1.000    5.000    2.000    4.667    4.000 
#    0.000    0.833    0.000    0.000    0.000    0.000 
#    0.000    0.000    0.000    0.000    0.000    0.000 
#
# Total GULP energy -268426.150427 kJ/mol
# GULP energy per Si atom -5592.211467 kJ/mol
# Density = 2.044332 g / cm^3
# Si number density = 20.489955 Si / 1000 Ang^3
#
#
#
# Elastic Constant Matrix: (Units=GPa)
#
#
# Indices 1 2 3 4 5 6 
#
# 1 99.5719 18.8446 -11.9976 0.0000 0.0000 0.0000
# 2 18.8446 107.9442 6.4422 0.0000 0.0000 0.0000
# 3 -11.9976 6.4422 28.3762 0.0000 0.0000 0.0000
# 4 0.0000 0.0000 0.0000 -4.6840 0.0000 0.0000
# 5 0.0000 0.0000 0.0000 0.0000 3.0804 0.0000
# 6 0.0000 0.0000 0.0000 0.0000 0.0000 35.5294
#
#
#
# Elastic Compliance Matrix: (Units=1/GPa)
#
#
# Indices 1 2 3 4 5 6 
#
# 1 0.011095 -0.002247 0.005201 0.000000 0.000000 0.000000
# 2 -0.002247 0.009847 -0.003186 0.000000 0.000000 0.000000
# 3 0.005201 -0.003186 0.038163 0.000000 0.000000 0.000000
# 4 0.000000 0.000000 0.000000 -0.213491 0.000000 0.000000
# 5 0.000000 0.000000 0.000000 0.000000 0.324636 0.000000
# 6 0.000000 0.000000 0.000000 0.000000 0.000000 0.028146
#
#
# Mechanical properties :
#
#
# Convention : Reuss Voigt Hill
#
# Bulk Modulus (GPa) = 17.05283 29.16340 23.10811
# Shear Modulus (GPa) = 22.89319 21.62537 22.25928
#
# Velocity S-wave (km/s) = 3.34621 3.25224 3.29956
# Velocity P-wave (km/s) = 4.82391 5.32603 5.08118
#
# Compressibility (1/GPa) = 0.05864130
#
# Stress axis : x y z
#
# Youngs Moduli (GPa) = 90.13045 101.55889 26.20325
#
# Poissons Ratio (x) = 0.22824 -0.13629
# Poissons Ratio (y) = 0.20256 0.08347
# Poissons Ratio (z) = -0.46879 0.32353
#
# Static dielectric constant tensor:
#      x y z
#    x 1.699540 0.000000 0.000000 
#    y 0.000000 1.711460 0.000000 
#    z 0.000000 0.000000 2.229810 
# 
# From -- ./inp_files/18968.got.cif
#   From: 2010.05.17/outbox.cif.g08.bks.cpg/sg57_10_cif.got.tgz:18968.got - 2010.06.03 13:58:18.
