data_PCOD9439985
_publ_section_title
;
Structure prediction by ZEFSAII (Michael W. Deem and Ramdas Pophale) SiO2 
 PCOD9439985
Probable space group: P B C M
;
_chemical_formula_sum "Si O2"
_cell_formula_units_Z 40
_cell_length_a 13.269492
_cell_length_b 20.416746
_cell_length_c 8.520735
_cell_angle_alpha 90.000000
_cell_angle_beta 90.000000
_cell_angle_gamma 90.000000
_cell_volume 2308.436229
_symmetry_space_group_name_H-M "P B C M"
_symmetry_group_IT_number 57
_symmetry_cell_setting 'orthorhombic'
loop_
_space_group_symop_operation_xyz
x,y,z
-x,-y,1/2+z
x,1/2-y,-z
-x,1/2+y,1/2-z
-x,-y,-z
x,y,1/2-z
-x,1/2+y,z
x,1/2-y,1/2+z
loop_
_atom_site_type_symbol
_atom_site_label
_atom_site_fract_x
_atom_site_fract_y
_atom_site_fract_z
Si Si1 0.481998 0.573787 0.438019
Si Si2 0.113915 0.322748 0.061674
Si Si3 0.959193 0.430423 0.938941
Si Si4 0.689561 0.600284 0.561021
Si Si5 0.734411 0.049866 0.059319
O O1 0.500000 0.500000 0.500000
O O2 0.485472 0.573526 0.250000
O O3 0.577090 0.614114 0.500489
O O4 0.366944 0.588505 0.488562
O O5 0.112579 0.323127 0.250000
O O6 0.223329 0.350277 0.009515
O O7 0.097351 0.250000 0.000000
O O8 0.029658 0.372868 0.001340
O O9 0.961660 0.430965 0.750000
O O10 0.842653 0.423975 0.991972
O O11 0.000000 0.500000 0.000000
O O12 0.686262 0.599733 0.750000
O O13 0.721499 0.526404 0.510631
O O14 0.735358 0.049480 0.250000
#
# Coordination Sequence:
#
# PCOD9439985 Si02
#       5
#     8   8   8   8   8
#     4   9  16  27  45  72 103 134 167 205 256 309
#     4  11  23  39  55  77 108 143 182 227 277 330
#     4  11  20  34  55  80 109 144 183 225 273 322
#     4   9  17  32  50  71 104 137 169 215 266 314
#     4   8  15  29  48  73 106 137 165 212 266 310
#
# _framework density 17.327746999999999
#
# number of rings (size 3 to 8) (size 9 to 14) (size 15 to 20)
#    0.000    2.400    2.000    3.000    0.000    1.600 
#    0.000    3.000    0.000    1.200    0.000    2.800 
#    0.000    0.000    0.000    0.000    0.000    0.000 
#
# Total GULP energy -222894.257272 kJ/mol
# GULP energy per Si atom -5572.356432 kJ/mol
# Density = 1.728831 g / cm^3
# Si number density = 17.327747 Si / 1000 Ang^3
#
#
#
# Elastic Constant Matrix: (Units=GPa)
#
#
# Indices 1 2 3 4 5 6 
#
# 1 205.0835 74.8848 35.8009 0.0000 0.0000 0.0000
# 2 74.8848 91.6401 23.4142 0.0000 0.0000 0.0000
# 3 35.8009 23.4142 35.9085 0.0000 0.0000 0.0000
# 4 0.0000 0.0000 0.0000 20.0767 0.0000 0.0000
# 5 0.0000 0.0000 0.0000 0.0000 27.9358 0.0000
# 6 0.0000 0.0000 0.0000 0.0000 0.0000 19.2880
#
#
#
# Elastic Compliance Matrix: (Units=1/GPa)
#
#
# Indices 1 2 3 4 5 6 
#
# 1 0.007429 -0.005014 -0.004138 0.000000 0.000000 0.000000
# 2 -0.005014 0.016477 -0.005745 0.000000 0.000000 0.000000
# 3 -0.004138 -0.005745 0.035720 0.000000 0.000000 0.000000
# 4 0.000000 0.000000 0.000000 0.049809 0.000000 0.000000
# 5 0.000000 0.000000 0.000000 0.000000 0.035796 0.000000
# 6 0.000000 0.000000 0.000000 0.000000 0.000000 0.051846
#
#
# Mechanical properties :
#
#
# Convention : Reuss Voigt Hill
#
# Bulk Modulus (GPa) = 33.51990 66.75911 50.13951
# Shear Modulus (GPa) = 21.11353 26.69557 23.90455
#
# Velocity S-wave (km/s) = 3.49446 3.92934 3.71826
# Velocity P-wave (km/s) = 5.97230 7.69397 6.88714
#
# Compressibility (1/GPa) = 0.02983303
#
# Stress axis : x y z
#
# Youngs Moduli (GPa) = 134.60724 60.69039 27.99538
#
# Poissons Ratio (x) = 0.30427 0.11584
# Poissons Ratio (y) = 0.67486 0.16085
# Poissons Ratio (z) = 0.55696 0.34869
#
# Static dielectric constant tensor:
#      x y z
#    x 1.644950 0.000000 0.000000 
#    y 0.000000 1.553130 0.000000 
#    z 0.000000 0.000000 1.590930 
# 
# From -- ./inp_files/2904.got.cif
#   From: 2010.05.17/outbox.cif.g08.bks.cpg/sg57_2_cif.got.tgz:2904.got - 2010.06.03 13:58:18.
