data_PCOD9439023
_publ_section_title
;
Structure prediction by ZEFSAII (Michael W. Deem and Ramdas Pophale) SiO2 
 PCOD9439023
Probable space group: P B C M
;
_chemical_formula_sum "Si O2"
_cell_formula_units_Z 40
_cell_length_a 14.260036
_cell_length_b 9.382909
_cell_length_c 14.307457
_cell_angle_alpha 90.000000
_cell_angle_beta 90.000000
_cell_angle_gamma 90.000000
_cell_volume 1914.346619
_symmetry_space_group_name_H-M "P B C M"
_symmetry_group_IT_number 57
_symmetry_cell_setting 'orthorhombic'
loop_
_space_group_symop_operation_xyz
x,y,z
-x,-y,1/2+z
x,1/2-y,-z
-x,1/2+y,1/2-z
-x,-y,-z
x,y,1/2-z
-x,1/2+y,z
x,1/2-y,1/2+z
loop_
_atom_site_type_symbol
_atom_site_label
_atom_site_fract_x
_atom_site_fract_y
_atom_site_fract_z
Si Si1 0.904688 0.785091 0.362816
Si Si2 0.287967 0.628102 0.061915
Si Si3 0.712546 0.860115 0.929994
Si Si4 0.090929 0.618076 0.137086
Si Si5 0.393103 0.523007 0.250000
Si Si6 0.407449 0.322798 0.750000
O O1 0.899323 0.780379 0.250000
O O2 0.810869 0.711443 0.400192
O O3 0.997265 0.699704 0.392061
O O4 0.911569 0.951018 0.389221
O O5 0.186391 0.682202 0.096573
O O6 0.338414 0.569728 0.155334
O O7 0.337433 0.750000 0.000000
O O8 0.272726 0.501036 0.989108
O O9 0.649214 0.877252 0.839776
O O10 0.662991 0.750000 0.000000
O O11 0.095638 0.625012 0.250000
O O12 0.490193 0.608853 0.250000
O O13 0.405937 0.350968 0.250000
#
# Coordination Sequence:
#
# PCOD9439023 Si02
#       6
#     8   8   8   8   4   4
#     4  10  21  39  66 100 141 188 235 281 343 411
#     4  12  28  46  74 105 145 186 237 290 347 420
#     4  12  24  46  74 103 137 190 233 279 354 423
#     4  10  21  41  66  98 142 189 231 286 343 408
#     4  12  28  54  75 104 144 179 228 301 361 415
#     4  12  28  50  79 104 142 181 230 297 357 421
#
# _framework density 20.894856999999998
#
# number of rings (size 3 to 8) (size 9 to 14) (size 15 to 20)
#    0.000    0.800    6.000    0.000    5.600    3.200 
#    0.000    0.000    0.000    0.000    0.000    0.000 
#    0.000    0.000    0.000    0.000    0.000    0.000 
#
# Total GULP energy -223713.936386 kJ/mol
# GULP energy per Si atom -5592.848410 kJ/mol
# Density = 2.084730 g / cm^3
# Si number density = 20.894857 Si / 1000 Ang^3
#
#
#
# Elastic Constant Matrix: (Units=GPa)
#
#
# Indices 1 2 3 4 5 6 
#
# 1 110.5542 10.1096 53.0597 0.0000 0.0000 0.0000
# 2 10.1096 58.8747 37.0682 0.0000 0.0000 0.0000
# 3 53.0597 37.0682 132.9250 0.0000 0.0000 0.0000
# 4 0.0000 0.0000 0.0000 37.4396 0.0000 0.0000
# 5 0.0000 0.0000 0.0000 0.0000 -85.8424 0.0000
# 6 0.0000 0.0000 0.0000 0.0000 0.0000 24.2369
#
#
#
# Elastic Compliance Matrix: (Units=1/GPa)
#
#
# Indices 1 2 3 4 5 6 
#
# 1 0.011246 0.001086 -0.004792 0.000000 0.000000 0.000000
# 2 0.001086 0.020707 -0.006208 0.000000 0.000000 0.000000
# 3 -0.004792 -0.006208 0.011167 0.000000 0.000000 0.000000
# 4 0.000000 0.000000 0.000000 0.026710 0.000000 0.000000
# 5 0.000000 0.000000 0.000000 0.000000 -0.011649 0.000000
# 6 0.000000 0.000000 0.000000 0.000000 0.000000 0.041259
#
#
# Mechanical properties :
#
#
# Convention : Reuss Voigt Hill
#
# Bulk Modulus (GPa) = 42.93255 55.86988 49.40122
# Shear Modulus (GPa) = 39.36011 8.64125 24.00068
#
# Velocity S-wave (km/s) = 4.34490 2.03582 3.39284
# Velocity P-wave (km/s) = 6.76479 5.68531 6.24840
#
# Compressibility (1/GPa) = 0.02329235
#
# Stress axis : x y z
#
# Youngs Moduli (GPa) = 88.92183 48.29182 89.54952
#
# Poissons Ratio (x) = -0.05244 0.42911
# Poissons Ratio (y) = -0.09656 0.55593
# Poissons Ratio (z) = 0.42610 0.29980
#
# Static dielectric constant tensor:
#      x y z
#    x 1.715620 0.000000 0.000000 
#    y 0.000000 1.767560 0.000000 
#    z 0.000000 0.000000 1.790970 
# 
# From -- ./inp_files/18283.got.cif
#   From: 2010.05.17/outbox.cif.g08.bks.cpg/sg57_10_cif.got.tgz:18283.got - 2010.06.03 13:58:18.
