data_PCOD9439716
_publ_section_title
;
Structure prediction by ZEFSAII (Michael W. Deem and Ramdas Pophale) SiO2 
 PCOD9439716
Probable space group: P B C M
;
_chemical_formula_sum "Si O2"
_cell_formula_units_Z 24
_cell_length_a 5.015732
_cell_length_b 12.690021
_cell_length_c 17.107361
_cell_angle_alpha 90.000000
_cell_angle_beta 90.000000
_cell_angle_gamma 90.000000
_cell_volume 1088.879155
_symmetry_space_group_name_H-M "P B C M"
_symmetry_group_IT_number 57
_symmetry_cell_setting 'orthorhombic'
loop_
_space_group_symop_operation_xyz
x,y,z
-x,-y,1/2+z
x,1/2-y,-z
-x,1/2+y,1/2-z
-x,-y,-z
x,y,1/2-z
-x,1/2+y,z
x,1/2-y,1/2+z
loop_
_atom_site_type_symbol
_atom_site_label
_atom_site_fract_x
_atom_site_fract_y
_atom_site_fract_z
Si Si1 0.267005 0.662708 0.658246
Si Si2 0.240822 0.076125 0.566544
Si Si3 0.370873 0.843161 0.555988
O O1 0.232583 0.648871 0.750000
O O2 0.501391 0.590752 0.622752
O O3 0.359986 0.782604 0.637811
O O4 0.999273 0.629884 0.612430
O O5 0.346871 0.127144 0.485034
O O6 0.208829 0.951160 0.554993
O O7 0.265597 0.750000 0.500000
#
# Coordination Sequence:
#
# PCOD9439716 Si02
#       3
#     8   8   8
#     4  11  24  41  64  97 133 170 213 265 328 387
#     4  10  23  42  64  93 129 169 216 267 319 380
#     4   9  22  41  67  93 124 167 216 263 314 378
#
# _framework density 22.041015000000002
#
# number of rings (size 3 to 8) (size 9 to 14) (size 15 to 20)
#    0.000    2.000    0.000    1.000    0.000   32.000 
#    0.000    0.000    0.000    0.000    0.000    0.000 
#    0.000    0.000    0.000    0.000    0.000    0.000 
#
# Total GULP energy -133931.637456 kJ/mol
# GULP energy per Si atom -5580.484894 kJ/mol
# Density = 2.199085 g / cm^3
# Si number density = 22.041015 Si / 1000 Ang^3
#
#
#
# Elastic Constant Matrix: (Units=GPa)
#
#
# Indices 1 2 3 4 5 6 
#
# 1 162.7949 41.8380 80.4248 0.0000 0.0000 0.0000
# 2 41.8380 157.7322 45.2304 0.0000 0.0000 0.0000
# 3 80.4248 45.2304 99.9733 0.0000 0.0000 0.0000
# 4 0.0000 0.0000 0.0000 15.3118 0.0000 0.0000
# 5 0.0000 0.0000 0.0000 0.0000 29.9164 0.0000
# 6 0.0000 0.0000 0.0000 0.0000 0.0000 24.0621
#
#
#
# Elastic Compliance Matrix: (Units=1/GPa)
#
#
# Indices 1 2 3 4 5 6 
#
# 1 0.010217 -0.000406 -0.008035 0.000000 0.000000 0.000000
# 2 -0.000406 0.007301 -0.002977 0.000000 0.000000 0.000000
# 3 -0.008035 -0.002977 0.017814 0.000000 0.000000 0.000000
# 4 0.000000 0.000000 0.000000 0.065309 0.000000 0.000000
# 5 0.000000 0.000000 0.000000 0.000000 0.033427 0.000000
# 6 0.000000 0.000000 0.000000 0.000000 0.000000 0.041559
#
#
# Mechanical properties :
#
#
# Convention : Reuss Voigt Hill
#
# Bulk Modulus (GPa) = 80.02844 83.94298 81.98571
# Shear Modulus (GPa) = 24.67592 30.72522 27.70057
#
# Velocity S-wave (km/s) = 3.34959 3.73768 3.54895
# Velocity P-wave (km/s) = 7.16571 7.53622 7.35330
#
# Compressibility (1/GPa) = 0.01249556
#
# Stress axis : x y z
#
# Youngs Moduli (GPa) = 97.87963 136.96586 56.13701
#
# Poissons Ratio (x) = 0.05558 0.45108
# Poissons Ratio (y) = 0.03972 0.16711
# Poissons Ratio (z) = 0.78649 0.40772
#
# Static dielectric constant tensor:
#      x y z
#    x 1.858880 0.000000 0.000000 
#    y 0.000000 1.857620 0.000000 
#    z 0.000000 0.000000 1.867410 
# 
# From -- ./inp_files/14581.got.cif
#   From: 2010.05.17/outbox.cif.g08.bks.cpg/sg57_8_cif.got.tgz:14581.got - 2010.06.03 13:58:18.
