data_PCOD9439279
_publ_section_title
;
Structure prediction by ZEFSAII (Michael W. Deem and Ramdas Pophale) SiO2 
 PCOD9439279
Probable space group: P B C M
;
_chemical_formula_sum "Si O2"
_cell_formula_units_Z 48
_cell_length_a 10.554483
_cell_length_b 11.215107
_cell_length_c 18.771735
_cell_angle_alpha 90.000000
_cell_angle_beta 90.000000
_cell_angle_gamma 90.000000
_cell_volume 2222.003818
_symmetry_space_group_name_H-M "P B C M"
_symmetry_group_IT_number 57
_symmetry_cell_setting 'orthorhombic'
loop_
_space_group_symop_operation_xyz
x,y,z
-x,-y,1/2+z
x,1/2-y,-z
-x,1/2+y,1/2-z
-x,-y,-z
x,y,1/2-z
-x,1/2+y,z
x,1/2-y,1/2+z
loop_
_atom_site_type_symbol
_atom_site_label
_atom_site_fract_x
_atom_site_fract_y
_atom_site_fract_z
Si Si1 0.159095 0.324889 0.436333
Si Si2 0.720276 0.348748 0.668076
Si Si3 0.407849 0.895066 0.332849
Si Si4 0.401878 0.033879 0.561125
Si Si5 0.968402 0.498789 0.830384
Si Si6 0.241877 0.122391 0.168239
O O1 0.098016 0.250000 0.500000
O O2 0.272144 0.407564 0.466683
O O3 0.064823 0.404823 0.390040
O O4 0.227096 0.233139 0.383167
O O5 0.680187 0.376581 0.750000
O O6 0.695307 0.209177 0.657331
O O7 0.640825 0.423793 0.611017
O O8 0.864948 0.392829 0.662146
O O9 0.446272 0.892061 0.250000
O O10 0.524006 0.877445 0.385684
O O11 0.348169 0.024331 0.348430
O O12 0.500000 0.000000 0.500000
O O13 0.952002 0.549298 0.750000
O O14 0.108128 0.447200 0.835726
O O15 0.261196 0.161579 0.250000
#
# Coordination Sequence:
#
# PCOD9439279 Si02
#       6
#     8   8   8   8   8   8
#     4  11  24  40  61  89 124 163 203 250 303 363
#     4   9  20  39  61  88 118 154 200 249 305 360
#     4  10  22  37  60  90 120 153 199 252 302 358
#     4  11  24  40  61  84 120 165 204 247 299 362
#     4   9  20  40  66  91 120 157 200 250 306 364
#     4  10  22  39  65  95 122 154 201 255 305 362
#
# _framework density 21.602122999999999
#
# number of rings (size 3 to 8) (size 9 to 14) (size 15 to 20)
#    0.000    2.000    0.000    2.000    7.000    2.667 
#    0.000    0.000    0.000    0.000    0.000    0.000 
#    0.000    0.000    0.000    0.000    0.000    0.000 
#
# Total GULP energy -268316.926986 kJ/mol
# GULP energy per Si atom -5589.935979 kJ/mol
# Density = 2.155296 g / cm^3
# Si number density = 21.602123 Si / 1000 Ang^3
#
#
#
# Elastic Constant Matrix: (Units=GPa)
#
#
# Indices 1 2 3 4 5 6 
#
# 1 49.7867 -20.0744 7.1183 0.0000 0.0000 0.0000
# 2 -20.0744 38.3242 4.8981 0.0000 0.0000 0.0000
# 3 7.1183 4.8981 50.6854 0.0000 0.0000 0.0000
# 4 0.0000 0.0000 0.0000 23.7262 0.0000 0.0000
# 5 0.0000 0.0000 0.0000 0.0000 25.3006 0.0000
# 6 0.0000 0.0000 0.0000 0.0000 0.0000 14.8264
#
#
#
# Elastic Compliance Matrix: (Units=1/GPa)
#
#
# Indices 1 2 3 4 5 6 
#
# 1 0.026739 0.014667 -0.005173 0.000000 0.000000 0.000000
# 2 0.014667 0.034465 -0.005390 0.000000 0.000000 0.000000
# 3 -0.005173 -0.005390 0.020977 0.000000 0.000000 0.000000
# 4 0.000000 0.000000 0.000000 0.042148 0.000000 0.000000
# 5 0.000000 0.000000 0.000000 0.000000 0.039525 0.000000
# 6 0.000000 0.000000 0.000000 0.000000 0.000000 0.067447
#
#
# Mechanical properties :
#
#
# Convention : Reuss Voigt Hill
#
# Bulk Modulus (GPa) = 11.06328 13.63114 12.34721
# Shear Modulus (GPa) = 19.74554 22.56094 21.15324
#
# Velocity S-wave (km/s) = 3.02661 3.23520 3.13264
# Velocity P-wave (km/s) = 4.16490 4.50324 4.33737
#
# Compressibility (1/GPa) = 0.09038909
#
# Stress axis : x y z
#
# Youngs Moduli (GPa) = 37.39833 29.01509 47.67142
#
# Poissons Ratio (x) = -0.42557 0.24659
# Poissons Ratio (y) = -0.54853 0.25697
# Poissons Ratio (z) = 0.19345 0.15640
#
# Static dielectric constant tensor:
#      x y z
#    x 1.768350 0.000000 0.000000 
#    y 0.000000 1.769180 0.000000 
#    z 0.000000 0.000000 1.789370 
# 
# From -- ./inp_files/21813.got.cif
#   From: 2010.05.17/outbox.cif.g08.bks.cpg/sg57_11_cif.got.tgz:21813.got - 2010.06.03 13:58:18.
