data_PCOD9439360
_publ_section_title
;
Structure prediction by ZEFSAII (Michael W. Deem and Ramdas Pophale) SiO2 
 PCOD9439360
Probable space group: P B C M
;
_chemical_formula_sum "Si O2"
_cell_formula_units_Z 60
_cell_length_a 18.338335
_cell_length_b 9.363440
_cell_length_c 17.473081
_cell_angle_alpha 90.000000
_cell_angle_beta 90.000000
_cell_angle_gamma 90.000000
_cell_volume 3000.300982
_symmetry_space_group_name_H-M "P B C M"
_symmetry_group_IT_number 57
_symmetry_cell_setting 'orthorhombic'
loop_
_space_group_symop_operation_xyz
x,y,z
-x,-y,1/2+z
x,1/2-y,-z
-x,1/2+y,1/2-z
-x,-y,-z
x,y,1/2-z
-x,1/2+y,z
x,1/2-y,1/2+z
loop_
_atom_site_type_symbol
_atom_site_label
_atom_site_fract_x
_atom_site_fract_y
_atom_site_fract_z
Si Si1 0.528432 0.433085 0.920646
Si Si2 0.863541 0.879061 0.445874
Si Si3 0.351218 0.750000 0.500000
Si Si4 0.976588 0.043896 0.340075
Si Si5 0.250960 0.283748 0.840514
Si Si6 0.776097 0.434417 0.068097
Si Si7 0.900926 0.337697 0.161193
Si Si8 0.581630 0.717352 0.840903
O O1 0.553150 0.563442 0.867622
O O2 0.465322 0.338071 0.883255
O O3 0.500000 0.500000 0.000000
O O4 0.596351 0.331260 0.940853
O O5 0.891578 0.750000 0.500000
O O6 0.925300 0.959770 0.398486
O O7 0.807114 0.809911 0.386235
O O8 0.818172 0.987369 0.499169
O O9 0.297696 0.638140 0.540567
O O10 0.961031 0.009164 0.250000
O O11 0.058494 0.988281 0.353584
O O12 0.959432 0.210922 0.349717
O O13 0.239846 0.272296 0.750000
O O14 0.240981 0.445454 0.868901
O O15 0.332983 0.234484 0.859888
O O16 0.832339 0.323284 0.106130
O O17 0.878289 0.332994 0.250000
O O18 0.573415 0.733607 0.750000
#
# Coordination Sequence:
#
# PCOD9439360 Si02
#       8
#     8   8   4   8   8   8   8   8
#     4  12  23  43  67  95 129 172 216 262 322 392
#     4  10  22  39  61  94 126 166 211 262 319 378
#     4  12  24  40  66  92 128 170 214 262 326 390
#     4  10  22  41  64  90 123 169 216 262 315 381
#     4  10  22  40  65  91 129 170 211 261 320 383
#     4  11  23  40  61  96 130 166 210 267 324 379
#     4  10  23  41  64  92 127 170 217 263 319 383
#     4  11  24  42  64  97 129 167 213 269 320 378
#
# _framework density 19.997993000000001
#
# number of rings (size 3 to 8) (size 9 to 14) (size 15 to 20)
#    0.000    1.333    1.333    3.600    3.733    2.667 
#    1.200    3.333    0.000    0.000    0.000    0.000 
#    0.000    0.000    0.000    0.000    0.000    0.000 
#
# Total GULP energy -335626.909350 kJ/mol
# GULP energy per Si atom -5593.781823 kJ/mol
# Density = 1.995248 g / cm^3
# Si number density = 19.997993 Si / 1000 Ang^3
#
#
#
# Elastic Constant Matrix: (Units=GPa)
#
#
# Indices 1 2 3 4 5 6 
#
# 1 23.7189 -10.6689 15.1302 0.0000 0.0000 0.0000
# 2 -10.6689 50.5484 11.4185 0.0000 0.0000 0.0000
# 3 15.1302 11.4185 50.3920 0.0000 0.0000 0.0000
# 4 0.0000 0.0000 0.0000 35.4395 0.0000 0.0000
# 5 0.0000 0.0000 0.0000 0.0000 37.7161 0.0000
# 6 0.0000 0.0000 0.0000 0.0000 0.0000 39.4521
#
#
#
# Elastic Compliance Matrix: (Units=1/GPa)
#
#
# Indices 1 2 3 4 5 6 
#
# 1 0.066523 0.019553 -0.024404 0.000000 0.000000 0.000000
# 2 0.019553 0.026598 -0.011898 0.000000 0.000000 0.000000
# 3 -0.024404 -0.011898 0.029868 0.000000 0.000000 0.000000
# 4 0.000000 0.000000 0.000000 0.028217 0.000000 0.000000
# 5 0.000000 0.000000 0.000000 0.000000 0.026514 0.000000
# 6 0.000000 0.000000 0.000000 0.000000 0.000000 0.025347
#
#
# Mechanical properties :
#
#
# Convention : Reuss Voigt Hill
#
# Bulk Modulus (GPa) = 11.17428 17.37988 14.27708
# Shear Modulus (GPa) = 18.76916 29.77351 24.27134
#
# Velocity S-wave (km/s) = 3.06690 3.86272 3.48758
# Velocity P-wave (km/s) = 4.25923 5.34825 4.83450
#
# Compressibility (1/GPa) = 0.08949122
#
# Stress axis : x y z
#
# Youngs Moduli (GPa) = 15.03235 37.59733 33.48093
#
# Poissons Ratio (x) = -0.73515 0.81708
# Poissons Ratio (y) = -0.29393 0.39835
# Poissons Ratio (z) = 0.36685 0.44732
#
# Static dielectric constant tensor:
#      x y z
#    x 1.676480 0.000000 0.000000 
#    y 0.000000 1.705070 0.000000 
#    z 0.000000 0.000000 1.682630 
# 
# From -- ./inp_files/22872.got.cif
#   From: 2010.05.17/outbox.cif.g08.bks.cpg/sg57_12_cif.got.tgz:22872.got - 2010.06.03 13:58:18.
