data_PCOD9439411
_publ_section_title
;
Structure prediction by ZEFSAII (Michael W. Deem and Ramdas Pophale) SiO2 
 PCOD9439411
Probable space group: P B C M
;
_chemical_formula_sum "Si O2"
_cell_formula_units_Z 52
_cell_length_a 11.911401
_cell_length_b 8.634300
_cell_length_c 23.126459
_cell_angle_alpha 90.000000
_cell_angle_beta 90.000000
_cell_angle_gamma 90.000000
_cell_volume 2378.477901
_symmetry_space_group_name_H-M "P B C M"
_symmetry_group_IT_number 57
_symmetry_cell_setting 'orthorhombic'
loop_
_space_group_symop_operation_xyz
x,y,z
-x,-y,1/2+z
x,1/2-y,-z
-x,1/2+y,1/2-z
-x,-y,-z
x,y,1/2-z
-x,1/2+y,z
x,1/2-y,1/2+z
loop_
_atom_site_type_symbol
_atom_site_label
_atom_site_fract_x
_atom_site_fract_y
_atom_site_fract_z
Si Si1 0.553288 0.549279 0.061901
Si Si2 0.714807 0.750000 0.000000
Si Si3 0.662712 0.569185 0.750000
Si Si4 0.367732 0.741777 0.123500
Si Si5 0.540501 0.266317 0.750000
Si Si6 0.096228 0.053485 0.042263
Si Si7 0.834790 0.438751 0.657059
Si Si8 0.019241 0.688933 0.622403
O O1 0.458531 0.614313 0.103791
O O2 0.614479 0.398809 0.087418
O O3 0.500000 0.500000 0.000000
O O4 0.633584 0.699083 0.051746
O O5 0.799000 0.895207 0.996689
O O6 0.558690 0.450516 0.750000
O O7 0.591934 0.726286 0.750000
O O8 0.745079 0.524252 0.697880
O O9 0.394753 0.782286 0.190906
O O10 0.250148 0.652249 0.114678
O O11 0.044338 0.196100 0.078268
O O12 0.109474 0.916781 0.088392
O O13 0.000000 0.000000 0.000000
O O14 0.922400 0.571431 0.641218
O O15 0.918993 0.293647 0.670835
#
# Coordination Sequence:
#
# PCOD9439411 Si02
#       8
#     8   4   4   8   4   8   8   8
#     4  12  25  42  63 103 140 186 223 283 354 429
#     4  12  24  38  64  92 136 180 224 272 354 400
#     4  10  22  44  70  98 134 170 222 284 358 396
#     4  11  23  44  70  97 142 177 236 285 350 419
#     4  10  22  44  72 100 128 180 232 284 334 420
#     4  11  21  39  61  91 127 175 225 273 316 415
#     4  10  23  41  66  95 128 176 216 294 337 411
#     4  10  22  40  62  93 130 170 227 272 343 402
#
# _framework density 21.862721000000001
#
# number of rings (size 3 to 8) (size 9 to 14) (size 15 to 20)
#    0.000    1.231    3.077    2.769    2.154    1.846 
#    0.000    9.231    0.000    0.000    0.000    0.000 
#    0.000    0.000    0.000    0.000    0.000    0.000 
#
# Total GULP energy -289530.809602 kJ/mol
# GULP energy per Si atom -5567.900185 kJ/mol
# Density = 2.181296 g / cm^3
# Si number density = 21.862721 Si / 1000 Ang^3
#
#
#
# Elastic Constant Matrix: (Units=GPa)
#
#
# Indices 1 2 3 4 5 6 
#
# 1 139.6825 60.3995 22.9113 0.0000 0.0000 0.0000
# 2 60.3995 113.7793 30.0671 0.0000 0.0000 0.0000
# 3 22.9113 30.0671 63.5726 0.0000 0.0000 0.0000
# 4 0.0000 0.0000 0.0000 15.5909 0.0000 0.0000
# 5 0.0000 0.0000 0.0000 0.0000 21.7387 0.0000
# 6 0.0000 0.0000 0.0000 0.0000 0.0000 60.9317
#
#
#
# Elastic Compliance Matrix: (Units=1/GPa)
#
#
# Indices 1 2 3 4 5 6 
#
# 1 0.009368 -0.004663 -0.001170 0.000000 0.000000 0.000000
# 2 -0.004663 0.012366 -0.004168 0.000000 0.000000 0.000000
# 3 -0.001170 -0.004168 0.018123 0.000000 0.000000 0.000000
# 4 0.000000 0.000000 0.000000 0.064140 0.000000 0.000000
# 5 0.000000 0.000000 0.000000 0.000000 0.046001 0.000000
# 6 0.000000 0.000000 0.000000 0.000000 0.000000 0.016412
#
#
# Mechanical properties :
#
#
# Convention : Reuss Voigt Hill
#
# Bulk Modulus (GPa) = 50.36997 60.42114 55.39556
# Shear Modulus (GPa) = 25.90264 33.22936 29.56600
#
# Velocity S-wave (km/s) = 3.44581 3.90283 3.68142
# Velocity P-wave (km/s) = 6.23864 6.92864 6.59267
#
# Compressibility (1/GPa) = 0.01985310
#
# Stress axis : x y z
#
# Youngs Moduli (GPa) = 106.75111 80.86735 55.17828
#
# Poissons Ratio (x) = 0.37712 0.06458
# Poissons Ratio (y) = 0.49783 0.22997
# Poissons Ratio (z) = 0.12494 0.33704
#
# Static dielectric constant tensor:
#      x y z
#    x 1.848160 0.000000 0.000000 
#    y 0.000000 1.769550 0.000000 
#    z 0.000000 0.000000 1.848310 
# 
# From -- ./inp_files/28592.got.cif
#   From: 2010.05.17/outbox.cif.g08.bks.cpg/sg57_15_cif.got.tgz:28592.got - 2010.06.03 13:58:18.
