data_PCOD9439604
_publ_section_title
;
Structure prediction by ZEFSAII (Michael W. Deem and Ramdas Pophale) SiO2 
 PCOD9439604
Probable space group: P B C M
;
_chemical_formula_sum "Si O2"
_cell_formula_units_Z 36
_cell_length_a 7.105946
_cell_length_b 13.984852
_cell_length_c 14.092826
_cell_angle_alpha 90.000000
_cell_angle_beta 90.000000
_cell_angle_gamma 90.000000
_cell_volume 1400.483084
_symmetry_space_group_name_H-M "P B C M"
_symmetry_group_IT_number 57
_symmetry_cell_setting 'orthorhombic'
loop_
_space_group_symop_operation_xyz
x,y,z
-x,-y,1/2+z
x,1/2-y,-z
-x,1/2+y,1/2-z
-x,-y,-z
x,y,1/2-z
-x,1/2+y,z
x,1/2-y,1/2+z
loop_
_atom_site_type_symbol
_atom_site_label
_atom_site_fract_x
_atom_site_fract_y
_atom_site_fract_z
Si Si1 0.126065 0.778197 0.891358
Si Si2 0.350645 0.084442 0.980823
Si Si3 0.091457 0.885784 0.250000
Si Si4 0.028651 0.992347 0.637821
Si Si5 0.429537 0.232640 0.141604
O O1 0.039558 0.693658 0.831543
O O2 0.345997 0.784642 0.864627
O O3 0.043985 0.880961 0.866782
O O4 0.107061 0.750000 0.000000
O O5 0.158689 0.035868 0.943130
O O6 0.404096 0.160444 0.898655
O O7 0.339282 0.154631 0.071457
O O8 0.500000 0.000000 0.000000
O O9 0.169311 0.959013 0.160629
O O10 0.094287 0.028491 0.750000
O O11 0.369847 0.223551 0.250000
#
# Coordination Sequence:
#
# PCOD9439604 Si02
#       5
#     8   8   4   8   8
#     4  12  21  43  71  99 134 183 235 285 342 413
#     4  11  21  39  66 103 136 177 226 278 357 420
#     4  10  24  42  68  92 134 192 232 276 334 410
#     4  10  22  43  69  95 140 183 228 290 348 408
#     4  11  22  37  68 102 141 179 219 287 349 424
#
# _framework density 25.705416
#
# number of rings (size 3 to 8) (size 9 to 14) (size 15 to 20)
#    0.667    0.444    6.667    0.667    0.000    1.778 
#    4.000    0.000    9.778    0.000    0.000    0.000 
#    0.000    0.000    0.000    0.000    0.000    0.000 
#
# Total GULP energy -200670.943769 kJ/mol
# GULP energy per Si atom -5574.192882 kJ/mol
# Density = 2.564691 g / cm^3
# Si number density = 25.705416 Si / 1000 Ang^3
#
#
#
# Elastic Constant Matrix: (Units=GPa)
#
#
# Indices 1 2 3 4 5 6 
#
# 1 101.2718 38.2811 33.1114 0.0000 0.0000 0.0000
# 2 38.2811 199.9798 50.7061 0.0000 0.0000 0.0000
# 3 33.1114 50.7061 196.4619 0.0000 0.0000 0.0000
# 4 0.0000 0.0000 0.0000 54.6385 0.0000 0.0000
# 5 0.0000 0.0000 0.0000 0.0000 -55.6729 0.0000
# 6 0.0000 0.0000 0.0000 0.0000 0.0000 30.8559
#
#
#
# Elastic Compliance Matrix: (Units=1/GPa)
#
#
# Indices 1 2 3 4 5 6 
#
# 1 0.010994 -0.001749 -0.001401 0.000000 0.000000 0.000000
# 2 -0.001749 0.005629 -0.001158 0.000000 0.000000 0.000000
# 3 -0.001401 -0.001158 0.005625 0.000000 0.000000 0.000000
# 4 0.000000 0.000000 0.000000 0.018302 0.000000 0.000000
# 5 0.000000 0.000000 0.000000 0.000000 -0.017962 0.000000
# 6 0.000000 0.000000 0.000000 0.000000 0.000000 0.032409
#
#
# Mechanical properties :
#
#
# Convention : Reuss Voigt Hill
#
# Bulk Modulus (GPa) = 73.36384 82.43454 77.89919
# Shear Modulus (GPa) = 73.35964 31.00529 52.18246
#
# Velocity S-wave (km/s) = 5.34795 3.47677 4.51046
# Velocity P-wave (km/s) = 8.16923 6.94664 7.58261
#
# Compressibility (1/GPa) = 0.01363069
#
# Stress axis : x y z
#
# Youngs Moduli (GPa) = 90.96029 177.65274 177.77394
#
# Poissons Ratio (x) = 0.31074 0.24914
# Poissons Ratio (y) = 0.15910 0.20586
# Poissons Ratio (z) = 0.12747 0.20572
#
# Static dielectric constant tensor:
#      x y z
#    x 2.070300 0.000000 0.000000 
#    y 0.000000 1.990300 0.000000 
#    z 0.000000 0.000000 2.114470 
# 
# From -- ./inp_files/15783.got.cif
#   From: 2010.05.17/outbox.cif.g08.bks.cpg/sg57_8_cif.got.tgz:15783.got - 2010.06.03 13:58:18.
