data_PCOD9439845
_publ_section_title
;
Structure prediction by ZEFSAII (Michael W. Deem and Ramdas Pophale) SiO2 
 PCOD9439845
Probable space group: P B C M
;
_chemical_formula_sum "Si O2"
_cell_formula_units_Z 24
_cell_length_a 14.332057
_cell_length_b 8.688331
_cell_length_c 8.590880
_cell_angle_alpha 90.000000
_cell_angle_beta 90.000000
_cell_angle_gamma 90.000000
_cell_volume 1069.750597
_symmetry_space_group_name_H-M "P B C M"
_symmetry_group_IT_number 57
_symmetry_cell_setting 'orthorhombic'
loop_
_space_group_symop_operation_xyz
x,y,z
-x,-y,1/2+z
x,1/2-y,-z
-x,1/2+y,1/2-z
-x,-y,-z
x,y,1/2-z
-x,1/2+y,z
x,1/2-y,1/2+z
loop_
_atom_site_type_symbol
_atom_site_label
_atom_site_fract_x
_atom_site_fract_y
_atom_site_fract_z
Si Si1 0.118106 0.921617 0.750000
Si Si2 0.590483 0.419403 0.068522
Si Si3 0.796624 0.025165 0.574755
Si Si4 0.087396 0.288345 0.750000
O O1 0.168956 0.896577 0.584036
O O2 0.099251 0.106556 0.750000
O O3 0.020899 0.831615 0.750000
O O4 0.573791 0.402197 0.250000
O O5 0.687571 0.510666 0.047580
O O6 0.605109 0.250000 0.000000
O O7 0.500000 0.500000 0.000000
O O8 0.800064 0.102864 0.750000
O O9 0.861597 0.877851 0.608148
#
# Coordination Sequence:
#
# PCOD9439845 Si02
#       4
#     4   8   8   4
#     4  12  22  42  69  92 137 178 219 284 338 400
#     4  11  25  46  71 104 138 177 228 283 344 412
#     4   9  24  42  63  97 131 175 222 269 331 405
#     4  10  24  42  63 100 131 176 229 276 342 402
#
# _framework density 22.435137000000001
#
# number of rings (size 3 to 8) (size 9 to 14) (size 15 to 20)
#    1.000    0.667    0.000    3.000    4.667    5.333 
#    0.000    0.000    0.000    0.000    0.000    0.000 
#    0.000    0.000    0.000    0.000    0.000    0.000 
#
# Total GULP energy -133957.947221 kJ/mol
# GULP energy per Si atom -5581.581134 kJ/mol
# Density = 2.238407 g / cm^3
# Si number density = 22.435137 Si / 1000 Ang^3
#
#
#
# Elastic Constant Matrix: (Units=GPa)
#
#
# Indices 1 2 3 4 5 6 
#
# 1 173.3329 17.1265 94.9867 0.0000 0.0000 0.0000
# 2 17.1265 44.0021 46.0858 0.0000 0.0000 0.0000
# 3 94.9867 46.0858 194.2361 0.0000 0.0000 0.0000
# 4 0.0000 0.0000 0.0000 48.8714 0.0000 0.0000
# 5 0.0000 0.0000 0.0000 0.0000 20.4658 0.0000
# 6 0.0000 0.0000 0.0000 0.0000 0.0000 -28.9032
#
#
#
# Elastic Compliance Matrix: (Units=1/GPa)
#
#
# Indices 1 2 3 4 5 6 
#
# 1 0.007937 0.001299 -0.004189 0.000000 0.000000 0.000000
# 2 0.001299 0.030454 -0.007861 0.000000 0.000000 0.000000
# 3 -0.004189 -0.007861 0.009062 0.000000 0.000000 0.000000
# 4 0.000000 0.000000 0.000000 0.020462 0.000000 0.000000
# 5 0.000000 0.000000 0.000000 0.000000 0.048862 0.000000
# 6 0.000000 0.000000 0.000000 0.000000 0.000000 -0.034598
#
#
# Mechanical properties :
#
#
# Convention : Reuss Voigt Hill
#
# Bulk Modulus (GPa) = 38.53615 80.88544 59.71079
# Shear Modulus (GPa) = 44.51129 24.97827 34.74478
#
# Velocity S-wave (km/s) = 4.45904 3.34032 3.93959
# Velocity P-wave (km/s) = 6.61247 7.14201 6.88233
#
# Compressibility (1/GPa) = 0.02594966
#
# Stress axis : x y z
#
# Youngs Moduli (GPa) = 125.99653 32.83676 110.34852
#
# Poissons Ratio (x) = -0.04264 0.46229
# Poissons Ratio (y) = -0.16363 0.86742
# Poissons Ratio (z) = 0.52785 0.25812
#
# Static dielectric constant tensor:
#      x y z
#    x 1.782690 0.000000 0.000000 
#    y 0.000000 1.830100 0.000000 
#    z 0.000000 0.000000 1.862870 
# 
# From -- ./inp_files/3959.got.cif
#   From: 2010.05.17/outbox.cif.g08.bks.cpg/sg57_2_cif.got.tgz:3959.got - 2010.06.03 13:58:18.
