data_PCOD9439908
_publ_section_title
;
Structure prediction by ZEFSAII (Michael W. Deem and Ramdas Pophale) SiO2 
 PCOD9439908
Probable space group: P B C M
;
_chemical_formula_sum "Si O2"
_cell_formula_units_Z 40
_cell_length_a 4.982502
_cell_length_b 10.162272
_cell_length_c 28.697127
_cell_angle_alpha 90.000000
_cell_angle_beta 90.000000
_cell_angle_gamma 90.000000
_cell_volume 1453.037144
_symmetry_space_group_name_H-M "P B C M"
_symmetry_group_IT_number 57
_symmetry_cell_setting 'orthorhombic'
loop_
_space_group_symop_operation_xyz
x,y,z
-x,-y,1/2+z
x,1/2-y,-z
-x,1/2+y,1/2-z
-x,-y,-z
x,y,1/2-z
-x,1/2+y,z
x,1/2-y,1/2+z
loop_
_atom_site_type_symbol
_atom_site_label
_atom_site_fract_x
_atom_site_fract_y
_atom_site_fract_z
Si Si1 0.799879 0.852131 0.378584
Si Si2 0.587784 0.301384 0.946717
Si Si3 0.086347 0.464844 0.552006
Si Si4 0.169119 0.710963 0.801998
Si Si5 0.470648 0.531155 0.302830
O O1 0.562542 0.788173 0.408887
O O2 0.960188 0.759760 0.342582
O O3 0.005751 0.921017 0.413597
O O4 0.688359 0.966349 0.345043
O O5 0.891542 0.342495 0.936674
O O6 0.396784 0.429846 0.946078
O O7 0.571456 0.250000 0.000000
O O8 0.000000 0.500000 0.500000
O O9 0.058715 0.734014 0.750000
O O10 0.258764 0.557484 0.805132
O O11 0.421277 0.811807 0.806699
O O12 0.372083 0.500282 0.250000
#
# Coordination Sequence:
#
# PCOD9439908 Si02
#       5
#     8   8   8   8   8
#     4  12  27  43  78 108 157 206 274 336 413 485
#     4  12  28  48  76 109 156 208 270 330 409 482
#     4  12  28  49  74 112 154 212 267 338 404 485
#     4  10  24  48  77 116 161 213 273 337 411 491
#     4  10  24  46  75 111 156 208 264 334 406 487
#
# _framework density 27.528547
#
# number of rings (size 3 to 8) (size 9 to 14) (size 15 to 20)
#    0.000    0.800    2.000    3.000    8.400    1.600 
#    0.000    4.000    0.000    0.000    0.000    0.000 
#    0.000    0.000    0.000    0.000    0.000    0.000 
#
# Total GULP energy -224323.417253 kJ/mol
# GULP energy per Si atom -5608.085431 kJ/mol
# Density = 2.746589 g / cm^3
# Si number density = 27.528547 Si / 1000 Ang^3
#
#
#
# Elastic Constant Matrix: (Units=GPa)
#
#
# Indices 1 2 3 4 5 6 
#
# 1 88.7790 33.0910 42.8599 0.0000 0.0000 0.0000
# 2 33.0910 104.8020 59.3875 0.0000 0.0000 0.0000
# 3 42.8599 59.3875 209.9121 0.0000 0.0000 0.0000
# 4 0.0000 0.0000 0.0000 45.6157 0.0000 0.0000
# 5 0.0000 0.0000 0.0000 0.0000 41.7944 0.0000
# 6 0.0000 0.0000 0.0000 0.0000 0.0000 46.4921
#
#
#
# Elastic Compliance Matrix: (Units=1/GPa)
#
#
# Indices 1 2 3 4 5 6 
#
# 1 0.013327 -0.003175 -0.001823 0.000000 0.000000 0.000000
# 2 -0.003175 0.012120 -0.002781 0.000000 0.000000 0.000000
# 3 -0.001823 -0.002781 0.005923 0.000000 0.000000 0.000000
# 4 0.000000 0.000000 0.000000 0.021922 0.000000 0.000000
# 5 0.000000 0.000000 0.000000 0.000000 0.023927 0.000000
# 6 0.000000 0.000000 0.000000 0.000000 0.000000 0.021509
#
#
# Mechanical properties :
#
#
# Convention : Reuss Voigt Hill
#
# Bulk Modulus (GPa) = 63.23957 74.90779 69.07368
# Shear Modulus (GPa) = 41.82118 44.65740 43.23929
#
# Velocity S-wave (km/s) = 3.90191 4.03205 3.96751
# Velocity P-wave (km/s) = 6.58195 6.99618 6.79223
#
# Compressibility (1/GPa) = 0.01581288
#
# Stress axis : x y z
#
# Youngs Moduli (GPa) = 75.03309 82.50792 168.83923
#
# Poissons Ratio (x) = 0.26197 0.30778
# Poissons Ratio (y) = 0.23824 0.46948
# Poissons Ratio (z) = 0.13678 0.22943
#
# Static dielectric constant tensor:
#      x y z
#    x 2.100990 0.000000 0.000000 
#    y 0.000000 2.231300 0.000000 
#    z 0.000000 0.000000 2.058380 
# 
# From -- ./inp_files/27785.got.cif
#   From: 2010.05.17/outbox.cif.g08.bks.cpg/sg57_14_cif.got.tgz:27785.got - 2010.06.03 13:58:18.
