data_PCOD9439973
_publ_section_title
;
Structure prediction by ZEFSAII (Michael W. Deem and Ramdas Pophale) SiO2 
 PCOD9439973
Probable space group: P B C M
;
_chemical_formula_sum "Si O2"
_cell_formula_units_Z 40
_cell_length_a 10.134313
_cell_length_b 20.994323
_cell_length_c 10.304079
_cell_angle_alpha 90.000000
_cell_angle_beta 90.000000
_cell_angle_gamma 90.000000
_cell_volume 2192.327178
_symmetry_space_group_name_H-M "P B C M"
_symmetry_group_IT_number 57
_symmetry_cell_setting 'orthorhombic'
loop_
_space_group_symop_operation_xyz
x,y,z
-x,-y,1/2+z
x,1/2-y,-z
-x,1/2+y,1/2-z
-x,-y,-z
x,y,1/2-z
-x,1/2+y,z
x,1/2-y,1/2+z
loop_
_atom_site_type_symbol
_atom_site_label
_atom_site_fract_x
_atom_site_fract_y
_atom_site_fract_z
Si Si1 0.668526 0.310460 0.593406
Si Si2 0.021957 0.822997 0.982615
Si Si3 0.927988 0.904175 0.750000
Si Si4 0.382176 0.949212 0.985469
Si Si5 0.763026 0.476144 0.250000
Si Si6 0.804653 0.010427 0.250000
Si Si7 0.977516 0.605687 0.750000
O O1 0.634091 0.250000 0.500000
O O2 0.656093 0.298657 0.750000
O O3 0.824010 0.324433 0.562322
O O4 0.591110 0.375349 0.553658
O O5 0.938191 0.860408 0.876212
O O6 0.984659 0.750000 0.000000
O O7 0.998054 0.854482 0.120913
O O8 0.799599 0.949096 0.750000
O O9 0.063256 0.946312 0.750000
O O10 0.281527 0.973386 0.875411
O O11 0.311472 0.952522 0.123558
O O12 0.500000 0.000000 0.000000
O O13 0.904140 0.443926 0.250000
O O14 0.846607 0.936803 0.250000
#
# Coordination Sequence:
#
# PCOD9439973 Si02
#       7
#     8   8   4   8   4   4   4
#     4  11  23  39  60  89 127 155 198 256 308 353
#     4  11  20  32  55  85 121 153 195 247 306 358
#     4  11  19  38  56  83 126 150 189 253 301 374
#     4  12  23  40  62  90 122 157 208 254 296 361
#     4  11  23  34  60  91 114 158 197 237 311 366
#     4  11  21  40  56  85 122 158 189 249 317 340
#     4  11  21  34  58  85 122 148 195 245 301 382
#
# _framework density 18.245452
#
# number of rings (size 3 to 8) (size 9 to 14) (size 15 to 20)
#    0.000    0.800    6.000    2.400    5.600    3.200 
#    0.000    0.000    0.000    7.200    0.000    0.000 
#    0.000    0.000    0.000    0.000    0.000    0.000 
#
# Total GULP energy -223217.070120 kJ/mol
# GULP energy per Si atom -5580.426753 kJ/mol
# Density = 1.820392 g / cm^3
# Si number density = 18.245452 Si / 1000 Ang^3
#
#
#
# Elastic Constant Matrix: (Units=GPa)
#
#
# Indices 1 2 3 4 5 6 
#
# 1 24.9092 29.2063 28.4287 0.0000 0.0000 0.0000
# 2 29.2063 154.6181 73.4138 0.0000 0.0000 0.0000
# 3 28.4287 73.4138 192.6529 0.0000 0.0000 0.0000
# 4 0.0000 0.0000 0.0000 37.0811 0.0000 0.0000
# 5 0.0000 0.0000 0.0000 0.0000 -19.0135 0.0000
# 6 0.0000 0.0000 0.0000 0.0000 0.0000 1416.7040
#
#
#
# Elastic Compliance Matrix: (Units=1/GPa)
#
#
# Indices 1 2 3 4 5 6 
#
# 1 0.055406 -0.008038 -0.005113 0.000000 0.000000 0.000000
# 2 -0.008038 0.009062 -0.002267 0.000000 0.000000 0.000000
# 3 -0.005113 -0.002267 0.006809 0.000000 0.000000 0.000000
# 4 0.000000 0.000000 0.000000 0.026968 0.000000 0.000000
# 5 0.000000 0.000000 0.000000 0.000000 -0.052594 0.000000
# 6 0.000000 0.000000 0.000000 0.000000 0.000000 0.000706
#
#
# Mechanical properties :
#
#
# Convention : Reuss Voigt Hill
#
# Bulk Modulus (GPa) = 24.72740 70.47530 47.60135
# Shear Modulus (GPa) = 55.14266 303.02976 179.08621
#
# Velocity S-wave (km/s) = 5.50348 12.90138 9.91801
# Velocity P-wave (km/s) = 7.34619 16.14427 12.54201
#
# Compressibility (1/GPa) = 0.04044097
#
# Stress axis : x y z
#
# Youngs Moduli (GPa) = 18.04858 110.34594 146.86169
#
# Poissons Ratio (x) = 0.88698 0.75088
# Poissons Ratio (y) = 0.14508 0.33297
# Poissons Ratio (z) = 0.09228 0.25018
#
# Static dielectric constant tensor:
#      x y z
#    x 1.629630 0.000000 0.000000 
#    y 0.000000 1.686590 0.000000 
#    z 0.000000 0.000000 1.590240 
# 
# From -- ./inp_files/2944.got.cif
#   From: 2010.05.17/outbox.cif.g08.bks.cpg/sg57_2_cif.got.tgz:2944.got - 2010.06.03 13:58:18.
