data_PCOD9439205
_publ_section_title
;
Structure prediction by ZEFSAII (Michael W. Deem and Ramdas Pophale) SiO2 
 PCOD9439205
Probable space group: P B C M
;
_chemical_formula_sum "Si O2"
_cell_formula_units_Z 40
_cell_length_a 4.784624
_cell_length_b 28.294526
_cell_length_c 11.497500
_cell_angle_alpha 90.000000
_cell_angle_beta 90.000000
_cell_angle_gamma 90.000000
_cell_volume 1556.516237
_symmetry_space_group_name_H-M "P B C M"
_symmetry_group_IT_number 57
_symmetry_cell_setting 'orthorhombic'
loop_
_space_group_symop_operation_xyz
x,y,z
-x,-y,1/2+z
x,1/2-y,-z
-x,1/2+y,1/2-z
-x,-y,-z
x,y,1/2-z
-x,1/2+y,z
x,1/2-y,1/2+z
loop_
_atom_site_type_symbol
_atom_site_label
_atom_site_fract_x
_atom_site_fract_y
_atom_site_fract_z
Si Si1 0.002729 0.824995 0.250000
Si Si2 0.775060 0.202632 0.052861
Si Si3 0.597184 0.054158 0.493825
Si Si4 0.489390 0.239402 0.750000
Si Si5 0.664911 0.035939 0.750000
Si Si6 0.841030 0.031310 0.250000
Si Si7 0.750654 0.856745 0.489315
O O1 0.320260 0.807923 0.250000
O O2 0.902086 0.850943 0.365515
O O3 0.828715 0.775757 0.250000
O O4 0.581975 0.228012 0.145515
O O5 0.916073 0.250000 0.000000
O O6 0.026706 0.166776 0.077541
O O7 0.538669 0.172504 0.986202
O O8 0.719111 0.061624 0.625814
O O9 0.768982 0.057041 0.372341
O O10 0.342786 0.090529 0.483897
O O11 0.500000 0.000000 0.500000
O O12 0.345656 0.017231 0.750000
O O13 0.845450 0.987862 0.750000
#
# Coordination Sequence:
#
# PCOD9439205 Si02
#       7
#     4   8   8   4   4   4   8
#     4  12  21  40  67  98 122 174 219 282 329 398
#     4  12  24  44  63  97 130 175 210 281 335 405
#     4  10  24  45  69 102 139 183 227 285 336 405
#     4  12  24  40  70  90 134 170 218 272 346 392
#     4  10  21  42  67  96 127 176 226 278 331 380
#     4  10  22  40  68  92 133 178 223 266 340 396
#     4  12  25  41  69  98 136 172 230 270 341 402
#
# _framework density 25.698416000000002
#
# number of rings (size 3 to 8) (size 9 to 14) (size 15 to 20)
#    0.000    0.800    4.000    3.000    0.000    8.000 
#    0.000    4.000    0.000    0.000    0.000    0.000 
#    0.000    0.000    0.000    0.000    0.000    0.000 
#
# Total GULP energy -223586.826924 kJ/mol
# GULP energy per Si atom -5589.670673 kJ/mol
# Density = 2.563993 g / cm^3
# Si number density = 25.698416 Si / 1000 Ang^3
#
#
#
# Elastic Constant Matrix: (Units=GPa)
#
#
# Indices 1 2 3 4 5 6 
#
# 1 94.6740 37.6946 10.1118 0.0000 0.0000 0.0000
# 2 37.6946 143.1303 19.0256 0.0000 0.0000 0.0000
# 3 10.1118 19.0256 120.8031 0.0000 0.0000 0.0000
# 4 0.0000 0.0000 0.0000 23.3502 0.0000 0.0000
# 5 0.0000 0.0000 0.0000 0.0000 7.2034 0.0000
# 6 0.0000 0.0000 0.0000 0.0000 0.0000 60.7296
#
#
#
# Elastic Compliance Matrix: (Units=1/GPa)
#
#
# Indices 1 2 3 4 5 6 
#
# 1 0.011831 -0.003048 -0.000510 0.000000 0.000000 0.000000
# 2 -0.003048 0.007921 -0.000992 0.000000 0.000000 0.000000
# 3 -0.000510 -0.000992 0.008477 0.000000 0.000000 0.000000
# 4 0.000000 0.000000 0.000000 0.042826 0.000000 0.000000
# 5 0.000000 0.000000 0.000000 0.000000 0.138824 0.000000
# 6 0.000000 0.000000 0.000000 0.000000 0.000000 0.016466
#
#
# Mechanical properties :
#
#
# Convention : Reuss Voigt Hill
#
# Bulk Modulus (GPa) = 52.28024 54.69682 53.48853
# Shear Modulus (GPa) = 20.67633 37.70832 29.19232
#
# Velocity S-wave (km/s) = 2.83958 3.83474 3.37405
# Velocity P-wave (km/s) = 5.58022 6.39823 6.00318
#
# Compressibility (1/GPa) = 0.01912768
#
# Stress axis : x y z
#
# Youngs Moduli (GPa) = 84.52681 126.24294 117.96706
#
# Poissons Ratio (x) = 0.38477 0.06019
# Poissons Ratio (y) = 0.25763 0.11707
# Poissons Ratio (z) = 0.04313 0.12529
#
# Static dielectric constant tensor:
#      x y z
#    x 1.951370 0.000000 0.000000 
#    y 0.000000 1.978510 0.000000 
#    z 0.000000 0.000000 2.310390 
# 
# From -- ./inp_files/10997.got.cif
#   From: 2010.05.17/outbox.cif.g08.bks.cpg/sg57_6_cif.got.tgz:10997.got - 2010.06.03 13:58:18.
