data_PCOD9439718
_publ_section_title
;
Structure prediction by ZEFSAII (Michael W. Deem and Ramdas Pophale) SiO2 
 PCOD9439718
Probable space group: P B C M
;
_chemical_formula_sum "Si O2"
_cell_formula_units_Z 36
_cell_length_a 8.515155
_cell_length_b 7.959171
_cell_length_c 22.782154
_cell_angle_alpha 90.000000
_cell_angle_beta 90.000000
_cell_angle_gamma 90.000000
_cell_volume 1544.028017
_symmetry_space_group_name_H-M "P B C M"
_symmetry_group_IT_number 57
_symmetry_cell_setting 'orthorhombic'
loop_
_space_group_symop_operation_xyz
x,y,z
-x,-y,1/2+z
x,1/2-y,-z
-x,1/2+y,1/2-z
-x,-y,-z
x,y,1/2-z
-x,1/2+y,z
x,1/2-y,1/2+z
loop_
_atom_site_type_symbol
_atom_site_label
_atom_site_fract_x
_atom_site_fract_y
_atom_site_fract_z
Si Si1 0.108515 0.250000 0.000000
Si Si2 0.746891 0.096557 0.349595
Si Si3 0.760824 0.869837 0.750000
Si Si4 0.957682 0.766342 0.359991
Si Si5 0.459972 0.457862 0.250000
Si Si6 0.667576 0.064911 0.478987
O O1 0.042369 0.231723 0.068330
O O2 0.207881 0.421867 0.005012
O O3 0.614111 0.057703 0.303937
O O4 0.658789 0.090131 0.410335
O O5 0.859727 0.255615 0.342560
O O6 0.874296 0.945376 0.352152
O O7 0.862765 0.842735 0.690065
O O8 0.630896 0.719349 0.750000
O O9 0.647504 0.032116 0.750000
O O10 0.712481 0.250000 0.500000
O O11 0.500000 0.000000 0.500000
#
# Coordination Sequence:
#
# PCOD9439718 Si02
#       6
#     4   8   4   8   4   8
#     4  10  24  42  64  98 134 168 222 272 326 396
#     4  10  24  40  65  94 129 168 218 268 328 392
#     4  10  23  42  66  92 130 168 217 272 324 393
#     4  10  23  42  64  94 131 169 215 273 324 394
#     4  10  23  42  64  96 126 170 221 266 326 395
#     4  11  24  40  65  95 133 171 215 269 331 387
#
# _framework density 23.315638
#
# number of rings (size 3 to 8) (size 9 to 14) (size 15 to 20)
#    0.000    1.778    1.111    0.667    7.778    5.333 
#    0.000    0.000    0.000    0.000    0.000    0.000 
#    0.000    0.000    0.000    0.000    0.000    0.000 
#
# Total GULP energy -200769.045573 kJ/mol
# GULP energy per Si atom -5576.917933 kJ/mol
# Density = 2.326257 g / cm^3
# Si number density = 23.315638 Si / 1000 Ang^3
#
#
#
# Elastic Constant Matrix: (Units=GPa)
#
#
# Indices 1 2 3 4 5 6 
#
# 1 97.5843 14.0606 68.6452 0.0000 0.0000 0.0000
# 2 14.0606 83.3006 44.3242 0.0000 0.0000 0.0000
# 3 68.6452 44.3242 166.3201 0.0000 0.0000 0.0000
# 4 0.0000 0.0000 0.0000 16.0553 0.0000 0.0000
# 5 0.0000 0.0000 0.0000 0.0000 33.0139 0.0000
# 6 0.0000 0.0000 0.0000 0.0000 0.0000 29.1684
#
#
#
# Elastic Compliance Matrix: (Units=1/GPa)
#
#
# Indices 1 2 3 4 5 6 
#
# 1 0.014492 0.000858 -0.006210 0.000000 0.000000 0.000000
# 2 0.000858 0.014039 -0.004096 0.000000 0.000000 0.000000
# 3 -0.006210 -0.004096 0.009667 0.000000 0.000000 0.000000
# 4 0.000000 0.000000 0.000000 0.062285 0.000000 0.000000
# 5 0.000000 0.000000 0.000000 0.000000 0.030290 0.000000
# 6 0.000000 0.000000 0.000000 0.000000 0.000000 0.034284
#
#
# Mechanical properties :
#
#
# Convention : Reuss Voigt Hill
#
# Bulk Modulus (GPa) = 51.80418 66.80726 59.30572
# Shear Modulus (GPa) = 26.26229 30.32584 28.29406
#
# Velocity S-wave (km/s) = 3.35980 3.61039 3.48735
# Velocity P-wave (km/s) = 6.10884 6.78936 6.45807
#
# Compressibility (1/GPa) = 0.01930346
#
# Stress axis : x y z
#
# Youngs Moduli (GPa) = 69.00174 71.22945 103.44372
#
# Poissons Ratio (x) = -0.06113 0.64240
# Poissons Ratio (y) = -0.05922 0.42367
# Poissons Ratio (z) = 0.42851 0.29173
#
# Static dielectric constant tensor:
#      x y z
#    x 1.835220 0.000000 0.000000 
#    y 0.000000 1.918380 0.000000 
#    z 0.000000 0.000000 1.814150 
# 
# From -- ./inp_files/24023.got.cif
#   From: 2010.05.17/outbox.cif.g08.bks.cpg/sg57_13_cif.got.tgz:24023.got - 2010.06.03 13:58:18.
