data_PCOD9439740
_publ_section_title
;
Structure prediction by ZEFSAII (Michael W. Deem and Ramdas Pophale) SiO2 
 PCOD9439740
Probable space group: P B C M
;
_chemical_formula_sum "Si O2"
_cell_formula_units_Z 40
_cell_length_a 13.004662
_cell_length_b 7.526041
_cell_length_c 18.285649
_cell_angle_alpha 90.000000
_cell_angle_beta 90.000000
_cell_angle_gamma 90.000000
_cell_volume 1789.682651
_symmetry_space_group_name_H-M "P B C M"
_symmetry_group_IT_number 57
_symmetry_cell_setting 'orthorhombic'
loop_
_space_group_symop_operation_xyz
x,y,z
-x,-y,1/2+z
x,1/2-y,-z
-x,1/2+y,1/2-z
-x,-y,-z
x,y,1/2-z
-x,1/2+y,z
x,1/2-y,1/2+z
loop_
_atom_site_type_symbol
_atom_site_label
_atom_site_fract_x
_atom_site_fract_y
_atom_site_fract_z
Si Si1 0.747518 0.525238 0.118799
Si Si2 0.702395 0.365095 0.666834
Si Si3 0.864606 0.850068 0.332539
Si Si4 0.617366 0.456103 0.983095
Si Si5 0.050463 0.627314 0.940909
O O1 0.697676 0.349559 0.155972
O O2 0.769383 0.711883 0.158316
O O3 0.863326 0.458863 0.107244
O O4 0.690746 0.556197 0.041064
O O5 0.670832 0.405417 0.750000
O O6 0.816872 0.451729 0.657737
O O7 0.639811 0.464333 0.603046
O O8 0.904601 0.833970 0.250000
O O9 0.955586 0.813603 0.390115
O O10 0.636108 0.250000 0.000000
O O11 0.500000 0.500000 0.000000
O O12 0.108603 0.750000 0.000000
O O13 0.000000 0.500000 0.000000
#
# Coordination Sequence:
#
# PCOD9439740 Si02
#       5
#     8   8   8   8   8
#     4  11  23  43  66  92 133 171 222 270 329 389
#     4  10  23  43  63  93 133 166 211 275 331 386
#     4  11  25  40  64  97 128 173 222 266 324 389
#     4  10  23  42  70  99 123 168 224 272 334 401
#     4  12  22  39  60  92 128 174 216 263 313 387
#
# _framework density 22.350332000000002
#
# number of rings (size 3 to 8) (size 9 to 14) (size 15 to 20)
#    0.000    1.200    2.000    4.800    2.800    1.600 
#    0.000    5.000    0.000    0.000    0.000    0.000 
#    0.000    0.000    0.000    0.000    0.000    0.000 
#
# Total GULP energy -222998.865024 kJ/mol
# GULP energy per Si atom -5574.971626 kJ/mol
# Density = 2.229946 g / cm^3
# Si number density = 22.350332 Si / 1000 Ang^3
#
#
#
# Elastic Constant Matrix: (Units=GPa)
#
#
# Indices 1 2 3 4 5 6 
#
# 1 77.6220 5.9675 49.8508 0.0000 0.0000 0.0000
# 2 5.9675 61.7397 24.3494 0.0000 0.0000 0.0000
# 3 49.8508 24.3494 181.7036 0.0000 0.0000 0.0000
# 4 0.0000 0.0000 0.0000 24.2228 0.0000 0.0000
# 5 0.0000 0.0000 0.0000 0.0000 23.4640 0.0000
# 6 0.0000 0.0000 0.0000 0.0000 0.0000 26.7831
#
#
#
# Elastic Compliance Matrix: (Units=1/GPa)
#
#
# Indices 1 2 3 4 5 6 
#
# 1 0.015640 0.000191 -0.004317 0.000000 0.000000 0.000000
# 2 0.000191 0.017103 -0.002344 0.000000 0.000000 0.000000
# 3 -0.004317 -0.002344 0.007002 0.000000 0.000000 0.000000
# 4 0.000000 0.000000 0.000000 0.041283 0.000000 0.000000
# 5 0.000000 0.000000 0.000000 0.000000 0.042619 0.000000
# 6 0.000000 0.000000 0.000000 0.000000 0.000000 0.037337
#
#
# Mechanical properties :
#
#
# Convention : Reuss Voigt Hill
#
# Bulk Modulus (GPa) = 37.30611 53.48895 45.39753
# Shear Modulus (GPa) = 27.34336 30.95381 29.14858
#
# Velocity S-wave (km/s) = 3.50151 3.72551 3.61524
# Velocity P-wave (km/s) = 5.75110 6.51843 6.14675
#
# Compressibility (1/GPa) = 0.02680526
#
# Stress axis : x y z
#
# Youngs Moduli (GPa) = 63.93660 58.46874 142.81900
#
# Poissons Ratio (x) = -0.01115 0.61649
# Poissons Ratio (y) = -0.01219 0.33480
# Poissons Ratio (z) = 0.27599 0.13706
#
# Static dielectric constant tensor:
#      x y z
#    x 1.784940 0.000000 0.000000 
#    y 0.000000 1.815870 0.000000 
#    z 0.000000 0.000000 1.751570 
# 
# From -- ./inp_files/24854.got.cif
#   From: 2010.05.17/outbox.cif.g08.bks.cpg/sg57_13_cif.got.tgz:24854.got - 2010.06.03 13:58:18.
