data_PCOD9439840
_publ_section_title
;
Structure prediction by ZEFSAII (Michael W. Deem and Ramdas Pophale) SiO2 
 PCOD9439840
Probable space group: P B C M
;
_chemical_formula_sum "Si O2"
_cell_formula_units_Z 32
_cell_length_a 5.175257
_cell_length_b 25.141925
_cell_length_c 9.832570
_cell_angle_alpha 90.000000
_cell_angle_beta 90.000000
_cell_angle_gamma 90.000000
_cell_volume 1279.373924
_symmetry_space_group_name_H-M "P B C M"
_symmetry_group_IT_number 57
_symmetry_cell_setting 'orthorhombic'
loop_
_space_group_symop_operation_xyz
x,y,z
-x,-y,1/2+z
x,1/2-y,-z
-x,1/2+y,1/2-z
-x,-y,-z
x,y,1/2-z
-x,1/2+y,z
x,1/2-y,1/2+z
loop_
_atom_site_type_symbol
_atom_site_label
_atom_site_fract_x
_atom_site_fract_y
_atom_site_fract_z
Si Si1 0.258872 0.508111 0.250000
Si Si2 0.483985 0.403944 0.896473
Si Si3 0.243184 0.936540 0.250000
Si Si4 0.904740 0.865217 0.096702
Si Si5 0.803208 0.204577 0.094928
O O1 0.318246 0.547187 0.377176
O O2 0.983352 0.480574 0.250000
O O3 0.485838 0.464577 0.250000
O O4 0.334128 0.406550 0.750000
O O5 0.624309 0.347182 0.894994
O O6 0.284535 0.404571 0.018280
O O7 0.172009 0.896689 0.126730
O O8 0.812576 0.850908 0.250000
O O9 0.956523 0.816451 0.996033
O O10 0.862789 0.221861 0.250000
O O11 0.682683 0.250000 0.000000
#
# Coordination Sequence:
#
# PCOD9439840 Si02
#       5
#     4   8   4   8   8
#     4  10  24  46  71 111 145 209 250 306 376 434
#     4   9  23  42  70  96 143 188 245 306 364 445
#     4  10  26  42  73 111 149 205 250 306 362 450
#     4  10  24  41  67 103 145 189 238 310 353 453
#     4  11  24  45  73 101 139 188 244 311 381 444
#
# _framework density 25.012233999999999
#
# number of rings (size 3 to 8) (size 9 to 14) (size 15 to 20)
#    1.500    0.500    0.000    1.500    7.000    5.000 
#    0.000    2.500    0.000    0.000    0.000    0.000 
#    0.000    0.000    0.000    0.000    0.000    0.000 
#
# Total GULP energy -178705.726158 kJ/mol
# GULP energy per Si atom -5584.553942 kJ/mol
# Density = 2.495530 g / cm^3
# Si number density = 25.012234 Si / 1000 Ang^3
#
#
#
# Elastic Constant Matrix: (Units=GPa)
#
#
# Indices 1 2 3 4 5 6 
#
# 1 57.8953 12.4604 36.2885 0.0000 0.0000 0.0000
# 2 12.4604 103.5643 51.2532 0.0000 0.0000 0.0000
# 3 36.2885 51.2532 218.4862 0.0000 0.0000 0.0000
# 4 0.0000 0.0000 0.0000 58.1343 0.0000 0.0000
# 5 0.0000 0.0000 0.0000 0.0000 7.4238 0.0000
# 6 0.0000 0.0000 0.0000 0.0000 0.0000 30.7781
#
#
#
# Elastic Compliance Matrix: (Units=1/GPa)
#
#
# Indices 1 2 3 4 5 6 
#
# 1 0.019343 -0.000834 -0.003017 0.000000 0.000000 0.000000
# 2 -0.000834 0.010960 -0.002432 0.000000 0.000000 0.000000
# 3 -0.003017 -0.002432 0.005649 0.000000 0.000000 0.000000
# 4 0.000000 0.000000 0.000000 0.017202 0.000000 0.000000
# 5 0.000000 0.000000 0.000000 0.000000 0.134702 0.000000
# 6 0.000000 0.000000 0.000000 0.000000 0.000000 0.032491
#
#
# Mechanical properties :
#
#
# Convention : Reuss Voigt Hill
#
# Bulk Modulus (GPa) = 42.76344 64.43889 53.60116
# Shear Modulus (GPa) = 20.77203 37.93015 29.35109
#
# Velocity S-wave (km/s) = 2.88492 3.89840 3.42931
# Velocity P-wave (km/s) = 5.31330 6.78839 6.09563
#
# Compressibility (1/GPa) = 0.02338446
#
# Stress axis : x y z
#
# Youngs Moduli (GPa) = 51.69783 91.24072 177.03279
#
# Poissons Ratio (x) = 0.07611 0.53411
# Poissons Ratio (y) = 0.04313 0.43063
# Poissons Ratio (z) = 0.15597 0.22194
#
# Static dielectric constant tensor:
#      x y z
#    x 1.998530 0.000000 0.000000 
#    y 0.000000 1.992190 0.000000 
#    z 0.000000 0.000000 2.095460 
# 
# From -- ./inp_files/847.got.cif
#   From: 2010.05.17/outbox.cif.g08.bks.cpg/sg57_1_cif.got.tgz:847.got - 2010.06.03 13:58:18.
