data_PCOD9439819
_publ_section_title
;
Structure prediction by ZEFSAII (Michael W. Deem and Ramdas Pophale) SiO2 
 PCOD9439819
Probable space group: P B C M
;
_chemical_formula_sum "Si O2"
_cell_formula_units_Z 16
_cell_length_a 4.998017
_cell_length_b 15.527532
_cell_length_c 7.890424
_cell_angle_alpha 90.000000
_cell_angle_beta 90.000000
_cell_angle_gamma 90.000000
_cell_volume 612.351101
_symmetry_space_group_name_H-M "P B C M"
_symmetry_group_IT_number 57
_symmetry_cell_setting 'orthorhombic'
loop_
_space_group_symop_operation_xyz
x,y,z
-x,-y,1/2+z
x,1/2-y,-z
-x,1/2+y,1/2-z
-x,-y,-z
x,y,1/2-z
-x,1/2+y,z
x,1/2-y,1/2+z
loop_
_atom_site_type_symbol
_atom_site_label
_atom_site_fract_x
_atom_site_fract_y
_atom_site_fract_z
Si Si1 0.070684 0.276808 0.750000
Si Si2 0.569314 0.345880 0.250000
Si Si3 0.811145 0.076651 0.439233
O O1 0.350486 0.228859 0.750000
O O2 0.005097 0.340794 0.594026
O O3 0.848875 0.203883 0.750000
O O4 0.587763 0.401326 0.421770
O O5 0.698909 0.060549 0.250000
O O6 0.000000 0.000000 0.500000
#
# Coordination Sequence:
#
# PCOD9439819 Si02
#       3
#     4   4   8
#     4  10  27  44  79 114 149 210 261 330 401 464
#     4  12  23  52  73 114 161 192 275 336 381 484
#     4  10  23  48  79 115 158 215 265 327 409 479
#
# _framework density 26.128802
#
# number of rings (size 3 to 8) (size 9 to 14) (size 15 to 20)
#    1.500    0.000    2.500    1.500    0.000    8.000 
#    4.500   15.000    0.000    0.000    0.000    0.000 
#    0.000    0.000    0.000    0.000    0.000    0.000 
#
# Total GULP energy -89658.324118 kJ/mol
# GULP energy per Si atom -5603.645257 kJ/mol
# Density = 2.606933 g / cm^3
# Si number density = 26.128802 Si / 1000 Ang^3
#
#
#
# Elastic Constant Matrix: (Units=GPa)
#
#
# Indices 1 2 3 4 5 6 
#
# 1 -55.5425 -56.9026 115.5499 0.0000 0.0000 0.0000
# 2 -56.9026 59.0142 101.9714 0.0000 0.0000 0.0000
# 3 115.5499 101.9714 224.0655 0.0000 0.0000 0.0000
# 4 0.0000 0.0000 0.0000 65.8632 0.0000 0.0000
# 5 0.0000 0.0000 0.0000 0.0000 29.9358 0.0000
# 6 0.0000 0.0000 0.0000 0.0000 0.0000 55.9359
#
#
#
# Elastic Compliance Matrix: (Units=1/GPa)
#
#
# Indices 1 2 3 4 5 6 
#
# 1 -0.000938 -0.008147 0.004191 0.000000 0.000000 0.000000
# 2 -0.008147 0.008567 0.000303 0.000000 0.000000 0.000000
# 3 0.004191 0.000303 0.002164 0.000000 0.000000 0.000000
# 4 0.000000 0.000000 0.000000 0.015183 0.000000 0.000000
# 5 0.000000 0.000000 0.000000 0.000000 0.033405 0.000000
# 6 0.000000 0.000000 0.000000 0.000000 0.000000 0.017878
#
#
# Mechanical properties :
#
#
# Convention : Reuss Voigt Hill
#
# Bulk Modulus (GPa) = 402.14380 60.97494 231.55937
# Shear Modulus (GPa) = 59.24703 34.80823 47.02763
#
# Velocity S-wave (km/s) = 4.76699 3.65386 4.24705
# Velocity P-wave (km/s) = 13.58460 6.41778 10.62378
#
# Compressibility (1/GPa) = 0.00248667
#
# Stress axis : x y z
#
# Youngs Moduli (GPa) = -1065.98807 116.73060 462.15906
#
# Poissons Ratio (x) = 0.95099 -1.93709
# Poissons Ratio (y) = -8.68450 -0.13987
# Poissons Ratio (z) = 4.46798 -0.03533
#
# Static dielectric constant tensor:
#      x y z
#    x 1.950670 0.000000 0.000000 
#    y 0.000000 2.049730 0.000000 
#    z 0.000000 0.000000 2.146670 
# 
# From -- ./inp_files/593.got.cif
#   From: 2010.05.17/outbox.cif.g08.bks.cpg/sg57_1_cif.got.tgz:593.got - 2010.06.03 13:58:18.
