data_PCOD9439510
_publ_section_title
;
Structure prediction by ZEFSAII (Michael W. Deem and Ramdas Pophale) SiO2 
 PCOD9439510
Probable space group: P B C M
;
_chemical_formula_sum "Si O2"
_cell_formula_units_Z 48
_cell_length_a 14.097485
_cell_length_b 10.015942
_cell_length_c 16.908683
_cell_angle_alpha 90.000000
_cell_angle_beta 90.000000
_cell_angle_gamma 90.000000
_cell_volume 2387.499143
_symmetry_space_group_name_H-M "P B C M"
_symmetry_group_IT_number 57
_symmetry_cell_setting 'orthorhombic'
loop_
_space_group_symop_operation_xyz
x,y,z
-x,-y,1/2+z
x,1/2-y,-z
-x,1/2+y,1/2-z
-x,-y,-z
x,y,1/2-z
-x,1/2+y,z
x,1/2-y,1/2+z
loop_
_atom_site_type_symbol
_atom_site_label
_atom_site_fract_x
_atom_site_fract_y
_atom_site_fract_z
Si Si1 0.366333 0.798762 0.658560
Si Si2 0.081635 0.023811 0.154967
Si Si3 0.287446 0.964836 0.411906
Si Si4 0.589154 0.800274 0.657416
Si Si5 0.290935 0.435009 0.409186
Si Si6 0.908057 0.833365 0.345338
O O1 0.356121 0.755859 0.750000
O O2 0.324800 0.683580 0.603345
O O3 0.477869 0.819310 0.642165
O O4 0.313330 0.937920 0.645356
O O5 0.092050 0.012337 0.250000
O O6 0.179099 0.976954 0.115923
O O7 0.066715 0.179940 0.136448
O O8 0.992737 0.932674 0.131681
O O9 0.352118 0.066748 0.361567
O O10 0.294731 0.012584 0.501796
O O11 0.601606 0.766488 0.750000
O O12 0.632073 0.679785 0.606726
O O13 0.189093 0.373524 0.387721
O O14 0.894067 0.843094 0.250000
#
# Coordination Sequence:
#
# PCOD9439510 Si02
#       6
#     8   8   8   8   8   8
#     4  11  25  43  66  93 126 171 221 264 308 375
#     4  10  22  41  66  94 125 166 214 260 310 374
#     4  12  25  41  64  97 134 168 206 263 327 378
#     4  11  23  43  68  93 124 171 221 262 310 375
#     4  12  25  41  64  97 134 168 206 263 327 378
#     4  10  22  41  66  94 125 166 214 260 310 374
#
# _framework density 20.10472
#
# number of rings (size 3 to 8) (size 9 to 14) (size 15 to 20)
#    0.000    1.000    1.667    5.000    2.333    7.333 
#    0.000    0.000    0.000    0.000    0.000    0.000 
#    0.000    0.000    0.000    0.000    0.000    0.000 
#
# Total GULP energy -268669.099824 kJ/mol
# GULP energy per Si atom -5597.272913 kJ/mol
# Density = 2.005896 g / cm^3
# Si number density = 20.104720 Si / 1000 Ang^3
#
#
#
# Elastic Constant Matrix: (Units=GPa)
#
#
# Indices 1 2 3 4 5 6 
#
# 1 78.9509 10.7050 27.9223 0.0000 0.0000 0.0000
# 2 10.7050 46.5672 -8.6710 0.0000 0.0000 0.0000
# 3 27.9223 -8.6710 32.7414 0.0000 0.0000 0.0000
# 4 0.0000 0.0000 0.0000 34.6407 0.0000 0.0000
# 5 0.0000 0.0000 0.0000 0.0000 17.6868 0.0000
# 6 0.0000 0.0000 0.0000 0.0000 0.0000 39.4905
#
#
#
# Elastic Compliance Matrix: (Units=1/GPa)
#
#
# Indices 1 2 3 4 5 6 
#
# 1 0.020947 -0.008564 -0.020132 0.000000 0.000000 0.000000
# 2 -0.008564 0.026090 0.014213 0.000000 0.000000 0.000000
# 3 -0.020132 0.014213 0.051475 0.000000 0.000000 0.000000
# 4 0.000000 0.000000 0.000000 0.028868 0.000000 0.000000
# 5 0.000000 0.000000 0.000000 0.000000 0.056539 0.000000
# 6 0.000000 0.000000 0.000000 0.000000 0.000000 0.025323
#
#
# Mechanical properties :
#
#
# Convention : Reuss Voigt Hill
#
# Bulk Modulus (GPa) = 14.37907 24.24136 19.31021
# Shear Modulus (GPa) = 19.12842 26.91713 23.02278
#
# Velocity S-wave (km/s) = 3.08789 3.66299 3.38767
# Velocity P-wave (km/s) = 4.45881 5.47483 4.99273
#
# Compressibility (1/GPa) = 0.06954555
#
# Stress axis : x y z
#
# Youngs Moduli (GPa) = 47.73847 38.32946 19.42672
#
# Poissons Ratio (x) = 0.32826 0.39111
# Poissons Ratio (y) = 0.40884 -0.27611
# Poissons Ratio (z) = 0.96109 -0.54478
#
# Static dielectric constant tensor:
#      x y z
#    x 1.660210 0.000000 0.000000 
#    y 0.000000 1.686410 0.000000 
#    z 0.000000 0.000000 1.711990 
# 
# From -- ./inp_files/22406.got.cif
#   From: 2010.05.17/outbox.cif.g08.bks.cpg/sg57_12_cif.got.tgz:22406.got - 2010.06.03 13:58:18.
