data_PCOD9439969
_publ_section_title
;
Structure prediction by ZEFSAII (Michael W. Deem and Ramdas Pophale) SiO2 
 PCOD9439969
Probable space group: P B C M
;
_chemical_formula_sum "Si O2"
_cell_formula_units_Z 24
_cell_length_a 5.006506
_cell_length_b 18.518365
_cell_length_c 9.225633
_cell_angle_alpha 90.000000
_cell_angle_beta 90.000000
_cell_angle_gamma 90.000000
_cell_volume 855.329705
_symmetry_space_group_name_H-M "P B C M"
_symmetry_group_IT_number 57
_symmetry_cell_setting 'orthorhombic'
loop_
_space_group_symop_operation_xyz
x,y,z
-x,-y,1/2+z
x,1/2-y,-z
-x,1/2+y,1/2-z
-x,-y,-z
x,y,1/2-z
-x,1/2+y,z
x,1/2-y,1/2+z
loop_
_atom_site_type_symbol
_atom_site_label
_atom_site_fract_x
_atom_site_fract_y
_atom_site_fract_z
Si Si1 0.122109 0.786232 0.750000
Si Si2 0.453691 0.655461 0.750000
Si Si3 0.855158 0.959522 0.250000
Si Si4 0.812925 0.868584 0.997254
Si Si5 0.472304 0.912018 0.750000
O O1 0.980207 0.817342 0.892898
O O2 0.185063 0.701764 0.750000
O O3 0.405250 0.826906 0.750000
O O4 0.541231 0.570282 0.750000
O O5 0.614519 0.675266 0.603339
O O6 0.972329 0.921889 0.392990
O O7 0.803140 0.043742 0.250000
O O8 0.639589 0.921141 0.894901
#
# Coordination Sequence:
#
# PCOD9439969 Si02
#       5
#     4   4   4   8   4
#     4  11  21  40  70  98 130 186 225 280 347 400
#     4   8  21  44  64  95 146 174 220 290 341 395
#     4   8  19  42  67  96 145 172 218 294 332 401
#     4   8  21  42  64 101 132 172 241 271 326 426
#     4  11  19  36  71  99 135 182 217 280 348 402
#
# _framework density 28.059352000000001
#
# number of rings (size 3 to 8) (size 9 to 14) (size 15 to 20)
#    2.000    0.667    0.000    1.000    0.000    2.667 
#    0.000   26.667    0.000    0.000    0.000    0.000 
#    0.000    0.000    0.000    0.000    0.000    0.000 
#
# Total GULP energy -134125.466406 kJ/mol
# GULP energy per Si atom -5588.561100 kJ/mol
# Density = 2.799549 g / cm^3
# Si number density = 28.059352 Si / 1000 Ang^3
#
#
#
# Elastic Constant Matrix: (Units=GPa)
#
#
# Indices 1 2 3 4 5 6 
#
# 1 64.3136 27.3152 35.6719 0.0000 0.0000 0.0000
# 2 27.3152 116.2454 30.2708 0.0000 0.0000 0.0000
# 3 35.6719 30.2708 207.1435 0.0000 0.0000 0.0000
# 4 0.0000 0.0000 0.0000 20.1064 0.0000 0.0000
# 5 0.0000 0.0000 0.0000 0.0000 37.3876 0.0000
# 6 0.0000 0.0000 0.0000 0.0000 0.0000 61.7611
#
#
#
# Elastic Compliance Matrix: (Units=1/GPa)
#
#
# Indices 1 2 3 4 5 6 
#
# 1 0.018587 -0.003674 -0.002664 0.000000 0.000000 0.000000
# 2 -0.003674 0.009669 -0.000780 0.000000 0.000000 0.000000
# 3 -0.002664 -0.000780 0.005400 0.000000 0.000000 0.000000
# 4 0.000000 0.000000 0.000000 0.049735 0.000000 0.000000
# 5 0.000000 0.000000 0.000000 0.000000 0.026747 0.000000
# 6 0.000000 0.000000 0.000000 0.000000 0.000000 0.016191
#
#
# Mechanical properties :
#
#
# Convention : Reuss Voigt Hill
#
# Bulk Modulus (GPa) = 51.49341 63.80204 57.64772
# Shear Modulus (GPa) = 34.00456 43.48066 38.74261
#
# Velocity S-wave (km/s) = 3.48498 3.94076 3.71986
# Velocity P-wave (km/s) = 5.88089 6.59498 6.24815
#
# Compressibility (1/GPa) = 0.01941996
#
# Stress axis : x y z
#
# Youngs Moduli (GPa) = 53.80192 103.42381 185.17309
#
# Poissons Ratio (x) = 0.37996 0.49329
# Poissons Ratio (y) = 0.19766 0.14449
# Poissons Ratio (z) = 0.14332 0.08070
#
# Static dielectric constant tensor:
#      x y z
#    x 2.180650 0.000000 0.000000 
#    y 0.000000 2.113620 0.000000 
#    z 0.000000 0.000000 2.142430 
# 
# From -- ./inp_files/699.got.cif
#   From: 2010.05.17/outbox.cif.g08.bks.cpg/sg57_1_cif.got.tgz:699.got - 2010.06.03 13:58:18.
