data_PCOD9439923
_publ_section_title
;
Structure prediction by ZEFSAII (Michael W. Deem and Ramdas Pophale) SiO2 
 PCOD9439923
Probable space group: P B C M
;
_chemical_formula_sum "Si O2"
_cell_formula_units_Z 40
_cell_length_a 9.569234
_cell_length_b 8.840487
_cell_length_c 23.503574
_cell_angle_alpha 90.000000
_cell_angle_beta 90.000000
_cell_angle_gamma 90.000000
_cell_volume 1988.324535
_symmetry_space_group_name_H-M "P B C M"
_symmetry_group_IT_number 57
_symmetry_cell_setting 'orthorhombic'
loop_
_space_group_symop_operation_xyz
x,y,z
-x,-y,1/2+z
x,1/2-y,-z
-x,1/2+y,1/2-z
-x,-y,-z
x,y,1/2-z
-x,1/2+y,z
x,1/2-y,1/2+z
loop_
_atom_site_type_symbol
_atom_site_label
_atom_site_fract_x
_atom_site_fract_y
_atom_site_fract_z
Si Si1 0.199469 0.961680 0.250000
Si Si2 0.619324 0.091978 0.969392
Si Si3 0.706446 0.630321 0.644590
Si Si4 0.906586 0.801689 0.250000
Si Si5 0.581832 0.523921 0.151306
Si Si6 0.137972 0.417138 0.478032
O O1 0.308044 0.962922 0.302486
O O2 0.071321 0.843038 0.250000
O O3 0.118212 0.121792 0.250000
O O4 0.598713 0.083862 0.903078
O O5 0.627357 0.250000 0.000000
O O6 0.500000 0.000000 0.000000
O O7 0.753407 0.998387 0.982228
O O8 0.822784 0.639362 0.694311
O O9 0.584381 0.508459 0.662011
O O10 0.790487 0.588430 0.585688
O O11 0.630387 0.799276 0.640964
O O12 0.121266 0.250000 0.500000
O O13 0.000000 0.500000 0.500000
#
# Coordination Sequence:
#
# PCOD9439923 Si02
#       6
#     4   8   8   4   8   8
#     4  10  25  46  68  96 136 176 225 278 334 399
#     4  12  23  41  67 101 134 174 221 275 334 394
#     4  11  24  43  69  98 135 173 228 277 335 402
#     4  10  25  44  66  98 132 178 219 280 334 401
#     4  11  23  43  69  99 136 174 226 281 330 402
#     4  12  26  44  64  97 136 176 220 274 337 407
#
# _framework density 20.117438
#
# number of rings (size 3 to 8) (size 9 to 14) (size 15 to 20)
#    0.000    0.800    4.000    3.000    2.800    1.600 
#    0.000    0.000    0.000    0.000    0.000    0.000 
#    0.000    0.000    0.000    0.000    0.000    0.000 
#
# Total GULP energy -222709.455149 kJ/mol
# GULP energy per Si atom -5567.736379 kJ/mol
# Density = 2.007165 g / cm^3
# Si number density = 20.117438 Si / 1000 Ang^3
#
#
#
# Elastic Constant Matrix: (Units=GPa)
#
#
# Indices 1 2 3 4 5 6 
#
# 1 167.8901 43.7278 36.2468 0.0000 0.0000 0.0000
# 2 43.7278 88.4715 6.5998 0.0000 0.0000 0.0000
# 3 36.2468 6.5998 103.3620 0.0000 0.0000 0.0000
# 4 0.0000 0.0000 0.0000 25.1011 0.0000 0.0000
# 5 0.0000 0.0000 0.0000 0.0000 23.4816 0.0000
# 6 0.0000 0.0000 0.0000 0.0000 0.0000 47.8386
#
#
#
# Elastic Compliance Matrix: (Units=1/GPa)
#
#
# Indices 1 2 3 4 5 6 
#
# 1 0.007369 -0.003466 -0.002363 0.000000 0.000000 0.000000
# 2 -0.003466 0.012987 0.000386 0.000000 0.000000 0.000000
# 3 -0.002363 0.000386 0.010479 0.000000 0.000000 0.000000
# 4 0.000000 0.000000 0.000000 0.039839 0.000000 0.000000
# 5 0.000000 0.000000 0.000000 0.000000 0.042587 0.000000
# 6 0.000000 0.000000 0.000000 0.000000 0.000000 0.020904
#
#
# Mechanical properties :
#
#
# Convention : Reuss Voigt Hill
#
# Bulk Modulus (GPa) = 50.12580 59.20805 54.66693
# Shear Modulus (GPa) = 32.95989 37.49422 35.22705
#
# Velocity S-wave (km/s) = 4.05207 4.32182 4.18912
# Velocity P-wave (km/s) = 6.84566 7.37559 7.11556
#
# Compressibility (1/GPa) = 0.01994980
#
# Stress axis : x y z
#
# Youngs Moduli (GPa) = 135.70086 76.99794 95.43175
#
# Poissons Ratio (x) = 0.26687 0.22549
# Poissons Ratio (y) = 0.47034 -0.03685
# Poissons Ratio (z) = 0.32065 -0.02974
#
# Static dielectric constant tensor:
#      x y z
#    x 1.750360 0.000000 0.000000 
#    y 0.000000 1.702410 0.000000 
#    z 0.000000 0.000000 1.730070 
# 
# From -- ./inp_files/26559.got.cif
#   From: 2010.05.17/outbox.cif.g08.bks.cpg/sg57_14_cif.got.tgz:26559.got - 2010.06.03 13:58:18.
