data_PCOD9439936
_publ_section_title
;
Structure prediction by ZEFSAII (Michael W. Deem and Ramdas Pophale) SiO2 
 PCOD9439936
Probable space group: P B C M
;
_chemical_formula_sum "Si O2"
_cell_formula_units_Z 56
_cell_length_a 13.114419
_cell_length_b 14.534441
_cell_length_c 14.585503
_cell_angle_alpha 90.000000
_cell_angle_beta 90.000000
_cell_angle_gamma 90.000000
_cell_volume 2780.153654
_symmetry_space_group_name_H-M "P B C M"
_symmetry_group_IT_number 57
_symmetry_cell_setting 'orthorhombic'
loop_
_space_group_symop_operation_xyz
x,y,z
-x,-y,1/2+z
x,1/2-y,-z
-x,1/2+y,1/2-z
-x,-y,-z
x,y,1/2-z
-x,1/2+y,z
x,1/2-y,1/2+z
loop_
_atom_site_type_symbol
_atom_site_label
_atom_site_fract_x
_atom_site_fract_y
_atom_site_fract_z
Si Si1 0.756215 0.363685 0.645096
Si Si2 0.469033 0.393043 0.491960
Si Si3 0.115687 0.441214 0.857099
Si Si4 0.246554 0.453069 0.027320
Si Si5 0.553534 0.243351 0.140987
Si Si6 0.056476 0.083977 0.851986
Si Si7 0.974143 0.225353 0.393501
O O1 0.740701 0.395767 0.750000
O O2 0.739795 0.447528 0.575092
O O3 0.672003 0.284987 0.628924
O O4 0.870051 0.324396 0.635443
O O5 0.500000 0.500000 0.500000
O O6 0.349309 0.394988 0.468942
O O7 0.527384 0.337720 0.411606
O O8 0.492775 0.336478 0.585219
O O9 0.136974 0.456712 0.750000
O O10 0.022061 0.507102 0.885665
O O11 0.069696 0.339955 0.871694
O O12 0.209829 0.461300 0.922742
O O13 0.152416 0.407700 0.081789
O O14 0.531253 0.246209 0.250000
O O15 0.091302 0.057165 0.750000
O O16 0.993990 0.177550 0.847169
O O17 0.967790 0.250000 0.500000
#
# Coordination Sequence:
#
# PCOD9439936 Si02
#       7
#     8   8   8   8   8   8   8
#     4  11  23  42  71 101 134 177 229 280 335 408
#     4  11  25  45  71 101 137 174 229 294 344 408
#     4  11  24  43  62  96 140 173 219 277 326 398
#     4  12  23  42  70  98 130 183 225 271 343 406
#     4  10  25  47  71 101 136 177 229 289 352 409
#     4  11  23  40  64  98 136 173 221 269 329 403
#     4  12  23  38  65  95 135 180 218 271 330 393
#
# _framework density 20.142772000000001
#
# number of rings (size 3 to 8) (size 9 to 14) (size 15 to 20)
#    0.000    0.857    4.286    3.000    2.000    5.714 
#    0.000    1.429    0.000    0.000    0.000    0.000 
#    0.000    0.000    0.000    0.000    0.000    0.000 
#
# Total GULP energy -313038.128838 kJ/mol
# GULP energy per Si atom -5589.966586 kJ/mol
# Density = 2.009693 g / cm^3
# Si number density = 20.142772 Si / 1000 Ang^3
#
#
#
# Elastic Constant Matrix: (Units=GPa)
#
#
# Indices 1 2 3 4 5 6 
#
# 1 71.9953 16.2615 37.6327 0.0000 0.0000 0.0000
# 2 16.2615 95.8542 30.5881 0.0000 0.0000 0.0000
# 3 37.6327 30.5881 138.7398 0.0000 0.0000 0.0000
# 4 0.0000 0.0000 0.0000 31.3208 0.0000 0.0000
# 5 0.0000 0.0000 0.0000 0.0000 24.0309 0.0000
# 6 0.0000 0.0000 0.0000 0.0000 0.0000 36.7188
#
#
#
# Elastic Compliance Matrix: (Units=1/GPa)
#
#
# Indices 1 2 3 4 5 6 
#
# 1 0.016373 -0.001463 -0.004119 0.000000 0.000000 0.000000
# 2 -0.001463 0.011353 -0.002106 0.000000 0.000000 0.000000
# 3 -0.004119 -0.002106 0.008789 0.000000 0.000000 0.000000
# 4 0.000000 0.000000 0.000000 0.031928 0.000000 0.000000
# 5 0.000000 0.000000 0.000000 0.000000 0.041613 0.000000
# 6 0.000000 0.000000 0.000000 0.000000 0.000000 0.027234
#
#
# Mechanical properties :
#
#
# Convention : Reuss Voigt Hill
#
# Bulk Modulus (GPa) = 47.30535 52.83930 50.07232
# Shear Modulus (GPa) = 31.30630 33.22122 32.26376
#
# Velocity S-wave (km/s) = 3.94664 4.06555 4.00653
# Velocity P-wave (km/s) = 6.65612 6.95180 6.80557
#
# Compressibility (1/GPa) = 0.02113926
#
# Stress axis : x y z
#
# Youngs Moduli (GPa) = 61.07567 88.08372 113.77610
#
# Poissons Ratio (x) = 0.12890 0.46859
# Poissons Ratio (y) = 0.08938 0.23962
# Poissons Ratio (z) = 0.25154 0.18551
#
# Static dielectric constant tensor:
#      x y z
#    x 1.688790 0.000000 0.000000 
#    y 0.000000 1.703980 0.000000 
#    z 0.000000 0.000000 1.722590 
# 
# From -- ./inp_files/17754.got.cif
#   From: 2010.05.17/outbox.cif.g08.bks.cpg/sg57_9_cif.got.tgz:17754.got - 2010.06.03 13:58:18.
