data_PCOD9439316
_publ_section_title
;
Structure prediction by ZEFSAII (Michael W. Deem and Ramdas Pophale) SiO2 
 PCOD9439316
Probable space group: P B C M
;
_chemical_formula_sum "Si O2"
_cell_formula_units_Z 48
_cell_length_a 5.394432
_cell_length_b 21.051647
_cell_length_c 18.976898
_cell_angle_alpha 90.000000
_cell_angle_beta 90.000000
_cell_angle_gamma 90.000000
_cell_volume 2155.048384
_symmetry_space_group_name_H-M "P B C M"
_symmetry_group_IT_number 57
_symmetry_cell_setting 'orthorhombic'
loop_
_space_group_symop_operation_xyz
x,y,z
-x,-y,1/2+z
x,1/2-y,-z
-x,1/2+y,1/2-z
-x,-y,-z
x,y,1/2-z
-x,1/2+y,z
x,1/2-y,1/2+z
loop_
_atom_site_type_symbol
_atom_site_label
_atom_site_fract_x
_atom_site_fract_y
_atom_site_fract_z
Si Si1 0.027308 0.068222 0.596543
Si Si2 0.187113 0.122515 0.055876
Si Si3 0.497264 0.757758 0.929240
Si Si4 0.882456 0.183301 0.170315
Si Si5 0.791903 0.812765 0.170929
Si Si6 0.519755 0.994066 0.916180
O O1 0.072004 0.091968 0.515113
O O2 0.039388 0.128821 0.647511
O O3 0.263195 0.022355 0.612970
O O4 0.764710 0.033743 0.604542
O O5 0.296779 0.192713 0.042449
O O6 0.988708 0.131636 0.117188
O O7 0.403513 0.079278 0.089658
O O8 0.366461 0.791696 0.864444
O O9 0.593485 0.694186 0.892048
O O10 0.333120 0.750000 0.000000
O O11 0.855173 0.161347 0.250000
O O12 0.061146 0.245824 0.170313
O O13 0.692103 0.821768 0.250000
O O14 0.500000 0.000000 0.000000
#
# Coordination Sequence:
#
# PCOD9439316 Si02
#       6
#     8   8   8   8   8   8
#     4  11  23  40  67  99 128 171 222 270 323 387
#     4  10  22  38  63  89 128 162 217 270 316 388
#     4  11  22  36  65  97 125 165 223 270 331 394
#     4  10  24  39  60  89 128 171 209 270 341 396
#     4  10  23  42  60  92 133 172 213 272 339 397
#     4  10  23  40  65  97 131 169 217 275 328 373
#
# _framework density 22.273282999999999
#
# number of rings (size 3 to 8) (size 9 to 14) (size 15 to 20)
#    0.000    1.667    1.667    2.500   11.667    0.667 
#    0.000    1.667    0.000    0.000    0.000    0.000 
#    0.000    0.000    0.000    0.000    0.000    0.000 
#
# Total GULP energy -267874.849371 kJ/mol
# GULP energy per Si atom -5580.726029 kJ/mol
# Density = 2.222259 g / cm^3
# Si number density = 22.273283 Si / 1000 Ang^3
#
#
#
# Elastic Constant Matrix: (Units=GPa)
#
#
# Indices 1 2 3 4 5 6 
#
# 1 74.3163 14.9328 9.2845 0.0000 0.0000 0.0000
# 2 14.9328 75.1942 14.8728 0.0000 0.0000 0.0000
# 3 9.2845 14.8728 119.9324 0.0000 0.0000 0.0000
# 4 0.0000 0.0000 0.0000 13.0146 0.0000 0.0000
# 5 0.0000 0.0000 0.0000 0.0000 21.7584 0.0000
# 6 0.0000 0.0000 0.0000 0.0000 0.0000 26.0712
#
#
#
# Elastic Compliance Matrix: (Units=1/GPa)
#
#
# Indices 1 2 3 4 5 6 
#
# 1 0.014083 -0.002646 -0.000762 0.000000 0.000000 0.000000
# 2 -0.002646 0.014130 -0.001547 0.000000 0.000000 0.000000
# 3 -0.000762 -0.001547 0.008589 0.000000 0.000000 0.000000
# 4 0.000000 0.000000 0.000000 0.076837 0.000000 0.000000
# 5 0.000000 0.000000 0.000000 0.000000 0.045959 0.000000
# 6 0.000000 0.000000 0.000000 0.000000 0.000000 0.038356
#
#
# Mechanical properties :
#
#
# Convention : Reuss Voigt Hill
#
# Bulk Modulus (GPa) = 37.18697 38.62480 37.90588
# Shear Modulus (GPa) = 23.05958 27.52570 25.29264
#
# Velocity S-wave (km/s) = 3.22110 3.51923 3.37346
# Velocity P-wave (km/s) = 5.52865 5.82171 5.67707
#
# Compressibility (1/GPa) = 0.02689114
#
# Stress axis : x y z
#
# Youngs Moduli (GPa) = 71.00820 70.76921 116.42899
#
# Poissons Ratio (x) = 0.18725 0.08873
# Poissons Ratio (y) = 0.18789 0.18017
# Poissons Ratio (z) = 0.05411 0.10951
#
# Static dielectric constant tensor:
#      x y z
#    x 2.009770 0.000000 0.000000 
#    y 0.000000 1.750950 0.000000 
#    z 0.000000 0.000000 1.803910 
# 
# From -- ./inp_files/20182.got.cif
#   From: 2010.05.17/outbox.cif.g08.bks.cpg/sg57_11_cif.got.tgz:20182.got - 2010.06.03 13:58:18.
