data_PCOD9439115
_publ_section_title
;
Structure prediction by ZEFSAII (Michael W. Deem and Ramdas Pophale) SiO2 
 PCOD9439115
Probable space group: P B C M
;
_chemical_formula_sum "Si O2"
_cell_formula_units_Z 28
_cell_length_a 6.614998
_cell_length_b 13.599960
_cell_length_c 13.692842
_cell_angle_alpha 90.000000
_cell_angle_beta 90.000000
_cell_angle_gamma 90.000000
_cell_volume 1231.858842
_symmetry_space_group_name_H-M "P B C M"
_symmetry_group_IT_number 57
_symmetry_cell_setting 'orthorhombic'
loop_
_space_group_symop_operation_xyz
x,y,z
-x,-y,1/2+z
x,1/2-y,-z
-x,1/2+y,1/2-z
-x,-y,-z
x,y,1/2-z
-x,1/2+y,z
x,1/2-y,1/2+z
loop_
_atom_site_type_symbol
_atom_site_label
_atom_site_fract_x
_atom_site_fract_y
_atom_site_fract_z
Si Si1 0.387692 0.059719 0.639300
Si Si2 0.282782 0.590736 0.495390
Si Si3 0.970332 0.750000 0.500000
Si Si4 0.378514 0.296919 0.636504
O O1 0.378814 0.027799 0.750000
O O2 0.598907 0.040324 0.584577
O O3 0.384864 0.177578 0.636623
O O4 0.225259 0.998704 0.576513
O O5 0.438985 0.655925 0.426961
O O6 0.118016 0.664525 0.537377
O O7 0.831523 0.693177 0.421590
O O8 0.380014 0.328283 0.750000
#
# Coordination Sequence:
#
# PCOD9439115 Si02
#       4
#     8   8   4   8
#     4  10  21  40  65  91 124 167 208 254 308 369
#     4  11  22  42  66  89 128 165 208 255 315 364
#     4  12  22  40  64  94 120 168 202 256 310 362
#     4  11  23  42  62  93 130 163 207 257 308 367
#
# _framework density 22.729877999999999
#
# number of rings (size 3 to 8) (size 9 to 14) (size 15 to 20)
#    0.000    1.143    5.714    0.857    0.000    4.571 
#    0.000    0.000    0.000    0.000    0.000    0.000 
#    0.000    0.000    0.000    0.000    0.000    0.000 
#
# Total GULP energy -156116.763198 kJ/mol
# GULP energy per Si atom -5575.598686 kJ/mol
# Density = 2.267814 g / cm^3
# Si number density = 22.729878 Si / 1000 Ang^3
#
#
#
# Elastic Constant Matrix: (Units=GPa)
#
#
# Indices 1 2 3 4 5 6 
#
# 1 48.7585 7.3940 -8.9522 0.0000 0.0000 0.0000
# 2 7.3940 90.0450 -22.6152 0.0000 0.0000 0.0000
# 3 -8.9522 -22.6152 78.2345 0.0000 0.0000 0.0000
# 4 0.0000 0.0000 0.0000 39.3307 0.0000 0.0000
# 5 0.0000 0.0000 0.0000 0.0000 10.9244 0.0000
# 6 0.0000 0.0000 0.0000 0.0000 0.0000 43.7964
#
#
#
# Elastic Compliance Matrix: (Units=1/GPa)
#
#
# Indices 1 2 3 4 5 6 
#
# 1 0.021071 -0.001213 0.002061 0.000000 0.000000 0.000000
# 2 -0.001213 0.012045 0.003343 0.000000 0.000000 0.000000
# 3 0.002061 0.003343 0.013984 0.000000 0.000000 0.000000
# 4 0.000000 0.000000 0.000000 0.025425 0.000000 0.000000
# 5 0.000000 0.000000 0.000000 0.000000 0.091539 0.000000
# 6 0.000000 0.000000 0.000000 0.000000 0.000000 0.022833
#
#
# Mechanical properties :
#
#
# Convention : Reuss Voigt Hill
#
# Bulk Modulus (GPa) = 18.02381 18.74346 18.38364
# Shear Modulus (GPa) = 25.37945 34.89106 30.13525
#
# Velocity S-wave (km/s) = 3.34513 3.92220 3.64510
# Velocity P-wave (km/s) = 4.78191 5.36429 5.08145
#
# Compressibility (1/GPa) = 0.05548216
#
# Stress axis : x y z
#
# Youngs Moduli (GPa) = 47.45752 83.02373 71.50913
#
# Poissons Ratio (x) = 0.10069 -0.14735
# Poissons Ratio (y) = 0.05755 -0.23906
# Poissons Ratio (z) = -0.09779 -0.27755
#
# Static dielectric constant tensor:
#      x y z
#    x 1.896030 0.000000 0.000000 
#    y 0.000000 1.936850 0.000000 
#    z 0.000000 0.000000 1.839080 
# 
# From -- ./inp_files/14666.got.cif
#   From: 2010.05.17/outbox.cif.g08.bks.cpg/sg57_8_cif.got.tgz:14666.got - 2010.06.03 13:58:18.
