data_PCOD9439480
_publ_section_title
;
Structure prediction by ZEFSAII (Michael W. Deem and Ramdas Pophale) SiO2 
 PCOD9439480
Probable space group: P B C M
;
_chemical_formula_sum "Si O2"
_cell_formula_units_Z 48
_cell_length_a 7.193702
_cell_length_b 8.586191
_cell_length_c 30.983479
_cell_angle_alpha 90.000000
_cell_angle_beta 90.000000
_cell_angle_gamma 90.000000
_cell_volume 1913.741036
_symmetry_space_group_name_H-M "P B C M"
_symmetry_group_IT_number 57
_symmetry_cell_setting 'orthorhombic'
loop_
_space_group_symop_operation_xyz
x,y,z
-x,-y,1/2+z
x,1/2-y,-z
-x,1/2+y,1/2-z
-x,-y,-z
x,y,1/2-z
-x,1/2+y,z
x,1/2-y,1/2+z
loop_
_atom_site_type_symbol
_atom_site_label
_atom_site_fract_x
_atom_site_fract_y
_atom_site_fract_z
Si Si1 0.144076 0.126905 0.963153
Si Si2 0.395871 0.808141 0.701788
Si Si3 0.262810 0.861475 0.117044
Si Si4 0.283363 0.908933 0.474125
Si Si5 0.912905 0.802356 0.619177
Si Si6 0.776348 0.846418 0.202569
O O1 0.194404 0.209441 0.918442
O O2 0.935541 0.053465 0.959077
O O3 0.104133 0.250000 0.000000
O O4 0.304737 0.030015 0.986723
O O5 0.330154 0.757622 0.750000
O O6 0.349772 0.699653 0.661152
O O7 0.319198 0.983742 0.695482
O O8 0.617713 0.786835 0.703670
O O9 0.375474 0.896928 0.073028
O O10 0.126277 0.716373 0.104534
O O11 0.161394 0.025856 0.126189
O O12 0.301210 0.750000 0.500000
O O13 0.903941 0.705092 0.663418
O O14 0.865836 0.852310 0.250000
#
# Coordination Sequence:
#
# PCOD9439480 Si02
#       6
#     8   8   8   8   8   8
#     4   9  16  30  47  76 111 148 185 223 269 323
#     4  10  22  41  63  83 109 145 187 230 279 341
#     4  11  22  35  55  88 117 149 188 232 282 325
#     4   9  18  28  49  76 111 150 185 225 269 329
#     4  11  22  34  57  86 118 149 186 235 279 327
#     4  10  22  41  63  84 108 146 187 228 281 341
#
# _framework density 25.081765999999998
#
# number of rings (size 3 to 8) (size 9 to 14) (size 15 to 20)
#    0.000    2.000    1.667    2.000    9.333    2.667 
#    0.000    0.000    0.000    2.000    0.000    0.000 
#    0.000    0.000    0.000    0.000    0.000    0.000 
#
# Total GULP energy -267638.368255 kJ/mol
# GULP energy per Si atom -5575.799339 kJ/mol
# Density = 2.502468 g / cm^3
# Si number density = 25.081766 Si / 1000 Ang^3
#
#
#
# Elastic Constant Matrix: (Units=GPa)
#
#
# Indices 1 2 3 4 5 6 
#
# 1 27.9092 -8.4725 8.7968 0.0000 0.0000 0.0000
# 2 -8.4725 73.2607 45.5993 0.0000 0.0000 0.0000
# 3 8.7968 45.5993 194.3180 0.0000 0.0000 0.0000
# 4 0.0000 0.0000 0.0000 40.2479 0.0000 0.0000
# 5 0.0000 0.0000 0.0000 0.0000 37.5601 0.0000
# 6 0.0000 0.0000 0.0000 0.0000 0.0000 17.9636
#
#
#
# Elastic Compliance Matrix: (Units=1/GPa)
#
#
# Indices 1 2 3 4 5 6 
#
# 1 0.038856 0.006544 -0.003295 0.000000 0.000000 0.000000
# 2 0.006544 0.017087 -0.004306 0.000000 0.000000 0.000000
# 3 -0.003295 -0.004306 0.006306 0.000000 0.000000 0.000000
# 4 0.000000 0.000000 0.000000 0.024846 0.000000 0.000000
# 5 0.000000 0.000000 0.000000 0.000000 0.026624 0.000000
# 6 0.000000 0.000000 0.000000 0.000000 0.000000 0.055668
#
#
# Mechanical properties :
#
#
# Convention : Reuss Voigt Hill
#
# Bulk Modulus (GPa) = 16.62906 43.03722 29.83314
# Shear Modulus (GPa) = 26.10361 35.79193 30.94777
#
# Velocity S-wave (km/s) = 3.22955 3.78168 3.51647
# Velocity P-wave (km/s) = 4.53332 6.02197 5.32987
#
# Compressibility (1/GPa) = 0.06013569
#
# Stress axis : x y z
#
# Youngs Moduli (GPa) = 25.73629 58.52460 158.58424
#
# Poissons Ratio (x) = -0.38300 0.52249
# Poissons Ratio (y) = -0.16843 0.68285
# Poissons Ratio (z) = 0.08479 0.25200
#
# Static dielectric constant tensor:
#      x y z
#    x 2.095090 0.000000 0.000000 
#    y 0.000000 2.025580 0.000000 
#    z 0.000000 0.000000 2.042410 
# 
# From -- ./inp_files/29449.got.cif
#   From: 2010.05.17/outbox.cif.g08.bks.cpg/sg57_15_cif.got.tgz:29449.got - 2010.06.03 13:58:18.
