data_PCOD9439402
_publ_section_title
;
Structure prediction by ZEFSAII (Michael W. Deem and Ramdas Pophale) SiO2 
 PCOD9439402
Probable space group: P B C M
;
_chemical_formula_sum "Si O2"
_cell_formula_units_Z 48
_cell_length_a 10.449632
_cell_length_b 28.701750
_cell_length_c 8.616978
_cell_angle_alpha 90.000000
_cell_angle_beta 90.000000
_cell_angle_gamma 90.000000
_cell_volume 2584.427525
_symmetry_space_group_name_H-M "P B C M"
_symmetry_group_IT_number 57
_symmetry_cell_setting 'orthorhombic'
loop_
_space_group_symop_operation_xyz
x,y,z
-x,-y,1/2+z
x,1/2-y,-z
-x,1/2+y,1/2-z
-x,-y,-z
x,y,1/2-z
-x,1/2+y,z
x,1/2-y,1/2+z
loop_
_atom_site_type_symbol
_atom_site_label
_atom_site_fract_x
_atom_site_fract_y
_atom_site_fract_z
Si Si1 0.103433 0.699515 0.564393
Si Si2 0.013223 0.106478 0.434568
Si Si3 0.485347 0.893111 0.063575
Si Si4 0.227223 0.550617 0.935288
Si Si5 0.256077 0.052862 0.564227
Si Si6 0.390682 0.700400 0.434556
O O1 0.063989 0.750000 0.500000
O O2 0.100746 0.699207 0.750000
O O3 0.019316 0.657794 0.497282
O O4 0.250071 0.692205 0.508620
O O5 0.027855 0.107171 0.250000
O O6 0.892865 0.074129 0.480743
O O7 0.138843 0.085211 0.512904
O O8 0.486256 0.886395 0.250000
O O9 0.357029 0.921767 0.023844
O O10 0.610331 0.922581 0.020849
O O11 0.477344 0.843030 0.982995
O O12 0.208200 0.554306 0.750000
O O13 0.241659 0.497136 0.983904
O O14 0.254255 0.046481 0.750000
O O15 0.437035 0.750000 0.500000
O O16 0.376826 0.703280 0.250000
#
# Coordination Sequence:
#
# PCOD9439402 Si02
#       6
#     8   8   8   8   8   8
#     4  11  21  37  61  90 121 153 195 245 296 351
#     4  12  24  40  61  89 121 159 202 247 298 355
#     4  10  22  40  62  88 121 158 200 246 298 354
#     4  11  22  39  63  89 118 157 202 252 297 352
#     4  11  24  41  60  86 122 162 200 248 301 356
#     4  11  21  35  60  90 121 155 196 244 294 348
#
# _framework density 18.572780000000002
#
# number of rings (size 3 to 8) (size 9 to 14) (size 15 to 20)
#    0.000    1.000    1.667    7.500    0.000    2.000 
#    0.000    0.833    0.000    4.000    0.000    0.000 
#    0.000    0.000    0.000    0.000    0.000    0.000 
#
# Total GULP energy -268526.533653 kJ/mol
# GULP energy per Si atom -5594.302784 kJ/mol
# Density = 1.853051 g / cm^3
# Si number density = 18.572780 Si / 1000 Ang^3
#
#
#
# Elastic Constant Matrix: (Units=GPa)
#
#
# Indices 1 2 3 4 5 6 
#
# 1 33.4027 -12.1903 -11.2389 0.0000 0.0000 0.0000
# 2 -12.1903 86.0322 -10.7987 0.0000 0.0000 0.0000
# 3 -11.2389 -10.7987 42.5654 0.0000 0.0000 0.0000
# 4 0.0000 0.0000 0.0000 35.1501 0.0000 0.0000
# 5 0.0000 0.0000 0.0000 0.0000 8.9016 0.0000
# 6 0.0000 0.0000 0.0000 0.0000 0.0000 -12.8253
#
#
#
# Elastic Compliance Matrix: (Units=1/GPa)
#
#
# Indices 1 2 3 4 5 6 
#
# 1 0.036076 0.006515 0.011178 0.000000 0.000000 0.000000
# 2 0.006515 0.013182 0.005065 0.000000 0.000000 0.000000
# 3 0.011178 0.005065 0.027730 0.000000 0.000000 0.000000
# 4 0.000000 0.000000 0.000000 0.028449 0.000000 0.000000
# 5 0.000000 0.000000 0.000000 0.000000 0.112340 0.000000
# 6 0.000000 0.000000 0.000000 0.000000 0.000000 -0.077971
#
#
# Mechanical properties :
#
#
# Convention : Reuss Voigt Hill
#
# Bulk Modulus (GPa) = 8.16298 10.39383 9.27841
# Shear Modulus (GPa) = 37.00246 19.32714 28.16480
#
# Velocity S-wave (km/s) = 4.46836 3.22936 3.89839
# Velocity P-wave (km/s) = 5.57012 4.41740 5.02691
#
# Compressibility (1/GPa) = 0.12250424
#
# Stress axis : x y z
#
# Youngs Moduli (GPa) = 27.71889 75.85878 36.06248
#
# Poissons Ratio (x) = -0.49422 -0.40312
# Poissons Ratio (y) = -0.18059 -0.18264
# Poissons Ratio (z) = -0.30985 -0.38419
#
# Static dielectric constant tensor:
#      x y z
#    x 1.612790 0.000000 0.000000 
#    y 0.000000 1.628070 0.000000 
#    z 0.000000 0.000000 1.620170 
# 
# From -- ./inp_files/2113.got.cif
#   From: 2010.05.17/outbox.cif.g08.bks.cpg/sg57_2_cif.got.tgz:2113.got - 2010.06.03 13:58:18.
