data_PCOD9439885
_publ_section_title
;
Structure prediction by ZEFSAII (Michael W. Deem and Ramdas Pophale) SiO2 
 PCOD9439885
Probable space group: P B C M
;
_chemical_formula_sum "Si O2"
_cell_formula_units_Z 36
_cell_length_a 19.623463
_cell_length_b 8.511511
_cell_length_c 9.902133
_cell_angle_alpha 90.000000
_cell_angle_beta 90.000000
_cell_angle_gamma 90.000000
_cell_volume 1653.906945
_symmetry_space_group_name_H-M "P B C M"
_symmetry_group_IT_number 57
_symmetry_cell_setting 'orthorhombic'
loop_
_space_group_symop_operation_xyz
x,y,z
-x,-y,1/2+z
x,1/2-y,-z
-x,1/2+y,1/2-z
-x,-y,-z
x,y,1/2-z
-x,1/2+y,z
x,1/2-y,1/2+z
loop_
_atom_site_type_symbol
_atom_site_label
_atom_site_fract_x
_atom_site_fract_y
_atom_site_fract_z
Si Si1 0.899654 0.013522 0.103959
Si Si2 0.209918 0.406054 0.593261
Si Si3 0.008370 0.250000 0.500000
Si Si4 0.446590 0.436198 0.750000
Si Si5 0.595160 0.929419 0.250000
Si Si6 0.350501 0.563370 0.522412
O O1 0.865461 0.028097 0.250000
O O2 0.957936 0.142491 0.085790
O O3 0.847261 0.012164 0.979962
O O4 0.941833 0.852544 0.091664
O O5 0.214225 0.250000 0.500000
O O6 0.193887 0.370696 0.750000
O O7 0.281354 0.496966 0.586436
O O8 0.426857 0.252616 0.750000
O O9 0.526940 0.464943 0.750000
O O10 0.412777 0.518177 0.620181
O O11 0.637601 0.973876 0.381921
O O12 0.347460 0.750000 0.500000
#
# Coordination Sequence:
#
# PCOD9439885 Si02
#       6
#     8   8   4   4   4   8
#     4  11  24  44  73 103 142 186 243 295 367 430
#     4  12  27  47  71 103 143 191 242 297 368 440
#     4  10  24  44  70 106 142 182 234 304 360 434
#     4  12  24  50  72 114 144 193 238 295 360 434
#     4  12  26  44  82 106 150 189 242 295 364 424
#     4  12  27  47  71 105 148 191 244 303 357 427
#
# _framework density 21.766642000000001
#
# number of rings (size 3 to 8) (size 9 to 14) (size 15 to 20)
#    0.000    0.444    2.222    6.000    4.667    4.444 
#    0.000    0.000    0.000    0.000    0.000    0.000 
#    0.000    0.000    0.000    0.000    0.000    0.000 
#
# Total GULP energy -201565.665204 kJ/mol
# GULP energy per Si atom -5599.046256 kJ/mol
# Density = 2.171710 g / cm^3
# Si number density = 21.766642 Si / 1000 Ang^3
#
#
#
# Elastic Constant Matrix: (Units=GPa)
#
#
# Indices 1 2 3 4 5 6 
#
# 1 84.4047 -1.1893 25.9031 0.0000 0.0000 0.0000
# 2 -1.1893 87.7939 16.6269 0.0000 0.0000 0.0000
# 3 25.9031 16.6269 176.1895 0.0000 0.0000 0.0000
# 4 0.0000 0.0000 0.0000 0.3584 0.0000 0.0000
# 5 0.0000 0.0000 0.0000 0.0000 71.4018 0.0000
# 6 0.0000 0.0000 0.0000 0.0000 0.0000 21.7149
#
#
#
# Elastic Compliance Matrix: (Units=1/GPa)
#
#
# Indices 1 2 3 4 5 6 
#
# 1 0.012431 0.000524 -0.001877 0.000000 0.000000 0.000000
# 2 0.000524 0.011620 -0.001174 0.000000 0.000000 0.000000
# 3 -0.001877 -0.001174 0.006062 0.000000 0.000000 0.000000
# 4 0.000000 0.000000 0.000000 2.790484 0.000000 0.000000
# 5 0.000000 0.000000 0.000000 0.000000 0.014005 0.000000
# 6 0.000000 0.000000 0.000000 0.000000 0.000000 0.046051
#
#
# Mechanical properties :
#
#
# Convention : Reuss Voigt Hill
#
# Bulk Modulus (GPa) = 39.90463 47.89661 43.90062
# Shear Modulus (GPa) = 1.72768 39.16485 20.44626
#
# Velocity S-wave (km/s) = 0.89188 4.24642 3.06819
# Velocity P-wave (km/s) = 4.40832 6.78934 5.72401
#
# Compressibility (1/GPa) = 0.02505975
#
# Stress axis : x y z
#
# Youngs Moduli (GPa) = 80.44334 86.06103 164.95082
#
# Poissons Ratio (x) = -0.04509 0.30962
# Poissons Ratio (y) = -0.04214 0.19358
# Poissons Ratio (z) = 0.15100 0.10100
#
# Static dielectric constant tensor:
#      x y z
#    x 1.747690 0.000000 0.000000 
#    y 0.000000 1.795450 0.000000 
#    z 0.000000 0.000000 1.818440 
# 
# From -- ./inp_files/7664.got.cif
#   From: 2010.05.17/outbox.cif.g08.bks.cpg/sg57_4_cif.got.tgz:7664.got - 2010.06.03 13:58:18.
