data_PCOD9439597
_publ_section_title
;
Structure prediction by ZEFSAII (Michael W. Deem and Ramdas Pophale) SiO2 
 PCOD9439597
Probable space group: P B C M
;
_chemical_formula_sum "Si O2"
_cell_formula_units_Z 40
_cell_length_a 7.317082
_cell_length_b 11.999016
_cell_length_c 17.403594
_cell_angle_alpha 90.000000
_cell_angle_beta 90.000000
_cell_angle_gamma 90.000000
_cell_volume 1527.996987
_symmetry_space_group_name_H-M "P B C M"
_symmetry_group_IT_number 57
_symmetry_cell_setting 'orthorhombic'
loop_
_space_group_symop_operation_xyz
x,y,z
-x,-y,1/2+z
x,1/2-y,-z
-x,1/2+y,1/2-z
-x,-y,-z
x,y,1/2-z
-x,1/2+y,z
x,1/2-y,1/2+z
loop_
_atom_site_type_symbol
_atom_site_label
_atom_site_fract_x
_atom_site_fract_y
_atom_site_fract_z
Si Si1 0.254598 0.470031 0.340494
Si Si2 0.334563 0.501166 0.895134
Si Si3 0.248795 0.778673 0.168691
Si Si4 0.778853 0.359250 0.540489
Si Si5 0.826086 0.785677 0.836852
O O1 0.211650 0.491829 0.250000
O O2 0.463701 0.499785 0.359887
O O3 0.143532 0.542692 0.403484
O O4 0.240651 0.338660 0.353984
O O5 0.229851 0.590089 0.841285
O O6 0.245383 0.380447 0.893213
O O7 0.319002 0.566230 0.976122
O O8 0.337464 0.753861 0.250000
O O9 0.344571 0.715377 0.098654
O O10 0.044828 0.730241 0.165977
O O11 0.879488 0.250000 0.500000
O O12 0.768916 0.817474 0.750000
#
# Coordination Sequence:
#
# PCOD9439597 Si02
#       5
#     8   8   8   8   8
#     4  11  24  44  71 100 132 178 229 279 337 402
#     4  11  24  44  67  97 140 174 224 281 341 401
#     4  10  22  43  68  95 135 180 226 281 331 399
#     4  10  24  43  66  97 135 175 225 271 340 399
#     4  10  24  42  68 103 133 177 233 276 334 401
#
# _framework density 26.178063000000002
#
# number of rings (size 3 to 8) (size 9 to 14) (size 15 to 20)
#    0.000    1.600    0.000    3.000    8.400    1.600 
#    7.200    0.000    0.000    0.000    0.000    0.000 
#    0.000    0.000    0.000    0.000    0.000    0.000 
#
# Total GULP energy -223275.006300 kJ/mol
# GULP energy per Si atom -5581.875157 kJ/mol
# Density = 2.611848 g / cm^3
# Si number density = 26.178063 Si / 1000 Ang^3
#
#
#
# Elastic Constant Matrix: (Units=GPa)
#
#
# Indices 1 2 3 4 5 6 
#
# 1 76.4026 29.5739 -0.2005 0.0000 0.0000 0.0000
# 2 29.5739 223.0695 74.7470 0.0000 0.0000 0.0000
# 3 -0.2005 74.7470 171.3693 0.0000 0.0000 0.0000
# 4 0.0000 0.0000 0.0000 51.4150 0.0000 0.0000
# 5 0.0000 0.0000 0.0000 0.0000 4.3969 0.0000
# 6 0.0000 0.0000 0.0000 0.0000 0.0000 36.9632
#
#
#
# Elastic Compliance Matrix: (Units=1/GPa)
#
#
# Indices 1 2 3 4 5 6 
#
# 1 0.013931 -0.002169 0.000963 0.000000 0.000000 0.000000
# 2 -0.002169 0.005588 -0.002440 0.000000 0.000000 0.000000
# 3 0.000963 -0.002440 0.006901 0.000000 0.000000 0.000000
# 4 0.000000 0.000000 0.000000 0.019450 0.000000 0.000000
# 5 0.000000 0.000000 0.000000 0.000000 0.227434 0.000000
# 6 0.000000 0.000000 0.000000 0.000000 0.000000 0.027054
#
#
# Mechanical properties :
#
#
# Convention : Reuss Voigt Hill
#
# Bulk Modulus (GPa) = 52.28481 75.45357 63.86919
# Shear Modulus (GPa) = 15.92226 43.00309 29.46268
#
# Velocity S-wave (km/s) = 2.46891 4.05744 3.35845
# Velocity P-wave (km/s) = 5.30504 7.12995 6.28409
#
# Compressibility (1/GPa) = 0.01912601
#
# Stress axis : x y z
#
# Youngs Moduli (GPa) = 71.78323 178.95147 144.91258
#
# Poissons Ratio (x) = 0.38823 -0.13949
# Poissons Ratio (y) = 0.15573 0.35358
# Poissons Ratio (z) = -0.06910 0.43663
#
# Static dielectric constant tensor:
#      x y z
#    x 2.139930 0.000000 0.000000 
#    y 0.000000 2.065100 0.000000 
#    z 0.000000 0.000000 2.304630 
# 
# From -- ./inp_files/20528.got.cif
#   From: 2010.05.17/outbox.cif.g08.bks.cpg/sg57_11_cif.got.tgz:20528.got - 2010.06.03 13:58:18.
