data_PCOD9439117
_publ_section_title
;
Structure prediction by ZEFSAII (Michael W. Deem and Ramdas Pophale) SiO2 
 PCOD9439117
Probable space group: P B C M
;
_chemical_formula_sum "Si O2"
_cell_formula_units_Z 60
_cell_length_a 19.777143
_cell_length_b 17.413811
_cell_length_c 8.420539
_cell_angle_alpha 90.000000
_cell_angle_beta 90.000000
_cell_angle_gamma 90.000000
_cell_volume 2899.995152
_symmetry_space_group_name_H-M "P B C M"
_symmetry_group_IT_number 57
_symmetry_cell_setting 'orthorhombic'
loop_
_space_group_symop_operation_xyz
x,y,z
-x,-y,1/2+z
x,1/2-y,-z
-x,1/2+y,1/2-z
-x,-y,-z
x,y,1/2-z
-x,1/2+y,z
x,1/2-y,1/2+z
loop_
_atom_site_type_symbol
_atom_site_label
_atom_site_fract_x
_atom_site_fract_y
_atom_site_fract_z
Si Si1 0.022228 0.584270 0.441490
Si Si2 0.889173 0.666542 0.440849
Si Si3 0.175711 0.878206 0.559675
Si Si4 0.390379 0.866777 0.569982
Si Si5 0.466696 0.168815 0.936419
Si Si6 0.779661 0.540412 0.060528
Si Si7 0.271243 0.750000 0.500000
Si Si8 0.636216 0.541076 0.557420
O O1 0.022272 0.581516 0.250000
O O2 0.097338 0.610900 0.487856
O O3 0.000000 0.500000 0.500000
O O4 0.964104 0.642705 0.496206
O O5 0.869779 0.750000 0.500000
O O6 0.889597 0.667236 0.250000
O O7 0.836777 0.600754 0.490021
O O8 0.180602 0.857965 0.750000
O O9 0.216071 0.815730 0.455002
O O10 0.209051 0.960936 0.531541
O O11 0.415237 0.874718 0.750000
O O12 0.453736 0.836929 0.471668
O O13 0.326668 0.809148 0.573797
O O14 0.371718 0.951784 0.510518
O O15 0.457342 0.330471 0.250000
O O16 0.440811 0.250000 0.000000
O O17 0.425859 0.094487 0.996689
O O18 0.785515 0.527203 0.250000
O O19 0.705671 0.570503 0.017228
O O20 0.641008 0.542491 0.750000
#
# Coordination Sequence:
#
# PCOD9439117 Si02
#       8
#     8   8   8   8   8   8   4   8
#     4  10  21  40  65  92 126 168 214 264 318 376
#     4  10  23  41  61  91 126 163 215 266 314 375
#     4  11  24  42  64  92 129 173 213 256 318 385
#     4  11  23  42  66  91 127 167 208 257 315 382
#     4  11  24  41  66  94 126 165 210 262 317 378
#     4  11  23  40  64  92 124 162 207 264 318 372
#     4  12  24  38  66  98 130 164 212 258 314 384
#     4  10  23  44  66  92 125 166 211 259 316 384
#
# _framework density 20.689689000000001
#
# number of rings (size 3 to 8) (size 9 to 14) (size 15 to 20)
#    0.000    1.333    3.333    1.600    0.933    5.333 
#    0.000    2.667    0.000    0.000    0.000    0.000 
#    0.000    0.000    0.000    0.000    0.000    0.000 
#
# Total GULP energy -334661.119178 kJ/mol
# GULP energy per Si atom -5577.685320 kJ/mol
# Density = 2.064260 g / cm^3
# Si number density = 20.689689 Si / 1000 Ang^3
#
#
#
# Elastic Constant Matrix: (Units=GPa)
#
#
# Indices 1 2 3 4 5 6 
#
# 1 127.3522 57.7028 15.9511 0.0000 0.0000 0.0000
# 2 57.7028 132.5310 17.3694 0.0000 0.0000 0.0000
# 3 15.9511 17.3694 15.7962 0.0000 0.0000 0.0000
# 4 0.0000 0.0000 0.0000 12.1600 0.0000 0.0000
# 5 0.0000 0.0000 0.0000 0.0000 17.4403 0.0000
# 6 0.0000 0.0000 0.0000 0.0000 0.0000 42.7032
#
#
#
# Elastic Compliance Matrix: (Units=1/GPa)
#
#
# Indices 1 2 3 4 5 6 
#
# 1 0.010307 -0.003649 -0.006395 0.000000 0.000000 0.000000
# 2 -0.003649 0.010108 -0.007430 0.000000 0.000000 0.000000
# 3 -0.006395 -0.007430 0.077933 0.000000 0.000000 0.000000
# 4 0.000000 0.000000 0.000000 0.082237 0.000000 0.000000
# 5 0.000000 0.000000 0.000000 0.000000 0.057339 0.000000
# 6 0.000000 0.000000 0.000000 0.000000 0.000000 0.023417
#
#
# Mechanical properties :
#
#
# Convention : Reuss Voigt Hill
#
# Bulk Modulus (GPa) = 15.77279 50.85845 33.31562
# Shear Modulus (GPa) = 15.75190 26.77111 21.26151
#
# Velocity S-wave (km/s) = 2.76223 3.60103 3.20916
# Velocity P-wave (km/s) = 4.22058 6.47494 5.46526
#
# Compressibility (1/GPa) = 0.06340033
#
# Stress axis : x y z
#
# Youngs Moduli (GPa) = 97.02405 98.93158 12.83148
#
# Poissons Ratio (x) = 0.36103 0.08206
# Poissons Ratio (y) = 0.35407 0.09533
# Poissons Ratio (z) = 0.62047 0.73501
#
# Static dielectric constant tensor:
#      x y z
#    x 1.753780 0.000000 0.000000 
#    y 0.000000 1.739290 0.000000 
#    z 0.000000 0.000000 1.738670 
# 
# From -- ./inp_files/6932.got.cif
#   From: 2010.05.17/outbox.cif.g08.bks.cpg/sg57_4_cif.got.tgz:6932.got - 2010.06.03 13:58:18.
