data_PCOD9439948
_publ_section_title
;
Structure prediction by ZEFSAII (Michael W. Deem and Ramdas Pophale) SiO2 
 PCOD9439948
Probable space group: P B C M
;
_chemical_formula_sum "Si O2"
_cell_formula_units_Z 32
_cell_length_a 4.925871
_cell_length_b 20.694463
_cell_length_c 12.907904
_cell_angle_alpha 90.000000
_cell_angle_beta 90.000000
_cell_angle_gamma 90.000000
_cell_volume 1315.809211
_symmetry_space_group_name_H-M "P B C M"
_symmetry_group_IT_number 57
_symmetry_cell_setting 'orthorhombic'
loop_
_space_group_symop_operation_xyz
x,y,z
-x,-y,1/2+z
x,1/2-y,-z
-x,1/2+y,1/2-z
-x,-y,-z
x,y,1/2-z
-x,1/2+y,z
x,1/2-y,1/2+z
loop_
_atom_site_type_symbol
_atom_site_label
_atom_site_fract_x
_atom_site_fract_y
_atom_site_fract_z
Si Si1 0.191748 0.641087 0.865947
Si Si2 0.650694 0.959019 0.750000
Si Si3 0.047172 0.280354 0.870022
Si Si4 0.465569 0.862833 0.572599
Si Si5 0.151889 0.045830 0.750000
O O1 0.314896 0.651186 0.750000
O O2 0.950990 0.589879 0.845679
O O3 0.073029 0.710544 0.898778
O O4 0.386904 0.617495 0.956347
O O5 0.578886 0.917904 0.648152
O O6 0.959477 0.982703 0.750000
O O7 0.457017 0.021839 0.750000
O O8 0.130835 0.274744 0.750000
O O9 0.308879 0.307157 0.927806
O O10 0.807520 0.332501 0.879585
#
# Coordination Sequence:
#
# PCOD9439948 Si02
#       5
#     8   4   8   8   4
#     4   9  25  48  67 104 145 187 226 285 352 424
#     4  12  24  42  72 102 138 184 246 280 334 402
#     4  11  22  44  71 104 137 178 224 292 357 417
#     4  12  24  43  75 106 138 178 233 291 351 408
#     4  10  26  46  66 100 140 194 236 276 340 408
#
# _framework density 24.319634000000001
#
# number of rings (size 3 to 8) (size 9 to 14) (size 15 to 20)
#    0.750    0.500    2.500    2.250    0.000   10.000 
#    0.000    0.000    2.750    0.000    0.000    0.000 
#    0.000    0.000    0.000    0.000    0.000    0.000 
#
# Total GULP energy -179258.075757 kJ/mol
# GULP energy per Si atom -5601.814867 kJ/mol
# Density = 2.426428 g / cm^3
# Si number density = 24.319634 Si / 1000 Ang^3
#
#
#
# Elastic Constant Matrix: (Units=GPa)
#
#
# Indices 1 2 3 4 5 6 
#
# 1 82.0872 10.1298 10.3770 0.0000 0.0000 0.0000
# 2 10.1298 97.5896 24.8945 0.0000 0.0000 0.0000
# 3 10.3770 24.8945 114.0055 0.0000 0.0000 0.0000
# 4 0.0000 0.0000 0.0000 18.7477 0.0000 0.0000
# 5 0.0000 0.0000 0.0000 0.0000 15.6859 0.0000
# 6 0.0000 0.0000 0.0000 0.0000 0.0000 50.8170
#
#
#
# Elastic Compliance Matrix: (Units=1/GPa)
#
#
# Indices 1 2 3 4 5 6 
#
# 1 0.012427 -0.001060 -0.000900 0.000000 0.000000 0.000000
# 2 -0.001060 0.010942 -0.002293 0.000000 0.000000 0.000000
# 3 -0.000900 -0.002293 0.009354 0.000000 0.000000 0.000000
# 4 0.000000 0.000000 0.000000 0.053340 0.000000 0.000000
# 5 0.000000 0.000000 0.000000 0.000000 0.063752 0.000000
# 6 0.000000 0.000000 0.000000 0.000000 0.000000 0.019678
#
#
# Mechanical properties :
#
#
# Convention : Reuss Voigt Hill
#
# Bulk Modulus (GPa) = 41.29296 42.72055 42.00675
# Shear Modulus (GPa) = 26.87150 33.60217 30.23684
#
# Velocity S-wave (km/s) = 3.32766 3.72114 3.52988
# Velocity P-wave (km/s) = 5.63742 6.00557 5.82441
#
# Compressibility (1/GPa) = 0.02421720
#
# Stress axis : x y z
#
# Youngs Moduli (GPa) = 80.47159 91.39150 106.90563
#
# Poissons Ratio (x) = 0.09691 0.09617
# Poissons Ratio (y) = 0.08533 0.24511
# Poissons Ratio (z) = 0.07239 0.20954
#
# Static dielectric constant tensor:
#      x y z
#    x 1.885820 0.000000 0.000000 
#    y 0.000000 1.933770 0.000000 
#    z 0.000000 0.000000 1.998460 
# 
# From -- ./inp_files/14798.got.cif
#   From: 2010.05.17/outbox.cif.g08.bks.cpg/sg57_8_cif.got.tgz:14798.got - 2010.06.03 13:58:18.
