data_PCOD9439996
_publ_section_title
;
Structure prediction by ZEFSAII (Michael W. Deem and Ramdas Pophale) SiO2 
 PCOD9439996
Probable space group: P B C M
;
_chemical_formula_sum "Si O2"
_cell_formula_units_Z 56
_cell_length_a 11.158095
_cell_length_b 11.687196
_cell_length_c 21.651874
_cell_angle_alpha 90.000000
_cell_angle_beta 90.000000
_cell_angle_gamma 90.000000
_cell_volume 2823.552539
_symmetry_space_group_name_H-M "P B C M"
_symmetry_group_IT_number 57
_symmetry_cell_setting 'orthorhombic'
loop_
_space_group_symop_operation_xyz
x,y,z
-x,-y,1/2+z
x,1/2-y,-z
-x,1/2+y,1/2-z
-x,-y,-z
x,y,1/2-z
-x,1/2+y,z
x,1/2-y,1/2+z
loop_
_atom_site_type_symbol
_atom_site_label
_atom_site_fract_x
_atom_site_fract_y
_atom_site_fract_z
Si Si1 0.455796 0.283742 0.250000
Si Si2 0.641097 0.709628 0.116515
Si Si3 0.159413 0.372942 0.438557
Si Si4 0.620351 0.449891 0.750000
Si Si5 0.774998 0.082552 0.129295
Si Si6 0.894692 0.289320 0.430231
Si Si7 0.733869 0.992386 0.558974
Si Si8 0.421728 0.868371 0.528315
O O1 0.396293 0.255141 0.316537
O O2 0.457336 0.428068 0.250000
O O3 0.554239 0.176325 0.250000
O O4 0.727884 0.801947 0.085839
O O5 0.707135 0.587530 0.117168
O O6 0.536954 0.678441 0.066735
O O7 0.141055 0.482428 0.395105
O O8 0.196514 0.418413 0.506461
O O9 0.037275 0.304133 0.431707
O O10 0.709277 0.447194 0.808058
O O11 0.846598 0.199939 0.120193
O O12 0.666908 0.086677 0.080255
O O13 0.868093 0.250000 0.500000
O O14 0.820709 0.405477 0.422852
O O15 0.608859 0.042110 0.528059
O O16 0.377439 0.750000 0.500000
#
# Coordination Sequence:
#
# PCOD9439996 Si02
#       8
#     4   8   8   4   8   8   8   8
#     4  12  28  46  75  95 137 193 234 293 336 427
#     4  12  25  41  64 101 137 175 235 282 345 415
#     4  11  24  40  67 100 138 177 220 285 349 406
#     4  12  26  52  71  99 137 189 246 283 350 409
#     4  11  23  44  68  95 133 180 225 286 339 407
#     4  12  22  41  69 101 138 181 230 276 353 422
#     4  11  22  39  65 105 140 179 221 286 346 425
#     4  11  20  39  66 101 137 171 211 280 359 413
#
# _framework density 19.833172000000001
#
# number of rings (size 3 to 8) (size 9 to 14) (size 15 to 20)
#    0.000    0.571    7.143    3.000    2.000    3.429 
#    0.000    1.429    0.000    0.000    0.000    0.000 
#    0.000    0.000    0.000    0.000    0.000    0.000 
#
# Total GULP energy -311785.362114 kJ/mol
# GULP energy per Si atom -5567.595752 kJ/mol
# Density = 1.978803 g / cm^3
# Si number density = 19.833172 Si / 1000 Ang^3
#
#
#
# Elastic Constant Matrix: (Units=GPa)
#
#
# Indices 1 2 3 4 5 6 
#
# 1 81.2379 25.4348 9.0505 0.0000 0.0000 0.0000
# 2 25.4348 87.7358 40.7004 0.0000 0.0000 0.0000
# 3 9.0505 40.7004 76.2340 0.0000 0.0000 0.0000
# 4 0.0000 0.0000 0.0000 26.9414 0.0000 0.0000
# 5 0.0000 0.0000 0.0000 0.0000 7.0233 0.0000
# 6 0.0000 0.0000 0.0000 0.0000 0.0000 -303.7481
#
#
#
# Elastic Compliance Matrix: (Units=1/GPa)
#
#
# Indices 1 2 3 4 5 6 
#
# 1 0.013563 -0.004233 0.000650 0.000000 0.000000 0.000000
# 2 -0.004233 0.016471 -0.008291 0.000000 0.000000 0.000000
# 3 0.000650 -0.008291 0.017467 0.000000 0.000000 0.000000
# 4 0.000000 0.000000 0.000000 0.037118 0.000000 0.000000
# 5 0.000000 0.000000 0.000000 0.000000 0.142383 0.000000
# 6 0.000000 0.000000 0.000000 0.000000 0.000000 -0.003292
#
#
# Mechanical properties :
#
#
# Convention : Reuss Voigt Hill
#
# Bulk Modulus (GPa) = 42.10241 43.95322 43.02782
# Shear Modulus (GPa) = 19.57897 -42.62187 -11.52145
#
# Velocity S-wave (km/s) = 3.14536 -4.64078 -2.41284
# Velocity P-wave (km/s) = 5.87072 2.55073 3.73893
#
# Compressibility (1/GPa) = 0.02375161
#
# Stress axis : x y z
#
# Youngs Moduli (GPa) = 73.73256 60.71128 57.25097
#
# Poissons Ratio (x) = 0.25701 -0.03721
# Poissons Ratio (y) = 0.31213 0.47468
# Poissons Ratio (z) = -0.04793 0.50338
#
# Static dielectric constant tensor:
#      x y z
#    x 1.812450 0.000000 0.000000 
#    y 0.000000 1.798220 0.000000 
#    z 0.000000 0.000000 1.722410 
# 
# From -- ./inp_files/25069.got.cif
#   From: 2010.05.17/outbox.cif.g08.bks.cpg/sg57_13_cif.got.tgz:25069.got - 2010.06.03 13:58:18.
