data_PCOD9439184
_publ_section_title
;
Structure prediction by ZEFSAII (Michael W. Deem and Ramdas Pophale) SiO2 
 PCOD9439184
Probable space group: P B C M
;
_chemical_formula_sum "Si O2"
_cell_formula_units_Z 40
_cell_length_a 7.316693
_cell_length_b 16.079637
_cell_length_c 13.708964
_cell_angle_alpha 90.000000
_cell_angle_beta 90.000000
_cell_angle_gamma 90.000000
_cell_volume 1612.856427
_symmetry_space_group_name_H-M "P B C M"
_symmetry_group_IT_number 57
_symmetry_cell_setting 'orthorhombic'
loop_
_space_group_symop_operation_xyz
x,y,z
-x,-y,1/2+z
x,1/2-y,-z
-x,1/2+y,1/2-z
-x,-y,-z
x,y,1/2-z
-x,1/2+y,z
x,1/2-y,1/2+z
loop_
_atom_site_type_symbol
_atom_site_label
_atom_site_fract_x
_atom_site_fract_y
_atom_site_fract_z
Si Si1 0.127419 0.228176 0.862100
Si Si2 0.396805 0.094494 0.566707
Si Si3 0.855304 0.450885 0.860057
Si Si4 0.755515 0.333741 0.460452
Si Si5 0.748640 0.920599 0.859466
O O1 0.135800 0.202462 0.750000
O O2 0.932498 0.199286 0.903981
O O3 0.169290 0.326453 0.864461
O O4 0.281526 0.178229 0.918907
O O5 0.604117 0.113221 0.596578
O O6 0.383853 0.071059 0.451524
O O7 0.282261 0.026702 0.625663
O O8 0.838035 0.416417 0.750000
O O9 0.068756 0.476609 0.871676
O O10 0.813977 0.386583 0.945629
O O11 0.659880 0.250000 0.500000
O O12 0.672118 0.931764 0.750000
#
# Coordination Sequence:
#
# PCOD9439184 Si02
#       5
#     8   8   8   8   8
#     4  11  23  42  67  97 134 173 219 271 321 384
#     4  12  24  43  67 100 132 168 219 275 325 386
#     4  11  24  44  66  95 136 173 212 270 332 387
#     4  12  24  42  70  95 128 175 220 266 323 388
#     4  10  21  41  68  94 129 175 216 262 325 387
#
# _framework density 24.800719000000001
#
# number of rings (size 3 to 8) (size 9 to 14) (size 15 to 20)
#    0.000    0.800    4.000    3.600    0.000    2.400 
#    0.000    0.000    0.000    0.000    0.000    0.000 
#    0.000    0.000    0.000    0.000    0.000    0.000 
#
# Total GULP energy -224158.165349 kJ/mol
# GULP energy per Si atom -5603.954134 kJ/mol
# Density = 2.474427 g / cm^3
# Si number density = 24.800719 Si / 1000 Ang^3
#
#
#
# Elastic Constant Matrix: (Units=GPa)
#
#
# Indices 1 2 3 4 5 6 
#
# 1 119.1929 11.9932 19.4666 0.0000 0.0000 0.0000
# 2 11.9932 61.5784 3.8305 0.0000 0.0000 0.0000
# 3 19.4666 3.8305 128.7987 0.0000 0.0000 0.0000
# 4 0.0000 0.0000 0.0000 27.2894 0.0000 0.0000
# 5 0.0000 0.0000 0.0000 0.0000 3.3426 0.0000
# 6 0.0000 0.0000 0.0000 0.0000 0.0000 26.4822
#
#
#
# Elastic Compliance Matrix: (Units=1/GPa)
#
#
# Indices 1 2 3 4 5 6 
#
# 1 0.008762 -0.001627 -0.001276 0.000000 0.000000 0.000000
# 2 -0.001627 0.016572 -0.000247 0.000000 0.000000 0.000000
# 3 -0.001276 -0.000247 0.007964 0.000000 0.000000 0.000000
# 4 0.000000 0.000000 0.000000 0.036644 0.000000 0.000000
# 5 0.000000 0.000000 0.000000 0.000000 0.299164 0.000000
# 6 0.000000 0.000000 0.000000 0.000000 0.000000 0.037761
#
#
# Mechanical properties :
#
#
# Convention : Reuss Voigt Hill
#
# Bulk Modulus (GPa) = 37.03982 42.23896 39.63939
# Shear Modulus (GPa) = 11.84365 29.70815 20.77590
#
# Velocity S-wave (km/s) = 2.18767 3.46479 2.89747
# Velocity P-wave (km/s) = 4.62045 5.75106 5.21648
#
# Compressibility (1/GPa) = 0.02699797
#
# Stress axis : x y z
#
# Youngs Moduli (GPa) = 114.13107 60.34375 125.56138
#
# Poissons Ratio (x) = 0.09819 0.16020
# Poissons Ratio (y) = 0.18571 0.03100
# Poissons Ratio (z) = 0.14562 0.01490
#
# Static dielectric constant tensor:
#      x y z
#    x 1.955780 0.000000 0.000000 
#    y 0.000000 2.034780 0.000000 
#    z 0.000000 0.000000 1.931670 
# 
# From -- ./inp_files/16110.got.cif
#   From: 2010.05.17/outbox.cif.g08.bks.cpg/sg57_9_cif.got.tgz:16110.got - 2010.06.03 13:58:18.
