data_PCOD9439860
_publ_section_title
;
Structure prediction by ZEFSAII (Michael W. Deem and Ramdas Pophale) SiO2 
 PCOD9439860
Probable space group: P B C M
;
_chemical_formula_sum "Si O2"
_cell_formula_units_Z 64
_cell_length_a 11.520546
_cell_length_b 7.836299
_cell_length_c 30.970865
_cell_angle_alpha 90.000000
_cell_angle_beta 90.000000
_cell_angle_gamma 90.000000
_cell_volume 2796.001474
_symmetry_space_group_name_H-M "P B C M"
_symmetry_group_IT_number 57
_symmetry_cell_setting 'orthorhombic'
loop_
_space_group_symop_operation_xyz
x,y,z
-x,-y,1/2+z
x,1/2-y,-z
-x,1/2+y,1/2-z
-x,-y,-z
x,y,1/2-z
-x,1/2+y,z
x,1/2-y,1/2+z
loop_
_atom_site_type_symbol
_atom_site_label
_atom_site_fract_x
_atom_site_fract_y
_atom_site_fract_z
Si Si1 0.091868 0.699628 0.669305
Si Si2 0.646503 0.876660 0.137767
Si Si3 0.833133 0.559979 0.038868
Si Si4 0.694888 0.039566 0.796442
Si Si5 0.513253 0.328527 0.679421
Si Si6 0.762540 0.593858 0.941057
Si Si7 0.848270 0.573961 0.799717
Si Si8 0.068691 0.706766 0.428317
O O1 0.199975 0.566559 0.670037
O O2 0.047992 0.736581 0.620788
O O3 0.979789 0.640418 0.695417
O O4 0.143766 0.872867 0.689302
O O5 0.547044 0.734397 0.135197
O O6 0.662568 0.962419 0.091345
O O7 0.768845 0.843823 0.162219
O O8 0.588414 0.006357 0.171276
O O9 0.764460 0.700993 0.067069
O O10 0.857419 0.364848 0.052081
O O11 0.958212 0.656908 0.042352
O O12 0.771512 0.564206 0.992215
O O13 0.754062 0.045668 0.750000
O O14 0.603014 0.194116 0.801525
O O15 0.606120 0.880668 0.797074
O O16 0.867111 0.474681 0.925233
O O17 0.808885 0.600730 0.750000
#
# Coordination Sequence:
#
# PCOD9439860 Si02
#       8
#     8   8   8   8   8   8   8   8
#     4  12  26  42  64  98 140 190 225 277 346 428
#     4  11  24  48  69  99 130 175 231 295 348 421
#     4  11  24  36  66  98 141 188 223 282 335 423
#     4  11  22  41  64  98 132 171 236 290 342 402
#     4  10  24  42  72  93 123 179 230 298 353 390
#     4  11  23  40  63 100 135 169 228 280 353 408
#     4  12  25  43  63  95 142 187 227 276 343 424
#     4  12  21  40  63  97 142 184 234 274 341 410
#
# _framework density 22.889831000000001
#
# number of rings (size 3 to 8) (size 9 to 14) (size 15 to 20)
#    0.000    0.750    3.750    3.750    5.250    2.500 
#    0.000    0.000    0.000    3.000    0.000    0.000 
#    0.000    0.000    0.000    0.000    0.000    0.000 
#
# Total GULP energy -356510.480481 kJ/mol
# GULP energy per Si atom -5570.476258 kJ/mol
# Density = 2.283773 g / cm^3
# Si number density = 22.889831 Si / 1000 Ang^3
#
#
#
# Elastic Constant Matrix: (Units=GPa)
#
#
# Indices 1 2 3 4 5 6 
#
# 1 77.3943 16.9311 18.3565 0.0000 0.0000 0.0000
# 2 16.9311 62.8359 6.9138 0.0000 0.0000 0.0000
# 3 18.3565 6.9138 112.1799 0.0000 0.0000 0.0000
# 4 0.0000 0.0000 0.0000 22.9224 0.0000 0.0000
# 5 0.0000 0.0000 0.0000 0.0000 19.3387 0.0000
# 6 0.0000 0.0000 0.0000 0.0000 0.0000 23.7901
#
#
#
# Elastic Compliance Matrix: (Units=1/GPa)
#
#
# Indices 1 2 3 4 5 6 
#
# 1 0.014206 -0.003597 -0.002103 0.000000 0.000000 0.000000
# 2 -0.003597 0.016934 -0.000455 0.000000 0.000000 0.000000
# 3 -0.002103 -0.000455 0.009286 0.000000 0.000000 0.000000
# 4 0.000000 0.000000 0.000000 0.043626 0.000000 0.000000
# 5 0.000000 0.000000 0.000000 0.000000 0.051710 0.000000
# 6 0.000000 0.000000 0.000000 0.000000 0.000000 0.042034
#
#
# Mechanical properties :
#
#
# Convention : Reuss Voigt Hill
#
# Bulk Modulus (GPa) = 35.56546 37.42366 36.49456
# Shear Modulus (GPa) = 25.06543 27.22413 26.14478
#
# Velocity S-wave (km/s) = 3.31274 3.45244 3.38331
# Velocity P-wave (km/s) = 5.49579 5.68132 5.58933
#
# Compressibility (1/GPa) = 0.02811717
#
# Stress axis : x y z
#
# Youngs Moduli (GPa) = 70.39058 59.05411 107.68399
#
# Poissons Ratio (x) = 0.21239 0.22646
# Poissons Ratio (y) = 0.25316 0.04901
# Poissons Ratio (z) = 0.14803 0.02688
#
# Static dielectric constant tensor:
#      x y z
#    x 1.895400 0.000000 0.000000 
#    y 0.000000 1.997030 0.000000 
#    z 0.000000 0.000000 1.925540 
# 
# From -- ./inp_files/29761.got.cif
#   From: 2010.05.17/outbox.cif.g08.bks.cpg/sg57_15_cif.got.tgz:29761.got - 2010.06.03 13:58:18.
