data_PCOD9439344
_publ_section_title
;
Structure prediction by ZEFSAII (Michael W. Deem and Ramdas Pophale) SiO2 
 PCOD9439344
Probable space group: P B C M
;
_chemical_formula_sum "Si O2"
_cell_formula_units_Z 56
_cell_length_a 32.037025
_cell_length_b 5.091969
_cell_length_c 14.287856
_cell_angle_alpha 90.000000
_cell_angle_beta 90.000000
_cell_angle_gamma 90.000000
_cell_volume 2330.799926
_symmetry_space_group_name_H-M "P B C M"
_symmetry_group_IT_number 57
_symmetry_cell_setting 'orthorhombic'
loop_
_space_group_symop_operation_xyz
x,y,z
-x,-y,1/2+z
x,1/2-y,-z
-x,1/2+y,1/2-z
-x,-y,-z
x,y,1/2-z
-x,1/2+y,z
x,1/2-y,1/2+z
loop_
_atom_site_type_symbol
_atom_site_label
_atom_site_fract_x
_atom_site_fract_y
_atom_site_fract_z
Si Si1 0.162970 0.904839 0.364694
Si Si2 0.385809 0.494306 0.063092
Si Si3 0.024482 0.608408 0.135439
Si Si4 0.698914 0.143762 0.395903
Si Si5 0.751155 0.638429 0.354624
Si Si6 0.114488 0.406077 0.135621
Si Si7 0.475434 0.170335 0.862561
O O1 0.165297 0.896582 0.250000
O O2 0.149899 0.614083 0.394097
O O3 0.206897 0.019898 0.399048
O O4 0.127158 0.112765 0.391103
O O5 0.347844 0.562670 0.133222
O O6 0.429138 0.403012 0.106979
O O7 0.370411 0.250000 0.000000
O O8 0.394356 0.750000 0.000000
O O9 0.025649 0.610088 0.250000
O O10 0.069569 0.508448 0.103987
O O11 0.010669 0.898166 0.107023
O O12 0.693470 0.250000 0.500000
O O13 0.720107 0.391376 0.347391
O O14 0.728567 0.890143 0.397384
O O15 0.762706 0.730785 0.250000
O O16 0.113529 0.407254 0.250000
O O17 0.475858 0.170281 0.750000
O O18 0.508959 0.953826 0.894460
#
# Coordination Sequence:
#
# PCOD9439344 Si02
#       7
#     8   8   8   8   8   8   8
#     4   9  17  28  43  65  91 121 165 219 267 315
#     4  11  23  40  61  85 113 150 194 233 273 334
#     4   9  15  21  30  47  73 111 162 208 245 302
#     4  11  23  41  59  83 118 152 186 232 291 343
#     4  11  22  37  59  85 110 143 193 240 278 336
#     4   9  15  24  37  54  83 121 160 211 267 309
#     4  10  22  39  59  87 121 152 185 231 284 331
#
# _framework density 24.026084999999998
#
# number of rings (size 3 to 8) (size 9 to 14) (size 15 to 20)
#    0.000    2.000    0.000    5.143    0.000    8.571 
#    0.000    1.429    0.000    0.000    0.000    0.000 
#    0.000    0.000    0.000    0.000    0.000  180.000 
#
# Total GULP energy -313356.818373 kJ/mol
# GULP energy per Si atom -5595.657471 kJ/mol
# Density = 2.397140 g / cm^3
# Si number density = 24.026085 Si / 1000 Ang^3
#
#
#
# Elastic Constant Matrix: (Units=GPa)
#
#
# Indices 1 2 3 4 5 6 
#
# 1 90.3572 -6.5348 12.1833 0.0000 0.0000 0.0000
# 2 -6.5348 101.9207 12.7796 0.0000 0.0000 0.0000
# 3 12.1833 12.7796 50.0309 0.0000 0.0000 0.0000
# 4 0.0000 0.0000 0.0000 5.1678 0.0000 0.0000
# 5 0.0000 0.0000 0.0000 0.0000 17.0782 0.0000
# 6 0.0000 0.0000 0.0000 0.0000 0.0000 40.9037
#
#
#
# Elastic Compliance Matrix: (Units=1/GPa)
#
#
# Indices 1 2 3 4 5 6 
#
# 1 0.011568 0.001131 -0.003106 0.000000 0.000000 0.000000
# 2 0.001131 0.010247 -0.002893 0.000000 0.000000 0.000000
# 3 -0.003106 -0.002893 0.021483 0.000000 0.000000 0.000000
# 4 0.000000 0.000000 0.000000 0.193504 0.000000 0.000000
# 5 0.000000 0.000000 0.000000 0.000000 0.058554 0.000000
# 6 0.000000 0.000000 0.000000 0.000000 0.000000 0.024448
#
#
# Mechanical properties :
#
#
# Convention : Reuss Voigt Hill
#
# Bulk Modulus (GPa) = 29.79530 31.01833 30.40681
# Shear Modulus (GPa) = 14.67454 27.55534 21.11494
#
# Velocity S-wave (km/s) = 2.47407 3.39025 2.96773
# Velocity P-wave (km/s) = 4.53757 5.31633 4.94231
#
# Compressibility (1/GPa) = 0.03356234
#
# Stress axis : x y z
#
# Youngs Moduli (GPa) = 86.44714 97.59151 46.54871
#
# Poissons Ratio (x) = -0.11039 0.14457
# Poissons Ratio (y) = -0.09778 0.13466
# Poissons Ratio (z) = 0.26849 0.28231
#
# Static dielectric constant tensor:
#      x y z
#    x 1.910910 0.000000 0.000000 
#    y 0.000000 1.851180 0.000000 
#    z 0.000000 0.000000 2.017970 
# 
# From -- ./inp_files/19637.got.cif
#   From: 2010.05.17/outbox.cif.g08.bks.cpg/sg57_10_cif.got.tgz:19637.got - 2010.06.03 13:58:18.
