data_PCOD9439800
_publ_section_title
;
Structure prediction by ZEFSAII (Michael W. Deem and Ramdas Pophale) SiO2 
 PCOD9439800
Probable space group: P B C M
;
_chemical_formula_sum "Si O2"
_cell_formula_units_Z 40
_cell_length_a 8.174143
_cell_length_b 10.269852
_cell_length_c 20.162541
_cell_angle_alpha 90.000000
_cell_angle_beta 90.000000
_cell_angle_gamma 90.000000
_cell_volume 1692.589645
_symmetry_space_group_name_H-M "P B C M"
_symmetry_group_IT_number 57
_symmetry_cell_setting 'orthorhombic'
loop_
_space_group_symop_operation_xyz
x,y,z
-x,-y,1/2+z
x,1/2-y,-z
-x,1/2+y,1/2-z
-x,-y,-z
x,y,1/2-z
-x,1/2+y,z
x,1/2-y,1/2+z
loop_
_atom_site_type_symbol
_atom_site_label
_atom_site_fract_x
_atom_site_fract_y
_atom_site_fract_z
Si Si1 0.871613 0.392541 0.324323
Si Si2 0.257049 0.620176 0.321719
Si Si3 0.895024 0.544367 0.937030
Si Si4 0.448869 0.332429 0.441531
Si Si5 0.400583 0.068218 0.133649
O O1 0.942148 0.385383 0.250000
O O2 0.740972 0.275478 0.327200
O O3 0.769981 0.525090 0.334913
O O4 0.995696 0.373152 0.385067
O O5 0.179660 0.590958 0.250000
O O6 0.164944 0.567922 0.386289
O O7 0.436815 0.559262 0.322123
O O8 0.729795 0.613340 0.961403
O O9 0.000000 0.500000 0.000000
O O10 0.531829 0.250000 0.500000
O O11 0.557286 0.456204 0.420873
O O12 0.405451 0.217557 0.389652
#
# Coordination Sequence:
#
# PCOD9439800 Si02
#       5
#     8   8   8   8   8
#     4  11  24  43  69 100 134 179 227 282 347 409
#     4  10  23  45  68  99 135 176 228 286 343 406
#     4  11  26  44  68  98 140 183 232 279 344 412
#     4  11  24  42  68 100 137 181 226 283 344 413
#     4  11  22  45  68 101 132 177 233 282 346 404
#
# _framework density 23.632425000000001
#
# number of rings (size 3 to 8) (size 9 to 14) (size 15 to 20)
#    0.000    1.200    2.000    3.000    5.600    1.600 
#    0.000    2.000    0.000    0.000    0.000    0.000 
#    0.000    0.000    0.000    0.000    0.000    0.000 
#
# Total GULP energy -223271.252108 kJ/mol
# GULP energy per Si atom -5581.781303 kJ/mol
# Density = 2.357864 g / cm^3
# Si number density = 23.632425 Si / 1000 Ang^3
#
#
#
# Elastic Constant Matrix: (Units=GPa)
#
#
# Indices 1 2 3 4 5 6 
#
# 1 57.5184 12.1547 22.9028 0.0000 0.0000 0.0000
# 2 12.1547 85.0499 17.0913 0.0000 0.0000 0.0000
# 3 22.9028 17.0913 134.6337 0.0000 0.0000 0.0000
# 4 0.0000 0.0000 0.0000 27.5246 0.0000 0.0000
# 5 0.0000 0.0000 0.0000 0.0000 -2.2865 0.0000
# 6 0.0000 0.0000 0.0000 0.0000 0.0000 35.4349
#
#
#
# Elastic Compliance Matrix: (Units=1/GPa)
#
#
# Indices 1 2 3 4 5 6 
#
# 1 0.019015 -0.002122 -0.002965 0.000000 0.000000 0.000000
# 2 -0.002122 0.012302 -0.001201 0.000000 0.000000 0.000000
# 3 -0.002965 -0.001201 0.008084 0.000000 0.000000 0.000000
# 4 0.000000 0.000000 0.000000 0.036331 0.000000 0.000000
# 5 0.000000 0.000000 0.000000 0.000000 -0.437357 0.000000
# 6 0.000000 0.000000 0.000000 0.000000 0.000000 0.028221
#
#
# Mechanical properties :
#
#
# Convention : Reuss Voigt Hill
#
# Bulk Modulus (GPa) = 37.27708 42.38884 39.83296
# Shear Modulus (GPa) = -16.03148 27.13816 5.55334
#
# Velocity S-wave (km/s) = -2.60737 3.39240 1.53460
# Velocity P-wave (km/s) = 2.59681 5.77236 4.47569
#
# Compressibility (1/GPa) = 0.02682614
#
# Stress axis : x y z
#
# Youngs Moduli (GPa) = 52.59062 81.28547 123.69442
#
# Poissons Ratio (x) = 0.17245 0.36679
# Poissons Ratio (y) = 0.11157 0.14854
# Poissons Ratio (z) = 0.15595 0.09761
#
# Static dielectric constant tensor:
#      x y z
#    x 1.894210 0.000000 0.000000 
#    y 0.000000 1.892970 0.000000 
#    z 0.000000 0.000000 1.958820 
# 
# From -- ./inp_files/24119.got.cif
#   From: 2010.05.17/outbox.cif.g08.bks.cpg/sg57_13_cif.got.tgz:24119.got - 2010.06.03 13:58:18.
