data_PCOD9439312
_publ_section_title
;
Structure prediction by ZEFSAII (Michael W. Deem and Ramdas Pophale) SiO2 
 PCOD9439312
Probable space group: P B C M
;
_chemical_formula_sum "Si O2"
_cell_formula_units_Z 60
_cell_length_a 16.539477
_cell_length_b 8.552842
_cell_length_c 18.387148
_cell_angle_alpha 90.000000
_cell_angle_beta 90.000000
_cell_angle_gamma 90.000000
_cell_volume 2601.037379
_symmetry_space_group_name_H-M "P B C M"
_symmetry_group_IT_number 57
_symmetry_cell_setting 'orthorhombic'
loop_
_space_group_symop_operation_xyz
x,y,z
-x,-y,1/2+z
x,1/2-y,-z
-x,1/2+y,1/2-z
-x,-y,-z
x,y,1/2-z
-x,1/2+y,z
x,1/2-y,1/2+z
loop_
_atom_site_type_symbol
_atom_site_label
_atom_site_fract_x
_atom_site_fract_y
_atom_site_fract_z
Si Si1 0.956773 0.155842 0.750000
Si Si2 0.307596 0.934352 0.332813
Si Si3 0.228244 0.905752 0.834023
Si Si4 0.798680 0.633304 0.057642
Si Si5 0.947918 0.884886 0.860749
Si Si6 0.383354 0.419196 0.161018
Si Si7 0.466099 0.398800 0.663669
Si Si8 0.095143 0.909108 0.956040
O O1 0.999689 0.267171 0.687710
O O2 0.922781 0.034489 0.813117
O O3 0.290977 0.992067 0.250000
O O4 0.261792 0.036712 0.392392
O O5 0.403452 0.957380 0.343481
O O6 0.277949 0.756667 0.336220
O O7 0.201474 0.928681 0.750000
O O8 0.291579 0.039140 0.857819
O O9 0.152702 0.891246 0.885712
O O10 0.868468 0.703744 0.109956
O O11 0.759321 0.750000 0.000000
O O12 0.853835 0.521635 0.007836
O O13 0.007505 0.947811 0.923674
O O14 0.383435 0.420623 0.250000
O O15 0.446898 0.550372 0.134781
O O16 0.419388 0.253966 0.136045
O O17 0.477742 0.370995 0.750000
O O18 0.086415 0.750000 0.000000
#
# Coordination Sequence:
#
# PCOD9439312 Si02
#       8
#     4   8   8   8   8   8   8   8
#     4  10  24  40  68 100 124 150 204 282 312 366
#     4  10  22  39  62  90 125 165 210 261 315 371
#     4  10  22  38  62  93 123 162 213 264 312 370
#     4  12  26  43  62  90 128 169 210 261 313 379
#     4  11  24  43  66  95 125 166 210 260 320 371
#     4   9  17  32  57  91 126 161 204 255 312 372
#     4   9  17  32  57  90 126 163 202 256 313 371
#     4  12  24  43  66  88 124 171 214 258 309 381
#
# _framework density 23.067720000000001
#
# number of rings (size 3 to 8) (size 9 to 14) (size 15 to 20)
#    0.000    1.600    1.333    3.200    5.600    3.200 
#    0.000    0.000    0.000    1.600    0.000    0.000 
#    0.000    0.000    0.000    0.000    0.000    0.000 
#
# Total GULP energy -334508.693448 kJ/mol
# GULP energy per Si atom -5575.144891 kJ/mol
# Density = 2.301522 g / cm^3
# Si number density = 23.067720 Si / 1000 Ang^3
#
#
#
# Elastic Constant Matrix: (Units=GPa)
#
#
# Indices 1 2 3 4 5 6 
#
# 1 81.6589 -9.8153 30.2246 0.0000 0.0000 0.0000
# 2 -9.8153 39.9537 8.0079 0.0000 0.0000 0.0000
# 3 30.2246 8.0079 77.5763 0.0000 0.0000 0.0000
# 4 0.0000 0.0000 0.0000 38.7923 0.0000 0.0000
# 5 0.0000 0.0000 0.0000 0.0000 13.2840 0.0000
# 6 0.0000 0.0000 0.0000 0.0000 0.0000 21.9393
#
#
#
# Elastic Compliance Matrix: (Units=1/GPa)
#
#
# Indices 1 2 3 4 5 6 
#
# 1 0.015242 0.005039 -0.006459 0.000000 0.000000 0.000000
# 2 0.005039 0.027224 -0.004773 0.000000 0.000000 0.000000
# 3 -0.006459 -0.004773 0.015900 0.000000 0.000000 0.000000
# 4 0.000000 0.000000 0.000000 0.025778 0.000000 0.000000
# 5 0.000000 0.000000 0.000000 0.000000 0.075279 0.000000
# 6 0.000000 0.000000 0.000000 0.000000 0.000000 0.045580
#
#
# Mechanical properties :
#
#
# Convention : Reuss Voigt Hill
#
# Bulk Modulus (GPa) = 21.74890 28.44704 25.09797
# Shear Modulus (GPa) = 21.48543 26.18789 23.83666
#
# Velocity S-wave (km/s) = 3.05521 3.37302 3.21804
# Velocity P-wave (km/s) = 4.67915 5.24675 4.97106
#
# Compressibility (1/GPa) = 0.04597934
#
# Stress axis : x y z
#
# Youngs Moduli (GPa) = 65.60667 36.73280 62.89432
#
# Poissons Ratio (x) = -0.18510 0.40622
# Poissons Ratio (y) = -0.33060 0.30022
# Poissons Ratio (z) = 0.42374 0.17534
#
# Static dielectric constant tensor:
#      x y z
#    x 1.847500 0.000000 0.000000 
#    y 0.000000 1.906690 0.000000 
#    z 0.000000 0.000000 1.862780 
# 
# From -- ./inp_files/22882.got.cif
#   From: 2010.05.17/outbox.cif.g08.bks.cpg/sg57_12_cif.got.tgz:22882.got - 2010.06.03 13:58:18.
