data_PCOD9439104
_publ_section_title
;
Structure prediction by ZEFSAII (Michael W. Deem and Ramdas Pophale) SiO2 
 PCOD9439104
Probable space group: P B C M
;
_chemical_formula_sum "Si O2"
_cell_formula_units_Z 40
_cell_length_a 12.806360
_cell_length_b 8.620294
_cell_length_c 15.286956
_cell_angle_alpha 90.000000
_cell_angle_beta 90.000000
_cell_angle_gamma 90.000000
_cell_volume 1687.597214
_symmetry_space_group_name_H-M "P B C M"
_symmetry_group_IT_number 57
_symmetry_cell_setting 'orthorhombic'
loop_
_space_group_symop_operation_xyz
x,y,z
-x,-y,1/2+z
x,1/2-y,-z
-x,1/2+y,1/2-z
-x,-y,-z
x,y,1/2-z
-x,1/2+y,z
x,1/2-y,1/2+z
loop_
_atom_site_type_symbol
_atom_site_label
_atom_site_fract_x
_atom_site_fract_y
_atom_site_fract_z
Si Si1 0.636539 0.352029 0.649104
Si Si2 0.062845 0.131597 0.654204
Si Si3 0.845368 0.524153 0.155270
Si Si4 0.458742 0.367688 0.434097
Si Si5 0.174037 0.906900 0.522570
O O1 0.658641 0.318076 0.750000
O O2 0.548965 0.234007 0.611884
O O3 0.601009 0.531893 0.637757
O O4 0.734991 0.346131 0.585317
O O5 0.103285 0.075429 0.750000
O O6 0.098520 0.308956 0.646952
O O7 0.108385 0.030794 0.576061
O O8 0.939581 0.100076 0.657742
O O9 0.790135 0.520493 0.250000
O O10 0.785018 0.486282 0.066592
O O11 0.399269 0.250000 0.500000
O O12 0.500000 0.500000 0.500000
O O13 0.111372 0.750000 0.500000
#
# Coordination Sequence:
#
# PCOD9439104 Si02
#       5
#     8   8   8   8   8
#     4  11  23  41  66  95 125 164 211 262 319 383
#     4  10  21  40  64  92 125 165 214 265 316 375
#     4  10  22  40  64  91 124 168 215 261 314 373
#     4   9  19  39  64  90 120 157 201 253 315 382
#     4  12  24  38  58  90 129 168 207 259 315 375
#
# _framework density 23.702338000000001
#
# number of rings (size 3 to 8) (size 9 to 14) (size 15 to 20)
#    0.000    1.600    0.000    5.400    0.000    4.800 
#    0.000    0.000    0.000    3.600    0.000    0.000 
#    0.000    0.000    0.000    0.000    0.000    0.000 
#
# Total GULP energy -223510.134311 kJ/mol
# GULP energy per Si atom -5587.753358 kJ/mol
# Density = 2.364839 g / cm^3
# Si number density = 23.702338 Si / 1000 Ang^3
#
#
#
# Elastic Constant Matrix: (Units=GPa)
#
#
# Indices 1 2 3 4 5 6 
#
# 1 31.4600 11.0589 25.2865 0.0000 0.0000 0.0000
# 2 11.0589 120.2041 54.9978 0.0000 0.0000 0.0000
# 3 25.2865 54.9978 210.2496 0.0000 0.0000 0.0000
# 4 0.0000 0.0000 0.0000 30.9260 0.0000 0.0000
# 5 0.0000 0.0000 0.0000 0.0000 25.6781 0.0000
# 6 0.0000 0.0000 0.0000 0.0000 0.0000 35.1079
#
#
#
# Elastic Compliance Matrix: (Units=1/GPa)
#
#
# Indices 1 2 3 4 5 6 
#
# 1 0.035421 -0.001488 -0.003871 0.000000 0.000000 0.000000
# 2 -0.001488 0.009513 -0.002309 0.000000 0.000000 0.000000
# 3 -0.003871 -0.002309 0.005826 0.000000 0.000000 0.000000
# 4 0.000000 0.000000 0.000000 0.032335 0.000000 0.000000
# 5 0.000000 0.000000 0.000000 0.000000 0.038944 0.000000
# 6 0.000000 0.000000 0.000000 0.000000 0.000000 0.028484
#
#
# Mechanical properties :
#
#
# Convention : Reuss Voigt Hill
#
# Bulk Modulus (GPa) = 28.23002 60.51114 44.37058
# Shear Modulus (GPa) = 28.14277 36.38042 32.26160
#
# Velocity S-wave (km/s) = 3.44952 3.92201 3.69333
# Velocity P-wave (km/s) = 5.27273 6.78930 6.07850
#
# Compressibility (1/GPa) = 0.03542328
#
# Stress axis : x y z
#
# Youngs Moduli (GPa) = 28.23215 105.12258 171.64700
#
# Poissons Ratio (x) = 0.15639 0.66442
# Poissons Ratio (y) = 0.04200 0.39641
# Poissons Ratio (z) = 0.10928 0.24277
#
# Static dielectric constant tensor:
#      x y z
#    x 1.920470 0.000000 0.000000 
#    y 0.000000 1.921940 0.000000 
#    z 0.000000 0.000000 1.990600 
# 
# From -- ./inp_files/18219.got.cif
#   From: 2010.05.17/outbox.cif.g08.bks.cpg/sg57_10_cif.got.tgz:18219.got - 2010.06.03 13:58:18.
