data_PCOD9439181
_publ_section_title
;
Structure prediction by ZEFSAII (Michael W. Deem and Ramdas Pophale) SiO2 
 PCOD9439181
Probable space group: P B C M
;
_chemical_formula_sum "Si O2"
_cell_formula_units_Z 56
_cell_length_a 9.433372
_cell_length_b 20.416030
_cell_length_c 13.556373
_cell_angle_alpha 90.000000
_cell_angle_beta 90.000000
_cell_angle_gamma 90.000000
_cell_volume 2610.849067
_symmetry_space_group_name_H-M "P B C M"
_symmetry_group_IT_number 57
_symmetry_cell_setting 'orthorhombic'
loop_
_space_group_symop_operation_xyz
x,y,z
-x,-y,1/2+z
x,1/2-y,-z
-x,1/2+y,1/2-z
-x,-y,-z
x,y,1/2-z
-x,1/2+y,z
x,1/2-y,1/2+z
loop_
_atom_site_type_symbol
_atom_site_label
_atom_site_fract_x
_atom_site_fract_y
_atom_site_fract_z
Si Si1 0.286433 0.159693 0.553222
Si Si2 0.765970 0.278201 0.869180
Si Si3 0.974540 0.338469 0.131199
Si Si4 0.434456 0.283528 0.634994
Si Si5 0.341157 0.487083 0.471099
Si Si6 0.144441 0.582202 0.132626
Si Si7 0.886462 0.010482 0.866771
O O1 0.120969 0.173278 0.573243
O O2 0.376275 0.209864 0.619841
O O3 0.340227 0.174263 0.441511
O O4 0.316778 0.084062 0.575987
O O5 0.764084 0.278210 0.750000
O O6 0.600150 0.284163 0.896185
O O7 0.849576 0.343224 0.901795
O O8 0.850611 0.212692 0.896210
O O9 0.002396 0.330677 0.250000
O O10 0.926805 0.413604 0.116746
O O11 0.422066 0.302955 0.750000
O O12 0.500000 0.500000 0.500000
O O13 0.283622 0.544211 0.401332
O O14 0.247998 0.491696 0.569671
O O15 0.139423 0.583478 0.250000
O O16 0.012760 0.537825 0.100792
O O17 0.863458 0.002152 0.750000
#
# Coordination Sequence:
#
# PCOD9439181 Si02
#       7
#     8   8   8   8   8   8   8
#     4  11  24  41  65  97 134 176 216 273 345 390
#     4   9  20  41  71  96 127 176 225 274 329 389
#     4  10  21  42  70 101 132 174 231 283 332 395
#     4  10  23  44  65  95 136 172 221 276 329 402
#     4  12  26  41  64  97 135 173 219 272 336 412
#     4  10  21  41  67  95 131 175 220 274 332 391
#     4  10  23  44  68  94 130 174 225 281 332 396
#
# _framework density 21.448961000000001
#
# number of rings (size 3 to 8) (size 9 to 14) (size 15 to 20)
#    0.000    1.714    1.429    1.714    2.000    4.000 
#    0.000    1.429    0.000    0.000    0.000    1.000 
#    0.000    0.000    0.000    0.000    0.000    0.000 
#
# Total GULP energy -313258.313044 kJ/mol
# GULP energy per Si atom -5593.898447 kJ/mol
# Density = 2.140014 g / cm^3
# Si number density = 21.448961 Si / 1000 Ang^3
#
#
#
# Elastic Constant Matrix: (Units=GPa)
#
#
# Indices 1 2 3 4 5 6 
#
# 1 151.9028 40.3773 20.4729 0.0000 0.0000 0.0000
# 2 40.3773 110.7965 18.9597 0.0000 0.0000 0.0000
# 3 20.4729 18.9597 83.7167 0.0000 0.0000 0.0000
# 4 0.0000 0.0000 0.0000 31.7228 0.0000 0.0000
# 5 0.0000 0.0000 0.0000 0.0000 33.7606 0.0000
# 6 0.0000 0.0000 0.0000 0.0000 0.0000 16.6061
#
#
#
# Elastic Compliance Matrix: (Units=1/GPa)
#
#
# Indices 1 2 3 4 5 6 
#
# 1 0.007413 -0.002488 -0.001249 0.000000 0.000000 0.000000
# 2 -0.002488 0.010224 -0.001707 0.000000 0.000000 0.000000
# 3 -0.001249 -0.001707 0.012637 0.000000 0.000000 0.000000
# 4 0.000000 0.000000 0.000000 0.031523 0.000000 0.000000
# 5 0.000000 0.000000 0.000000 0.000000 0.029620 0.000000
# 6 0.000000 0.000000 0.000000 0.000000 0.000000 0.060219
#
#
# Mechanical properties :
#
#
# Convention : Reuss Voigt Hill
#
# Bulk Modulus (GPa) = 51.58408 56.22619 53.90513
# Shear Modulus (GPa) = 29.58807 34.19163 31.88985
#
# Velocity S-wave (km/s) = 3.71814 3.99694 3.86006
# Velocity P-wave (km/s) = 6.52186 6.89721 6.71216
#
# Compressibility (1/GPa) = 0.01938583
#
# Stress axis : x y z
#
# Youngs Moduli (GPa) = 134.90208 97.80672 79.13129
#
# Poissons Ratio (x) = 0.24331 0.09887
# Poissons Ratio (y) = 0.33558 0.13509
# Poissons Ratio (z) = 0.16855 0.16697
#
# Static dielectric constant tensor:
#      x y z
#    x 1.721820 0.000000 0.000000 
#    y 0.000000 1.770190 0.000000 
#    z 0.000000 0.000000 1.822490 
# 
# From -- ./inp_files/16693.got.cif
#   From: 2010.05.17/outbox.cif.g08.bks.cpg/sg57_9_cif.got.tgz:16693.got - 2010.06.03 13:58:18.
