data_PCOD9439841
_publ_section_title
;
Structure prediction by ZEFSAII (Michael W. Deem and Ramdas Pophale) SiO2 
 PCOD9439841
Probable space group: P B C M
;
_chemical_formula_sum "Si O2"
_cell_formula_units_Z 36
_cell_length_a 17.314228
_cell_length_b 7.955218
_cell_length_c 10.630343
_cell_angle_alpha 90.000000
_cell_angle_beta 90.000000
_cell_angle_gamma 90.000000
_cell_volume 1464.207055
_symmetry_space_group_name_H-M "P B C M"
_symmetry_group_IT_number 57
_symmetry_cell_setting 'orthorhombic'
loop_
_space_group_symop_operation_xyz
x,y,z
-x,-y,1/2+z
x,1/2-y,-z
-x,1/2+y,1/2-z
-x,-y,-z
x,y,1/2-z
-x,1/2+y,z
x,1/2-y,1/2+z
loop_
_atom_site_type_symbol
_atom_site_label
_atom_site_fract_x
_atom_site_fract_y
_atom_site_fract_z
Si Si1 0.672624 0.944721 0.983297
Si Si2 0.605035 0.063616 0.250000
Si Si3 0.571242 0.458397 0.250000
Si Si4 0.121619 0.888835 0.750000
Si Si5 0.835389 0.442985 0.015078
Si Si6 0.981398 0.383939 0.250000
Si Si7 0.061690 0.250000 0.000000
O O1 0.646126 0.012701 0.119342
O O2 0.693907 0.750000 0.000000
O O3 0.607403 0.961731 0.876500
O O4 0.748804 0.043012 0.936213
O O5 0.593498 0.263259 0.250000
O O6 0.520486 0.979475 0.250000
O O7 0.164368 0.975238 0.634861
O O8 0.108908 0.683637 0.750000
O O9 0.031045 0.941636 0.750000
O O10 0.861497 0.250000 0.000000
O O11 0.888766 0.596229 0.059918
O O12 0.012240 0.324539 0.113296
#
# Coordination Sequence:
#
# PCOD9439841 Si02
#       7
#     8   4   4   4   8   4   4
#     4  12  25  46  72 102 144 190 236 297 356 417
#     4  12  25  46  70 105 146 185 243 288 356 424
#     4  12  26  44  72 107 142 191 237 296 349 416
#     4  10  25  41  65 100 133 173 228 285 344 418
#     4  11  24  42  67  97 133 179 229 280 346 414
#     4  10  24  41  67  92 133 171 220 275 351 398
#     4  10  24  44  64  98 134 172 218 288 338 414
#
# _framework density 24.586686
#
# number of rings (size 3 to 8) (size 9 to 14) (size 15 to 20)
#    0.000    0.889    1.111    5.333    4.667    3.556 
#    0.000    0.000    0.000    0.000    0.000    0.000 
#    0.000    0.000    0.000    0.000    0.000    0.000 
#
# Total GULP energy -200993.385597 kJ/mol
# GULP energy per Si atom -5583.149600 kJ/mol
# Density = 2.453073 g / cm^3
# Si number density = 24.586686 Si / 1000 Ang^3
#
#
#
# Elastic Constant Matrix: (Units=GPa)
#
#
# Indices 1 2 3 4 5 6 
#
# 1 123.8075 14.5783 3.9599 0.0000 0.0000 0.0000
# 2 14.5783 130.1030 -9.1253 0.0000 0.0000 0.0000
# 3 3.9599 -9.1253 72.8733 0.0000 0.0000 0.0000
# 4 0.0000 0.0000 0.0000 18.1718 0.0000 0.0000
# 5 0.0000 0.0000 0.0000 0.0000 18.1933 0.0000
# 6 0.0000 0.0000 0.0000 0.0000 0.0000 36.0562
#
#
#
# Elastic Compliance Matrix: (Units=1/GPa)
#
#
# Indices 1 2 3 4 5 6 
#
# 1 0.008208 -0.000959 -0.000566 0.000000 0.000000 0.000000
# 2 -0.000959 0.007866 0.001037 0.000000 0.000000 0.000000
# 3 -0.000566 0.001037 0.013883 0.000000 0.000000 0.000000
# 4 0.000000 0.000000 0.000000 0.055030 0.000000 0.000000
# 5 0.000000 0.000000 0.000000 0.000000 0.054965 0.000000
# 6 0.000000 0.000000 0.000000 0.000000 0.000000 0.027734
#
#
# Mechanical properties :
#
#
# Convention : Reuss Voigt Hill
#
# Bulk Modulus (GPa) = 34.50555 38.40106 36.45330
# Shear Modulus (GPa) = 28.03868 35.64231 31.84049
#
# Velocity S-wave (km/s) = 3.38065 3.81157 3.60256
# Velocity P-wave (km/s) = 5.41323 5.91805 5.67126
#
# Compressibility (1/GPa) = 0.02898085
#
# Stress axis : x y z
#
# Youngs Moduli (GPa) = 121.83027 127.12175 72.03006
#
# Poissons Ratio (x) = 0.12197 0.04078
# Poissons Ratio (y) = 0.11689 -0.07471
# Poissons Ratio (z) = 0.06898 -0.13185
#
# Static dielectric constant tensor:
#      x y z
#    x 1.963770 0.000000 0.000000 
#    y 0.000000 2.051780 0.000000 
#    z 0.000000 0.000000 2.231530 
# 
# From -- ./inp_files/7734.got.cif
#   From: 2010.05.17/outbox.cif.g08.bks.cpg/sg57_4_cif.got.tgz:7734.got - 2010.06.03 13:58:18.
