data_PCOD9439280
_publ_section_title
;
Structure prediction by ZEFSAII (Michael W. Deem and Ramdas Pophale) SiO2 
 PCOD9439280
Probable space group: P B C M
;
_chemical_formula_sum "Si O2"
_cell_formula_units_Z 40
_cell_length_a 8.994665
_cell_length_b 18.236507
_cell_length_c 10.074585
_cell_angle_alpha 90.000000
_cell_angle_beta 90.000000
_cell_angle_gamma 90.000000
_cell_volume 1652.546985
_symmetry_space_group_name_H-M "P B C M"
_symmetry_group_IT_number 57
_symmetry_cell_setting 'orthorhombic'
loop_
_space_group_symop_operation_xyz
x,y,z
-x,-y,1/2+z
x,1/2-y,-z
-x,1/2+y,1/2-z
-x,-y,-z
x,y,1/2-z
-x,1/2+y,z
x,1/2-y,1/2+z
loop_
_atom_site_type_symbol
_atom_site_label
_atom_site_fract_x
_atom_site_fract_y
_atom_site_fract_z
Si Si1 0.744634 0.830519 0.250000
Si Si2 0.211452 0.886558 0.459749
Si Si3 0.588594 0.585826 0.250000
Si Si4 0.266294 0.949640 0.750000
Si Si5 0.850592 0.820793 0.750000
Si Si6 0.522882 0.836872 0.474725
Si Si7 0.999413 0.064025 0.750000
Si Si8 0.975644 0.250000 0.000000
O O1 0.726675 0.742856 0.250000
O O2 0.662777 0.853720 0.382727
O O3 0.912565 0.857881 0.250000
O O4 0.228190 0.905220 0.615338
O O5 0.379043 0.875359 0.411547
O O6 0.108586 0.941822 0.377133
O O7 0.132301 0.809411 0.436826
O O8 0.443584 0.529081 0.250000
O O9 0.771774 0.599141 0.250000
O O10 0.551186 0.626805 0.384932
O O11 0.142576 0.012543 0.750000
O O12 0.935531 0.797014 0.613125
O O13 0.499630 0.750000 0.500000
#
# Coordination Sequence:
#
# PCOD9439280 Si02
#       8
#     4   8   4   4   4   8   4   4
#     4  12  23  35  61  93 126 169 206 264 319 373
#     4  11  23  41  67  96 128 168 211 269 325 381
#     4  10  22  37  61  85 125 171 210 253 319 377
#     4  10  25  46  66  88 127 184 225 254 299 384
#     4  12  21  34  58  94 139 156 197 267 341 374
#     4  11  20  37  61  93 126 161 202 257 330 392
#     4  12  25  44  64  92 133 172 224 264 304 376
#     4  12  22  36  62 104 130 158 204 272 342 384
#
# _framework density 24.205061000000001
#
# number of rings (size 3 to 8) (size 9 to 14) (size 15 to 20)
#    0.000    0.800    5.000    3.000    0.000    0.000 
#    0.000    4.000    8.800    0.000    0.000    0.000 
#    0.000    0.000    0.000    0.000    0.000    0.000 
#
# Total GULP energy -222996.018519 kJ/mol
# GULP energy per Si atom -5574.900463 kJ/mol
# Density = 2.414997 g / cm^3
# Si number density = 24.205061 Si / 1000 Ang^3
#
#
#
# Elastic Constant Matrix: (Units=GPa)
#
#
# Indices 1 2 3 4 5 6 
#
# 1 107.5487 5.2154 56.1904 0.0000 0.0000 0.0000
# 2 5.2154 31.0594 4.4082 0.0000 0.0000 0.0000
# 3 56.1904 4.4082 131.6296 0.0000 0.0000 0.0000
# 4 0.0000 0.0000 0.0000 15.0010 0.0000 0.0000
# 5 0.0000 0.0000 0.0000 0.0000 1374.0267 0.0000
# 6 0.0000 0.0000 0.0000 0.0000 0.0000 34.2233
#
#
#
# Elastic Compliance Matrix: (Units=1/GPa)
#
#
# Indices 1 2 3 4 5 6 
#
# 1 0.012019 -0.001296 -0.005087 0.000000 0.000000 0.000000
# 2 -0.001296 0.032490 -0.000535 0.000000 0.000000 0.000000
# 3 -0.005087 -0.000535 0.009787 0.000000 0.000000 0.000000
# 4 0.000000 0.000000 0.000000 0.066662 0.000000 0.000000
# 5 0.000000 0.000000 0.000000 0.000000 0.000728 0.000000
# 6 0.000000 0.000000 0.000000 0.000000 0.000000 0.029220
#
#
# Mechanical properties :
#
#
# Convention : Reuss Voigt Hill
#
# Bulk Modulus (GPa) = 24.71633 44.65174 34.68404
# Shear Modulus (GPa) = 28.05397 298.27845 163.16621
#
# Velocity S-wave (km/s) = 3.40812 11.11293 8.21926
# Velocity P-wave (km/s) = 5.07153 13.53331 10.21936
#
# Compressibility (1/GPa) = 0.04045908
#
# Stress axis : x y z
#
# Youngs Moduli (GPa) = 83.20250 30.77881 102.18015
#
# Poissons Ratio (x) = 0.03989 0.51981
# Poissons Ratio (y) = 0.10784 0.05464
# Poissons Ratio (z) = 0.42327 0.01646
#
# Static dielectric constant tensor:
#      x y z
#    x 1.967890 0.000000 0.000000 
#    y 0.000000 2.025340 0.000000 
#    z 0.000000 0.000000 2.431240 
# 
# From -- ./inp_files/1614.got.cif
#   From: 2010.05.17/outbox.cif.g08.bks.cpg/sg57_1_cif.got.tgz:1614.got - 2010.06.03 13:58:18.
