data_PCOD9439690
_publ_section_title
;
Structure prediction by ZEFSAII (Michael W. Deem and Ramdas Pophale) SiO2 
 PCOD9439690
Probable space group: P B C M
;
_chemical_formula_sum "Si O2"
_cell_formula_units_Z 64
_cell_length_a 20.703230
_cell_length_b 9.485617
_cell_length_c 16.933541
_cell_angle_alpha 90.000000
_cell_angle_beta 90.000000
_cell_angle_gamma 90.000000
_cell_volume 3325.458066
_symmetry_space_group_name_H-M "P B C M"
_symmetry_group_IT_number 57
_symmetry_cell_setting 'orthorhombic'
loop_
_space_group_symop_operation_xyz
x,y,z
-x,-y,1/2+z
x,1/2-y,-z
-x,1/2+y,1/2-z
-x,-y,-z
x,y,1/2-z
-x,1/2+y,z
x,1/2-y,1/2+z
loop_
_atom_site_type_symbol
_atom_site_label
_atom_site_fract_x
_atom_site_fract_y
_atom_site_fract_z
Si Si1 0.330749 0.618412 0.558840
Si Si2 0.804772 0.137754 0.607560
Si Si3 0.452954 0.554305 0.655343
Si Si4 0.057860 0.660861 0.662007
Si Si5 0.819383 0.456784 0.574969
Si Si6 0.034865 0.542884 0.417487
Si Si7 0.421841 0.271132 0.155877
Si Si8 0.699542 0.629862 0.942726
O O1 0.318418 0.750000 0.500000
O O2 0.270257 0.599018 0.619232
O O3 0.396154 0.631207 0.607657
O O4 0.332527 0.485993 0.500130
O O5 0.870219 0.095435 0.651385
O O6 0.808714 0.306675 0.616063
O O7 0.814475 0.083294 0.517870
O O8 0.445289 0.574480 0.750000
O O9 0.522047 0.618976 0.632891
O O10 0.445681 0.387771 0.638655
O O11 0.052762 0.719720 0.750000
O O12 0.043039 0.789414 0.600630
O O13 0.007646 0.536462 0.647011
O O14 0.891486 0.511814 0.586352
O O15 0.761003 0.558085 0.597897
O O16 0.000000 0.500000 0.500000
O O17 0.412610 0.281240 0.250000
O O18 0.355306 0.306955 0.112788
O O19 0.726125 0.750000 0.000000
#
# Coordination Sequence:
#
# PCOD9439690 Si02
#       8
#     8   8   8   8   8   8   8   8
#     4  11  21  37  62  90 117 149 196 249 288 350
#     4   9  17  36  58  79 113 151 194 233 286 350
#     4  10  23  41  60  84 117 157 199 241 295 362
#     4  11  23  38  58  88 124 154 195 255 302 346
#     4   9  18  35  58  85 109 149 200 238 278 348
#     4  11  21  38  64  86 115 161 204 243 293 364
#     4  10  23  42  59  82 118 158 196 240 298 360
#     4  11  21  37  59  89 120 148 189 248 297 337
#
# _framework density 19.245470000000001
#
# number of rings (size 3 to 8) (size 9 to 14) (size 15 to 20)
#    0.000    1.750    5.000    0.750    1.750    2.500 
#    0.000    3.125    0.000    0.000    0.000    0.000 
#    0.000    0.000    0.000    0.000    0.000    0.000 
#
# Total GULP energy -356696.938802 kJ/mol
# GULP energy per Si atom -5573.389669 kJ/mol
# Density = 1.920167 g / cm^3
# Si number density = 19.245470 Si / 1000 Ang^3
#
#
#
# Elastic Constant Matrix: (Units=GPa)
#
#
# Indices 1 2 3 4 5 6 
#
# 1 149.1330 26.8375 22.6314 0.0000 0.0000 0.0000
# 2 26.8375 49.1441 8.5369 0.0000 0.0000 0.0000
# 3 22.6314 8.5369 28.7226 0.0000 0.0000 0.0000
# 4 0.0000 0.0000 0.0000 18.3332 0.0000 0.0000
# 5 0.0000 0.0000 0.0000 0.0000 6.6889 0.0000
# 6 0.0000 0.0000 0.0000 0.0000 0.0000 34.2459
#
#
#
# Elastic Compliance Matrix: (Units=1/GPa)
#
#
# Indices 1 2 3 4 5 6 
#
# 1 0.008155 -0.003519 -0.005380 0.000000 0.000000 0.000000
# 2 -0.003519 0.022975 -0.004056 0.000000 0.000000 0.000000
# 3 -0.005380 -0.004056 0.040260 0.000000 0.000000 0.000000
# 4 0.000000 0.000000 0.000000 0.054546 0.000000 0.000000
# 5 0.000000 0.000000 0.000000 0.000000 0.149501 0.000000
# 6 0.000000 0.000000 0.000000 0.000000 0.000000 0.029201
#
#
# Mechanical properties :
#
#
# Convention : Reuss Voigt Hill
#
# Bulk Modulus (GPa) = 21.98727 38.11236 30.04981
# Shear Modulus (GPa) = 14.46313 23.11987 18.79150
#
# Velocity S-wave (km/s) = 2.74434 3.46976 3.12815
# Velocity P-wave (km/s) = 4.63587 5.99154 5.35677
#
# Compressibility (1/GPa) = 0.04548086
#
# Stress axis : x y z
#
# Youngs Moduli (GPa) = 122.62297 43.52645 24.83847
#
# Poissons Ratio (x) = 0.15317 0.13362
# Poissons Ratio (y) = 0.43150 0.10074
# Poissons Ratio (z) = 0.65968 0.17653
#
# Static dielectric constant tensor:
#      x y z
#    x 1.681420 0.000000 0.000000 
#    y 0.000000 1.696730 0.000000 
#    z 0.000000 0.000000 1.694800 
# 
# From -- ./inp_files/23063.got.cif
#   From: 2010.05.17/outbox.cif.g08.bks.cpg/sg57_12_cif.got.tgz:23063.got - 2010.06.03 13:58:18.
