data_PCOD9439025
_publ_section_title
;
Structure prediction by ZEFSAII (Michael W. Deem and Ramdas Pophale) SiO2 
 PCOD9439025
Probable space group: P B C M
;
_chemical_formula_sum "Si O2"
_cell_formula_units_Z 48
_cell_length_a 9.836896
_cell_length_b 15.042097
_cell_length_c 13.930581
_cell_angle_alpha 90.000000
_cell_angle_beta 90.000000
_cell_angle_gamma 90.000000
_cell_volume 2061.273854
_symmetry_space_group_name_H-M "P B C M"
_symmetry_group_IT_number 57
_symmetry_cell_setting 'orthorhombic'
loop_
_space_group_symop_operation_xyz
x,y,z
-x,-y,1/2+z
x,1/2-y,-z
-x,1/2+y,1/2-z
-x,-y,-z
x,y,1/2-z
-x,1/2+y,z
x,1/2-y,1/2+z
loop_
_atom_site_type_symbol
_atom_site_label
_atom_site_fract_x
_atom_site_fract_y
_atom_site_fract_z
Si Si1 0.663623 0.902552 0.636692
Si Si2 0.336104 0.692494 0.859988
Si Si3 0.617729 0.386330 0.940422
Si Si4 0.252833 0.294522 0.360641
Si Si5 0.974756 0.361541 0.359205
Si Si6 0.818715 0.963398 0.029711
O O1 0.675715 0.912654 0.750000
O O2 0.516681 0.932759 0.600146
O O3 0.677432 0.797224 0.612749
O O4 0.782703 0.953654 0.581769
O O5 0.373794 0.669729 0.750000
O O6 0.361316 0.796152 0.880211
O O7 0.175731 0.672646 0.873090
O O8 0.403796 0.640450 0.948116
O O9 0.752182 0.446400 0.933546
O O10 0.286799 0.313004 0.250000
O O11 0.271559 0.382742 0.422468
O O12 0.088000 0.283177 0.367293
O O13 0.987045 0.396120 0.250000
O O14 0.033238 0.434021 0.433152
#
# Coordination Sequence:
#
# PCOD9439025 Si02
#       6
#     8   8   8   8   8   8
#     4  11  23  39  59  91 127 162 208 253 306 374
#     4  10  23  41  62  87 125 167 205 254 309 375
#     4  11  25  40  59  93 128 165 209 252 314 375
#     4   8  18  36  63  89 116 155 202 254 303 361
#     4   8  18  38  63  91 117 153 209 254 302 365
#     4  10  21  39  66  91 120 159 206 263 306 361
#
# _framework density 23.286572
#
# number of rings (size 3 to 8) (size 9 to 14) (size 15 to 20)
#    1.000    1.333    0.000    1.500    4.667    6.667 
#    0.000    0.833    0.000    5.000    0.000    0.000 
#    0.000    0.000    0.000    0.000    0.000    0.000 
#
# Total GULP energy -268116.597296 kJ/mol
# GULP energy per Si atom -5585.762444 kJ/mol
# Density = 2.323357 g / cm^3
# Si number density = 23.286572 Si / 1000 Ang^3
#
#
#
# Elastic Constant Matrix: (Units=GPa)
#
#
# Indices 1 2 3 4 5 6 
#
# 1 102.4606 16.5071 31.4289 0.0000 0.0000 0.0000
# 2 16.5071 55.0344 12.8185 0.0000 0.0000 0.0000
# 3 31.4289 12.8185 86.0345 0.0000 0.0000 0.0000
# 4 0.0000 0.0000 0.0000 21.1091 0.0000 0.0000
# 5 0.0000 0.0000 0.0000 0.0000 33.6010 0.0000
# 6 0.0000 0.0000 0.0000 0.0000 0.0000 32.2263
#
#
#
# Elastic Compliance Matrix: (Units=1/GPa)
#
#
# Indices 1 2 3 4 5 6 
#
# 1 0.011319 -0.002519 -0.003760 0.000000 0.000000 0.000000
# 2 -0.002519 0.019384 -0.001968 0.000000 0.000000 0.000000
# 3 -0.003760 -0.001968 0.013290 0.000000 0.000000 0.000000
# 4 0.000000 0.000000 0.000000 0.047373 0.000000 0.000000
# 5 0.000000 0.000000 0.000000 0.000000 0.029761 0.000000
# 6 0.000000 0.000000 0.000000 0.000000 0.000000 0.031031
#
#
# Mechanical properties :
#
#
# Convention : Reuss Voigt Hill
#
# Bulk Modulus (GPa) = 36.36384 40.55984 38.46184
# Shear Modulus (GPa) = 28.11870 29.57229 28.84550
#
# Velocity S-wave (km/s) = 3.47869 3.56747 3.52336
# Velocity P-wave (km/s) = 5.63780 5.86725 5.75367
#
# Compressibility (1/GPa) = 0.02749984
#
# Stress axis : x y z
#
# Youngs Moduli (GPa) = 88.34758 51.58776 75.24568
#
# Poissons Ratio (x) = 0.12997 0.28289
# Poissons Ratio (y) = 0.22258 0.14807
# Poissons Ratio (z) = 0.33214 0.10151
#
# Static dielectric constant tensor:
#      x y z
#    x 1.885090 0.000000 0.000000 
#    y 0.000000 1.874860 0.000000 
#    z 0.000000 0.000000 1.881450 
# 
# From -- ./inp_files/17633.got.cif
#   From: 2010.05.17/outbox.cif.g08.bks.cpg/sg57_9_cif.got.tgz:17633.got - 2010.06.03 13:58:18.
