data_PCOD9439924
_publ_section_title
;
Structure prediction by ZEFSAII (Michael W. Deem and Ramdas Pophale) SiO2 
 PCOD9439924
Probable space group: P B C M
;
_chemical_formula_sum "Si O2"
_cell_formula_units_Z 28
_cell_length_a 7.719406
_cell_length_b 6.868623
_cell_length_c 19.946253
_cell_angle_alpha 90.000000
_cell_angle_beta 90.000000
_cell_angle_gamma 90.000000
_cell_volume 1057.584035
_symmetry_space_group_name_H-M "P B C M"
_symmetry_group_IT_number 57
_symmetry_cell_setting 'orthorhombic'
loop_
_space_group_symop_operation_xyz
x,y,z
-x,-y,1/2+z
x,1/2-y,-z
-x,1/2+y,1/2-z
-x,-y,-z
x,y,1/2-z
-x,1/2+y,z
x,1/2-y,1/2+z
loop_
_atom_site_type_symbol
_atom_site_label
_atom_site_fract_x
_atom_site_fract_y
_atom_site_fract_z
Si Si1 0.741197 0.502917 0.250000
Si Si2 0.178325 0.250000 0.500000
Si Si3 0.861153 0.062540 0.250000
Si Si4 0.640798 0.454752 0.102507
Si Si5 0.243980 0.511956 0.395096
O O1 0.768648 0.270387 0.250000
O O2 0.652014 0.539887 0.178576
O O3 0.933425 0.589444 0.250000
O O4 0.276409 0.402794 0.548576
O O5 0.109511 0.403187 0.443997
O O6 0.806301 0.964998 0.180910
O O7 0.735168 0.244987 0.098175
O O8 0.436890 0.435785 0.089023
#
# Coordination Sequence:
#
# PCOD9439924 Si02
#       5
#     4   4   4   8   8
#     4  10  25  44  68  91 125 167 219 266 308 371
#     4  12  24  38  68  92 140 164 202 256 332 372
#     4  10  25  44  68  91 125 167 219 266 308 371
#     4  11  23  40  66  99 127 163 214 259 315 377
#     4  11  23  40  66  99 127 163 214 259 315 377
#
# _framework density 26.475439000000001
#
# number of rings (size 3 to 8) (size 9 to 14) (size 15 to 20)
#    0.000    1.143    2.857    2.571    4.000    0.000 
#    0.000    1.429    0.000    0.000    0.000    0.000 
#    0.000    0.000    0.000    0.000    0.000    0.000 
#
# Total GULP energy -156735.119321 kJ/mol
# GULP energy per Si atom -5597.682833 kJ/mol
# Density = 2.641518 g / cm^3
# Si number density = 26.475439 Si / 1000 Ang^3
#
#
#
# Elastic Constant Matrix: (Units=GPa)
#
#
# Indices 1 2 3 4 5 6 
#
# 1 82.5117 21.0256 18.9266 0.0000 0.0000 0.0000
# 2 21.0256 154.2970 76.0430 0.0000 0.0000 0.0000
# 3 18.9266 76.0430 218.7707 0.0000 0.0000 0.0000
# 4 0.0000 0.0000 0.0000 51.8535 0.0000 0.0000
# 5 0.0000 0.0000 0.0000 0.0000 25.3027 0.0000
# 6 0.0000 0.0000 0.0000 0.0000 0.0000 25.3289
#
#
#
# Elastic Compliance Matrix: (Units=1/GPa)
#
#
# Indices 1 2 3 4 5 6 
#
# 1 0.012620 -0.001426 -0.000596 0.000000 0.000000 0.000000
# 2 -0.001426 0.007982 -0.002651 0.000000 0.000000 0.000000
# 3 -0.000596 -0.002651 0.005544 0.000000 0.000000 0.000000
# 4 0.000000 0.000000 0.000000 0.019285 0.000000 0.000000
# 5 0.000000 0.000000 0.000000 0.000000 0.039522 0.000000
# 6 0.000000 0.000000 0.000000 0.000000 0.000000 0.039481
#
#
# Mechanical properties :
#
#
# Convention : Reuss Voigt Hill
#
# Bulk Modulus (GPa) = 59.52606 76.39666 67.96136
# Shear Modulus (GPa) = 35.87350 43.13595 39.50473
#
# Velocity S-wave (km/s) = 3.68499 4.04082 3.86700
# Velocity P-wave (km/s) = 6.37478 7.11964 6.75748
#
# Compressibility (1/GPa) = 0.01679936
#
# Stress axis : x y z
#
# Youngs Moduli (GPa) = 79.24200 125.28438 180.37314
#
# Poissons Ratio (x) = 0.17863 0.10753
# Poissons Ratio (y) = 0.11299 0.47818
# Poissons Ratio (z) = 0.04724 0.33214
#
# Static dielectric constant tensor:
#      x y z
#    x 1.976330 0.000000 0.000000 
#    y 0.000000 2.143590 0.000000 
#    z 0.000000 0.000000 2.061440 
# 
# From -- ./inp_files/20440.got.cif
#   From: 2010.05.17/outbox.cif.g08.bks.cpg/sg57_11_cif.got.tgz:20440.got - 2010.06.03 13:58:18.
