data_PCOD9439569
_publ_section_title
;
Structure prediction by ZEFSAII (Michael W. Deem and Ramdas Pophale) SiO2 
 PCOD9439569
Probable space group: P B C M
;
_chemical_formula_sum "Si O2"
_cell_formula_units_Z 40
_cell_length_a 5.099264
_cell_length_b 17.834674
_cell_length_c 17.466630
_cell_angle_alpha 90.000000
_cell_angle_beta 90.000000
_cell_angle_gamma 90.000000
_cell_volume 1588.480152
_symmetry_space_group_name_H-M "P B C M"
_symmetry_group_IT_number 57
_symmetry_cell_setting 'orthorhombic'
loop_
_space_group_symop_operation_xyz
x,y,z
-x,-y,1/2+z
x,1/2-y,-z
-x,1/2+y,1/2-z
-x,-y,-z
x,y,1/2-z
-x,1/2+y,z
x,1/2-y,1/2+z
loop_
_atom_site_type_symbol
_atom_site_label
_atom_site_fract_x
_atom_site_fract_y
_atom_site_fract_z
Si Si1 0.271500 0.512143 0.161451
Si Si2 0.725541 0.750870 0.831705
Si Si3 0.235959 0.410117 0.602821
Si Si4 0.951811 0.325498 0.465006
Si Si5 0.370544 0.876312 0.166168
O O1 0.307823 0.537641 0.250000
O O2 0.980062 0.532961 0.136192
O O3 0.364978 0.425948 0.160872
O O4 0.478697 0.552375 0.104626
O O5 0.849414 0.730874 0.750000
O O6 0.443090 0.711632 0.830314
O O7 0.730881 0.838904 0.841799
O O8 0.860439 0.714320 0.904180
O O9 0.116478 0.373859 0.525885
O O10 0.811683 0.250000 0.500000
O O11 0.777223 0.380765 0.413959
O O12 0.254096 0.898199 0.250000
#
# Coordination Sequence:
#
# PCOD9439569 Si02
#       5
#     8   8   8   8   8
#     4  11  25  46  69 102 141 182 231 284 344 411
#     4  10  22  42  68  97 133 184 235 280 339 409
#     4  11  26  44  71 103 139 183 227 287 349 409
#     4  10  24  41  66  99 138 178 231 289 339 406
#     4  10  24  43  72 101 137 184 231 283 342 409
#
# _framework density 25.181301999999999
#
# number of rings (size 3 to 8) (size 9 to 14) (size 15 to 20)
#    0.000    1.600    0.000    2.400   11.200    2.400 
#    0.000    0.000    0.000    0.000    0.000    0.000 
#    0.000    0.000    0.000    0.000    0.000    0.000 
#
# Total GULP energy -223545.793254 kJ/mol
# GULP energy per Si atom -5588.644831 kJ/mol
# Density = 2.512399 g / cm^3
# Si number density = 25.181302 Si / 1000 Ang^3
#
#
#
# Elastic Constant Matrix: (Units=GPa)
#
#
# Indices 1 2 3 4 5 6 
#
# 1 50.5653 19.3437 8.3403 0.0000 0.0000 0.0000
# 2 19.3437 106.2798 38.8211 0.0000 0.0000 0.0000
# 3 8.3403 38.8211 134.7290 0.0000 0.0000 0.0000
# 4 0.0000 0.0000 0.0000 -14.6857 0.0000 0.0000
# 5 0.0000 0.0000 0.0000 0.0000 52.0065 0.0000
# 6 0.0000 0.0000 0.0000 0.0000 0.0000 45.5686
#
#
#
# Elastic Compliance Matrix: (Units=1/GPa)
#
#
# Indices 1 2 3 4 5 6 
#
# 1 0.021263 -0.003788 -0.000225 0.000000 0.000000 0.000000
# 2 -0.003788 0.011191 -0.002990 0.000000 0.000000 0.000000
# 3 -0.000225 -0.002990 0.008298 0.000000 0.000000 0.000000
# 4 0.000000 0.000000 0.000000 -0.068093 0.000000 0.000000
# 5 0.000000 0.000000 0.000000 0.000000 0.019228 0.000000
# 6 0.000000 0.000000 0.000000 0.000000 0.000000 0.021945
#
#
# Mechanical properties :
#
#
# Convention : Reuss Voigt Hill
#
# Bulk Modulus (GPa) = 37.38919 47.17602 42.28260
# Shear Modulus (GPa) = 136.04919 31.58248 83.81584
#
# Velocity S-wave (km/s) = 7.35834 3.54532 5.77557
# Velocity P-wave (km/s) = 9.33133 5.96106 7.82969
#
# Compressibility (1/GPa) = 0.02674570
#
# Stress axis : x y z
#
# Youngs Moduli (GPa) = 47.03113 89.35979 120.51411
#
# Poissons Ratio (x) = 0.33848 0.02709
# Poissons Ratio (y) = 0.17814 0.36034
# Poissons Ratio (z) = 0.01057 0.26719
#
# Static dielectric constant tensor:
#      x y z
#    x 2.008220 0.000000 0.000000 
#    y 0.000000 2.007330 0.000000 
#    z 0.000000 0.000000 2.016760 
# 
# From -- ./inp_files/19978.got.cif
#   From: 2010.05.17/outbox.cif.g08.bks.cpg/sg57_10_cif.got.tgz:19978.got - 2010.06.03 13:58:18.
