data_PCOD9439925
_publ_section_title
;
Structure prediction by ZEFSAII (Michael W. Deem and Ramdas Pophale) SiO2 
 PCOD9439925
Probable space group: P B C M
;
_chemical_formula_sum "Si O2"
_cell_formula_units_Z 40
_cell_length_a 9.146499
_cell_length_b 8.935822
_cell_length_c 22.324116
_cell_angle_alpha 90.000000
_cell_angle_beta 90.000000
_cell_angle_gamma 90.000000
_cell_volume 1824.583196
_symmetry_space_group_name_H-M "P B C M"
_symmetry_group_IT_number 57
_symmetry_cell_setting 'orthorhombic'
loop_
_space_group_symop_operation_xyz
x,y,z
-x,-y,1/2+z
x,1/2-y,-z
-x,1/2+y,1/2-z
-x,-y,-z
x,y,1/2-z
-x,1/2+y,z
x,1/2-y,1/2+z
loop_
_atom_site_type_symbol
_atom_site_label
_atom_site_fract_x
_atom_site_fract_y
_atom_site_fract_z
Si Si1 0.285242 0.052109 0.648273
Si Si2 0.934039 0.046582 0.250000
Si Si3 0.544730 0.260240 0.158093
Si Si4 0.615182 0.102491 0.534246
Si Si5 0.783632 0.366523 0.250000
Si Si6 0.152230 0.077461 0.512488
O O1 0.377435 0.195689 0.673089
O O2 0.224713 0.054887 0.579139
O O3 0.148108 0.020454 0.691570
O O4 0.398682 0.910899 0.656539
O O5 0.891771 0.222083 0.250000
O O6 0.105215 0.005084 0.250000
O O7 0.547584 0.328843 0.092422
O O8 0.669542 0.347073 0.195391
O O9 0.668465 0.250000 0.500000
O O10 0.500000 0.000000 0.500000
O O11 0.747813 0.991577 0.539866
O O12 0.139160 0.250000 0.500000
O O13 0.000000 0.000000 0.500000
#
# Coordination Sequence:
#
# PCOD9439925 Si02
#       6
#     8   4   8   8   4   8
#     4  11  25  44  70  98 136 173 228 277 334 401
#     4  10  25  46  66 100 132 180 221 276 340 393
#     4  11  23  43  68  98 131 173 226 277 328 391
#     4  12  22  41  67  99 134 171 219 274 328 399
#     4  10  25  44  68  94 134 174 221 282 330 401
#     4  12  28  43  65  98 136 178 220 274 342 401
#
# _framework density 21.922816999999998
#
# number of rings (size 3 to 8) (size 9 to 14) (size 15 to 20)
#    0.000    0.800    4.000    1.800    5.600    3.200 
#    0.000    0.000    0.000    0.000    0.000    0.000 
#    0.000    0.000    0.000    0.000    0.000    0.000 
#
# Total GULP energy -223144.120664 kJ/mol
# GULP energy per Si atom -5578.603017 kJ/mol
# Density = 2.187292 g / cm^3
# Si number density = 21.922817 Si / 1000 Ang^3
#
#
#
# Elastic Constant Matrix: (Units=GPa)
#
#
# Indices 1 2 3 4 5 6 
#
# 1 90.1095 23.3695 -12.4185 0.0000 0.0000 0.0000
# 2 23.3695 98.0634 -0.1904 0.0000 0.0000 0.0000
# 3 -12.4185 -0.1904 55.5589 0.0000 0.0000 0.0000
# 4 0.0000 0.0000 0.0000 21.7134 0.0000 0.0000
# 5 0.0000 0.0000 0.0000 0.0000 50.4837 0.0000
# 6 0.0000 0.0000 0.0000 0.0000 0.0000 48.8953
#
#
#
# Elastic Compliance Matrix: (Units=1/GPa)
#
#
# Indices 1 2 3 4 5 6 
#
# 1 0.012227 -0.002909 0.002723 0.000000 0.000000 0.000000
# 2 -0.002909 0.010889 -0.000613 0.000000 0.000000 0.000000
# 3 0.002723 -0.000613 0.018605 0.000000 0.000000 0.000000
# 4 0.000000 0.000000 0.000000 0.046054 0.000000 0.000000
# 5 0.000000 0.000000 0.000000 0.000000 0.019808 0.000000
# 6 0.000000 0.000000 0.000000 0.000000 0.000000 0.020452
#
#
# Mechanical properties :
#
#
# Convention : Reuss Voigt Hill
#
# Bulk Modulus (GPa) = 24.92183 29.47254 27.19719
# Shear Modulus (GPa) = 34.96291 39.74989 37.35640
#
# Velocity S-wave (km/s) = 3.99785 4.26276 4.13243
# Velocity P-wave (km/s) = 5.71866 6.14012 5.93313
#
# Compressibility (1/GPa) = 0.04012546
#
# Stress axis : x y z
#
# Youngs Moduli (GPa) = 81.78480 91.83208 53.74763
#
# Poissons Ratio (x) = 0.26710 -0.14636
# Poissons Ratio (y) = 0.23788 0.03294
# Poissons Ratio (z) = -0.22270 0.05627
#
# Static dielectric constant tensor:
#      x y z
#    x 1.915770 0.000000 0.000000 
#    y 0.000000 1.278120 0.000000 
#    z 0.000000 0.000000 1.998370 
# 
# From -- ./inp_files/26566.got.cif
#   From: 2010.05.17/outbox.cif.g08.bks.cpg/sg57_14_cif.got.tgz:26566.got - 2010.06.03 13:58:18.
