data_PCOD9439143
_publ_section_title
;
Structure prediction by ZEFSAII (Michael W. Deem and Ramdas Pophale) SiO2 
 PCOD9439143
Probable space group: P B C M
;
_chemical_formula_sum "Si O2"
_cell_formula_units_Z 32
_cell_length_a 6.540806
_cell_length_b 8.935513
_cell_length_c 22.616920
_cell_angle_alpha 90.000000
_cell_angle_beta 90.000000
_cell_angle_gamma 90.000000
_cell_volume 1321.856226
_symmetry_space_group_name_H-M "P B C M"
_symmetry_group_IT_number 57
_symmetry_cell_setting 'orthorhombic'
loop_
_space_group_symop_operation_xyz
x,y,z
-x,-y,1/2+z
x,1/2-y,-z
-x,1/2+y,1/2-z
-x,-y,-z
x,y,1/2-z
-x,1/2+y,z
x,1/2-y,1/2+z
loop_
_atom_site_type_symbol
_atom_site_label
_atom_site_fract_x
_atom_site_fract_y
_atom_site_fract_z
Si Si1 0.785960 0.648047 0.625938
Si Si2 0.963453 0.739949 0.750000
Si Si3 0.860912 0.386818 0.461589
Si Si4 0.291969 0.529150 0.750000
Si Si5 0.544275 0.940481 0.621773
O O1 0.863575 0.668375 0.692118
O O2 0.689094 0.487178 0.612242
O O3 0.976559 0.681369 0.584605
O O4 0.605269 0.768069 0.617344
O O5 0.201278 0.696279 0.750000
O O6 0.899742 0.913090 0.750000
O O7 0.774993 0.250000 0.500000
O O8 0.689850 0.476084 0.425208
O O9 0.000000 0.500000 0.500000
O O10 0.406387 0.494857 0.811059
#
# Coordination Sequence:
#
# PCOD9439143 Si02
#       5
#     8   4   8   4   8
#     4  11  25  43  68 100 131 170 216 267 327 388
#     4  10  21  40  68  99 131 165 211 263 331 390
#     4  12  26  45  66  94 131 174 225 268 317 378
#     4  10  21  40  68  99 129 167 209 265 331 388
#     4  11  25  43  68  99 132 169 215 269 327 386
#
# _framework density 24.208383000000001
#
# number of rings (size 3 to 8) (size 9 to 14) (size 15 to 20)
#    0.000    1.000    5.000    0.750    3.500    4.000 
#    0.000    0.000    0.000    0.000    0.000    0.000 
#    0.000    0.000    0.000    0.000    0.000    0.000 
#
# Total GULP energy -179273.403865 kJ/mol
# GULP energy per Si atom -5602.293871 kJ/mol
# Density = 2.415328 g / cm^3
# Si number density = 24.208383 Si / 1000 Ang^3
#
#
#
# Elastic Constant Matrix: (Units=GPa)
#
#
# Indices 1 2 3 4 5 6 
#
# 1 23.7033 8.7583 16.5543 0.0000 0.0000 0.0000
# 2 8.7583 60.4054 33.8770 0.0000 0.0000 0.0000
# 3 16.5543 33.8770 127.2798 0.0000 0.0000 0.0000
# 4 0.0000 0.0000 0.0000 31.5527 0.0000 0.0000
# 5 0.0000 0.0000 0.0000 0.0000 -9.6483 0.0000
# 6 0.0000 0.0000 0.0000 0.0000 0.0000 50.8918
#
#
#
# Elastic Compliance Matrix: (Units=1/GPa)
#
#
# Indices 1 2 3 4 5 6 
#
# 1 0.047211 -0.003998 -0.005076 0.000000 0.000000 0.000000
# 2 -0.003998 0.019798 -0.004749 0.000000 0.000000 0.000000
# 3 -0.005076 -0.004749 0.009781 0.000000 0.000000 0.000000
# 4 0.000000 0.000000 0.000000 0.031693 0.000000 0.000000
# 5 0.000000 0.000000 0.000000 0.000000 -0.103645 0.000000
# 6 0.000000 0.000000 0.000000 0.000000 0.000000 0.019650
#
#
# Mechanical properties :
#
#
# Convention : Reuss Voigt Hill
#
# Bulk Modulus (GPa) = 20.34917 36.64088 28.49502
# Shear Modulus (GPa) = 72.97573 24.70583 48.84078
#
# Velocity S-wave (km/s) = 5.49639 3.19807 4.49655
# Velocity P-wave (km/s) = 6.97886 5.36706 6.22534
#
# Compressibility (1/GPa) = 0.04914207
#
# Stress axis : x y z
#
# Youngs Moduli (GPa) = 21.18158 50.50972 102.23850
#
# Poissons Ratio (x) = 0.20196 0.51898
# Poissons Ratio (y) = 0.08469 0.48558
# Poissons Ratio (z) = 0.10752 0.23989
#
# Static dielectric constant tensor:
#      x y z
#    x 1.875010 0.000000 0.000000 
#    y 0.000000 1.902540 0.000000 
#    z 0.000000 0.000000 2.021960 
# 
# From -- ./inp_files/23361.got.cif
#   From: 2010.05.17/outbox.cif.g08.bks.cpg/sg57_12_cif.got.tgz:23361.got - 2010.06.03 13:58:18.
