data_PCOD9439752
_publ_section_title
;
Structure prediction by ZEFSAII (Michael W. Deem and Ramdas Pophale) SiO2 
 PCOD9439752
Probable space group: P B C M
;
_chemical_formula_sum "Si O2"
_cell_formula_units_Z 56
_cell_length_a 6.756922
_cell_length_b 19.083357
_cell_length_c 22.497367
_cell_angle_alpha 90.000000
_cell_angle_beta 90.000000
_cell_angle_gamma 90.000000
_cell_volume 2900.917470
_symmetry_space_group_name_H-M "P B C M"
_symmetry_group_IT_number 57
_symmetry_cell_setting 'orthorhombic'
loop_
_space_group_symop_operation_xyz
x,y,z
-x,-y,1/2+z
x,1/2-y,-z
-x,1/2+y,1/2-z
-x,-y,-z
x,y,1/2-z
-x,1/2+y,z
x,1/2-y,1/2+z
loop_
_atom_site_type_symbol
_atom_site_label
_atom_site_fract_x
_atom_site_fract_y
_atom_site_fract_z
Si Si1 0.403413 0.233211 0.679527
Si Si2 0.791196 0.332112 0.005830
Si Si3 0.921711 0.645661 0.316896
Si Si4 0.642790 0.959832 0.870192
Si Si5 0.480054 0.104977 0.597183
Si Si6 0.845756 0.934820 0.501493
Si Si7 0.327108 0.652435 0.377581
O O1 0.428992 0.220164 0.750000
O O2 0.221525 0.287865 0.672616
O O3 0.385950 0.162286 0.641543
O O4 0.583843 0.278284 0.652275
O O5 0.655766 0.356821 0.060469
O O6 0.003117 0.369901 0.003385
O O7 0.824767 0.250000 0.000000
O O8 0.659497 0.349410 0.948224
O O9 0.998665 0.650255 0.250000
O O10 0.804417 0.573307 0.326466
O O11 0.099511 0.647616 0.362106
O O12 0.448813 0.914311 0.856023
O O13 0.584210 0.040555 0.868944
O O14 0.727525 0.942234 0.936391
O O15 0.315581 0.072744 0.551606
O O16 0.000000 0.000000 0.500000
#
# Coordination Sequence:
#
# PCOD9439752 Si02
#       7
#     8   8   8   8   8   8   8
#     4  10  24  44  64  90 126 168 216 268 321 379
#     4  12  24  37  64 100 130 161 212 258 320 388
#     4  10  23  43  66  91 124 171 223 267 313 380
#     4  11  23  39  65  93 127 169 212 257 318 383
#     4  12  25  40  65  96 133 168 207 268 329 383
#     4  12  24  40  63  92 133 171 206 257 322 389
#     4  11  21  40  67  93 125 166 211 262 318 378
#
# _framework density 19.304238000000002
#
# number of rings (size 3 to 8) (size 9 to 14) (size 15 to 20)
#    0.000    0.857    5.714    1.714    2.000    1.714 
#    0.000    0.000    0.000    0.000    0.000    0.000 
#    0.000    0.000    0.000    0.000    0.000    0.000 
#
# Total GULP energy -312583.063822 kJ/mol
# GULP energy per Si atom -5581.840425 kJ/mol
# Density = 1.926030 g / cm^3
# Si number density = 19.304238 Si / 1000 Ang^3
#
#
#
# Elastic Constant Matrix: (Units=GPa)
#
#
# Indices 1 2 3 4 5 6 
#
# 1 53.6555 23.5915 3.5416 0.0000 0.0000 0.0000
# 2 23.5915 114.4675 12.4251 0.0000 0.0000 0.0000
# 3 3.5416 12.4251 61.3862 0.0000 0.0000 0.0000
# 4 0.0000 0.0000 0.0000 23.8177 0.0000 0.0000
# 5 0.0000 0.0000 0.0000 0.0000 -51.4376 0.0000
# 6 0.0000 0.0000 0.0000 0.0000 0.0000 -25.6726
#
#
#
# Elastic Compliance Matrix: (Units=1/GPa)
#
#
# Indices 1 2 3 4 5 6 
#
# 1 0.020501 -0.004189 -0.000335 0.000000 0.000000 0.000000
# 2 -0.004189 0.009788 -0.001740 0.000000 0.000000 0.000000
# 3 -0.000335 -0.001740 0.016662 0.000000 0.000000 0.000000
# 4 0.000000 0.000000 0.000000 0.041986 0.000000 0.000000
# 5 0.000000 0.000000 0.000000 0.000000 -0.019441 0.000000
# 6 0.000000 0.000000 0.000000 0.000000 0.000000 -0.038952
#
#
# Mechanical properties :
#
#
# Convention : Reuss Voigt Hill
#
# Bulk Modulus (GPa) = 29.04905 34.29173 31.67039
# Shear Modulus (GPa) = 91.66660 2.00490 46.83575
#
# Velocity S-wave (km/s) = 6.89843 1.02021 4.93098
# Velocity P-wave (km/s) = 8.86181 4.38066 6.99006
#
# Compressibility (1/GPa) = 0.03442453
#
# Stress axis : x y z
#
# Youngs Moduli (GPa) = 48.77728 102.16318 60.01774
#
# Poissons Ratio (x) = 0.42795 0.02010
# Poissons Ratio (y) = 0.20432 0.10440
# Poissons Ratio (z) = 0.01634 0.17772
#
# Static dielectric constant tensor:
#      x y z
#    x 1.675240 0.000000 0.000000 
#    y 0.000000 1.651210 0.000000 
#    z 0.000000 0.000000 1.654080 
# 
# From -- ./inp_files/26314.got.cif
#   From: 2010.05.17/outbox.cif.g08.bks.cpg/sg57_14_cif.got.tgz:26314.got - 2010.06.03 13:58:18.
