data_PCOD9439655
_publ_section_title
;
Structure prediction by ZEFSAII (Michael W. Deem and Ramdas Pophale) SiO2 
 PCOD9439655
Probable space group: P B C M
;
_chemical_formula_sum "Si O2"
_cell_formula_units_Z 40
_cell_length_a 7.516789
_cell_length_b 12.884164
_cell_length_c 17.077683
_cell_angle_alpha 90.000000
_cell_angle_beta 90.000000
_cell_angle_gamma 90.000000
_cell_volume 1653.931626
_symmetry_space_group_name_H-M "P B C M"
_symmetry_group_IT_number 57
_symmetry_cell_setting 'orthorhombic'
loop_
_space_group_symop_operation_xyz
x,y,z
-x,-y,1/2+z
x,1/2-y,-z
-x,1/2+y,1/2-z
-x,-y,-z
x,y,1/2-z
-x,1/2+y,z
x,1/2-y,1/2+z
loop_
_atom_site_type_symbol
_atom_site_label
_atom_site_fract_x
_atom_site_fract_y
_atom_site_fract_z
Si Si1 0.214809 0.082726 0.614208
Si Si2 0.306785 0.447827 0.933603
Si Si3 0.055541 0.221148 0.417001
Si Si4 0.305622 0.867477 0.611269
Si Si5 0.599900 0.356055 0.337530
O O1 0.231862 0.050197 0.522162
O O2 0.062294 0.168535 0.627365
O O3 0.393223 0.141904 0.638405
O O4 0.230444 0.970303 0.654176
O O5 0.179104 0.370638 0.884899
O O6 0.508038 0.401406 0.929191
O O7 0.311928 0.562066 0.896967
O O8 0.144697 0.250000 0.500000
O O9 0.864969 0.173197 0.436442
O O10 0.343842 0.763357 0.659229
O O11 0.621900 0.397181 0.250000
#
# Coordination Sequence:
#
# PCOD9439655 Si02
#       5
#     8   8   8   8   8
#     4  10  23  43  65 101 132 165 221 275 325 386
#     4  10  23  43  66  98 129 169 221 273 327 380
#     4  10  23  37  65 102 132 163 213 269 329 385
#     4  11  23  37  68  92 129 173 205 264 329 384
#     4  11  24  42  67  92 128 178 222 266 333 395
#
# _framework density 24.184795999999999
#
# number of rings (size 3 to 8) (size 9 to 14) (size 15 to 20)
#    0.000    1.600    2.000    2.400    8.400    4.800 
#    0.000    2.000    0.000    0.000    0.000    0.000 
#    0.000    0.000    0.000    0.000    0.000    0.000 
#
# Total GULP energy -222993.636871 kJ/mol
# GULP energy per Si atom -5574.840922 kJ/mol
# Density = 2.412975 g / cm^3
# Si number density = 24.184796 Si / 1000 Ang^3
#
#
#
# Elastic Constant Matrix: (Units=GPa)
#
#
# Indices 1 2 3 4 5 6 
#
# 1 101.1757 67.3827 -2.5310 0.0000 0.0000 0.0000
# 2 67.3827 191.4165 29.6396 0.0000 0.0000 0.0000
# 3 -2.5310 29.6396 59.7516 0.0000 0.0000 0.0000
# 4 0.0000 0.0000 0.0000 2.3815 0.0000 0.0000
# 5 0.0000 0.0000 0.0000 0.0000 -11.7869 0.0000
# 6 0.0000 0.0000 0.0000 0.0000 0.0000 51.1109
#
#
#
# Elastic Compliance Matrix: (Units=1/GPa)
#
#
# Indices 1 2 3 4 5 6 
#
# 1 0.013439 -0.005220 0.003159 0.000000 0.000000 0.000000
# 2 -0.005220 0.007686 -0.004034 0.000000 0.000000 0.000000
# 3 0.003159 -0.004034 0.018871 0.000000 0.000000 0.000000
# 4 0.000000 0.000000 0.000000 0.419910 0.000000 0.000000
# 5 0.000000 0.000000 0.000000 0.000000 -0.084840 0.000000
# 6 0.000000 0.000000 0.000000 0.000000 0.000000 0.019565
#
#
# Mechanical properties :
#
#
# Convention : Reuss Voigt Hill
#
# Bulk Modulus (GPa) = 35.96357 60.14735 48.05546
# Shear Modulus (GPa) = 12.01661 25.53126 18.77393
#
# Velocity S-wave (km/s) = 2.23147 3.25264 2.78918
# Velocity P-wave (km/s) = 4.64132 6.24741 5.50327
#
# Compressibility (1/GPa) = 0.02780591
#
# Stress axis : x y z
#
# Youngs Moduli (GPa) = 74.40840 130.09990 52.99199
#
# Poissons Ratio (x) = 0.67913 -0.16738
# Poissons Ratio (y) = 0.38841 0.21377
# Poissons Ratio (z) = -0.23503 0.52481
#
# Static dielectric constant tensor:
#      x y z
#    x 1.945830 0.000000 0.000000 
#    y 0.000000 2.068880 0.000000 
#    z 0.000000 0.000000 1.982570 
# 
# From -- ./inp_files/24133.got.cif
#   From: 2010.05.17/outbox.cif.g08.bks.cpg/sg57_13_cif.got.tgz:24133.got - 2010.06.03 13:58:18.
