data_PCOD9439410
_publ_section_title
;
Structure prediction by ZEFSAII (Michael W. Deem and Ramdas Pophale) SiO2 
 PCOD9439410
Probable space group: P B C M
;
_chemical_formula_sum "Si O2"
_cell_formula_units_Z 64
_cell_length_a 12.140343
_cell_length_b 31.544836
_cell_length_c 8.511540
_cell_angle_alpha 90.000000
_cell_angle_beta 90.000000
_cell_angle_gamma 90.000000
_cell_volume 3259.623013
_symmetry_space_group_name_H-M "P B C M"
_symmetry_group_IT_number 57
_symmetry_cell_setting 'orthorhombic'
loop_
_space_group_symop_operation_xyz
x,y,z
-x,-y,1/2+z
x,1/2-y,-z
-x,1/2+y,1/2-z
-x,-y,-z
x,y,1/2-z
-x,1/2+y,z
x,1/2-y,1/2+z
loop_
_atom_site_type_symbol
_atom_site_label
_atom_site_fract_x
_atom_site_fract_y
_atom_site_fract_z
Si Si1 0.010175 0.794759 0.936504
Si Si2 0.030199 0.953764 0.437037
Si Si3 0.470865 0.953525 0.061217
Si Si4 0.509644 0.294860 0.060493
Si Si5 0.119400 0.379002 0.938232
Si Si6 0.246505 0.818056 0.064053
Si Si7 0.633680 0.623487 0.939593
Si Si8 0.250101 0.587962 0.435265
O O1 0.002659 0.794036 0.750000
O O2 0.943558 0.836190 0.992458
O O3 0.967411 0.750000 0.000000
O O4 0.137768 0.799745 0.984275
O O5 0.044376 0.954786 0.250000
O O6 0.142225 0.938096 0.518035
O O7 0.937256 0.919516 0.482312
O O8 0.000000 0.000000 0.500000
O O9 0.457752 0.953911 0.250000
O O10 0.565194 0.919002 0.022855
O O11 0.358601 0.937617 0.982498
O O12 0.500000 0.000000 0.000000
O O13 0.511341 0.294782 0.250000
O O14 0.636301 0.300342 0.005660
O O15 0.437729 0.335416 0.011479
O O16 0.466044 0.250000 0.000000
O O17 0.105988 0.382579 0.750000
O O18 0.247179 0.376484 0.982275
O O19 0.238377 0.810313 0.250000
O O20 0.248796 0.868115 0.029975
O O21 0.646377 0.625076 0.750000
O O22 0.248769 0.597355 0.250000
#
# Coordination Sequence:
#
# PCOD9439410 Si02
#       8
#     8   8   8   8   8   8   8   8
#     4  11  24  41  63  93 129 167 214 267 319 385
#     4  12  26  45  70  97 130 171 214 264 321 380
#     4  11  24  44  67  95 130 169 217 266 319 382
#     4  10  22  40  62  92 126 164 210 260 315 376
#     4  11  25  44  65  94 129 167 216 267 319 382
#     4  11  21  39  65  94 130 169 210 262 324 381
#     4  10  23  44  65  88 126 170 213 262 318 380
#     4  12  24  41  67  99 133 169 213 263 320 382
#
# _framework density 19.634172
#
# number of rings (size 3 to 8) (size 9 to 14) (size 15 to 20)
#    0.000    1.000    2.500    4.125    1.750    5.500 
#    0.000    2.500    0.000    0.000    0.000    0.000 
#    0.000    0.000    0.000    0.000    0.000    0.000 
#
# Total GULP energy -358052.123827 kJ/mol
# GULP energy per Si atom -5594.564435 kJ/mol
# Density = 1.958948 g / cm^3
# Si number density = 19.634172 Si / 1000 Ang^3
#
#
#
# Elastic Constant Matrix: (Units=GPa)
#
#
# Indices 1 2 3 4 5 6 
#
# 1 105.4894 40.9802 9.2312 0.0000 0.0000 0.0000
# 2 40.9802 149.7663 4.5715 0.0000 0.0000 0.0000
# 3 9.2312 4.5715 31.7027 0.0000 0.0000 0.0000
# 4 0.0000 0.0000 0.0000 36.4438 0.0000 0.0000
# 5 0.0000 0.0000 0.0000 0.0000 -9.6155 0.0000
# 6 0.0000 0.0000 0.0000 0.0000 0.0000 34.1360
#
#
#
# Elastic Compliance Matrix: (Units=1/GPa)
#
#
# Indices 1 2 3 4 5 6 
#
# 1 0.010839 -0.002882 -0.002741 0.000000 0.000000 0.000000
# 2 -0.002882 0.007473 -0.000238 0.000000 0.000000 0.000000
# 3 -0.002741 -0.000238 0.032375 0.000000 0.000000 0.000000
# 4 0.000000 0.000000 0.000000 0.027440 0.000000 0.000000
# 5 0.000000 0.000000 0.000000 0.000000 -0.103999 0.000000
# 6 0.000000 0.000000 0.000000 0.000000 0.000000 0.029295
#
#
# Mechanical properties :
#
#
# Convention : Reuss Voigt Hill
#
# Bulk Modulus (GPa) = 25.66386 44.05824 34.86105
# Shear Modulus (GPa) = 177.72693 27.67124 102.69909
#
# Velocity S-wave (km/s) = 9.52448 3.75819 7.24016
# Velocity P-wave (km/s) = 11.57815 6.42809 9.36413
#
# Compressibility (1/GPa) = 0.03896530
#
# Stress axis : x y z
#
# Youngs Moduli (GPa) = 92.25834 133.81505 30.88767
#
# Poissons Ratio (x) = 0.38569 0.08465
# Poissons Ratio (y) = 0.26591 0.00736
# Poissons Ratio (z) = 0.25284 0.03190
#
# Static dielectric constant tensor:
#      x y z
#    x 1.670370 0.000000 0.000000 
#    y 0.000000 1.678610 0.000000 
#    z 0.000000 0.000000 1.676740 
# 
# From -- ./inp_files/3823.got.cif
#   From: 2010.05.17/outbox.cif.g08.bks.cpg/sg57_2_cif.got.tgz:3823.got - 2010.06.03 13:58:18.
