data_PCOD9439195
_publ_section_title
;
Structure prediction by ZEFSAII (Michael W. Deem and Ramdas Pophale) SiO2 
 PCOD9439195
Probable space group: P B C M
;
_chemical_formula_sum "Si O2"
_cell_formula_units_Z 60
_cell_length_a 5.543759
_cell_length_b 18.785606
_cell_length_c 23.007567
_cell_angle_alpha 90.000000
_cell_angle_beta 90.000000
_cell_angle_gamma 90.000000
_cell_volume 2396.074113
_symmetry_space_group_name_H-M "P B C M"
_symmetry_group_IT_number 57
_symmetry_cell_setting 'orthorhombic'
loop_
_space_group_symop_operation_xyz
x,y,z
-x,-y,1/2+z
x,1/2-y,-z
-x,1/2+y,1/2-z
-x,-y,-z
x,y,1/2-z
-x,1/2+y,z
x,1/2-y,1/2+z
loop_
_atom_site_type_symbol
_atom_site_label
_atom_site_fract_x
_atom_site_fract_y
_atom_site_fract_z
Si Si1 0.877762 0.740013 0.750000
Si Si2 0.181635 0.745988 0.356047
Si Si3 0.491482 0.375526 0.896409
Si Si4 0.890948 0.981286 0.906634
Si Si5 0.842745 0.804214 0.047634
Si Si6 0.777253 0.419844 0.001379
Si Si7 0.438797 0.352712 0.342686
Si Si8 0.742864 0.004840 0.182955
O O1 0.032167 0.781089 0.698537
O O2 0.731529 0.694228 0.800618
O O3 0.414807 0.699012 0.372698
O O4 0.017306 0.756107 0.411991
O O5 0.292333 0.822118 0.337335
O O6 0.220235 0.403877 0.894744
O O7 0.569797 0.382875 0.963864
O O8 0.624982 0.431570 0.853720
O O9 0.106554 0.971335 0.952588
O O10 0.001666 0.011229 0.848009
O O11 0.712361 0.033140 0.942191
O O12 0.653976 0.840468 0.091370
O O13 0.739546 0.750000 0.000000
O O14 0.018978 0.863820 0.020638
O O15 0.413227 0.433897 0.324384
O O16 0.768443 0.023121 0.250000
#
# Coordination Sequence:
#
# PCOD9439195 Si02
#       8
#     4   8   8   8   8   8   8   8
#     4  10  24  46  66  88 130 166 220 274 324 376
#     4  11  26  43  67  99 131 175 220 268 334 396
#     4  11  25  42  63  98 136 173 215 269 327 395
#     4  10  23  42  67  93 129 176 215 262 336 388
#     4  11  23  41  66  99 138 170 214 279 322 387
#     4  10  21  42  64  96 134 170 214 265 323 391
#     4  11  24  44  71  97 126 178 225 268 332 395
#     4  11  25  45  65  96 129 165 228 281 316 385
#
# _framework density 25.040963000000001
#
# number of rings (size 3 to 8) (size 9 to 14) (size 15 to 20)
#    0.000    1.333    3.333    0.800    4.667    3.200 
#    0.000    0.000    0.000    0.000    0.000    0.000 
#    0.000    0.000    0.000    0.000    0.000    0.000 
#
# Total GULP energy -334961.716294 kJ/mol
# GULP energy per Si atom -5582.695272 kJ/mol
# Density = 2.498397 g / cm^3
# Si number density = 25.040963 Si / 1000 Ang^3
#
#
#
# Elastic Constant Matrix: (Units=GPa)
#
#
# Indices 1 2 3 4 5 6 
#
# 1 41.1720 9.9660 17.8227 0.0000 0.0000 0.0000
# 2 9.9660 83.8323 25.6874 0.0000 0.0000 0.0000
# 3 17.8227 25.6874 166.0212 0.0000 0.0000 0.0000
# 4 0.0000 0.0000 0.0000 38.9492 0.0000 0.0000
# 5 0.0000 0.0000 0.0000 0.0000 3.8669 0.0000
# 6 0.0000 0.0000 0.0000 0.0000 0.0000 45.0037
#
#
#
# Elastic Compliance Matrix: (Units=1/GPa)
#
#
# Indices 1 2 3 4 5 6 
#
# 1 0.025901 -0.002338 -0.002419 0.000000 0.000000 0.000000
# 2 -0.002338 0.012733 -0.001719 0.000000 0.000000 0.000000
# 3 -0.002419 -0.001719 0.006549 0.000000 0.000000 0.000000
# 4 0.000000 0.000000 0.000000 0.025674 0.000000 0.000000
# 5 0.000000 0.000000 0.000000 0.000000 0.258605 0.000000
# 6 0.000000 0.000000 0.000000 0.000000 0.000000 0.022220
#
#
# Mechanical properties :
#
#
# Convention : Reuss Voigt Hill
#
# Bulk Modulus (GPa) = 31.02536 44.21974 37.62255
# Shear Modulus (GPa) = 13.31985 33.40059 23.36022
#
# Velocity S-wave (km/s) = 2.30885 3.65614 3.05762
# Velocity P-wave (km/s) = 4.41865 5.95990 5.24618
#
# Compressibility (1/GPa) = 0.03223170
#
# Stress axis : x y z
#
# Youngs Moduli (GPa) = 38.60806 78.53429 152.69547
#
# Poissons Ratio (x) = 0.18361 0.36934
# Poissons Ratio (y) = 0.09027 0.26251
# Poissons Ratio (z) = 0.09339 0.13501
#
# Static dielectric constant tensor:
#      x y z
#    x 2.068560 0.000000 0.000000 
#    y 0.000000 2.013790 0.000000 
#    z 0.000000 0.000000 1.929280 
# 
# From -- ./inp_files/26354.got.cif
#   From: 2010.05.17/outbox.cif.g08.bks.cpg/sg57_14_cif.got.tgz:26354.got - 2010.06.03 13:58:18.
