data_PCOD9439709
_publ_section_title
;
Structure prediction by ZEFSAII (Michael W. Deem and Ramdas Pophale) SiO2 
 PCOD9439709
Probable space group: P B C M
;
_chemical_formula_sum "Si O2"
_cell_formula_units_Z 36
_cell_length_a 5.997469
_cell_length_b 18.677898
_cell_length_c 13.912364
_cell_angle_alpha 90.000000
_cell_angle_beta 90.000000
_cell_angle_gamma 90.000000
_cell_volume 1558.464605
_symmetry_space_group_name_H-M "P B C M"
_symmetry_group_IT_number 57
_symmetry_cell_setting 'orthorhombic'
loop_
_space_group_symop_operation_xyz
x,y,z
-x,-y,1/2+z
x,1/2-y,-z
-x,1/2+y,1/2-z
-x,-y,-z
x,y,1/2-z
-x,1/2+y,z
x,1/2-y,1/2+z
loop_
_atom_site_type_symbol
_atom_site_label
_atom_site_fract_x
_atom_site_fract_y
_atom_site_fract_z
Si Si1 0.005755 0.250000 0.000000
Si Si2 0.963418 0.038121 0.140972
Si Si3 0.681919 0.561504 0.983382
Si Si4 0.277521 0.676221 0.144233
Si Si5 0.628835 0.804087 0.138106
O O1 0.142564 0.218582 0.911770
O O2 0.856945 0.308495 0.951136
O O3 0.035935 0.025601 0.250000
O O4 0.745735 0.090629 0.145349
O O5 0.172357 0.071203 0.081140
O O6 0.872034 0.967312 0.089923
O O7 0.565318 0.629959 0.932635
O O8 0.500000 0.500000 0.000000
O O9 0.178093 0.695857 0.250000
O O10 0.484777 0.730460 0.135424
O O11 0.639695 0.825955 0.250000
#
# Coordination Sequence:
#
# PCOD9439709 Si02
#       5
#     4   8   8   8   8
#     4  12  22  40  68  94 130 172 226 282 330 400
#     4  10  23  45  69 100 140 181 228 280 341 410
#     4  11  25  43  70 105 137 182 225 280 343 414
#     4  10  23  41  67  99 132 176 225 281 338 402
#     4  11  25  43  67 100 136 176 227 284 343 404
#
# _framework density 23.099657000000001
#
# number of rings (size 3 to 8) (size 9 to 14) (size 15 to 20)
#    0.000    1.333    2.222    2.000    6.222    1.778 
#    0.000    2.222    0.000    0.000    0.000    0.000 
#    0.000    0.000    0.000    0.000    0.000    0.000 
#
# Total GULP energy -200529.325091 kJ/mol
# GULP energy per Si atom -5570.259030 kJ/mol
# Density = 2.304708 g / cm^3
# Si number density = 23.099657 Si / 1000 Ang^3
#
#
#
# Elastic Constant Matrix: (Units=GPa)
#
#
# Indices 1 2 3 4 5 6 
#
# 1 60.2533 16.7209 59.5128 0.0000 0.0000 0.0000
# 2 16.7209 56.1484 45.5691 0.0000 0.0000 0.0000
# 3 59.5128 45.5691 165.5395 0.0000 0.0000 0.0000
# 4 0.0000 0.0000 0.0000 34.1534 0.0000 0.0000
# 5 0.0000 0.0000 0.0000 0.0000 34.3224 0.0000
# 6 0.0000 0.0000 0.0000 0.0000 0.0000 33.0930
#
#
#
# Elastic Compliance Matrix: (Units=1/GPa)
#
#
# Indices 1 2 3 4 5 6 
#
# 1 0.025736 -0.000200 -0.009197 0.000000 0.000000 0.000000
# 2 -0.000200 0.022935 -0.006242 0.000000 0.000000 0.000000
# 3 -0.009197 -0.006242 0.011066 0.000000 0.000000 0.000000
# 4 0.000000 0.000000 0.000000 0.029280 0.000000 0.000000
# 5 0.000000 0.000000 0.000000 0.000000 0.029135 0.000000
# 6 0.000000 0.000000 0.000000 0.000000 0.000000 0.030218
#
#
# Mechanical properties :
#
#
# Convention : Reuss Voigt Hill
#
# Bulk Modulus (GPa) = 35.13784 58.39409 46.76597
# Shear Modulus (GPa) = 26.43622 30.98966 28.71294
#
# Velocity S-wave (km/s) = 3.38663 3.66671 3.52945
# Velocity P-wave (km/s) = 5.52601 6.57727 6.07442
#
# Compressibility (1/GPa) = 0.02845934
#
# Stress axis : x y z
#
# Youngs Moduli (GPa) = 38.85533 43.60135 90.37010
#
# Poissons Ratio (x) = 0.00871 0.83118
# Poissons Ratio (y) = 0.00776 0.56406
# Poissons Ratio (z) = 0.35737 0.27215
#
# Static dielectric constant tensor:
#      x y z
#    x 1.935180 0.000000 0.000000 
#    y 0.000000 1.947450 0.000000 
#    z 0.000000 0.000000 1.911070 
# 
# From -- ./inp_files/14883.got.cif
#   From: 2010.05.17/outbox.cif.g08.bks.cpg/sg57_8_cif.got.tgz:14883.got - 2010.06.03 13:58:18.
