data_PCOD9439612
_publ_section_title
;
Structure prediction by ZEFSAII (Michael W. Deem and Ramdas Pophale) SiO2 
 PCOD9439612
Probable space group: P B C M
;
_chemical_formula_sum "Si O2"
_cell_formula_units_Z 40
_cell_length_a 7.096002
_cell_length_b 11.639756
_cell_length_c 21.054373
_cell_angle_alpha 90.000000
_cell_angle_beta 90.000000
_cell_angle_gamma 90.000000
_cell_volume 1739.001347
_symmetry_space_group_name_H-M "P B C M"
_symmetry_group_IT_number 57
_symmetry_cell_setting 'orthorhombic'
loop_
_space_group_symop_operation_xyz
x,y,z
-x,-y,1/2+z
x,1/2-y,-z
-x,1/2+y,1/2-z
-x,-y,-z
x,y,1/2-z
-x,1/2+y,z
x,1/2-y,1/2+z
loop_
_atom_site_type_symbol
_atom_site_label
_atom_site_fract_x
_atom_site_fract_y
_atom_site_fract_z
Si Si1 0.885517 0.115538 0.179303
Si Si2 0.333198 0.504498 0.928092
Si Si3 0.218046 0.463774 0.441444
Si Si4 0.613684 0.171985 0.679605
Si Si5 0.233490 0.258971 0.623116
O O1 0.891947 0.061315 0.250000
O O2 0.861296 0.033963 0.118391
O O3 0.712112 0.204257 0.178018
O O4 0.069618 0.192869 0.167524
O O5 0.551963 0.534938 0.939441
O O6 0.285475 0.587301 0.869682
O O7 0.321350 0.371127 0.909856
O O8 0.197220 0.518982 0.988698
O O9 0.162232 0.331971 0.429252
O O10 0.628961 0.122540 0.750000
O O11 0.396209 0.194018 0.662153
#
# Coordination Sequence:
#
# PCOD9439612 Si02
#       5
#     8   8   8   8   8
#     4  11  25  43  65  97 135 176 224 277 334 399
#     4  10  22  43  71  97 133 178 222 277 341 400
#     4  10  23  44  69 100 135 176 226 278 337 405
#     4  10  23  43  65  96 133 175 222 275 334 399
#     4  11  23  43  68  99 130 178 223 281 333 406
#
# _framework density 23.001708000000001
#
# number of rings (size 3 to 8) (size 9 to 14) (size 15 to 20)
#    0.000    1.600    2.000    1.200    2.800    7.200 
#    3.600    0.000    0.000    0.000    0.000    0.000 
#    0.000    0.000    0.000    0.000    0.000    0.000 
#
# Total GULP energy -223527.651774 kJ/mol
# GULP energy per Si atom -5588.191294 kJ/mol
# Density = 2.294936 g / cm^3
# Si number density = 23.001708 Si / 1000 Ang^3
#
#
#
# Elastic Constant Matrix: (Units=GPa)
#
#
# Indices 1 2 3 4 5 6 
#
# 1 65.6653 -13.9243 10.1331 0.0000 0.0000 0.0000
# 2 -13.9243 76.3768 48.8183 0.0000 0.0000 0.0000
# 3 10.1331 48.8183 186.6337 0.0000 0.0000 0.0000
# 4 0.0000 0.0000 0.0000 30.2628 0.0000 0.0000
# 5 0.0000 0.0000 0.0000 0.0000 11.3770 0.0000
# 6 0.0000 0.0000 0.0000 0.0000 0.0000 26.6347
#
#
#
# Elastic Compliance Matrix: (Units=1/GPa)
#
#
# Indices 1 2 3 4 5 6 
#
# 1 0.016448 0.004286 -0.002014 0.000000 0.000000 0.000000
# 2 0.004286 0.016838 -0.004637 0.000000 0.000000 0.000000
# 3 -0.002014 -0.004637 0.006680 0.000000 0.000000 0.000000
# 4 0.000000 0.000000 0.000000 0.033044 0.000000 0.000000
# 5 0.000000 0.000000 0.000000 0.000000 0.087896 0.000000
# 6 0.000000 0.000000 0.000000 0.000000 0.000000 0.037545
#
#
# Mechanical properties :
#
#
# Convention : Reuss Voigt Hill
#
# Bulk Modulus (GPa) = 28.37942 46.52554 37.45248
# Shear Modulus (GPa) = 23.26356 32.56483 27.91419
#
# Velocity S-wave (km/s) = 3.18368 3.76674 3.48741
# Velocity P-wave (km/s) = 5.08715 6.26008 5.70385
#
# Compressibility (1/GPa) = 0.03523680
#
# Stress axis : x y z
#
# Youngs Moduli (GPa) = 60.79606 59.38818 149.69156
#
# Poissons Ratio (x) = -0.25455 0.30151
# Poissons Ratio (y) = -0.26058 0.69415
# Poissons Ratio (z) = 0.12245 0.27539
#
# Static dielectric constant tensor:
#      x y z
#    x 1.897900 0.000000 0.000000 
#    y 0.000000 1.808860 0.000000 
#    z 0.000000 0.000000 1.979300 
# 
# From -- ./inp_files/24147.got.cif
#   From: 2010.05.17/outbox.cif.g08.bks.cpg/sg57_13_cif.got.tgz:24147.got - 2010.06.03 13:58:18.
