data_PCOD9439795
_publ_section_title
;
Structure prediction by ZEFSAII (Michael W. Deem and Ramdas Pophale) SiO2 
 PCOD9439795
Probable space group: P B C M
;
_chemical_formula_sum "Si O2"
_cell_formula_units_Z 12
_cell_length_a 8.071505
_cell_length_b 5.340701
_cell_length_c 9.737525
_cell_angle_alpha 90.000000
_cell_angle_beta 90.000000
_cell_angle_gamma 90.000000
_cell_volume 419.760309
_symmetry_space_group_name_H-M "P B C M"
_symmetry_group_IT_number 57
_symmetry_cell_setting 'orthorhombic'
loop_
_space_group_symop_operation_xyz
x,y,z
-x,-y,1/2+z
x,1/2-y,-z
-x,1/2+y,1/2-z
-x,-y,-z
x,y,1/2-z
-x,1/2+y,z
x,1/2-y,1/2+z
loop_
_atom_site_type_symbol
_atom_site_label
_atom_site_fract_x
_atom_site_fract_y
_atom_site_fract_z
Si Si1 0.337545 0.544897 0.092090
Si Si2 0.104953 0.230842 0.250000
O O1 0.378068 0.640092 0.250000
O O2 0.227746 0.304789 0.127632
O O3 0.241876 0.750000 0.000000
O O4 0.500000 0.500000 0.000000
O O5 0.029850 0.956649 0.250000
#
# Coordination Sequence:
#
# PCOD9439795 Si02
#       2
#     8   4
#     4  10  23  44  77 111 156 207 276 323 398 480
#     4  10  26  48  76 116 166 208 262 336 416 478
#
# _framework density 28.587744000000001
#
# number of rings (size 3 to 8) (size 9 to 14) (size 15 to 20)
#    2.000    0.000    0.000    2.000    0.000    8.000 
#    0.000    0.000    0.000    0.000    0.000    0.000 
#    0.000    0.000    0.000    0.000    0.000    0.000 
#
# Total GULP energy -67037.542543 kJ/mol
# GULP energy per Si atom -5586.461879 kJ/mol
# Density = 2.852268 g / cm^3
# Si number density = 28.587744 Si / 1000 Ang^3
#
#
#
# Elastic Constant Matrix: (Units=GPa)
#
#
# Indices 1 2 3 4 5 6 
#
# 1 147.5786 27.8226 67.7322 0.0000 0.0000 0.0000
# 2 27.8226 90.2087 28.4946 0.0000 0.0000 0.0000
# 3 67.7322 28.4946 317.1686 0.0000 0.0000 0.0000
# 4 0.0000 0.0000 0.0000 62.2390 0.0000 0.0000
# 5 0.0000 0.0000 0.0000 0.0000 -177.8598 0.0000
# 6 0.0000 0.0000 0.0000 0.0000 0.0000 69.4161
#
#
#
# Elastic Compliance Matrix: (Units=1/GPa)
#
#
# Indices 1 2 3 4 5 6 
#
# 1 0.007829 -0.001942 -0.001498 0.000000 0.000000 0.000000
# 2 -0.001942 0.011891 -0.000654 0.000000 0.000000 0.000000
# 3 -0.001498 -0.000654 0.003531 0.000000 0.000000 0.000000
# 4 0.000000 0.000000 0.000000 0.016067 0.000000 0.000000
# 5 0.000000 0.000000 0.000000 0.000000 -0.005622 0.000000
# 6 0.000000 0.000000 0.000000 0.000000 0.000000 0.014406
#
#
# Mechanical properties :
#
#
# Convention : Reuss Voigt Hill
#
# Bulk Modulus (GPa) = 66.37555 89.22832 77.80193
# Shear Modulus (GPa) = 81.55287 19.48615 50.51951
#
# Velocity S-wave (km/s) = 5.34688 2.61363 4.20834
# Velocity P-wave (km/s) = 7.83501 6.35515 7.13356
#
# Compressibility (1/GPa) = 0.01506579
#
# Stress axis : x y z
#
# Youngs Moduli (GPa) = 127.72312 84.09900 283.17194
#
# Poissons Ratio (x) = 0.16330 0.42406
# Poissons Ratio (y) = 0.24801 0.18508
# Poissons Ratio (z) = 0.19127 0.05497
#
# Static dielectric constant tensor:
#      x y z
#    x 2.306420 0.000000 0.000000 
#    y 0.000000 2.560400 0.000000 
#    z 0.000000 0.000000 2.287090 
# 
# From -- ./inp_files/2220.got.cif
#   From: 2010.05.17/outbox.cif.g08.bks.cpg/sg57_2_cif.got.tgz:2220.got - 2010.06.03 13:58:18.
