data_PCOD9439125
_publ_section_title
;
Structure prediction by ZEFSAII (Michael W. Deem and Ramdas Pophale) SiO2 
 PCOD9439125
Probable space group: P B C M
;
_chemical_formula_sum "Si O2"
_cell_formula_units_Z 60
_cell_length_a 6.072078
_cell_length_b 23.793467
_cell_length_c 19.935304
_cell_angle_alpha 90.000000
_cell_angle_beta 90.000000
_cell_angle_gamma 90.000000
_cell_volume 2880.168745
_symmetry_space_group_name_H-M "P B C M"
_symmetry_group_IT_number 57
_symmetry_cell_setting 'orthorhombic'
loop_
_space_group_symop_operation_xyz
x,y,z
-x,-y,1/2+z
x,1/2-y,-z
-x,1/2+y,1/2-z
-x,-y,-z
x,y,1/2-z
-x,1/2+y,z
x,1/2-y,1/2+z
loop_
_atom_site_type_symbol
_atom_site_label
_atom_site_fract_x
_atom_site_fract_y
_atom_site_fract_z
Si Si1 0.248068 0.133602 0.585289
Si Si2 0.173183 0.441074 0.633202
Si Si3 0.627021 0.443348 0.387411
Si Si4 0.150058 0.605575 0.250000
Si Si5 0.111591 0.909649 0.515587
Si Si6 0.405120 0.766852 0.074097
Si Si7 0.565217 0.353629 0.621791
Si Si8 0.127541 0.837164 0.173384
O O1 0.377522 0.075655 0.599337
O O2 0.067073 0.125223 0.527582
O O3 0.418484 0.182798 0.567498
O O4 0.121998 0.150182 0.653052
O O5 0.317978 0.496930 0.644463
O O6 0.023224 0.447904 0.567053
O O7 0.346721 0.391247 0.620999
O O8 0.009097 0.423784 0.692036
O O9 0.735939 0.393931 0.342906
O O10 0.741657 0.440399 0.460208
O O11 0.304630 0.634094 0.190404
O O12 0.273605 0.872167 0.560960
O O13 0.495983 0.711140 0.109751
O O14 0.215796 0.790737 0.121978
O O15 0.328483 0.750000 0.000000
O O16 0.154383 0.820584 0.250000
#
# Coordination Sequence:
#
# PCOD9439125 Si02
#       8
#     8   8   8   4   8   8   8   8
#     4  10  22  40  65 100 128 167 222 270 342 388
#     4  11  23  42  65  93 131 177 219 263 330 386
#     4  10  22  40  65  95 130 168 219 276 322 393
#     4  10  26  44  58  90 130 176 216 256 320 386
#     4  10  21  40  65  95 134 167 215 269 333 396
#     4  11  23  42  69  97 131 170 219 281 331 395
#     4  11  24  43  66  95 134 171 223 273 318 400
#     4  10  24  44  63  94 132 173 223 270 339 395
#
# _framework density 20.832114000000001
#
# number of rings (size 3 to 8) (size 9 to 14) (size 15 to 20)
#    0.000    1.600    0.000    4.800    1.867   12.267 
#    0.000    1.333    0.000    0.000    0.000    0.000 
#    0.000    0.000    0.000    0.000    0.000    0.000 
#
# Total GULP energy -334235.592408 kJ/mol
# GULP energy per Si atom -5570.593207 kJ/mol
# Density = 2.078470 g / cm^3
# Si number density = 20.832114 Si / 1000 Ang^3
#
#
#
# Elastic Constant Matrix: (Units=GPa)
#
#
# Indices 1 2 3 4 5 6 
#
# 1 37.3730 -14.5145 23.8906 0.0000 0.0000 0.0000
# 2 -14.5145 41.2495 -9.5192 0.0000 0.0000 0.0000
# 3 23.8906 -9.5192 124.1179 0.0000 0.0000 0.0000
# 4 0.0000 0.0000 0.0000 9.9888 0.0000 0.0000
# 5 0.0000 0.0000 0.0000 0.0000 11.5021 0.0000
# 6 0.0000 0.0000 0.0000 0.0000 0.0000 12.2483
#
#
#
# Elastic Compliance Matrix: (Units=1/GPa)
#
#
# Indices 1 2 3 4 5 6 
#
# 1 0.034716 0.010866 -0.005849 0.000000 0.000000 0.000000
# 2 0.010866 0.028080 0.000062 0.000000 0.000000 0.000000
# 3 -0.005849 0.000062 0.009187 0.000000 0.000000 0.000000
# 4 0.000000 0.000000 0.000000 0.100112 0.000000 0.000000
# 5 0.000000 0.000000 0.000000 0.000000 0.086941 0.000000
# 6 0.000000 0.000000 0.000000 0.000000 0.000000 0.081644
#
#
# Mechanical properties :
#
#
# Convention : Reuss Voigt Hill
#
# Bulk Modulus (GPa) = 12.17402 22.49491 17.33446
# Shear Modulus (GPa) = 13.97025 20.27341 17.12183
#
# Velocity S-wave (km/s) = 2.59243 3.12297 2.86998
# Velocity P-wave (km/s) = 3.84934 4.88114 4.39562
#
# Compressibility (1/GPa) = 0.08214216
#
# Stress axis : x y z
#
# Youngs Moduli (GPa) = 28.80506 35.61196 108.84422
#
# Poissons Ratio (x) = -0.38695 0.63662
# Poissons Ratio (y) = -0.31299 -0.00676
# Poissons Ratio (z) = 0.16848 -0.00221
#
# Static dielectric constant tensor:
#      x y z
#    x 1.758990 0.000000 0.000000 
#    y 0.000000 1.764530 0.000000 
#    z 0.000000 0.000000 1.728050 
# 
# From -- ./inp_files/23812.got.cif
#   From: 2010.05.17/outbox.cif.g08.bks.cpg/sg57_12_cif.got.tgz:23812.got - 2010.06.03 13:58:18.
