data_PCOD9439505
_publ_section_title
;
Structure prediction by ZEFSAII (Michael W. Deem and Ramdas Pophale) SiO2 
 PCOD9439505
Probable space group: P B C M
;
_chemical_formula_sum "Si O2"
_cell_formula_units_Z 32
_cell_length_a 18.313271
_cell_length_b 5.103125
_cell_length_c 15.073684
_cell_angle_alpha 90.000000
_cell_angle_beta 90.000000
_cell_angle_gamma 90.000000
_cell_volume 1408.709798
_symmetry_space_group_name_H-M "P B C M"
_symmetry_group_IT_number 57
_symmetry_cell_setting 'orthorhombic'
loop_
_space_group_symop_operation_xyz
x,y,z
-x,-y,1/2+z
x,1/2-y,-z
-x,1/2+y,1/2-z
-x,-y,-z
x,y,1/2-z
-x,1/2+y,z
x,1/2-y,1/2+z
loop_
_atom_site_type_symbol
_atom_site_label
_atom_site_fract_x
_atom_site_fract_y
_atom_site_fract_z
Si Si1 0.553229 0.750000 0.000000
Si Si2 0.648660 0.394162 0.596151
Si Si3 0.803274 0.503107 0.560811
Si Si4 0.956624 0.840622 0.142992
Si Si5 0.550906 0.326821 0.250000
O O1 0.607395 0.669900 0.920384
O O2 0.500000 0.500000 0.000000
O O3 0.650112 0.250000 0.500000
O O4 0.732902 0.437478 0.620915
O O5 0.601413 0.231758 0.665262
O O6 0.781082 0.750000 0.500000
O O7 0.876898 0.584356 0.609770
O O8 0.817748 0.250000 0.500000
O O9 0.955532 0.841946 0.250000
O O10 0.015440 0.057397 0.113179
O O11 0.512892 0.607656 0.250000
#
# Coordination Sequence:
#
# PCOD9439505 Si02
#       5
#     4   8   8   8   4
#     4  12  22  38  70  88 122 176 212 268 332 384
#     4  11  26  47  69 100 137 179 222 281 343 400
#     4  11  24  41  67  97 130 172 218 266 330 391
#     4  10  22  41  65  96 132 174 214 262 325 387
#     4  12  30  44  68 104 130 174 236 278 336 410
#
# _framework density 22.715820000000001
#
# number of rings (size 3 to 8) (size 9 to 14) (size 15 to 20)
#    0.000    1.000    2.500    3.000    5.250    3.000 
#    0.000    0.000    2.750    0.000    0.000    0.000 
#    0.000    0.000    0.000    0.000    0.000    0.000 
#
# Total GULP energy -179104.954586 kJ/mol
# GULP energy per Si atom -5597.029831 kJ/mol
# Density = 2.266412 g / cm^3
# Si number density = 22.715820 Si / 1000 Ang^3
#
#
#
# Elastic Constant Matrix: (Units=GPa)
#
#
# Indices 1 2 3 4 5 6 
#
# 1 125.9534 -14.3982 22.9495 0.0000 0.0000 0.0000
# 2 -14.3982 98.8101 11.9185 0.0000 0.0000 0.0000
# 3 22.9495 11.9185 63.8169 0.0000 0.0000 0.0000
# 4 0.0000 0.0000 0.0000 24.1038 0.0000 0.0000
# 5 0.0000 0.0000 0.0000 0.0000 10.1782 0.0000
# 6 0.0000 0.0000 0.0000 0.0000 0.0000 6.1518
#
#
#
# Elastic Compliance Matrix: (Units=1/GPa)
#
#
# Indices 1 2 3 4 5 6 
#
# 1 0.008765 0.001696 -0.003469 0.000000 0.000000 0.000000
# 2 0.001696 0.010682 -0.002605 0.000000 0.000000 0.000000
# 3 -0.003469 -0.002605 0.017404 0.000000 0.000000 0.000000
# 4 0.000000 0.000000 0.000000 0.041487 0.000000 0.000000
# 5 0.000000 0.000000 0.000000 0.000000 0.098249 0.000000
# 6 0.000000 0.000000 0.000000 0.000000 0.000000 0.162555
#
#
# Mechanical properties :
#
#
# Convention : Reuss Voigt Hill
#
# Bulk Modulus (GPa) = 35.59351 36.61332 36.10342
# Shear Modulus (GPa) = 13.99531 25.96080 19.97805
#
# Velocity S-wave (km/s) = 2.48484 3.38428 2.96882
# Velocity P-wave (km/s) = 4.89240 5.60572 5.26116
#
# Compressibility (1/GPa) = 0.02809501
#
# Stress axis : x y z
#
# Youngs Moduli (GPa) = 114.08592 93.61814 57.45901
#
# Poissons Ratio (x) = -0.15874 0.19931
# Poissons Ratio (y) = -0.19345 0.14966
# Poissons Ratio (z) = 0.39574 0.24385
#
# Static dielectric constant tensor:
#      x y z
#    x 1.843100 0.000000 0.000000 
#    y 0.000000 1.891000 0.000000 
#    z 0.000000 0.000000 1.878190 
# 
# From -- ./inp_files/18798.got.cif
#   From: 2010.05.17/outbox.cif.g08.bks.cpg/sg57_10_cif.got.tgz:18798.got - 2010.06.03 13:58:18.
