data_PCOD9439807
_publ_section_title
;
Structure prediction by ZEFSAII (Michael W. Deem and Ramdas Pophale) SiO2 
 PCOD9439807
Probable space group: P B C M
;
_chemical_formula_sum "Si O2"
_cell_formula_units_Z 40
_cell_length_a 20.275496
_cell_length_b 8.305341
_cell_length_c 10.346271
_cell_angle_alpha 90.000000
_cell_angle_beta 90.000000
_cell_angle_gamma 90.000000
_cell_volume 1742.259356
_symmetry_space_group_name_H-M "P B C M"
_symmetry_group_IT_number 57
_symmetry_cell_setting 'orthorhombic'
loop_
_space_group_symop_operation_xyz
x,y,z
-x,-y,1/2+z
x,1/2-y,-z
-x,1/2+y,1/2-z
-x,-y,-z
x,y,1/2-z
-x,1/2+y,z
x,1/2-y,1/2+z
loop_
_atom_site_type_symbol
_atom_site_label
_atom_site_fract_x
_atom_site_fract_y
_atom_site_fract_z
Si Si1 0.804183 0.929373 0.250000
Si Si2 0.593882 0.033573 0.607074
Si Si3 0.479386 0.250000 0.500000
Si Si4 0.017123 0.141307 0.401142
Si Si5 0.196477 0.054607 0.250000
Si Si6 0.268230 0.938088 0.997506
Si Si7 0.897651 0.240553 0.250000
O O1 0.826288 0.742317 0.250000
O O2 0.760160 0.971309 0.374319
O O3 0.860577 0.067896 0.250000
O O4 0.619523 0.068932 0.750000
O O5 0.529384 0.139294 0.580099
O O6 0.652554 0.061108 0.506284
O O7 0.567299 0.853792 0.591366
O O8 0.061071 0.250000 0.500000
O O9 0.038532 0.104615 0.250000
O O10 0.948939 0.233583 0.367864
O O11 0.000000 0.000000 0.500000
O O12 0.239841 0.027238 0.122517
O O13 0.147837 0.897682 0.250000
O O14 0.246623 0.750000 0.000000
#
# Coordination Sequence:
#
# PCOD9439807 Si02
#       7
#     4   8   4   8   4   8   4
#     4  12  28  46  72 112 143 201 250 304 377 445
#     4  11  23  42  64  94 126 189 229 309 380 454
#     4  10  24  40  60  94 134 164 250 298 376 466
#     4  10  23  45  74 109 151 203 248 303 374 443
#     4  12  26  48  72 104 145 197 248 306 366 441
#     4  12  24  45  72  98 148 191 249 310 390 454
#     4  10  26  46  80 106 162 190 258 310 363 436
#
# _framework density 22.958694000000001
#
# number of rings (size 3 to 8) (size 9 to 14) (size 15 to 20)
#    0.600    0.400    4.000    1.800    5.600    0.000 
#   10.800    0.000    0.000    0.000    0.000    0.000 
#    0.000    0.000    0.000    0.000    0.000    0.000 
#
# Total GULP energy -223085.452305 kJ/mol
# GULP energy per Si atom -5577.136308 kJ/mol
# Density = 2.290644 g / cm^3
# Si number density = 22.958694 Si / 1000 Ang^3
#
#
#
# Elastic Constant Matrix: (Units=GPa)
#
#
# Indices 1 2 3 4 5 6 
#
# 1 71.0157 27.3672 21.6909 0.0000 0.0000 0.0000
# 2 27.3672 151.2403 39.7487 0.0000 0.0000 0.0000
# 3 21.6909 39.7487 184.7264 0.0000 0.0000 0.0000
# 4 0.0000 0.0000 0.0000 21.7210 0.0000 0.0000
# 5 0.0000 0.0000 0.0000 0.0000 29.7764 0.0000
# 6 0.0000 0.0000 0.0000 0.0000 0.0000 17.3026
#
#
#
# Elastic Compliance Matrix: (Units=1/GPa)
#
#
# Indices 1 2 3 4 5 6 
#
# 1 0.015418 -0.002453 -0.001283 0.000000 0.000000 0.000000
# 2 -0.002453 0.007399 -0.001304 0.000000 0.000000 0.000000
# 3 -0.001283 -0.001304 0.005845 0.000000 0.000000 0.000000
# 4 0.000000 0.000000 0.000000 0.046038 0.000000 0.000000
# 5 0.000000 0.000000 0.000000 0.000000 0.033584 0.000000
# 6 0.000000 0.000000 0.000000 0.000000 0.000000 0.057795
#
#
# Mechanical properties :
#
#
# Convention : Reuss Voigt Hill
#
# Bulk Modulus (GPa) = 53.81390 64.95512 59.38451
# Shear Modulus (GPa) = 27.41953 34.97169 31.19561
#
# Velocity S-wave (km/s) = 3.45961 3.90711 3.69015
# Velocity P-wave (km/s) = 6.28083 6.97908 6.63914
#
# Compressibility (1/GPa) = 0.01858256
#
# Stress axis : x y z
#
# Youngs Moduli (GPa) = 64.85746 135.16150 171.09796
#
# Poissons Ratio (x) = 0.33154 0.21946
# Poissons Ratio (y) = 0.15909 0.22311
# Poissons Ratio (z) = 0.08319 0.17625
#
# Static dielectric constant tensor:
#      x y z
#    x 1.826720 0.000000 0.000000 
#    y 0.000000 1.958210 0.000000 
#    z 0.000000 0.000000 1.941220 
# 
# From -- ./inp_files/9053.got.cif
#   From: 2010.05.17/outbox.cif.g08.bks.cpg/sg57_5_cif.got.tgz:9053.got - 2010.06.03 13:58:18.
