data_PCOD9439417
_publ_section_title
;
Structure prediction by ZEFSAII (Michael W. Deem and Ramdas Pophale) SiO2 
 PCOD9439417
Probable space group: P B C M
;
_chemical_formula_sum "Si O2"
_cell_formula_units_Z 64
_cell_length_a 16.653728
_cell_length_b 12.090362
_cell_length_c 14.448267
_cell_angle_alpha 90.000000
_cell_angle_beta 90.000000
_cell_angle_gamma 90.000000
_cell_volume 2909.152784
_symmetry_space_group_name_H-M "P B C M"
_symmetry_group_IT_number 57
_symmetry_cell_setting 'orthorhombic'
loop_
_space_group_symop_operation_xyz
x,y,z
-x,-y,1/2+z
x,1/2-y,-z
-x,1/2+y,1/2-z
-x,-y,-z
x,y,1/2-z
-x,1/2+y,z
x,1/2-y,1/2+z
loop_
_atom_site_type_symbol
_atom_site_label
_atom_site_fract_x
_atom_site_fract_y
_atom_site_fract_z
Si Si1 0.260829 0.854644 0.644018
Si Si2 0.121435 0.694036 0.900571
Si Si3 0.416155 0.631765 0.021229
Si Si4 0.054323 0.241919 0.610056
Si Si5 0.209846 0.095672 0.640585
Si Si6 0.302059 0.195782 0.362466
Si Si7 0.155690 0.047262 0.144005
Si Si8 0.444234 0.464781 0.638502
O O1 0.290963 0.866376 0.750000
O O2 0.197163 0.755181 0.644298
O O3 0.333156 0.840856 0.572654
O O4 0.218190 0.969064 0.612382
O O5 0.133497 0.563416 0.907924
O O6 0.034414 0.714408 0.855156
O O7 0.117888 0.750000 0.000000
O O8 0.469360 0.561736 0.093968
O O9 0.455896 0.750000 0.000000
O O10 0.409399 0.563995 0.925091
O O11 0.050857 0.250000 0.500000
O O12 0.122426 0.150332 0.629143
O O13 0.086988 0.359694 0.644211
O O14 0.223963 0.092374 0.750000
O O15 0.276194 0.182910 0.602386
O O16 0.293988 0.198923 0.250000
O O17 0.233542 0.110015 0.394690
O O18 0.387866 0.142187 0.379702
O O19 0.172063 0.013847 0.250000
O O20 0.445795 0.485720 0.750000
#
# Coordination Sequence:
#
# PCOD9439417 Si02
#       8
#     8   8   8   8   8   8   8   8
#     4  11  25  42  64  97 137 182 229 283 351 419
#     4  11  26  40  61  89 133 178 229 282 349 418
#     4  11  26  45  67 102 143 180 221 278 344 405
#     4  10  23  39  62  92 126 169 224 289 352 405
#     4   9  20  39  63  91 125 163 218 285 340 401
#     4   8  17  36  63  93 121 161 216 273 332 391
#     4  10  22  40  63  91 126 169 222 279 339 414
#     4  10  23  44  72 101 133 177 231 277 331 406
#
# _framework density 21.999533
#
# number of rings (size 3 to 8) (size 9 to 14) (size 15 to 20)
#    0.000    2.000    0.000    2.250    7.000    7.000 
#    0.000    1.875    0.000    0.000    0.000    0.000 
#    0.000    0.000    0.000    0.000    0.000    0.000 
#
# Total GULP energy -357409.343096 kJ/mol
# GULP energy per Si atom -5584.520986 kJ/mol
# Density = 2.194946 g / cm^3
# Si number density = 21.999533 Si / 1000 Ang^3
#
#
#
# Elastic Constant Matrix: (Units=GPa)
#
#
# Indices 1 2 3 4 5 6 
#
# 1 81.8400 27.5884 23.9937 0.0000 0.0000 0.0000
# 2 27.5884 74.3809 23.1178 0.0000 0.0000 0.0000
# 3 23.9937 23.1178 115.9496 0.0000 0.0000 0.0000
# 4 0.0000 0.0000 0.0000 30.9669 0.0000 0.0000
# 5 0.0000 0.0000 0.0000 0.0000 111.0028 0.0000
# 6 0.0000 0.0000 0.0000 0.0000 0.0000 17.0892
#
#
#
# Elastic Compliance Matrix: (Units=1/GPa)
#
#
# Indices 1 2 3 4 5 6 
#
# 1 0.014405 -0.004708 -0.002042 0.000000 0.000000 0.000000
# 2 -0.004708 0.015871 -0.002190 0.000000 0.000000 0.000000
# 3 -0.002042 -0.002190 0.009484 0.000000 0.000000 0.000000
# 4 0.000000 0.000000 0.000000 0.032293 0.000000 0.000000
# 5 0.000000 0.000000 0.000000 0.000000 0.009009 0.000000
# 6 0.000000 0.000000 0.000000 0.000000 0.000000 0.058517
#
#
# Mechanical properties :
#
#
# Convention : Reuss Voigt Hill
#
# Bulk Modulus (GPa) = 45.70593 46.84115 46.27354
# Shear Modulus (GPa) = 30.34875 44.97648 37.66261
#
# Velocity S-wave (km/s) = 3.71822 4.52644 4.14209
# Velocity P-wave (km/s) = 6.26534 6.97541 6.62989
#
# Compressibility (1/GPa) = 0.02187900
#
# Stress axis : x y z
#
# Youngs Moduli (GPa) = 69.42135 63.00682 105.44435
#
# Poissons Ratio (x) = 0.29665 0.21533
# Poissons Ratio (y) = 0.32685 0.23094
# Poissons Ratio (z) = 0.14177 0.13799
#
# Static dielectric constant tensor:
#      x y z
#    x 1.817460 0.000000 0.000000 
#    y 0.000000 1.816910 0.000000 
#    z 0.000000 0.000000 1.846960 
# 
# From -- ./inp_files/19159.got.cif
#   From: 2010.05.17/outbox.cif.g08.bks.cpg/sg57_10_cif.got.tgz:19159.got - 2010.06.03 13:58:18.
