data_PCOD9439933
_publ_section_title
;
Structure prediction by ZEFSAII (Michael W. Deem and Ramdas Pophale) SiO2 
 PCOD9439933
Probable space group: P B C M
;
_chemical_formula_sum "Si O2"
_cell_formula_units_Z 32
_cell_length_a 5.114136
_cell_length_b 9.057996
_cell_length_c 26.904060
_cell_angle_alpha 90.000000
_cell_angle_beta 90.000000
_cell_angle_gamma 90.000000
_cell_volume 1246.298925
_symmetry_space_group_name_H-M "P B C M"
_symmetry_group_IT_number 57
_symmetry_cell_setting 'orthorhombic'
loop_
_space_group_symop_operation_xyz
x,y,z
-x,-y,1/2+z
x,1/2-y,-z
-x,1/2+y,1/2-z
-x,-y,-z
x,y,1/2-z
-x,1/2+y,z
x,1/2-y,1/2+z
loop_
_atom_site_type_symbol
_atom_site_label
_atom_site_fract_x
_atom_site_fract_y
_atom_site_fract_z
Si Si1 0.003774 0.837663 0.131845
Si Si2 0.747985 0.913867 0.979227
Si Si3 0.700941 0.589602 0.308784
Si Si4 0.637425 0.091481 0.393261
O O1 0.849345 0.730630 0.168921
O O2 0.186771 0.735926 0.096246
O O3 0.804433 0.942286 0.101305
O O4 0.174306 0.944109 0.166704
O O5 0.640361 0.905936 0.921892
O O6 0.761159 0.750000 0.000000
O O7 0.500000 0.000000 0.000000
O O8 0.000000 0.000000 0.000000
O O9 0.698001 0.585674 0.250000
O O10 0.417325 0.599156 0.334272
#
# Coordination Sequence:
#
# PCOD9439933 Si02
#       4
#     8   8   8   8
#     4  10  25  46  73 110 161 211 270 330 425 492
#     4  12  32  56  87 123 165 215 280 344 424 499
#     4  11  24  43  74 113 158 209 272 340 418 502
#     4  11  27  47  78 111 162 211 274 344 413 502
#
# _framework density 25.676024000000002
#
# number of rings (size 3 to 8) (size 9 to 14) (size 15 to 20)
#    0.000    1.000    0.000    3.000   14.000    8.000 
#    0.000    0.000    0.000    0.000    0.000    0.000 
#    0.000    0.000    0.000    0.000    0.000    0.000 
#
# Total GULP energy -179352.801674 kJ/mol
# GULP energy per Si atom -5604.775052 kJ/mol
# Density = 2.561758 g / cm^3
# Si number density = 25.676024 Si / 1000 Ang^3
#
#
#
# Elastic Constant Matrix: (Units=GPa)
#
#
# Indices 1 2 3 4 5 6 
#
# 1 189.4174 92.9613 58.4290 0.0000 0.0000 0.0000
# 2 92.9613 219.8976 64.3615 0.0000 0.0000 0.0000
# 3 58.4290 64.3615 183.7225 0.0000 0.0000 0.0000
# 4 0.0000 0.0000 0.0000 18.4941 0.0000 0.0000
# 5 0.0000 0.0000 0.0000 0.0000 35.4208 0.0000
# 6 0.0000 0.0000 0.0000 0.0000 0.0000 46.2096
#
#
#
# Elastic Compliance Matrix: (Units=1/GPa)
#
#
# Indices 1 2 3 4 5 6 
#
# 1 0.006934 -0.002547 -0.001313 0.000000 0.000000 0.000000
# 2 -0.002547 0.006003 -0.001293 0.000000 0.000000 0.000000
# 3 -0.001313 -0.001293 0.006313 0.000000 0.000000 0.000000
# 4 0.000000 0.000000 0.000000 0.054071 0.000000 0.000000
# 5 0.000000 0.000000 0.000000 0.000000 0.028232 0.000000
# 6 0.000000 0.000000 0.000000 0.000000 0.000000 0.021641
#
#
# Mechanical properties :
#
#
# Convention : Reuss Voigt Hill
#
# Bulk Modulus (GPa) = 111.79887 113.83791 112.81839
# Shear Modulus (GPa) = 36.63484 45.17729 40.90607
#
# Velocity S-wave (km/s) = 3.78141 4.19921 3.99577
# Velocity P-wave (km/s) = 7.91847 8.24279 8.08226
#
# Compressibility (1/GPa) = 0.00894463
#
# Stress axis : x y z
#
# Youngs Moduli (GPa) = 144.20676 166.58901 158.39171
#
# Poissons Ratio (x) = 0.42434 0.20797
# Poissons Ratio (y) = 0.36733 0.20477
# Poissons Ratio (z) = 0.18935 0.21537
#
# Static dielectric constant tensor:
#      x y z
#    x 2.068150 0.000000 0.000000 
#    y 0.000000 2.016720 0.000000 
#    z 0.000000 0.000000 2.018970 
# 
# From -- ./inp_files/29009.got.cif
#   From: 2010.05.17/outbox.cif.g08.bks.cpg/sg57_15_cif.got.tgz:29009.got - 2010.06.03 13:58:18.
