data_PCOD9439158
_publ_section_title
;
Structure prediction by ZEFSAII (Michael W. Deem and Ramdas Pophale) SiO2 
 PCOD9439158
Probable space group: P B C M
;
_chemical_formula_sum "Si O2"
_cell_formula_units_Z 48
_cell_length_a 7.647674
_cell_length_b 21.687975
_cell_length_c 14.136301
_cell_angle_alpha 90.000000
_cell_angle_beta 90.000000
_cell_angle_gamma 90.000000
_cell_volume 2344.683108
_symmetry_space_group_name_H-M "P B C M"
_symmetry_group_IT_number 57
_symmetry_cell_setting 'orthorhombic'
loop_
_space_group_symop_operation_xyz
x,y,z
-x,-y,1/2+z
x,1/2-y,-z
-x,1/2+y,1/2-z
-x,-y,-z
x,y,1/2-z
-x,1/2+y,z
x,1/2-y,1/2+z
loop_
_atom_site_type_symbol
_atom_site_label
_atom_site_fract_x
_atom_site_fract_y
_atom_site_fract_z
Si Si1 0.885902 0.639519 0.995323
Si Si2 0.420979 0.349716 0.860929
Si Si3 0.350425 0.292324 0.358588
Si Si4 0.193022 0.471688 0.359189
Si Si5 0.232719 0.903696 0.544463
Si Si6 0.427660 0.916010 0.356991
O O1 0.747391 0.629223 0.079389
O O2 0.081395 0.646851 0.032368
O O3 0.805922 0.693103 0.930042
O O4 0.886356 0.579740 0.927390
O O5 0.404727 0.364073 0.750000
O O6 0.426580 0.275438 0.872301
O O7 0.595593 0.378749 0.903492
O O8 0.288348 0.297231 0.250000
O O9 0.491895 0.346992 0.370928
O O10 0.142464 0.462816 0.250000
O O11 0.155510 0.539569 0.396322
O O12 0.403506 0.460289 0.364456
O O13 0.294963 0.927103 0.441429
O O14 0.357552 0.920501 0.250000
#
# Coordination Sequence:
#
# PCOD9439158 Si02
#       6
#     8   8   8   8   8   8
#     4  11  23  40  65  92 124 168 215 260 314 379
#     4  11  24  42  63  88 130 170 208 266 319 369
#     4   9  19  42  65  87 124 167 207 257 314 368
#     4  10  21  41  64  91 131 168 206 263 320 383
#     4  12  23  39  64  96 129 161 215 259 321 379
#     4   9  19  36  64  91 117 164 216 256 306 371
#
# _framework density 20.47185
#
# number of rings (size 3 to 8) (size 9 to 14) (size 15 to 20)
#    0.000    1.667    3.333    3.500    0.000    2.667 
#    6.000    0.000    0.000    0.000    0.000    0.000 
#    0.000    0.000    0.000    0.000    0.000    0.000 
#
# Total GULP energy -268223.487584 kJ/mol
# GULP energy per Si atom -5587.989325 kJ/mol
# Density = 2.042525 g / cm^3
# Si number density = 20.471850 Si / 1000 Ang^3
#
#
#
# Elastic Constant Matrix: (Units=GPa)
#
#
# Indices 1 2 3 4 5 6 
#
# 1 48.8895 -14.8547 30.1178 0.0000 0.0000 0.0000
# 2 -14.8547 42.5754 19.7740 0.0000 0.0000 0.0000
# 3 30.1178 19.7740 120.8384 0.0000 0.0000 0.0000
# 4 0.0000 0.0000 0.0000 36.1173 0.0000 0.0000
# 5 0.0000 0.0000 0.0000 0.0000 0.1704 0.0000
# 6 0.0000 0.0000 0.0000 0.0000 0.0000 9.7792
#
#
#
# Elastic Compliance Matrix: (Units=1/GPa)
#
#
# Indices 1 2 3 4 5 6 
#
# 1 0.031812 0.015998 -0.010547 0.000000 0.000000 0.000000
# 2 0.015998 0.033465 -0.009463 0.000000 0.000000 0.000000
# 3 -0.010547 -0.009463 0.012453 0.000000 0.000000 0.000000
# 4 0.000000 0.000000 0.000000 0.027688 0.000000 0.000000
# 5 0.000000 0.000000 0.000000 0.000000 5.869291 0.000000
# 6 0.000000 0.000000 0.000000 0.000000 0.000000 0.102258
#
#
# Mechanical properties :
#
#
# Convention : Reuss Voigt Hill
#
# Bulk Modulus (GPa) = 14.34617 31.37526 22.86072
# Shear Modulus (GPa) = 0.81857 21.03112 10.92484
#
# Velocity S-wave (km/s) = 0.63302 3.20866 2.31260
# Velocity P-wave (km/s) = 2.74905 5.39320 4.28042
#
# Compressibility (1/GPa) = 0.06970500
#
# Stress axis : x y z
#
# Youngs Moduli (GPa) = 31.43435 29.88222 80.30322
#
# Poissons Ratio (x) = -0.47805 0.84694
# Poissons Ratio (y) = -0.50288 0.75995
# Poissons Ratio (z) = 0.33153 0.28279
#
# Static dielectric constant tensor:
#      x y z
#    x 1.707040 0.000000 0.000000 
#    y 0.000000 1.734660 0.000000 
#    z 0.000000 0.000000 1.741400 
# 
# From -- ./inp_files/16536.got.cif
#   From: 2010.05.17/outbox.cif.g08.bks.cpg/sg57_9_cif.got.tgz:16536.got - 2010.06.03 13:58:18.
