data_PCOD9439870
_publ_section_title
;
Structure prediction by ZEFSAII (Michael W. Deem and Ramdas Pophale) SiO2 
 PCOD9439870
Probable space group: P B C M
;
_chemical_formula_sum "Si O2"
_cell_formula_units_Z 40
_cell_length_a 7.902643
_cell_length_b 9.249560
_cell_length_c 21.971382
_cell_angle_alpha 90.000000
_cell_angle_beta 90.000000
_cell_angle_gamma 90.000000
_cell_volume 1606.019492
_symmetry_space_group_name_H-M "P B C M"
_symmetry_group_IT_number 57
_symmetry_cell_setting 'orthorhombic'
loop_
_space_group_symop_operation_xyz
x,y,z
-x,-y,1/2+z
x,1/2-y,-z
-x,1/2+y,1/2-z
-x,-y,-z
x,y,1/2-z
-x,1/2+y,z
x,1/2-y,1/2+z
loop_
_atom_site_type_symbol
_atom_site_label
_atom_site_fract_x
_atom_site_fract_y
_atom_site_fract_z
Si Si1 0.565201 0.123980 0.456581
Si Si2 0.224912 0.568115 0.343624
Si Si3 0.528297 0.925314 0.250000
Si Si4 0.718350 0.643753 0.250000
Si Si5 0.215946 0.355634 0.609535
Si Si6 0.057158 0.646501 0.870211
O O1 0.627058 0.250000 0.500000
O O2 0.711738 0.068501 0.412780
O O3 0.402319 0.175869 0.416277
O O4 0.500000 0.000000 0.500000
O O5 0.379027 0.501616 0.306469
O O6 0.167548 0.733942 0.334224
O O7 0.069719 0.459026 0.333120
O O8 0.338857 0.978264 0.250000
O O9 0.562856 0.757265 0.250000
O O10 0.793286 0.666912 0.183143
O O11 0.172625 0.524321 0.597838
O O12 0.068510 0.245819 0.588495
#
# Coordination Sequence:
#
# PCOD9439870 Si02
#       6
#     8   8   4   4   8   8
#     4  12  26  45  72  97 132 182 236 289 330 405
#     4  11  24  46  68 103 137 177 232 272 353 397
#     4  12  26  41  73 104 142 174 225 286 334 416
#     4  12  26  41  73 104 142 176 223 290 330 418
#     4  11  24  46  68 103 139 177 237 272 354 401
#     4  10  24  43  70 100 142 180 216 291 337 423
#
# _framework density 24.906298
#
# number of rings (size 3 to 8) (size 9 to 14) (size 15 to 20)
#    0.000    0.800    4.000    2.400    2.800    4.800 
#    0.000   20.000    0.000    0.000    0.000    0.000 
#    0.000    0.000    0.000    0.000    0.000    0.000 
#
# Total GULP energy -223515.295566 kJ/mol
# GULP energy per Si atom -5587.882389 kJ/mol
# Density = 2.484961 g / cm^3
# Si number density = 24.906298 Si / 1000 Ang^3
#
#
#
# Elastic Constant Matrix: (Units=GPa)
#
#
# Indices 1 2 3 4 5 6 
#
# 1 38.7075 4.6338 10.5566 0.0000 0.0000 0.0000
# 2 4.6338 165.4684 17.6646 0.0000 0.0000 0.0000
# 3 10.5566 17.6646 101.4418 0.0000 0.0000 0.0000
# 4 0.0000 0.0000 0.0000 22.4432 0.0000 0.0000
# 5 0.0000 0.0000 0.0000 0.0000 -27.8626 0.0000
# 6 0.0000 0.0000 0.0000 0.0000 0.0000 60.2517
#
#
#
# Elastic Compliance Matrix: (Units=1/GPa)
#
#
# Indices 1 2 3 4 5 6 
#
# 1 0.026623 -0.000458 -0.002691 0.000000 0.000000 0.000000
# 2 -0.000458 0.006166 -0.001026 0.000000 0.000000 0.000000
# 3 -0.002691 -0.001026 0.010317 0.000000 0.000000 0.000000
# 4 0.000000 0.000000 0.000000 0.044557 0.000000 0.000000
# 5 0.000000 0.000000 0.000000 0.000000 -0.035890 0.000000
# 6 0.000000 0.000000 0.000000 0.000000 0.000000 0.016597
#
#
# Mechanical properties :
#
#
# Convention : Reuss Voigt Hill
#
# Bulk Modulus (GPa) = 28.77227 41.25863 35.01545
# Shear Modulus (GPa) = 56.62212 29.15065 42.88639
#
# Velocity S-wave (km/s) = 4.77320 3.42484 4.15409
# Velocity P-wave (km/s) = 6.47728 5.67811 6.09081
#
# Compressibility (1/GPa) = 0.03475569
#
# Stress axis : x y z
#
# Youngs Moduli (GPa) = 37.56082 162.18460 96.93163
#
# Poissons Ratio (x) = 0.07433 0.26082
# Poissons Ratio (y) = 0.01721 0.09945
# Poissons Ratio (z) = 0.10107 0.16640
#
# Static dielectric constant tensor:
#      x y z
#    x 2.004510 0.000000 0.000000 
#    y 0.000000 1.976200 0.000000 
#    z 0.000000 0.000000 2.035260 
# 
# From -- ./inp_files/26536.got.cif
#   From: 2010.05.17/outbox.cif.g08.bks.cpg/sg57_14_cif.got.tgz:26536.got - 2010.06.03 13:58:18.
