data_PCOD9439797
_publ_section_title
;
Structure prediction by ZEFSAII (Michael W. Deem and Ramdas Pophale) SiO2 
 PCOD9439797
Probable space group: P B C M
;
_chemical_formula_sum "Si O2"
_cell_formula_units_Z 40
_cell_length_a 11.885997
_cell_length_b 17.952086
_cell_length_c 10.135553
_cell_angle_alpha 90.000000
_cell_angle_beta 90.000000
_cell_angle_gamma 90.000000
_cell_volume 2162.708491
_symmetry_space_group_name_H-M "P B C M"
_symmetry_group_IT_number 57
_symmetry_cell_setting 'orthorhombic'
loop_
_space_group_symop_operation_xyz
x,y,z
-x,-y,1/2+z
x,1/2-y,-z
-x,1/2+y,1/2-z
-x,-y,-z
x,y,1/2-z
-x,1/2+y,z
x,1/2-y,1/2+z
loop_
_atom_site_type_symbol
_atom_site_label
_atom_site_fract_x
_atom_site_fract_y
_atom_site_fract_z
Si Si1 0.158113 0.250000 0.500000
Si Si2 0.457204 0.832608 0.750000
Si Si3 0.681449 0.744289 0.250000
Si Si4 0.407342 0.935181 0.997285
Si Si5 0.988440 0.888406 0.095455
Si Si6 0.462631 0.836639 0.250000
Si Si7 0.837303 0.037222 0.094601
O O1 0.240247 0.260699 0.623688
O O2 0.079571 0.180907 0.537612
O O3 0.591669 0.822065 0.750000
O O4 0.423866 0.878736 0.876676
O O5 0.412797 0.747430 0.750000
O O6 0.597836 0.817070 0.250000
O O7 0.284614 0.969896 0.972221
O O8 0.424631 0.884528 0.125629
O O9 0.500000 0.000000 0.000000
O O10 0.020479 0.876663 0.250000
O O11 0.905050 0.959585 0.092837
O O12 0.091370 0.906995 0.997796
O O13 0.828326 0.059682 0.250000
#
# Coordination Sequence:
#
# PCOD9439797 Si02
#       7
#     4   4   4   8   8   4   8
#     4  12  22  42  68  96 120 172 222 266 320 380
#     4  10  23  45  61  94 135 172 213 267 329 385
#     4  10  24  38  68  90 134 166 216 266 324 376
#     4  12  24  41  67 100 131 175 217 267 323 402
#     4  10  24  45  65  94 127 167 215 277 323 385
#     4  10  25  41  63  96 135 174 215 263 331 385
#     4  10  24  44  66  92 133 168 214 268 332 376
#
# _framework density 18.495328000000001
#
# number of rings (size 3 to 8) (size 9 to 14) (size 15 to 20)
#    0.600    0.800    2.000    2.400    8.400    0.000 
#    3.600    0.000    0.000    0.000    0.000    0.000 
#    0.000    0.000    0.000    0.000    0.000    0.000 
#
# Total GULP energy -223138.058768 kJ/mol
# GULP energy per Si atom -5578.451469 kJ/mol
# Density = 1.845323 g / cm^3
# Si number density = 18.495328 Si / 1000 Ang^3
#
#
#
# Elastic Constant Matrix: (Units=GPa)
#
#
# Indices 1 2 3 4 5 6 
#
# 1 96.2617 6.1476 34.7992 0.0000 0.0000 0.0000
# 2 6.1476 48.0216 39.2663 0.0000 0.0000 0.0000
# 3 34.7992 39.2663 167.2919 0.0000 0.0000 0.0000
# 4 0.0000 0.0000 0.0000 24.3931 0.0000 0.0000
# 5 0.0000 0.0000 0.0000 0.0000 37.7072 0.0000
# 6 0.0000 0.0000 0.0000 0.0000 0.0000 -28.4773
#
#
#
# Elastic Compliance Matrix: (Units=1/GPa)
#
#
# Indices 1 2 3 4 5 6 
#
# 1 0.011246 0.000586 -0.002477 0.000000 0.000000 0.000000
# 2 0.000586 0.025800 -0.006178 0.000000 0.000000 0.000000
# 3 -0.002477 -0.006178 0.007943 0.000000 0.000000 0.000000
# 4 0.000000 0.000000 0.000000 0.040995 0.000000 0.000000
# 5 0.000000 0.000000 0.000000 0.000000 0.026520 0.000000
# 6 0.000000 0.000000 0.000000 0.000000 0.000000 -0.035116
#
#
# Mechanical properties :
#
#
# Convention : Reuss Voigt Hill
#
# Bulk Modulus (GPa) = 34.66004 52.44460 43.55232
# Shear Modulus (GPa) = 48.47584 22.14873 35.31229
#
# Velocity S-wave (km/s) = 5.12510 3.46429 4.37424
# Velocity P-wave (km/s) = 7.33504 6.66475 7.00791
#
# Compressibility (1/GPa) = 0.02885167
#
# Stress axis : x y z
#
# Youngs Moduli (GPa) = 88.91778 38.75921 125.90041
#
# Poissons Ratio (x) = -0.02270 0.31184
# Poissons Ratio (y) = -0.05206 0.77776
# Poissons Ratio (z) = 0.22024 0.23944
#
# Static dielectric constant tensor:
#      x y z
#    x 1.655480 0.000000 0.000000 
#    y 0.000000 1.651040 0.000000 
#    z 0.000000 0.000000 0.244800 
# 
# From -- ./inp_files/2760.got.cif
#   From: 2010.05.17/outbox.cif.g08.bks.cpg/sg57_2_cif.got.tgz:2760.got - 2010.06.03 13:58:18.
