data_PCOD9439579
_publ_section_title
;
Structure prediction by ZEFSAII (Michael W. Deem and Ramdas Pophale) SiO2 
 PCOD9439579
Probable space group: P B C M
;
_chemical_formula_sum "Si O2"
_cell_formula_units_Z 28
_cell_length_a 5.334746
_cell_length_b 13.441444
_cell_length_c 20.312329
_cell_angle_alpha 90.000000
_cell_angle_beta 90.000000
_cell_angle_gamma 90.000000
_cell_volume 1456.529871
_symmetry_space_group_name_H-M "P B C M"
_symmetry_group_IT_number 57
_symmetry_cell_setting 'orthorhombic'
loop_
_space_group_symop_operation_xyz
x,y,z
-x,-y,1/2+z
x,1/2-y,-z
-x,1/2+y,1/2-z
-x,-y,-z
x,y,1/2-z
-x,1/2+y,z
x,1/2-y,1/2+z
loop_
_atom_site_type_symbol
_atom_site_label
_atom_site_fract_x
_atom_site_fract_y
_atom_site_fract_z
Si Si1 0.623919 0.250000 0.500000
Si Si2 0.137764 0.558232 0.558639
Si Si3 0.427296 0.112645 0.111014
Si Si4 0.935038 0.052078 0.173518
O O1 0.794007 0.332814 0.464652
O O2 0.460660 0.194824 0.444767
O O3 0.386588 0.494181 0.575297
O O4 0.976237 0.542724 0.625118
O O5 0.000000 0.500000 0.500000
O O6 0.173254 0.120621 0.153308
O O7 0.676683 0.104804 0.154083
O O8 0.942154 0.026998 0.250000
#
# Coordination Sequence:
#
# PCOD9439579 Si02
#       4
#     4   8   8   8
#     4  12  20  40  68 100 126 164 222 276 328 384
#     4  10  23  41  65  98 126 168 215 275 324 384
#     4  10  23  39  65  93 127 168 209 268 323 377
#     4  10  22  43  63  87 133 174 208 263 326 385
#
# _framework density 19.223775
#
# number of rings (size 3 to 8) (size 9 to 14) (size 15 to 20)
#    1.714    0.000    2.857    1.714    0.000    4.571 
#    0.000    2.857    0.000    0.000    0.000    0.000 
#    0.000    0.000    0.000    0.000    0.000    0.000 
#
# Total GULP energy -156011.214704 kJ/mol
# GULP energy per Si atom -5571.829097 kJ/mol
# Density = 1.918002 g / cm^3
# Si number density = 19.223775 Si / 1000 Ang^3
#
#
#
# Elastic Constant Matrix: (Units=GPa)
#
#
# Indices 1 2 3 4 5 6 
#
# 1 136.3927 27.1406 55.0896 0.0000 0.0000 0.0000
# 2 27.1406 86.1244 41.2239 0.0000 0.0000 0.0000
# 3 55.0896 41.2239 168.9732 0.0000 0.0000 0.0000
# 4 0.0000 0.0000 0.0000 21.2197 0.0000 0.0000
# 5 0.0000 0.0000 0.0000 0.0000 18.9023 0.0000
# 6 0.0000 0.0000 0.0000 0.0000 0.0000 169.6849
#
#
#
# Elastic Compliance Matrix: (Units=1/GPa)
#
#
# Indices 1 2 3 4 5 6 
#
# 1 0.008623 -0.001553 -0.002433 0.000000 0.000000 0.000000
# 2 -0.001553 0.013426 -0.002769 0.000000 0.000000 0.000000
# 3 -0.002433 -0.002769 0.007387 0.000000 0.000000 0.000000
# 4 0.000000 0.000000 0.000000 0.047126 0.000000 0.000000
# 5 0.000000 0.000000 0.000000 0.000000 0.052904 0.000000
# 6 0.000000 0.000000 0.000000 0.000000 0.000000 0.005893
#
#
# Mechanical properties :
#
#
# Convention : Reuss Voigt Hill
#
# Bulk Modulus (GPa) = 62.78850 70.93316 66.86083
# Shear Modulus (GPa) = 32.43013 59.83045 46.13029
#
# Velocity S-wave (km/s) = 4.11174 5.58487 4.90393
# Velocity P-wave (km/s) = 7.43470 8.86377 8.18050
#
# Compressibility (1/GPa) = 0.01592648
#
# Stress axis : x y z
#
# Youngs Moduli (GPa) = 115.96443 74.48223 135.37778
#
# Poissons Ratio (x) = 0.11568 0.32931
# Poissons Ratio (y) = 0.18011 0.37488
# Poissons Ratio (z) = 0.28208 0.20625
#
# Static dielectric constant tensor:
#      x y z
#    x 1.708310 0.000000 0.000000 
#    y 0.000000 1.642050 0.000000 
#    z 0.000000 0.000000 1.679620 
# 
# From -- ./inp_files/19780.got.cif
#   From: 2010.05.17/outbox.cif.g08.bks.cpg/sg57_10_cif.got.tgz:19780.got - 2010.06.03 13:58:18.
