data_PCOD9439148
_publ_section_title
;
Structure prediction by ZEFSAII (Michael W. Deem and Ramdas Pophale) SiO2 
 PCOD9439148
Probable space group: P B C M
;
_chemical_formula_sum "Si O2"
_cell_formula_units_Z 28
_cell_length_a 7.111415
_cell_length_b 9.675600
_cell_length_c 14.565743
_cell_angle_alpha 90.000000
_cell_angle_beta 90.000000
_cell_angle_gamma 90.000000
_cell_volume 1002.228093
_symmetry_space_group_name_H-M "P B C M"
_symmetry_group_IT_number 57
_symmetry_cell_setting 'orthorhombic'
loop_
_space_group_symop_operation_xyz
x,y,z
-x,-y,1/2+z
x,1/2-y,-z
-x,1/2+y,1/2-z
-x,-y,-z
x,y,1/2-z
-x,1/2+y,z
x,1/2-y,1/2+z
loop_
_atom_site_type_symbol
_atom_site_label
_atom_site_fract_x
_atom_site_fract_y
_atom_site_fract_z
Si Si1 0.328253 0.662388 0.250000
Si Si2 0.932027 0.391005 0.250000
Si Si3 0.833847 0.908774 0.592499
Si Si4 0.693990 0.792043 0.250000
Si Si5 0.725642 0.108262 0.450784
O O1 0.122081 0.730682 0.250000
O O2 0.471160 0.795482 0.250000
O O3 0.361509 0.595950 0.150731
O O4 0.853374 0.459917 0.340470
O O5 0.155469 0.414203 0.250000
O O6 0.750989 0.790324 0.657046
O O7 0.045944 0.875395 0.560520
O O8 0.710954 0.966497 0.508528
O O9 0.661081 0.250000 0.500000
#
# Coordination Sequence:
#
# PCOD9439148 Si02
#       5
#     4   4   8   4   8
#     4  12  23  40  63  91 135 165 200 277 315 372
#     4  11  20  45  65  93 132 163 214 266 315 377
#     4  10  21  40  71  91 124 176 213 260 316 384
#     4  11  23  41  66  98 127 170 210 251 330 381
#     4  11  21  41  67  93 128 168 214 268 318 368
#
# _framework density 27.937750000000001
#
# number of rings (size 3 to 8) (size 9 to 14) (size 15 to 20)
#    0.000    1.143    5.714    0.857    0.000    1.143 
#   10.286    7.143    0.000    0.000    0.000    0.000 
#    0.000    0.000    0.000    0.000    0.000    0.000 
#
# Total GULP energy -156894.301051 kJ/mol
# GULP energy per Si atom -5603.367895 kJ/mol
# Density = 2.787416 g / cm^3
# Si number density = 27.937750 Si / 1000 Ang^3
#
#
#
# Elastic Constant Matrix: (Units=GPa)
#
#
# Indices 1 2 3 4 5 6 
#
# 1 78.6995 -21.5918 9.4186 0.0000 0.0000 0.0000
# 2 -21.5918 65.7866 55.9998 0.0000 0.0000 0.0000
# 3 9.4186 55.9998 177.4441 0.0000 0.0000 0.0000
# 4 0.0000 0.0000 0.0000 47.1606 0.0000 0.0000
# 5 0.0000 0.0000 0.0000 0.0000 26.3576 0.0000
# 6 0.0000 0.0000 0.0000 0.0000 0.0000 37.1340
#
#
#
# Elastic Compliance Matrix: (Units=1/GPa)
#
#
# Indices 1 2 3 4 5 6 
#
# 1 0.015230 0.007776 -0.003262 0.000000 0.000000 0.000000
# 2 0.007776 0.024754 -0.008225 0.000000 0.000000 0.000000
# 3 -0.003262 -0.008225 0.008404 0.000000 0.000000 0.000000
# 4 0.000000 0.000000 0.000000 0.021204 0.000000 0.000000
# 5 0.000000 0.000000 0.000000 0.000000 0.037940 0.000000
# 6 0.000000 0.000000 0.000000 0.000000 0.000000 0.026930
#
#
# Mechanical properties :
#
#
# Convention : Reuss Voigt Hill
#
# Bulk Modulus (GPa) = 24.41056 45.50928 34.95992
# Shear Modulus (GPa) = 32.14596 40.67066 36.40831
#
# Velocity S-wave (km/s) = 3.39577 3.81958 3.61389
# Velocity P-wave (km/s) = 4.91238 5.98140 5.47305
#
# Compressibility (1/GPa) = 0.04096588
#
# Stress axis : x y z
#
# Youngs Moduli (GPa) = 65.65837 40.39738 118.98454
#
# Poissons Ratio (x) = -0.31412 0.38817
# Poissons Ratio (y) = -0.51055 0.97864
# Poissons Ratio (z) = 0.21420 0.33226
#
# Static dielectric constant tensor:
#      x y z
#    x 2.121630 0.000000 0.000000 
#    y 0.000000 2.269020 0.000000 
#    z 0.000000 0.000000 2.127430 
# 
# From -- ./inp_files/15470.got.cif
#   From: 2010.05.17/outbox.cif.g08.bks.cpg/sg57_8_cif.got.tgz:15470.got - 2010.06.03 13:58:18.
