data_PCOD9439036
_publ_section_title
;
Structure prediction by ZEFSAII (Michael W. Deem and Ramdas Pophale) SiO2 
 PCOD9439036
Probable space group: P B C M
;
_chemical_formula_sum "Si O2"
_cell_formula_units_Z 40
_cell_length_a 10.269288
_cell_length_b 8.908103
_cell_length_c 17.570422
_cell_angle_alpha 90.000000
_cell_angle_beta 90.000000
_cell_angle_gamma 90.000000
_cell_volume 1607.340012
_symmetry_space_group_name_H-M "P B C M"
_symmetry_group_IT_number 57
_symmetry_cell_setting 'orthorhombic'
loop_
_space_group_symop_operation_xyz
x,y,z
-x,-y,1/2+z
x,1/2-y,-z
-x,1/2+y,1/2-z
-x,-y,-z
x,y,1/2-z
-x,1/2+y,z
x,1/2-y,1/2+z
loop_
_atom_site_type_symbol
_atom_site_label
_atom_site_fract_x
_atom_site_fract_y
_atom_site_fract_z
Si Si1 0.331774 0.669278 0.088889
Si Si2 0.286281 0.442051 0.750000
Si Si3 0.599429 0.988462 0.915193
Si Si4 0.031395 0.042019 0.250000
Si Si5 0.235968 0.728129 0.250000
Si Si6 0.223457 0.250000 0.000000
Si Si7 0.928294 0.980841 0.080804
O O1 0.448772 0.553333 0.074590
O O2 0.325966 0.693931 0.179283
O O3 0.187599 0.604438 0.076091
O O4 0.362800 0.659574 0.936579
O O5 0.366751 0.451368 0.673234
O O6 0.197467 0.595693 0.750000
O O7 0.157338 0.341360 0.750000
O O8 0.687692 0.876788 0.963240
O O9 0.895543 0.137856 0.250000
O O10 0.009291 0.984358 0.159352
O O11 0.139398 0.319456 0.068325
O O12 0.000000 0.000000 0.000000
#
# Coordination Sequence:
#
# PCOD9439036 Si02
#       7
#     8   4   8   4   4   4   8
#     4  10  22  44  71 102 140 184 236 297 367 433
#     4  10  21  39  67 101 136 180 235 295 364 432
#     4  11  24  43  71 103 140 184 237 301 365 438
#     4  10  22  44  72 101 141 190 239 295 363 437
#     4   8  19  39  65 100 137 178 230 294 361 435
#     4  12  28  44  64 104 144 190 246 296 362 430
#     4  11  26  47  74 107 148 193 243 300 361 437
#
# _framework density 24.885835
#
# number of rings (size 3 to 8) (size 9 to 14) (size 15 to 20)
#    0.000    1.600    0.000    3.000    0.000   12.800 
#    0.000    4.000    0.000    0.000    0.000    1.400 
#    0.000    0.000    0.000    0.000    0.000    0.000 
#
# Total GULP energy -223486.816232 kJ/mol
# GULP energy per Si atom -5587.170406 kJ/mol
# Density = 2.482919 g / cm^3
# Si number density = 24.885835 Si / 1000 Ang^3
#
#
#
# Elastic Constant Matrix: (Units=GPa)
#
#
# Indices 1 2 3 4 5 6 
#
# 1 148.7252 50.9351 90.8188 0.0000 0.0000 0.0000
# 2 50.9351 106.4647 69.9459 0.0000 0.0000 0.0000
# 3 90.8188 69.9459 187.5708 0.0000 0.0000 0.0000
# 4 0.0000 0.0000 0.0000 34.9216 0.0000 0.0000
# 5 0.0000 0.0000 0.0000 0.0000 59.7336 0.0000
# 6 0.0000 0.0000 0.0000 0.0000 0.0000 12.7604
#
#
#
# Elastic Compliance Matrix: (Units=1/GPa)
#
#
# Indices 1 2 3 4 5 6 
#
# 1 0.009888 -0.002100 -0.004005 0.000000 0.000000 0.000000
# 2 -0.002100 0.012887 -0.003789 0.000000 0.000000 0.000000
# 3 -0.004005 -0.003789 0.008683 0.000000 0.000000 0.000000
# 4 0.000000 0.000000 0.000000 0.028636 0.000000 0.000000
# 5 0.000000 0.000000 0.000000 0.000000 0.016741 0.000000
# 6 0.000000 0.000000 0.000000 0.000000 0.000000 0.078367
#
#
# Mechanical properties :
#
#
# Convention : Reuss Voigt Hill
#
# Bulk Modulus (GPa) = 85.67854 96.24002 90.95928
# Shear Modulus (GPa) = 27.95180 36.88718 32.41949
#
# Velocity S-wave (km/s) = 3.35506 3.85418 3.61325
# Velocity P-wave (km/s) = 7.03647 7.65264 7.35101
#
# Compressibility (1/GPa) = 0.01167153
#
# Stress axis : x y z
#
# Youngs Moduli (GPa) = 101.12779 77.60045 115.16427
#
# Poissons Ratio (x) = 0.16294 0.46121
# Poissons Ratio (y) = 0.21234 0.43633
# Poissons Ratio (z) = 0.40500 0.29401
#
# Static dielectric constant tensor:
#      x y z
#    x 2.650530 0.000000 0.000000 
#    y 0.000000 2.503190 0.000000 
#    z 0.000000 0.000000 2.076360 
# 
# From -- ./inp_files/17470.got.cif
#   From: 2010.05.17/outbox.cif.g08.bks.cpg/sg57_9_cif.got.tgz:17470.got - 2010.06.03 13:58:18.
