data_PCOD9439888
_publ_section_title
;
Structure prediction by ZEFSAII (Michael W. Deem and Ramdas Pophale) SiO2 
 PCOD9439888
Probable space group: P B C M
;
_chemical_formula_sum "Si O2"
_cell_formula_units_Z 32
_cell_length_a 5.261692
_cell_length_b 13.504470
_cell_length_c 17.238539
_cell_angle_alpha 90.000000
_cell_angle_beta 90.000000
_cell_angle_gamma 90.000000
_cell_volume 1224.907863
_symmetry_space_group_name_H-M "P B C M"
_symmetry_group_IT_number 57
_symmetry_cell_setting 'orthorhombic'
loop_
_space_group_symop_operation_xyz
x,y,z
-x,-y,1/2+z
x,1/2-y,-z
-x,1/2+y,1/2-z
-x,-y,-z
x,y,1/2-z
-x,1/2+y,z
x,1/2-y,1/2+z
loop_
_atom_site_type_symbol
_atom_site_label
_atom_site_fract_x
_atom_site_fract_y
_atom_site_fract_z
Si Si1 0.349374 0.899992 0.662432
Si Si2 0.286055 0.966406 0.409821
Si Si3 0.638655 0.746825 0.250000
Si Si4 0.131460 0.882310 0.250000
Si Si5 0.994636 0.151355 0.030481
O O1 0.262293 0.921587 0.750000
O O2 0.436390 0.999215 0.618435
O O3 0.591814 0.827891 0.677827
O O4 0.150897 0.840974 0.611637
O O5 0.182956 0.060415 0.457441
O O6 0.141602 0.945923 0.328850
O O7 0.221098 0.876392 0.466327
O O8 0.394426 0.819367 0.250000
O O9 0.893200 0.808697 0.250000
O O10 0.123245 0.250000 0.000000
#
# Coordination Sequence:
#
# PCOD9439888 Si02
#       5
#     8   8   4   4   8
#     4  10  24  44  72 107 145 199 251 313 371 462
#     4  11  26  44  76 107 153 194 258 316 382 451
#     4  10  27  41  82 109 151 199 256 308 374 454
#     4  12  25  49  76 119 147 203 256 310 380 460
#     4  11  26  47  70 106 153 198 255 318 390 450
#
# _framework density 26.124410999999998
#
# number of rings (size 3 to 8) (size 9 to 14) (size 15 to 20)
#    0.750    0.500    1.250    2.250   12.250    1.000 
#    4.500    0.000    0.000    0.000    0.000    0.000 
#    0.000    0.000    0.000    0.000    0.000    0.000 
#
# Total GULP energy -179166.526068 kJ/mol
# GULP energy per Si atom -5598.953940 kJ/mol
# Density = 2.606495 g / cm^3
# Si number density = 26.124411 Si / 1000 Ang^3
#
#
#
# Elastic Constant Matrix: (Units=GPa)
#
#
# Indices 1 2 3 4 5 6 
#
# 1 83.0822 11.3244 32.4234 0.0000 0.0000 0.0000
# 2 11.3244 80.1648 25.6093 0.0000 0.0000 0.0000
# 3 32.4234 25.6093 161.8858 0.0000 0.0000 0.0000
# 4 0.0000 0.0000 0.0000 51.1136 0.0000 0.0000
# 5 0.0000 0.0000 0.0000 0.0000 36.2485 0.0000
# 6 0.0000 0.0000 0.0000 0.0000 0.0000 38.4395
#
#
#
# Elastic Compliance Matrix: (Units=1/GPa)
#
#
# Indices 1 2 3 4 5 6 
#
# 1 0.013143 -0.001070 -0.002463 0.000000 0.000000 0.000000
# 2 -0.001070 0.013225 -0.001878 0.000000 0.000000 0.000000
# 3 -0.002463 -0.001878 0.006968 0.000000 0.000000 0.000000
# 4 0.000000 0.000000 0.000000 0.019564 0.000000 0.000000
# 5 0.000000 0.000000 0.000000 0.000000 0.027587 0.000000
# 6 0.000000 0.000000 0.000000 0.000000 0.000000 0.026015
#
#
# Mechanical properties :
#
#
# Convention : Reuss Voigt Hill
#
# Bulk Modulus (GPa) = 44.41576 51.53857 47.97716
# Shear Modulus (GPa) = 40.05463 42.21202 41.13332
#
# Velocity S-wave (km/s) = 3.91989 4.02407 3.97232
# Velocity P-wave (km/s) = 6.12584 6.43132 6.28044
#
# Compressibility (1/GPa) = 0.02251453
#
# Stress axis : x y z
#
# Youngs Moduli (GPa) = 76.08400 75.61243 143.52128
#
# Poissons Ratio (x) = 0.08089 0.35352
# Poissons Ratio (y) = 0.08139 0.26952
# Poissons Ratio (z) = 0.18741 0.14199
#
# Static dielectric constant tensor:
#      x y z
#    x 2.067110 0.000000 0.000000 
#    y 0.000000 2.056530 0.000000 
#    z 0.000000 0.000000 2.030480 
# 
# From -- ./inp_files/19917.got.cif
#   From: 2010.05.17/outbox.cif.g08.bks.cpg/sg57_10_cif.got.tgz:19917.got - 2010.06.03 13:58:18.
