data_PCOD9439758
_publ_section_title
;
Structure prediction by ZEFSAII (Michael W. Deem and Ramdas Pophale) SiO2 
 PCOD9439758
Probable space group: P B C M
;
_chemical_formula_sum "Si O2"
_cell_formula_units_Z 40
_cell_length_a 11.117150
_cell_length_b 8.798020
_cell_length_c 20.273561
_cell_angle_alpha 90.000000
_cell_angle_beta 90.000000
_cell_angle_gamma 90.000000
_cell_volume 1982.934864
_symmetry_space_group_name_H-M "P B C M"
_symmetry_group_IT_number 57
_symmetry_cell_setting 'orthorhombic'
loop_
_space_group_symop_operation_xyz
x,y,z
-x,-y,1/2+z
x,1/2-y,-z
-x,1/2+y,1/2-z
-x,-y,-z
x,y,1/2-z
-x,1/2+y,z
x,1/2-y,1/2+z
loop_
_atom_site_type_symbol
_atom_site_label
_atom_site_fract_x
_atom_site_fract_y
_atom_site_fract_z
Si Si1 0.235276 0.492055 0.374311
Si Si2 0.914307 0.017907 0.750000
Si Si3 0.202166 0.349886 0.624501
Si Si4 0.033323 0.867628 0.951601
Si Si5 0.175414 0.864516 0.750000
Si Si6 0.632126 0.931885 0.991711
O O1 0.248884 0.315957 0.353390
O O2 0.104216 0.557328 0.392506
O O3 0.260585 0.599912 0.312644
O O4 0.298310 0.500659 0.445430
O O5 0.851079 0.944278 0.814625
O O6 0.058019 0.979366 0.750000
O O7 0.884086 0.197532 0.750000
O O8 0.295207 0.443685 0.577873
O O9 0.090322 0.302734 0.577244
O O10 0.099008 0.750000 0.000000
O O11 0.000000 0.000000 0.000000
O O12 0.626287 0.750000 0.000000
O O13 0.500000 0.000000 0.000000
#
# Coordination Sequence:
#
# PCOD9439758 Si02
#       6
#     8   4   8   8   4   8
#     4  11  23  40  61  88 128 163 204 254 309 367
#     4  12  26  38  59  90 131 168 207 247 307 379
#     4  11  22  41  60  89 126 163 204 255 309 366
#     4  12  21  33  57  91 123 159 201 247 306 367
#     4  12  26  38  57  92 129 170 205 245 309 379
#     4  10  23  43  67  92 119 157 207 262 311 360
#
# _framework density 20.172121000000001
#
# number of rings (size 3 to 8) (size 9 to 14) (size 15 to 20)
#    0.000    0.800    6.000    2.400    2.800    2.400 
#    0.000    1.000    0.000    0.000    0.000    0.000 
#    0.000    0.000    0.000    0.000    0.000    0.000 
#
# Total GULP energy -222841.202098 kJ/mol
# GULP energy per Si atom -5571.030052 kJ/mol
# Density = 2.012621 g / cm^3
# Si number density = 20.172121 Si / 1000 Ang^3
#
#
#
# Elastic Constant Matrix: (Units=GPa)
#
#
# Indices 1 2 3 4 5 6 
#
# 1 66.7405 5.5785 25.0239 0.0000 0.0000 0.0000
# 2 5.5785 79.8859 32.7006 0.0000 0.0000 0.0000
# 3 25.0239 32.7006 124.9542 0.0000 0.0000 0.0000
# 4 0.0000 0.0000 0.0000 33.2951 0.0000 0.0000
# 5 0.0000 0.0000 0.0000 0.0000 11.6355 0.0000
# 6 0.0000 0.0000 0.0000 0.0000 0.0000 27.1058
#
#
#
# Elastic Compliance Matrix: (Units=1/GPa)
#
#
# Indices 1 2 3 4 5 6 
#
# 1 0.016203 0.000220 -0.003303 0.000000 0.000000 0.000000
# 2 0.000220 0.014023 -0.003714 0.000000 0.000000 0.000000
# 3 -0.003303 -0.003714 0.009636 0.000000 0.000000 0.000000
# 4 0.000000 0.000000 0.000000 0.030034 0.000000 0.000000
# 5 0.000000 0.000000 0.000000 0.000000 0.085944 0.000000
# 6 0.000000 0.000000 0.000000 0.000000 0.000000 0.036893
#
#
# Mechanical properties :
#
#
# Convention : Reuss Voigt Hill
#
# Bulk Modulus (GPa) = 38.06618 44.24295 41.15456
# Shear Modulus (GPa) = 23.24697 28.29245 25.76971
#
# Velocity S-wave (km/s) = 3.39843 3.74913 3.57808
# Velocity P-wave (km/s) = 5.85754 6.38135 6.12505
#
# Compressibility (1/GPa) = 0.02627004
#
# Stress axis : x y z
#
# Youngs Moduli (GPa) = 61.71591 71.31290 103.77466
#
# Poissons Ratio (x) = -0.01572 0.34273
# Poissons Ratio (y) = -0.01360 0.38541
# Poissons Ratio (z) = 0.20382 0.26485
#
# Static dielectric constant tensor:
#      x y z
#    x 1.808040 0.000000 0.000000 
#    y 0.000000 1.773640 0.000000 
#    z 0.000000 0.000000 1.534970 
# 
# From -- ./inp_files/21658.got.cif
#   From: 2010.05.17/outbox.cif.g08.bks.cpg/sg57_11_cif.got.tgz:21658.got - 2010.06.03 13:58:18.
