data_PCOD9439670
_publ_section_title
;
Structure prediction by ZEFSAII (Michael W. Deem and Ramdas Pophale) SiO2 
 PCOD9439670
Probable space group: P B C M
;
_chemical_formula_sum "Si O2"
_cell_formula_units_Z 28
_cell_length_a 13.073114
_cell_length_b 5.105404
_cell_length_c 20.626217
_cell_angle_alpha 90.000000
_cell_angle_beta 90.000000
_cell_angle_gamma 90.000000
_cell_volume 1376.666502
_symmetry_space_group_name_H-M "P B C M"
_symmetry_group_IT_number 57
_symmetry_cell_setting 'orthorhombic'
loop_
_space_group_symop_operation_xyz
x,y,z
-x,-y,1/2+z
x,1/2-y,-z
-x,1/2+y,1/2-z
-x,-y,-z
x,y,1/2-z
-x,1/2+y,z
x,1/2-y,1/2+z
loop_
_atom_site_type_symbol
_atom_site_label
_atom_site_fract_x
_atom_site_fract_y
_atom_site_fract_z
Si Si1 0.929921 0.342171 0.323600
Si Si2 0.445785 0.710465 0.421920
Si Si3 0.923307 0.750000 0.000000
Si Si4 0.785346 0.106370 0.070003
O O1 0.889790 0.318079 0.250000
O O2 0.847723 0.268769 0.377202
O O3 0.980622 0.625555 0.330783
O O4 0.454627 0.750000 0.500000
O O5 0.528009 0.499604 0.397272
O O6 0.332915 0.597868 0.410378
O O7 0.844245 0.833083 0.056948
O O8 0.000000 0.500000 0.000000
O O9 0.788121 0.250000 0.000000
#
# Coordination Sequence:
#
# PCOD9439670 Si02
#       4
#     8   8   4   8
#     4  10  23  40  57  80 115 157 191 224 278 349
#     4   9  20  34  53  79 113 145 184 233 285 340
#     4  12  24  34  48  84 116 140 178 230 276 326
#     4  11  24  36  61  87 116 151 191 238 293 328
#
# _framework density 20.338985999999998
#
# number of rings (size 3 to 8) (size 9 to 14) (size 15 to 20)
#    0.000    1.714    1.429    1.714   14.000    0.000 
#    0.000    0.000    0.000    1.714    0.000    0.000 
#    0.000    0.000    0.000    0.000    0.000    0.000 
#
# Total GULP energy -156237.370486 kJ/mol
# GULP energy per Si atom -5579.906089 kJ/mol
# Density = 2.029269 g / cm^3
# Si number density = 20.338986 Si / 1000 Ang^3
#
#
#
# Elastic Constant Matrix: (Units=GPa)
#
#
# Indices 1 2 3 4 5 6 
#
# 1 118.5752 39.6320 29.4069 0.0000 0.0000 0.0000
# 2 39.6320 114.5021 13.3513 0.0000 0.0000 0.0000
# 3 29.4069 13.3513 75.4665 0.0000 0.0000 0.0000
# 4 0.0000 0.0000 0.0000 21.1757 0.0000 0.0000
# 5 0.0000 0.0000 0.0000 0.0000 11.4168 0.0000
# 6 0.0000 0.0000 0.0000 0.0000 0.0000 27.0422
#
#
#
# Elastic Compliance Matrix: (Units=1/GPa)
#
#
# Indices 1 2 3 4 5 6 
#
# 1 0.010358 -0.003180 -0.003474 0.000000 0.000000 0.000000
# 2 -0.003180 0.009894 -0.000511 0.000000 0.000000 0.000000
# 3 -0.003474 -0.000511 0.014695 0.000000 0.000000 0.000000
# 4 0.000000 0.000000 0.000000 0.047224 0.000000 0.000000
# 5 0.000000 0.000000 0.000000 0.000000 0.087590 0.000000
# 6 0.000000 0.000000 0.000000 0.000000 0.000000 0.036979
#
#
# Mechanical properties :
#
#
# Convention : Reuss Voigt Hill
#
# Bulk Modulus (GPa) = 48.50391 52.59159 50.54775
# Shear Modulus (GPa) = 21.93543 27.00384 24.46963
#
# Velocity S-wave (km/s) = 3.28760 3.64770 3.47232
# Velocity P-wave (km/s) = 6.18956 6.60716 6.40177
#
# Compressibility (1/GPa) = 0.02061689
#
# Stress axis : x y z
#
# Youngs Moduli (GPa) = 96.54570 101.07366 68.05094
#
# Poissons Ratio (x) = 0.32142 0.23638
# Poissons Ratio (y) = 0.30702 0.03479
# Poissons Ratio (z) = 0.33535 0.05167
#
# Static dielectric constant tensor:
#      x y z
#    x 1.732810 0.000000 0.000000 
#    y 0.000000 1.779950 0.000000 
#    z 0.000000 0.000000 1.795110 
# 
# From -- ./inp_files/24767.got.cif
#   From: 2010.05.17/outbox.cif.g08.bks.cpg/sg57_13_cif.got.tgz:24767.got - 2010.06.03 13:58:18.
