data_PCOD9439497
_publ_section_title
;
Structure prediction by ZEFSAII (Michael W. Deem and Ramdas Pophale) SiO2 
 PCOD9439497
Probable space group: P B C M
;
_chemical_formula_sum "Si O2"
_cell_formula_units_Z 40
_cell_length_a 4.928989
_cell_length_b 22.267714
_cell_length_c 14.239319
_cell_angle_alpha 90.000000
_cell_angle_beta 90.000000
_cell_angle_gamma 90.000000
_cell_volume 1562.869454
_symmetry_space_group_name_H-M "P B C M"
_symmetry_group_IT_number 57
_symmetry_cell_setting 'orthorhombic'
loop_
_space_group_symop_operation_xyz
x,y,z
-x,-y,1/2+z
x,1/2-y,-z
-x,1/2+y,1/2-z
-x,-y,-z
x,y,1/2-z
-x,1/2+y,z
x,1/2-y,1/2+z
loop_
_atom_site_type_symbol
_atom_site_label
_atom_site_fract_x
_atom_site_fract_y
_atom_site_fract_z
Si Si1 0.767954 0.875404 0.508772
Si Si2 0.882759 0.280342 0.601107
Si Si3 0.058061 0.957507 0.142016
Si Si4 0.558907 0.038596 0.141851
Si Si5 0.391726 0.211867 0.651343
O O1 0.969857 0.842959 0.582608
O O2 0.954349 0.911000 0.434419
O O3 0.557800 0.915293 0.566937
O O4 0.603060 0.828976 0.441599
O O5 0.870940 0.250000 0.500000
O O6 0.090863 0.237604 0.654571
O O7 0.587695 0.269696 0.642361
O O8 0.016447 0.937016 0.250000
O O9 0.864850 0.015950 0.128435
O O10 0.365701 0.979675 0.131869
O O11 0.528568 0.059752 0.250000
O O12 0.458725 0.180085 0.750000
#
# Coordination Sequence:
#
# PCOD9439497 Si02
#       5
#     8   8   8   8   8
#     4  11  23  42  69  94 126 176 222 267 329 397
#     4  10  23  41  61  90 126 164 214 271 324 383
#     4  10  22  41  64  96 132 167 213 270 326 390
#     4  10  23  40  62  96 134 169 213 267 327 391
#     4  11  24  42  63  92 128 168 217 273 326 385
#
# _framework density 25.593945999999999
#
# number of rings (size 3 to 8) (size 9 to 14) (size 15 to 20)
#    0.000    1.600    0.000    4.200    0.000   11.200 
#    0.000    8.000    0.000    2.400    0.000    0.000 
#    0.000    0.000    0.000    0.000    0.000    0.000 
#
# Total GULP energy -224065.168348 kJ/mol
# GULP energy per Si atom -5601.629209 kJ/mol
# Density = 2.553569 g / cm^3
# Si number density = 25.593946 Si / 1000 Ang^3
#
#
#
# Elastic Constant Matrix: (Units=GPa)
#
#
# Indices 1 2 3 4 5 6 
#
# 1 89.5342 -4.0773 11.7043 0.0000 0.0000 0.0000
# 2 -4.0773 66.7207 36.6459 0.0000 0.0000 0.0000
# 3 11.7043 36.6459 128.3169 0.0000 0.0000 0.0000
# 4 0.0000 0.0000 0.0000 -13.7147 0.0000 0.0000
# 5 0.0000 0.0000 0.0000 0.0000 33.1165 0.0000
# 6 0.0000 0.0000 0.0000 0.0000 0.0000 29.5836
#
#
#
# Elastic Compliance Matrix: (Units=1/GPa)
#
#
# Indices 1 2 3 4 5 6 
#
# 1 0.011430 0.001508 -0.001473 0.000000 0.000000 0.000000
# 2 0.001508 0.017975 -0.005271 0.000000 0.000000 0.000000
# 3 -0.001473 -0.005271 0.009433 0.000000 0.000000 0.000000
# 4 0.000000 0.000000 0.000000 -0.072915 0.000000 0.000000
# 5 0.000000 0.000000 0.000000 0.000000 0.030196 0.000000
# 6 0.000000 0.000000 0.000000 0.000000 0.000000 0.033802
#
#
# Mechanical properties :
#
#
# Convention : Reuss Voigt Hill
#
# Bulk Modulus (GPa) = 35.25465 41.45751 38.35608
# Shear Modulus (GPa) = 100.29989 25.81702 63.05845
#
# Velocity S-wave (km/s) = 6.26690 3.17947 4.96906
# Velocity P-wave (km/s) = 8.13448 5.45088 6.92394
#
# Compressibility (1/GPa) = 0.02836505
#
# Stress axis : x y z
#
# Youngs Moduli (GPa) = 87.48787 55.63275 106.01175
#
# Poissons Ratio (x) = -0.08387 0.15617
# Poissons Ratio (y) = -0.13190 0.55879
# Poissons Ratio (z) = 0.12888 0.29324
#
# Static dielectric constant tensor:
#      x y z
#    x 1.964840 0.000000 0.000000 
#    y 0.000000 2.068110 0.000000 
#    z 0.000000 0.000000 2.397650 
# 
# From -- ./inp_files/14957.got.cif
#   From: 2010.05.17/outbox.cif.g08.bks.cpg/sg57_8_cif.got.tgz:14957.got - 2010.06.03 13:58:18.
