data_PCOD9439150
_publ_section_title
;
Structure prediction by ZEFSAII (Michael W. Deem and Ramdas Pophale) SiO2 
 PCOD9439150
Probable space group: P B C M
;
_chemical_formula_sum "Si O2"
_cell_formula_units_Z 40
_cell_length_a 13.642907
_cell_length_b 12.037885
_cell_length_c 10.271292
_cell_angle_alpha 90.000000
_cell_angle_beta 90.000000
_cell_angle_gamma 90.000000
_cell_volume 1686.872214
_symmetry_space_group_name_H-M "P B C M"
_symmetry_group_IT_number 57
_symmetry_cell_setting 'orthorhombic'
loop_
_space_group_symop_operation_xyz
x,y,z
-x,-y,1/2+z
x,1/2-y,-z
-x,1/2+y,1/2-z
-x,-y,-z
x,y,1/2-z
-x,1/2+y,z
x,1/2-y,1/2+z
loop_
_atom_site_type_symbol
_atom_site_label
_atom_site_fract_x
_atom_site_fract_y
_atom_site_fract_z
Si Si1 0.645259 0.100233 0.525341
Si Si2 0.855800 0.675885 0.250000
Si Si3 0.193293 0.417544 0.250000
Si Si4 0.455860 0.577639 0.250000
Si Si5 0.298242 0.369171 0.977775
Si Si6 0.829307 0.250000 0.500000
Si Si7 0.485908 0.682748 0.750000
Si Si8 0.924626 0.145822 0.250000
O O1 0.606914 0.098628 0.379571
O O2 0.755134 0.148316 0.532091
O O3 0.580491 0.171729 0.621801
O O4 0.638760 0.972119 0.571573
O O5 0.874824 0.808275 0.250000
O O6 0.790024 0.649075 0.376175
O O7 0.960432 0.618638 0.250000
O O8 0.256046 0.405084 0.381762
O O9 0.136679 0.532287 0.250000
O O10 0.466709 0.441802 0.250000
O O11 0.527779 0.690102 0.250000
O O12 0.348391 0.250000 0.000000
O O13 0.893924 0.214812 0.377461
#
# Coordination Sequence:
#
# PCOD9439150 Si02
#       8
#     8   4   4   4   8   4   4   4
#     4  12  23  44  71  96 138 177 227 281 326 416
#     4  10  25  41  59  97 136 170 231 295 345 394
#     4  10  21  41  61  83 130 173 217 281 354 385
#     4  12  26  45  71 105 142 181 217 283 347 412
#     4  10  22  41  66  93 129 182 230 279 344 400
#     4  12  24  42  70 102 126 184 238 268 352 398
#     4  12  26  44  71 104 144 173 221 279 351 407
#     4  12  26  41  66  97 134 177 236 288 341 416
#
# _framework density 23.712523999999998
#
# number of rings (size 3 to 8) (size 9 to 14) (size 15 to 20)
#    0.000    0.800    4.000    3.000    4.200    4.000 
#    0.000    0.000    0.000    0.000    0.000    0.000 
#    0.000    0.000    0.000    0.000    0.000    0.000 
#
# Total GULP energy -223719.557091 kJ/mol
# GULP energy per Si atom -5592.988927 kJ/mol
# Density = 2.365855 g / cm^3
# Si number density = 23.712524 Si / 1000 Ang^3
#
#
#
# Elastic Constant Matrix: (Units=GPa)
#
#
# Indices 1 2 3 4 5 6 
#
# 1 46.5999 27.6065 33.8738 0.0000 0.0000 0.0000
# 2 27.6065 219.8912 31.9006 0.0000 0.0000 0.0000
# 3 33.8738 31.9006 168.0323 0.0000 0.0000 0.0000
# 4 0.0000 0.0000 0.0000 48.7438 0.0000 0.0000
# 5 0.0000 0.0000 0.0000 0.0000 15.7263 0.0000
# 6 0.0000 0.0000 0.0000 0.0000 0.0000 23.5085
#
#
#
# Elastic Compliance Matrix: (Units=1/GPa)
#
#
# Indices 1 2 3 4 5 6 
#
# 1 0.026543 -0.002629 -0.004852 0.000000 0.000000 0.000000
# 2 -0.002629 0.004937 -0.000407 0.000000 0.000000 0.000000
# 3 -0.004852 -0.000407 0.007007 0.000000 0.000000 0.000000
# 4 0.000000 0.000000 0.000000 0.020515 0.000000 0.000000
# 5 0.000000 0.000000 0.000000 0.000000 0.063588 0.000000
# 6 0.000000 0.000000 0.000000 0.000000 0.000000 0.042538
#
#
# Mechanical properties :
#
#
# Convention : Reuss Voigt Hill
#
# Bulk Modulus (GPa) = 44.03097 69.03167 56.53132
# Shear Modulus (GPa) = 26.52890 40.33856 33.43373
#
# Velocity S-wave (km/s) = 3.34843 4.12897 3.75902
# Velocity P-wave (km/s) = 5.79295 7.20461 6.53700
#
# Compressibility (1/GPa) = 0.02271129
#
# Stress axis : x y z
#
# Youngs Moduli (GPa) = 37.67422 202.56030 142.72118
#
# Poissons Ratio (x) = 0.53244 0.69247
# Poissons Ratio (y) = 0.09903 0.05814
# Poissons Ratio (z) = 0.18279 0.08251
#
# Static dielectric constant tensor:
#      x y z
#    x 1.872350 0.000000 0.000000 
#    y 0.000000 1.982270 0.000000 
#    z 0.000000 0.000000 1.835910 
# 
# From -- ./inp_files/6346.got.cif
#   From: 2010.05.17/outbox.cif.g08.bks.cpg/sg57_4_cif.got.tgz:6346.got - 2010.06.03 13:58:18.
