data_PCOD9439541
_publ_section_title
;
Structure prediction by ZEFSAII (Michael W. Deem and Ramdas Pophale) SiO2 
 PCOD9439541
Probable space group: P B C M
;
_chemical_formula_sum "Si O2"
_cell_formula_units_Z 40
_cell_length_a 23.235021
_cell_length_b 5.424043
_cell_length_c 14.737560
_cell_angle_alpha 90.000000
_cell_angle_beta 90.000000
_cell_angle_gamma 90.000000
_cell_volume 1857.341572
_symmetry_space_group_name_H-M "P B C M"
_symmetry_group_IT_number 57
_symmetry_cell_setting 'orthorhombic'
loop_
_space_group_symop_operation_xyz
x,y,z
-x,-y,1/2+z
x,1/2-y,-z
-x,1/2+y,1/2-z
-x,-y,-z
x,y,1/2-z
-x,1/2+y,z
x,1/2-y,1/2+z
loop_
_atom_site_type_symbol
_atom_site_label
_atom_site_fract_x
_atom_site_fract_y
_atom_site_fract_z
Si Si1 0.724177 0.947809 0.148297
Si Si2 0.377841 0.150823 0.101914
Si Si3 0.842873 0.001604 0.057962
Si Si4 0.032067 0.906063 0.640170
Si Si5 0.464616 0.168424 0.750000
Si Si6 0.655115 0.250000 0.000000
O O1 0.713528 0.046304 0.250000
O O2 0.686544 0.696442 0.140354
O O3 0.791668 0.943894 0.128829
O O4 0.697365 0.088731 0.062256
O O5 0.423564 0.278800 0.164567
O O6 0.382318 0.250000 0.000000
O O7 0.384348 0.865106 0.079305
O O8 0.903642 0.056485 0.104846
O O9 0.847788 0.750000 0.000000
O O10 0.828873 0.250000 0.000000
O O11 0.032572 0.905832 0.750000
O O12 0.993968 0.142296 0.610708
O O13 0.510357 0.393641 0.750000
#
# Coordination Sequence:
#
# PCOD9439541 Si02
#       6
#     8   8   8   8   4   4
#     4  11  23  42  70 101 140 186 230 296 359 421
#     4  10  24  45  72 102 141 188 230 294 355 414
#     4  12  25  42  64 100 142 175 238 294 351 429
#     4  10  22  42  65  91 130 183 237 291 350 419
#     4  12  30  48  74 110 146 186 244 282 342 426
#     4  10  22  42  70  98 140 178 236 282 366 414
#
# _framework density 21.536159000000001
#
# number of rings (size 3 to 8) (size 9 to 14) (size 15 to 20)
#    0.000    1.200    2.000    3.600    7.000    3.200 
#    0.000    2.000    0.000    0.000    0.000    0.000 
#    0.000    0.000    0.000    0.000    0.000    0.000 
#
# Total GULP energy -222993.385452 kJ/mol
# GULP energy per Si atom -5574.834636 kJ/mol
# Density = 2.148714 g / cm^3
# Si number density = 21.536159 Si / 1000 Ang^3
#
#
#
# Elastic Constant Matrix: (Units=GPa)
#
#
# Indices 1 2 3 4 5 6 
#
# 1 74.9755 13.4746 28.6968 0.0000 0.0000 0.0000
# 2 13.4746 84.9552 17.5316 0.0000 0.0000 0.0000
# 3 28.6968 17.5316 105.9421 0.0000 0.0000 0.0000
# 4 0.0000 0.0000 0.0000 17.4658 0.0000 0.0000
# 5 0.0000 0.0000 0.0000 0.0000 52.4288 0.0000
# 6 0.0000 0.0000 0.0000 0.0000 0.0000 23.4154
#
#
#
# Elastic Compliance Matrix: (Units=1/GPa)
#
#
# Indices 1 2 3 4 5 6 
#
# 1 0.015089 -0.001605 -0.003822 0.000000 0.000000 0.000000
# 2 -0.001605 0.012358 -0.001610 0.000000 0.000000 0.000000
# 3 -0.003822 -0.001610 0.010741 0.000000 0.000000 0.000000
# 4 0.000000 0.000000 0.000000 0.057255 0.000000 0.000000
# 5 0.000000 0.000000 0.000000 0.000000 0.019073 0.000000
# 6 0.000000 0.000000 0.000000 0.000000 0.000000 0.042707
#
#
# Mechanical properties :
#
#
# Convention : Reuss Voigt Hill
#
# Bulk Modulus (GPa) = 41.46932 42.80875 42.13903
# Shear Modulus (GPa) = 27.88098 32.40664 30.14381
#
# Velocity S-wave (km/s) = 3.60198 3.88333 3.74529
# Velocity P-wave (km/s) = 6.04950 6.32675 6.18968
#
# Compressibility (1/GPa) = 0.02411422
#
# Stress axis : x y z
#
# Youngs Moduli (GPa) = 66.27446 80.92102 93.10312
#
# Poissons Ratio (x) = 0.12984 0.35580
# Poissons Ratio (y) = 0.10634 0.14993
# Poissons Ratio (z) = 0.25327 0.13031
#
# Static dielectric constant tensor:
#      x y z
#    x 1.761690 0.000000 0.000000 
#    y 0.000000 2.291810 0.000000 
#    z 0.000000 0.000000 1.766440 
# 
# From -- ./inp_files/19444.got.cif
#   From: 2010.05.17/outbox.cif.g08.bks.cpg/sg57_10_cif.got.tgz:19444.got - 2010.06.03 13:58:18.
