data_PCOD9439827
_publ_section_title
;
Structure prediction by ZEFSAII (Michael W. Deem and Ramdas Pophale) SiO2 
 PCOD9439827
Probable space group: P B C M
;
_chemical_formula_sum "Si O2"
_cell_formula_units_Z 32
_cell_length_a 29.636603
_cell_length_b 4.604963
_cell_length_c 8.744022
_cell_angle_alpha 90.000000
_cell_angle_beta 90.000000
_cell_angle_gamma 90.000000
_cell_volume 1193.344427
_symmetry_space_group_name_H-M "P B C M"
_symmetry_group_IT_number 57
_symmetry_cell_setting 'orthorhombic'
loop_
_space_group_symop_operation_xyz
x,y,z
-x,-y,1/2+z
x,1/2-y,-z
-x,1/2+y,1/2-z
-x,-y,-z
x,y,1/2-z
-x,1/2+y,z
x,1/2-y,1/2+z
loop_
_atom_site_type_symbol
_atom_site_label
_atom_site_fract_x
_atom_site_fract_y
_atom_site_fract_z
Si Si1 0.589760 0.250000 0.000000
Si Si2 0.710107 0.064733 0.250000
Si Si3 0.911369 0.750000 0.000000
Si Si4 0.351450 0.062212 0.250000
Si Si5 0.839700 0.554467 0.250000
Si Si6 0.231963 0.250000 0.500000
Si Si7 0.968931 0.430818 0.750000
Si Si8 0.469495 0.442836 0.250000
O O1 0.621056 0.046518 0.895548
O O2 0.558188 0.450869 0.895318
O O3 0.661831 0.897456 0.250000
O O4 0.737605 0.961466 0.397348
O O5 0.696822 0.399096 0.250000
O O6 0.878913 0.923030 0.883652
O O7 0.941528 0.536412 0.897369
O O8 0.800509 0.576865 0.383757
O O9 0.982875 0.097200 0.750000
O O10 0.482182 0.107044 0.250000
#
# Coordination Sequence:
#
# PCOD9439827 Si02
#       8
#     4   4   4   4   4   4   4   4
#     4  10  24  40  62  87 120 154 192 239 286 344
#     4  11  22  38  62  87 118 152 190 239 286 342
#     4   9  18  34  60  84 120 154 192 244 292 344
#     4  11  24  40  60  90 120 154 192 234 292 344
#     4   8  16  34  60  87 116 154 196 239 292 344
#     4   9  18  34  62  87 116 152 196 239 286 344
#     4  11  22  37  60  87 116 154 196 239 292 349
#     4  11  24  41  62  87 116 154 196 239 286 337
#
# _framework density 26.815391000000002
#
# number of rings (size 3 to 8) (size 9 to 14) (size 15 to 20)
#    0.000    2.000    0.000    3.000    0.000    6.000 
#    0.000    0.000    0.000  105.000    0.000    0.000 
#    0.000    0.000    0.000    0.000    0.000    0.000 
#
# Total GULP energy -178862.113472 kJ/mol
# GULP energy per Si atom -5589.441046 kJ/mol
# Density = 2.675436 g / cm^3
# Si number density = 26.815391 Si / 1000 Ang^3
#
#
#
# Elastic Constant Matrix: (Units=GPa)
#
#
# Indices 1 2 3 4 5 6 
#
# 1 153.3005 28.1053 70.2535 0.0000 0.0000 0.0000
# 2 28.1053 89.0773 29.5415 0.0000 0.0000 0.0000
# 3 70.2535 29.5415 221.8023 0.0000 0.0000 0.0000
# 4 0.0000 0.0000 0.0000 21.3873 0.0000 0.0000
# 5 0.0000 0.0000 0.0000 0.0000 117.6096 0.0000
# 6 0.0000 0.0000 0.0000 0.0000 0.0000 -63.9689
#
#
#
# Elastic Compliance Matrix: (Units=1/GPa)
#
#
# Indices 1 2 3 4 5 6 
#
# 1 0.007879 -0.001735 -0.002265 0.000000 0.000000 0.000000
# 2 -0.001735 0.012127 -0.001066 0.000000 0.000000 0.000000
# 3 -0.002265 -0.001066 0.005368 0.000000 0.000000 0.000000
# 4 0.000000 0.000000 0.000000 0.046757 0.000000 0.000000
# 5 0.000000 0.000000 0.000000 0.000000 0.008503 0.000000
# 6 0.000000 0.000000 0.000000 0.000000 0.000000 -0.015633
#
#
# Mechanical properties :
#
#
# Convention : Reuss Voigt Hill
#
# Bulk Modulus (GPa) = 65.60176 79.99788 72.79982
# Shear Modulus (GPa) = 62.33485 37.42425 49.87955
#
# Velocity S-wave (km/s) = 4.82663 3.73986 4.31758
# Velocity P-wave (km/s) = 7.45514 6.96752 7.21545
#
# Compressibility (1/GPa) = 0.01524349
#
# Stress axis : x y z
#
# Youngs Moduli (GPa) = 126.92012 82.46053 186.29920
#
# Poissons Ratio (x) = 0.14306 0.42188
# Poissons Ratio (y) = 0.22020 0.19853
# Poissons Ratio (z) = 0.28741 0.08787
#
# Static dielectric constant tensor:
#      x y z
#    x 2.034840 0.000000 0.000000 
#    y 0.000000 2.043620 0.000000 
#    z 0.000000 0.000000 2.035140 
# 
# From -- ./inp_files/9612.got.cif
#   From: 2010.05.17/outbox.cif.g08.bks.cpg/sg57_5_cif.got.tgz:9612.got - 2010.06.03 13:58:18.
