data_PCOD9439830
_publ_section_title
;
Structure prediction by ZEFSAII (Michael W. Deem and Ramdas Pophale) SiO2 
 PCOD9439830
Probable space group: P B C M
;
_chemical_formula_sum "Si O2"
_cell_formula_units_Z 32
_cell_length_a 28.474679
_cell_length_b 4.752332
_cell_length_c 9.089539
_cell_angle_alpha 90.000000
_cell_angle_beta 90.000000
_cell_angle_gamma 90.000000
_cell_volume 1230.006672
_symmetry_space_group_name_H-M "P B C M"
_symmetry_group_IT_number 57
_symmetry_cell_setting 'orthorhombic'
loop_
_space_group_symop_operation_xyz
x,y,z
-x,-y,1/2+z
x,1/2-y,-z
-x,1/2+y,1/2-z
-x,-y,-z
x,y,1/2-z
-x,1/2+y,z
x,1/2-y,1/2+z
loop_
_atom_site_type_symbol
_atom_site_label
_atom_site_fract_x
_atom_site_fract_y
_atom_site_fract_z
Si Si1 0.395708 0.998516 0.750000
Si Si2 0.271429 0.250000 0.500000
Si Si3 0.787717 0.455910 0.750000
Si Si4 0.333837 0.511176 0.750000
Si Si5 0.462131 0.750000 0.500000
Si Si6 0.090762 0.750000 0.000000
Si Si7 0.031039 0.040976 0.750000
Si Si8 0.849754 0.956664 0.750000
O O1 0.346258 0.837410 0.750000
O O2 0.425738 0.883293 0.615603
O O3 0.382207 0.326029 0.750000
O O4 0.239766 0.444507 0.394545
O O5 0.304695 0.429107 0.606914
O O6 0.800604 0.129131 0.750000
O O7 0.836801 0.629831 0.750000
O O8 0.500000 0.500000 0.500000
O O9 0.058870 0.558267 0.106275
O O10 0.122544 0.942710 0.106209
O O11 0.981992 0.867565 0.750000
#
# Coordination Sequence:
#
# PCOD9439830 Si02
#       8
#     4   4   4   4   4   4   4   4
#     4  12  24  42  64  90 124 160 200 250 300 354
#     4  10  24  41  64  91 122 160 202 247 300 357
#     4  11  24  41  64  90 124 160 200 250 300 357
#     4  11  24  41  62  91 122 158 202 247 298 357
#     4  12  24  41  64  91 122 160 202 247 300 357
#     4  10  24  40  64  90 122 160 202 250 300 360
#     4  11  24  41  62  90 122 160 202 250 302 357
#     4  11  24  41  62  91 122 158 202 247 302 357
#
# _framework density 26.016120000000001
#
# number of rings (size 3 to 8) (size 9 to 14) (size 15 to 20)
#    0.000    1.000    0.000    6.000    0.000   12.000 
#    0.000    0.000    0.000    0.000    0.000    0.000 
#    0.000    0.000    0.000    0.000    0.000    0.000 
#
# Total GULP energy -179655.319047 kJ/mol
# GULP energy per Si atom -5614.228720 kJ/mol
# Density = 2.595691 g / cm^3
# Si number density = 26.016120 Si / 1000 Ang^3
#
#
#
# Elastic Constant Matrix: (Units=GPa)
#
#
# Indices 1 2 3 4 5 6 
#
# 1 103.0218 19.9378 48.0023 0.0000 0.0000 0.0000
# 2 19.9378 119.0703 3.5986 0.0000 0.0000 0.0000
# 3 48.0023 3.5986 146.7419 0.0000 0.0000 0.0000
# 4 0.0000 0.0000 0.0000 16.8714 0.0000 0.0000
# 5 0.0000 0.0000 0.0000 0.0000 46.4314 0.0000
# 6 0.0000 0.0000 0.0000 0.0000 0.0000 53.1914
#
#
#
# Elastic Compliance Matrix: (Units=1/GPa)
#
#
# Indices 1 2 3 4 5 6 
#
# 1 0.011854 -0.001869 -0.003832 0.000000 0.000000 0.000000
# 2 -0.001869 0.008699 0.000398 0.000000 0.000000 0.000000
# 3 -0.003832 0.000398 0.008058 0.000000 0.000000 0.000000
# 4 0.000000 0.000000 0.000000 0.059272 0.000000 0.000000
# 5 0.000000 0.000000 0.000000 0.000000 0.021537 0.000000
# 6 0.000000 0.000000 0.000000 0.000000 0.000000 0.018800
#
#
# Mechanical properties :
#
#
# Convention : Reuss Voigt Hill
#
# Bulk Modulus (GPa) = 55.53717 56.87906 56.20811
# Shear Modulus (GPa) = 34.52364 43.11850 38.82107
#
# Velocity S-wave (km/s) = 3.64677 4.07551 3.86708
# Velocity P-wave (km/s) = 6.25503 6.63753 6.44912
#
# Compressibility (1/GPa) = 0.01800596
#
# Stress axis : x y z
#
# Youngs Moduli (GPa) = 84.36113 114.95130 124.09441
#
# Poissons Ratio (x) = 0.21485 0.47550
# Poissons Ratio (y) = 0.15768 -0.04940
# Poissons Ratio (z) = 0.32325 -0.04576
#
# Static dielectric constant tensor:
#      x y z
#    x 1.970710 0.000000 0.000000 
#    y 0.000000 1.931480 0.000000 
#    z 0.000000 0.000000 1.995500 
# 
# From -- ./inp_files/9604.got.cif
#   From: 2010.05.17/outbox.cif.g08.bks.cpg/sg57_5_cif.got.tgz:9604.got - 2010.06.03 13:58:18.
