data_PCOD9439144
_publ_section_title
;
Structure prediction by ZEFSAII (Michael W. Deem and Ramdas Pophale) SiO2 
 PCOD9439144
Probable space group: P B C M
;
_chemical_formula_sum "Si O2"
_cell_formula_units_Z 64
_cell_length_a 6.814754
_cell_length_b 16.751119
_cell_length_c 29.351143
_cell_angle_alpha 90.000000
_cell_angle_beta 90.000000
_cell_angle_gamma 90.000000
_cell_volume 3350.572544
_symmetry_space_group_name_H-M "P B C M"
_symmetry_group_IT_number 57
_symmetry_cell_setting 'orthorhombic'
loop_
_space_group_symop_operation_xyz
x,y,z
-x,-y,1/2+z
x,1/2-y,-z
-x,1/2+y,1/2-z
-x,-y,-z
x,y,1/2-z
-x,1/2+y,z
x,1/2-y,1/2+z
loop_
_atom_site_type_symbol
_atom_site_label
_atom_site_fract_x
_atom_site_fract_y
_atom_site_fract_z
Si Si1 0.387145 0.943379 0.534480
Si Si2 0.493095 0.193821 0.890725
Si Si3 0.143060 0.424696 0.418610
Si Si4 0.073564 0.012276 0.162726
Si Si5 0.330349 0.555907 0.300934
Si Si6 0.410533 0.598793 0.801161
Si Si7 0.398784 0.125912 0.121796
Si Si8 0.182112 0.678898 0.531302
O O1 0.524991 0.913415 0.575147
O O2 0.307739 0.871640 0.504552
O O3 0.500000 0.000000 0.500000
O O4 0.213552 0.995607 0.556022
O O5 0.335342 0.128261 0.907771
O O6 0.572839 0.161328 0.842251
O O7 0.388552 0.279260 0.884646
O O8 0.670379 0.201869 0.927274
O O9 0.031068 0.454953 0.373847
O O10 0.992460 0.373386 0.448192
O O11 0.219771 0.956827 0.191571
O O12 0.204026 0.079757 0.137816
O O13 0.901223 0.052972 0.191240
O O14 0.380047 0.583618 0.250000
O O15 0.411972 0.465209 0.305193
O O16 0.438831 0.606528 0.339539
O O17 0.411850 0.632851 0.750000
O O18 0.101802 0.750000 0.500000
#
# Coordination Sequence:
#
# PCOD9439144 Si02
#       8
#     8   8   8   8   8   8   8   8
#     4  12  23  42  66  93 125 172 216 267 311 382
#     4  12  24  44  63  95 135 172 209 272 325 387
#     4  12  24  41  69  94 128 168 224 268 313 380
#     4  11  20  41  68  98 122 169 216 268 313 383
#     4  10  21  41  67  96 127 167 215 264 320 386
#     4  10  21  40  69  96 125 167 214 262 320 387
#     4  11  25  40  66  93 134 167 212 266 328 380
#     4  12  26  43  65  95 133 173 216 261 332 379
#
# _framework density 19.101213000000001
#
# number of rings (size 3 to 8) (size 9 to 14) (size 15 to 20)
#    0.000    0.750    6.250    2.250    0.000    4.500 
#    0.000    0.000    0.000    0.000    0.000    0.000 
#    0.000    0.000    0.000    0.000    0.000    0.000 
#
# Total GULP energy -357625.382878 kJ/mol
# GULP energy per Si atom -5587.896607 kJ/mol
# Density = 1.905774 g / cm^3
# Si number density = 19.101213 Si / 1000 Ang^3
#
#
#
# Elastic Constant Matrix: (Units=GPa)
#
#
# Indices 1 2 3 4 5 6 
#
# 1 56.6036 -16.1729 12.2878 0.0000 0.0000 0.0000
# 2 -16.1729 41.3806 14.4494 0.0000 0.0000 0.0000
# 3 12.2878 14.4494 116.4435 0.0000 0.0000 0.0000
# 4 0.0000 0.0000 0.0000 17.4134 0.0000 0.0000
# 5 0.0000 0.0000 0.0000 0.0000 26.3420 0.0000
# 6 0.0000 0.0000 0.0000 0.0000 0.0000 11.8390
#
#
#
# Elastic Compliance Matrix: (Units=1/GPa)
#
#
# Indices 1 2 3 4 5 6 
#
# 1 0.021099 0.009432 -0.003397 0.000000 0.000000 0.000000
# 2 0.009432 0.029477 -0.004653 0.000000 0.000000 0.000000
# 3 -0.003397 -0.004653 0.009524 0.000000 0.000000 0.000000
# 4 0.000000 0.000000 0.000000 0.057427 0.000000 0.000000
# 5 0.000000 0.000000 0.000000 0.000000 0.037962 0.000000
# 6 0.000000 0.000000 0.000000 0.000000 0.000000 0.084467
#
#
# Mechanical properties :
#
#
# Convention : Reuss Voigt Hill
#
# Bulk Modulus (GPa) = 15.90719 26.17293 21.04006
# Shear Modulus (GPa) = 19.36885 24.70976 22.03930
#
# Velocity S-wave (km/s) = 3.18781 3.60060 3.40047
# Velocity P-wave (km/s) = 4.67925 5.56936 5.14360
#
# Compressibility (1/GPa) = 0.06286464
#
# Stress axis : x y z
#
# Youngs Moduli (GPa) = 47.39515 33.92457 105.00088
#
# Poissons Ratio (x) = -0.31999 0.35668
# Poissons Ratio (y) = -0.44705 0.48859
# Poissons Ratio (z) = 0.16100 0.15786
#
# Static dielectric constant tensor:
#      x y z
#    x 1.671950 0.000000 0.000000 
#    y 0.000000 1.608120 0.000000 
#    z 0.000000 0.000000 1.690450 
# 
# From -- ./inp_files/29273.got.cif
#   From: 2010.05.17/outbox.cif.g08.bks.cpg/sg57_15_cif.got.tgz:29273.got - 2010.06.03 13:58:18.
