data_PCOD9439372
_publ_section_title
;
Structure prediction by ZEFSAII (Michael W. Deem and Ramdas Pophale) SiO2 
 PCOD9439372
Probable space group: P B C M
;
_chemical_formula_sum "Si O2"
_cell_formula_units_Z 48
_cell_length_a 5.975786
_cell_length_b 22.770055
_cell_length_c 16.056107
_cell_angle_alpha 90.000000
_cell_angle_beta 90.000000
_cell_angle_gamma 90.000000
_cell_volume 2184.738036
_symmetry_space_group_name_H-M "P B C M"
_symmetry_group_IT_number 57
_symmetry_cell_setting 'orthorhombic'
loop_
_space_group_symop_operation_xyz
x,y,z
-x,-y,1/2+z
x,1/2-y,-z
-x,1/2+y,1/2-z
-x,-y,-z
x,y,1/2-z
-x,1/2+y,z
x,1/2-y,1/2+z
loop_
_atom_site_type_symbol
_atom_site_label
_atom_site_fract_x
_atom_site_fract_y
_atom_site_fract_z
Si Si1 0.771012 0.231801 0.408505
Si Si2 0.401960 0.353406 0.553891
Si Si3 0.716478 0.880144 0.250000
Si Si4 0.980182 0.614993 0.155352
Si Si5 0.768666 0.049813 0.482526
Si Si6 0.823133 0.576011 0.573785
Si Si7 0.218875 0.682427 0.750000
O O1 0.859034 0.250000 0.500000
O O2 0.520225 0.207669 0.427405
O O3 0.775014 0.280198 0.336288
O O4 0.905445 0.176087 0.372396
O O5 0.280415 0.375444 0.636860
O O6 0.590067 0.399451 0.527091
O O7 0.227783 0.364368 0.478571
O O8 0.731874 0.917009 0.334612
O O9 0.466426 0.849996 0.250000
O O10 0.963744 0.846082 0.250000
O O11 0.031085 0.602329 0.250000
O O12 0.066364 0.564332 0.094999
O O13 0.912834 0.063328 0.564861
O O14 0.716063 0.981617 0.470180
#
# Coordination Sequence:
#
# PCOD9439372 Si02
#       7
#     8   8   4   8   8   8   4
#     4  11  25  42  68  93 133 184 233 291 354 410
#     4  10  22  39  69  95 131 174 232 286 348 415
#     4  12  30  46  71 100 147 182 234 292 350 426
#     4  10  22  39  62  99 133 173 227 290 342 420
#     4   9  21  41  69  97 136 177 230 281 349 421
#     4  10  22  44  67  99 137 181 226 286 352 423
#     4  12  30  50  69 104 141 186 242 298 350 420
#
# _framework density 21.970599
#
# number of rings (size 3 to 8) (size 9 to 14) (size 15 to 20)
#    0.000    1.667    0.833    1.500   14.000    1.333 
#    0.000    0.000    0.000    0.000    0.000    0.000 
#    0.000    0.000    0.000    0.000    0.000    0.000 
#
# Total GULP energy -267472.047523 kJ/mol
# GULP energy per Si atom -5572.334323 kJ/mol
# Density = 2.192059 g / cm^3
# Si number density = 21.970599 Si / 1000 Ang^3
#
#
#
# Elastic Constant Matrix: (Units=GPa)
#
#
# Indices 1 2 3 4 5 6 
#
# 1 69.4922 17.7364 1.8113 0.0000 0.0000 0.0000
# 2 17.7364 15.5451 -12.6009 0.0000 0.0000 0.0000
# 3 1.8113 -12.6009 77.1751 0.0000 0.0000 0.0000
# 4 0.0000 0.0000 0.0000 37.2698 0.0000 0.0000
# 5 0.0000 0.0000 0.0000 0.0000 18.3422 0.0000
# 6 0.0000 0.0000 0.0000 0.0000 0.0000 23.1416
#
#
#
# Elastic Compliance Matrix: (Units=1/GPa)
#
#
# Indices 1 2 3 4 5 6 
#
# 1 0.022055 -0.029486 -0.005332 0.000000 0.000000 0.000000
# 2 -0.029486 0.113562 0.019234 0.000000 0.000000 0.000000
# 3 -0.005332 0.019234 0.016223 0.000000 0.000000 0.000000
# 4 0.000000 0.000000 0.000000 0.026831 0.000000 0.000000
# 5 0.000000 0.000000 0.000000 0.000000 0.054519 0.000000
# 6 0.000000 0.000000 0.000000 0.000000 0.000000 0.043212
#
#
# Mechanical properties :
#
#
# Convention : Reuss Voigt Hill
#
# Bulk Modulus (GPa) = 8.28686 19.56734 13.92710
# Shear Modulus (GPa) = 14.37633 26.10176 20.23904
#
# Velocity S-wave (km/s) = 2.56079 3.45052 3.03840
# Velocity P-wave (km/s) = 3.53886 4.97999 4.31994
#
# Compressibility (1/GPa) = 0.12067291
#
# Stress axis : x y z
#
# Youngs Moduli (GPa) = 45.34183 8.80576 61.64020
#
# Poissons Ratio (x) = 0.25964 0.32866
# Poissons Ratio (y) = 1.33693 -1.18560
# Poissons Ratio (z) = 0.24176 -0.16937
#
# Static dielectric constant tensor:
#      x y z
#    x 1.964130 0.000000 0.000000 
#    y 0.000000 1.808790 0.000000 
#    z 0.000000 0.000000 1.775480 
# 
# From -- ./inp_files/15129.got.cif
#   From: 2010.05.17/outbox.cif.g08.bks.cpg/sg57_8_cif.got.tgz:15129.got - 2010.06.03 13:58:18.
