data_PCOD9439300
_publ_section_title
;
Structure prediction by ZEFSAII (Michael W. Deem and Ramdas Pophale) SiO2 
 PCOD9439300
Probable space group: P B C M
;
_chemical_formula_sum "Si O2"
_cell_formula_units_Z 48
_cell_length_a 9.716731
_cell_length_b 18.563731
_cell_length_c 14.629048
_cell_angle_alpha 90.000000
_cell_angle_beta 90.000000
_cell_angle_gamma 90.000000
_cell_volume 2638.769838
_symmetry_space_group_name_H-M "P B C M"
_symmetry_group_IT_number 57
_symmetry_cell_setting 'orthorhombic'
loop_
_space_group_symop_operation_xyz
x,y,z
-x,-y,1/2+z
x,1/2-y,-z
-x,1/2+y,1/2-z
-x,-y,-z
x,y,1/2-z
-x,1/2+y,z
x,1/2-y,1/2+z
loop_
_atom_site_type_symbol
_atom_site_label
_atom_site_fract_x
_atom_site_fract_y
_atom_site_fract_z
Si Si1 0.860117 0.822491 0.054186
Si Si2 0.980240 0.377444 0.750000
Si Si3 0.522932 0.806879 0.250000
Si Si4 0.056424 0.571882 0.452454
Si Si5 0.836111 0.740624 0.750000
Si Si6 0.329270 0.825881 0.750000
Si Si7 0.625470 0.072924 0.418955
Si Si8 0.584623 0.909250 0.083289
O O1 0.887019 0.799534 0.158637
O O2 0.732815 0.877623 0.055493
O O3 0.821609 0.750000 0.000000
O O4 0.985903 0.860737 0.003119
O O5 0.105544 0.321283 0.750000
O O6 0.978850 0.422828 0.843998
O O7 0.836885 0.331923 0.750000
O O8 0.669577 0.764198 0.250000
O O9 0.396007 0.752476 0.250000
O O10 0.526063 0.857732 0.161539
O O11 0.220754 0.574614 0.459524
O O12 0.000000 0.500000 0.500000
O O13 0.379958 0.869432 0.838490
O O14 0.514515 0.089409 0.496300
O O15 0.601315 0.991513 0.383849
#
# Coordination Sequence:
#
# PCOD9439300 Si02
#       8
#     8   4   4   8   4   4   8   8
#     4  11  22  38  65  91 124 159 205 258 302 371
#     4  10  22  40  60  87 125 157 203 248 306 371
#     4  10  23  39  61  92 122 157 203 254 300 367
#     4  11  22  41  63  90 123 163 209 252 312 364
#     4  10  22  38  59  92 118 162 199 249 306 354
#     4  10  23  37  60  89 121 156 197 245 312 358
#     4  10  22  40  62  87 120 166 198 251 303 371
#     4  10  22  40  62  86 123 159 208 246 305 362
#
# _framework density 18.190294999999999
#
# number of rings (size 3 to 8) (size 9 to 14) (size 15 to 20)
#    0.000    1.667    3.333    0.500    4.667    2.000 
#    0.000    0.833    0.000    0.000    0.000    0.000 
#    0.000    0.000    0.000    0.000    0.000    0.000 
#
# Total GULP energy -268043.087939 kJ/mol
# GULP energy per Si atom -5584.230999 kJ/mol
# Density = 1.814889 g / cm^3
# Si number density = 18.190295 Si / 1000 Ang^3
#
#
#
# Elastic Constant Matrix: (Units=GPa)
#
#
# Indices 1 2 3 4 5 6 
#
# 1 48.4460 36.8176 35.8445 0.0000 0.0000 0.0000
# 2 36.8176 94.1052 35.4828 0.0000 0.0000 0.0000
# 3 35.8445 35.4828 100.0036 0.0000 0.0000 0.0000
# 4 0.0000 0.0000 0.0000 -115.3268 0.0000 0.0000
# 5 0.0000 0.0000 0.0000 0.0000 -15.1113 0.0000
# 6 0.0000 0.0000 0.0000 0.0000 0.0000 33.6264
#
#
#
# Elastic Compliance Matrix: (Units=1/GPa)
#
#
# Indices 1 2 3 4 5 6 
#
# 1 0.035121 -0.010383 -0.008904 0.000000 0.000000 0.000000
# 2 -0.010383 0.015337 -0.001720 0.000000 0.000000 0.000000
# 3 -0.008904 -0.001720 0.013802 0.000000 0.000000 0.000000
# 4 0.000000 0.000000 0.000000 -0.008671 0.000000 0.000000
# 5 0.000000 0.000000 0.000000 0.000000 -0.066176 0.000000
# 6 0.000000 0.000000 0.000000 0.000000 0.000000 0.029739
#
#
# Mechanical properties :
#
#
# Convention : Reuss Voigt Hill
#
# Bulk Modulus (GPa) = 44.95560 50.98274 47.96917
# Shear Modulus (GPa) = 72.90640 -10.40165 31.25237
#
# Velocity S-wave (km/s) = 6.33773 -2.39388 4.14947
# Velocity P-wave (km/s) = 8.85006 4.52188 7.02748
#
# Compressibility (1/GPa) = 0.02224417
#
# Stress axis : x y z
#
# Youngs Moduli (GPa) = 28.47337 65.20041 72.45555
#
# Poissons Ratio (x) = 0.67699 0.64516
# Poissons Ratio (y) = 0.29564 0.12464
# Poissons Ratio (z) = 0.25353 0.11216
#
# Static dielectric constant tensor:
#      x y z
#    x 1.603830 0.000000 0.000000 
#    y 0.000000 1.609870 0.000000 
#    z 0.000000 0.000000 1.606880 
# 
# From -- ./inp_files/16480.got.cif
#   From: 2010.05.17/outbox.cif.g08.bks.cpg/sg57_9_cif.got.tgz:16480.got - 2010.06.03 13:58:18.
