data_PCOD9439730
_publ_section_title
;
Structure prediction by ZEFSAII (Michael W. Deem and Ramdas Pophale) SiO2 
 PCOD9439730
Probable space group: P B C M
;
_chemical_formula_sum "Si O2"
_cell_formula_units_Z 32
_cell_length_a 15.449051
_cell_length_b 5.139434
_cell_length_c 18.372545
_cell_angle_alpha 90.000000
_cell_angle_beta 90.000000
_cell_angle_gamma 90.000000
_cell_volume 1458.768645
_symmetry_space_group_name_H-M "P B C M"
_symmetry_group_IT_number 57
_symmetry_cell_setting 'orthorhombic'
loop_
_space_group_symop_operation_xyz
x,y,z
-x,-y,1/2+z
x,1/2-y,-z
-x,1/2+y,1/2-z
-x,-y,-z
x,y,1/2-z
-x,1/2+y,z
x,1/2-y,1/2+z
loop_
_atom_site_type_symbol
_atom_site_label
_atom_site_fract_x
_atom_site_fract_y
_atom_site_fract_z
Si Si1 0.036656 0.517968 0.584098
Si Si2 0.204365 0.802177 0.335644
Si Si3 0.316660 0.306492 0.363090
Si Si4 0.551754 0.458726 0.750000
Si Si5 0.437407 0.250000 0.000000
O O1 0.131124 0.616750 0.605464
O O2 0.000000 0.500000 0.500000
O O3 0.025803 0.234717 0.617395
O O4 0.176621 0.771437 0.250000
O O5 0.243611 0.530203 0.364208
O O6 0.273628 0.038991 0.335773
O O7 0.390004 0.448989 0.316044
O O8 0.370781 0.238499 0.433837
O O9 0.530159 0.154450 0.750000
O O10 0.500000 0.500000 0.000000
#
# Coordination Sequence:
#
# PCOD9439730 Si02
#       5
#     8   8   8   4   4
#     4  10  23  42  66  96 134 176 232 278 348 416
#     4  12  24  44  69 100 141 177 232 299 350 418
#     4  12  25  44  69 101 137 182 232 285 362 415
#     4  12  22  40  68  98 132 176 226 280 342 420
#     4  12  26  46  66  98 140 180 232 286 342 418
#
# _framework density 21.936309000000001
#
# number of rings (size 3 to 8) (size 9 to 14) (size 15 to 20)
#    0.000    0.500    2.500    6.000    0.000    7.000 
#    0.000    0.000    0.000    0.000    0.000    0.000 
#    0.000    0.000    0.000    0.000    0.000    0.000 
#
# Total GULP energy -178392.418948 kJ/mol
# GULP energy per Si atom -5574.763092 kJ/mol
# Density = 2.188638 g / cm^3
# Si number density = 21.936309 Si / 1000 Ang^3
#
#
#
# Elastic Constant Matrix: (Units=GPa)
#
#
# Indices 1 2 3 4 5 6 
#
# 1 87.6790 17.5326 53.7468 0.0000 0.0000 0.0000
# 2 17.5326 140.1772 5.1207 0.0000 0.0000 0.0000
# 3 53.7468 5.1207 94.2717 0.0000 0.0000 0.0000
# 4 0.0000 0.0000 0.0000 21.5072 0.0000 0.0000
# 5 0.0000 0.0000 0.0000 0.0000 35.9124 0.0000
# 6 0.0000 0.0000 0.0000 0.0000 0.0000 61.9841
#
#
#
# Elastic Compliance Matrix: (Units=1/GPa)
#
#
# Indices 1 2 3 4 5 6 
#
# 1 0.018015 -0.001882 -0.010168 0.000000 0.000000 0.000000
# 2 -0.001882 0.007345 0.000674 0.000000 0.000000 0.000000
# 3 -0.010168 0.000674 0.016368 0.000000 0.000000 0.000000
# 4 0.000000 0.000000 0.000000 0.046496 0.000000 0.000000
# 5 0.000000 0.000000 0.000000 0.000000 0.027846 0.000000
# 6 0.000000 0.000000 0.000000 0.000000 0.000000 0.016133
#
#
# Mechanical properties :
#
#
# Convention : Reuss Voigt Hill
#
# Bulk Modulus (GPa) = 52.70088 52.76978 52.73533
# Shear Modulus (GPa) = 31.00197 40.26260 35.63229
#
# Velocity S-wave (km/s) = 3.76343 4.28884 4.03470
# Velocity P-wave (km/s) = 6.55448 6.97379 6.76738
#
# Compressibility (1/GPa) = 0.01897502
#
# Stress axis : x y z
#
# Youngs Moduli (GPa) = 55.51009 136.15508 61.09352
#
# Poissons Ratio (x) = 0.25621 0.62123
# Poissons Ratio (y) = 0.10445 -0.04117
# Poissons Ratio (z) = 0.56445 -0.09175
#
# Static dielectric constant tensor:
#      x y z
#    x 1.865820 0.000000 0.000000 
#    y 0.000000 1.817370 0.000000 
#    z 0.000000 0.000000 1.765040 
# 
# From -- ./inp_files/22235.got.cif
#   From: 2010.05.17/outbox.cif.g08.bks.cpg/sg57_12_cif.got.tgz:22235.got - 2010.06.03 13:58:18.
