data_PCOD9439764
_publ_section_title
;
Structure prediction by ZEFSAII (Michael W. Deem and Ramdas Pophale) SiO2 
 PCOD9439764
Probable space group: P B C M
;
_chemical_formula_sum "Si O2"
_cell_formula_units_Z 48
_cell_length_a 5.518028
_cell_length_b 14.412093
_cell_length_c 27.422018
_cell_angle_alpha 90.000000
_cell_angle_beta 90.000000
_cell_angle_gamma 90.000000
_cell_volume 2180.772527
_symmetry_space_group_name_H-M "P B C M"
_symmetry_group_IT_number 57
_symmetry_cell_setting 'orthorhombic'
loop_
_space_group_symop_operation_xyz
x,y,z
-x,-y,1/2+z
x,1/2-y,-z
-x,1/2+y,1/2-z
-x,-y,-z
x,y,1/2-z
-x,1/2+y,z
x,1/2-y,1/2+z
loop_
_atom_site_type_symbol
_atom_site_label
_atom_site_fract_x
_atom_site_fract_y
_atom_site_fract_z
Si Si1 0.260811 0.682501 0.617798
Si Si2 0.451103 0.294297 0.953346
Si Si3 0.253448 0.536821 0.475392
Si Si4 0.130560 0.160614 0.132926
Si Si5 0.636488 0.821313 0.192567
Si Si6 0.088410 0.471048 0.126423
O O1 0.472089 0.708761 0.580928
O O2 0.365474 0.669036 0.671898
O O3 0.085393 0.770337 0.618639
O O4 0.122368 0.591209 0.603005
O O5 0.682972 0.352934 0.972268
O O6 0.286950 0.353846 0.916440
O O7 0.321293 0.250000 0.000000
O O8 0.500000 0.500000 0.500000
O O9 0.247524 0.503966 0.419032
O O10 0.000000 0.500000 0.500000
O O11 0.276677 0.220480 0.172760
O O12 0.025577 0.062981 0.149949
O O13 0.657804 0.828305 0.250000
O O14 0.782047 0.902631 0.164469
#
# Coordination Sequence:
#
# PCOD9439764 Si02
#       6
#     8   8   8   8   8   8
#     4  10  23  43  68  94 144 182 237 302 366 436
#     4  11  24  40  66  99 146 193 244 292 358 426
#     4  12  27  42  69 108 149 197 252 298 357 438
#     4  10  23  45  69  98 141 189 237 303 366 451
#     4  10  25  45  72 104 136 181 244 313 385 452
#     4  11  24  45  71 101 146 188 243 303 376 441
#
# _framework density 22.010548
#
# number of rings (size 3 to 8) (size 9 to 14) (size 15 to 20)
#    0.000    1.333    1.667    2.000   11.667    4.000 
#    0.000    1.667    0.000    0.000    0.000    0.000 
#    0.000    0.000    0.000    0.000    0.000    0.000 
#
# Total GULP energy -268124.610462 kJ/mol
# GULP energy per Si atom -5585.929385 kJ/mol
# Density = 2.196045 g / cm^3
# Si number density = 22.010548 Si / 1000 Ang^3
#
#
#
# Elastic Constant Matrix: (Units=GPa)
#
#
# Indices 1 2 3 4 5 6 
#
# 1 82.3699 29.0747 29.1313 0.0000 0.0000 0.0000
# 2 29.0747 135.0847 24.9137 0.0000 0.0000 0.0000
# 3 29.1313 24.9137 129.1490 0.0000 0.0000 0.0000
# 4 0.0000 0.0000 0.0000 21.8986 0.0000 0.0000
# 5 0.0000 0.0000 0.0000 0.0000 24.1120 0.0000
# 6 0.0000 0.0000 0.0000 0.0000 0.0000 30.3291
#
#
#
# Elastic Compliance Matrix: (Units=1/GPa)
#
#
# Indices 1 2 3 4 5 6 
#
# 1 0.013971 -0.002515 -0.002666 0.000000 0.000000 0.000000
# 2 -0.002515 0.008129 -0.001001 0.000000 0.000000 0.000000
# 3 -0.002666 -0.001001 0.008537 0.000000 0.000000 0.000000
# 4 0.000000 0.000000 0.000000 0.045665 0.000000 0.000000
# 5 0.000000 0.000000 0.000000 0.000000 0.041473 0.000000
# 6 0.000000 0.000000 0.000000 0.000000 0.000000 0.032972
#
#
# Mechanical properties :
#
#
# Convention : Reuss Voigt Hill
#
# Bulk Modulus (GPa) = 54.72593 56.98254 55.85424
# Shear Modulus (GPa) = 29.55042 32.83355 31.19199
#
# Velocity S-wave (km/s) = 3.66807 3.86647 3.76857
# Velocity P-wave (km/s) = 6.54653 6.77331 6.66089
#
# Compressibility (1/GPa) = 0.01827287
#
# Stress axis : x y z
#
# Youngs Moduli (GPa) = 71.57617 123.02079 117.13139
#
# Poissons Ratio (x) = 0.30944 0.31229
# Poissons Ratio (y) = 0.18004 0.11721
# Poissons Ratio (z) = 0.19083 0.12311
#
# Static dielectric constant tensor:
#      x y z
#    x 1.874060 0.000000 0.000000 
#    y 0.000000 1.827320 0.000000 
#    z 0.000000 0.000000 1.820720 
# 
# From -- ./inp_files/27932.got.cif
#   From: 2010.05.17/outbox.cif.g08.bks.cpg/sg57_14_cif.got.tgz:27932.got - 2010.06.03 13:58:18.
