data_PCOD9439871
_publ_section_title
;
Structure prediction by ZEFSAII (Michael W. Deem and Ramdas Pophale) SiO2 
 PCOD9439871
Probable space group: P B C M
;
_chemical_formula_sum "Si O2"
_cell_formula_units_Z 32
_cell_length_a 5.446656
_cell_length_b 10.565230
_cell_length_c 20.490910
_cell_angle_alpha 90.000000
_cell_angle_beta 90.000000
_cell_angle_gamma 90.000000
_cell_volume 1179.152968
_symmetry_space_group_name_H-M "P B C M"
_symmetry_group_IT_number 57
_symmetry_cell_setting 'orthorhombic'
loop_
_space_group_symop_operation_xyz
x,y,z
-x,-y,1/2+z
x,1/2-y,-z
-x,1/2+y,1/2-z
-x,-y,-z
x,y,1/2-z
-x,1/2+y,z
x,1/2-y,1/2+z
loop_
_atom_site_type_symbol
_atom_site_label
_atom_site_fract_x
_atom_site_fract_y
_atom_site_fract_z
Si Si1 0.043316 0.676211 0.068033
Si Si2 0.816930 0.908302 0.250000
Si Si3 0.435251 0.363615 0.750000
Si Si4 0.189497 0.974130 0.360494
Si Si5 0.467518 0.274436 0.421876
O O1 0.954779 0.533518 0.077704
O O2 0.810672 0.750954 0.096349
O O3 0.309209 0.683860 0.101168
O O4 0.077145 0.750000 0.000000
O O5 0.614607 0.790961 0.250000
O O6 0.685655 0.048684 0.250000
O O7 0.003586 0.903073 0.311537
O O8 0.294807 0.419637 0.687602
O O9 0.418175 0.902344 0.393580
O O10 0.452205 0.250000 0.500000
#
# Coordination Sequence:
#
# PCOD9439871 Si02
#       5
#     8   4   4   8   8
#     4  10  24  43  71 109 156 202 258 320 397 474
#     4  11  28  52  75 122 148 220 268 338 398 471
#     4  11  28  48  81 108 160 208 278 330 402 471
#     4  11  26  46  77 109 161 206 268 330 401 482
#     4  10  24  43  70 110 156 204 259 318 397 474
#
# _framework density 27.138121999999999
#
# number of rings (size 3 to 8) (size 9 to 14) (size 15 to 20)
#    0.000    1.500    0.000    1.500   10.500   12.000 
#    0.000    0.000    0.000    0.000    0.000    0.000 
#    0.000    0.000    0.000    0.000    0.000    0.000 
#
# Total GULP energy -178286.470195 kJ/mol
# GULP energy per Si atom -5571.452194 kJ/mol
# Density = 2.707635 g / cm^3
# Si number density = 27.138122 Si / 1000 Ang^3
#
#
#
# Elastic Constant Matrix: (Units=GPa)
#
#
# Indices 1 2 3 4 5 6 
#
# 1 182.4036 43.5694 39.0618 0.0000 0.0000 0.0000
# 2 43.5694 113.1156 70.7242 0.0000 0.0000 0.0000
# 3 39.0618 70.7242 166.8467 0.0000 0.0000 0.0000
# 4 0.0000 0.0000 0.0000 41.2970 0.0000 0.0000
# 5 0.0000 0.0000 0.0000 0.0000 33.6282 0.0000
# 6 0.0000 0.0000 0.0000 0.0000 0.0000 57.9678
#
#
#
# Elastic Compliance Matrix: (Units=1/GPa)
#
#
# Indices 1 2 3 4 5 6 
#
# 1 0.006080 -0.001975 -0.000586 0.000000 0.000000 0.000000
# 2 -0.001975 0.012670 -0.004908 0.000000 0.000000 0.000000
# 3 -0.000586 -0.004908 0.008211 0.000000 0.000000 0.000000
# 4 0.000000 0.000000 0.000000 0.024215 0.000000 0.000000
# 5 0.000000 0.000000 0.000000 0.000000 0.029737 0.000000
# 6 0.000000 0.000000 0.000000 0.000000 0.000000 0.017251
#
#
# Mechanical properties :
#
#
# Convention : Reuss Voigt Hill
#
# Bulk Modulus (GPa) = 83.18176 85.45298 84.31737
# Shear Modulus (GPa) = 42.69472 47.17931 44.93701
#
# Velocity S-wave (km/s) = 3.97071 4.17404 4.07364
# Velocity P-wave (km/s) = 7.19304 7.40180 7.29817
#
# Compressibility (1/GPa) = 0.01202187
#
# Stress axis : x y z
#
# Youngs Moduli (GPa) = 164.48222 78.92525 121.78352
#
# Poissons Ratio (x) = 0.15590 0.07137
# Poissons Ratio (y) = 0.32491 0.59775
# Poissons Ratio (z) = 0.09639 0.38739
#
# Static dielectric constant tensor:
#      x y z
#    x 2.087010 0.000000 0.000000 
#    y 0.000000 2.252220 0.000000 
#    z 0.000000 0.000000 1.963980 
# 
# From -- ./inp_files/23362.got.cif
#   From: 2010.05.17/outbox.cif.g08.bks.cpg/sg57_12_cif.got.tgz:23362.got - 2010.06.03 13:58:18.
