data_PCOD9439151
_publ_section_title
;
Structure prediction by ZEFSAII (Michael W. Deem and Ramdas Pophale) SiO2 
 PCOD9439151
Probable space group: P B C M
;
_chemical_formula_sum "Si O2"
_cell_formula_units_Z 40
_cell_length_a 8.598135
_cell_length_b 8.842161
_cell_length_c 24.340981
_cell_angle_alpha 90.000000
_cell_angle_beta 90.000000
_cell_angle_gamma 90.000000
_cell_volume 1850.549709
_symmetry_space_group_name_H-M "P B C M"
_symmetry_group_IT_number 57
_symmetry_cell_setting 'orthorhombic'
loop_
_space_group_symop_operation_xyz
x,y,z
-x,-y,1/2+z
x,1/2-y,-z
-x,1/2+y,1/2-z
-x,-y,-z
x,y,1/2-z
-x,1/2+y,z
x,1/2-y,1/2+z
loop_
_atom_site_type_symbol
_atom_site_label
_atom_site_fract_x
_atom_site_fract_y
_atom_site_fract_z
Si Si1 0.480290 0.173570 0.628186
Si Si2 0.071415 0.863480 0.896974
Si Si3 0.676369 0.424336 0.813923
Si Si4 0.220589 0.957161 0.082412
Si Si5 0.256251 0.396694 0.029172
O O1 0.552824 0.328667 0.649944
O O2 0.637115 0.076149 0.621835
O O3 0.391467 0.166337 0.569361
O O4 0.364897 0.097126 0.671623
O O5 0.154937 0.882879 0.838217
O O6 0.120205 0.698417 0.918928
O O7 0.150555 0.992434 0.934835
O O8 0.891207 0.908226 0.897023
O O9 0.662621 0.391776 0.750000
O O10 0.293759 0.999455 0.023490
O O11 0.180679 0.250000 0.000000
#
# Coordination Sequence:
#
# PCOD9439151 Si02
#       5
#     8   8   8   8   8
#     4  10  22  37  61  90 116 151 198 244 299 362
#     4  10  23  38  58  86 118 160 204 241 293 359
#     4  10  21  41  62  85 117 153 197 255 304 348
#     4  11  21  38  57  84 122 154 193 243 292 354
#     4  11  21  36  59  87 119 156 192 237 296 357
#
# _framework density 21.615197999999999
#
# number of rings (size 3 to 8) (size 9 to 14) (size 15 to 20)
#    0.000    1.600    0.000    4.800    0.000    4.800 
#    0.000    5.000    0.000    0.000    0.000    0.000 
#    0.000    0.000    0.000    0.000    0.000    0.000 
#
# Total GULP energy -223197.618466 kJ/mol
# GULP energy per Si atom -5579.940462 kJ/mol
# Density = 2.156600 g / cm^3
# Si number density = 21.615198 Si / 1000 Ang^3
#
#
#
# Elastic Constant Matrix: (Units=GPa)
#
#
# Indices 1 2 3 4 5 6 
#
# 1 71.9565 34.8354 33.4863 0.0000 0.0000 0.0000
# 2 34.8354 79.4706 39.4813 0.0000 0.0000 0.0000
# 3 33.4863 39.4813 56.5555 0.0000 0.0000 0.0000
# 4 0.0000 0.0000 0.0000 18.4915 0.0000 0.0000
# 5 0.0000 0.0000 0.0000 0.0000 15.5556 0.0000
# 6 0.0000 0.0000 0.0000 0.0000 0.0000 42.2108
#
#
#
# Elastic Compliance Matrix: (Units=1/GPa)
#
#
# Indices 1 2 3 4 5 6 
#
# 1 0.020161 -0.004451 -0.008831 0.000000 0.000000 0.000000
# 2 -0.004451 0.020247 -0.011499 0.000000 0.000000 0.000000
# 3 -0.008831 -0.011499 0.030938 0.000000 0.000000 0.000000
# 4 0.000000 0.000000 0.000000 0.054079 0.000000 0.000000
# 5 0.000000 0.000000 0.000000 0.000000 0.064285 0.000000
# 6 0.000000 0.000000 0.000000 0.000000 0.000000 0.023691
#
#
# Mechanical properties :
#
#
# Convention : Reuss Voigt Hill
#
# Bulk Modulus (GPa) = 45.90196 47.06539 46.48368
# Shear Modulus (GPa) = 18.50319 21.93022 20.21671
#
# Velocity S-wave (km/s) = 2.92897 3.18869 3.06159
# Velocity P-wave (km/s) = 5.72019 5.94798 5.83520
#
# Compressibility (1/GPa) = 0.02178556
#
# Stress axis : x y z
#
# Youngs Moduli (GPa) = 49.59990 49.39002 32.32283
#
# Poissons Ratio (x) = 0.21981 0.28543
# Poissons Ratio (y) = 0.22075 0.37169
# Poissons Ratio (z) = 0.43799 0.56795
#
# Static dielectric constant tensor:
#      x y z
#    x 1.801620 0.000000 0.000000 
#    y 0.000000 1.871970 0.000000 
#    z 0.000000 0.000000 1.746130 
# 
# From -- ./inp_files/26492.got.cif
#   From: 2010.05.17/outbox.cif.g08.bks.cpg/sg57_14_cif.got.tgz:26492.got - 2010.06.03 13:58:18.
