data_PCOD9439820
_publ_section_title
;
Structure prediction by ZEFSAII (Michael W. Deem and Ramdas Pophale) SiO2 
 PCOD9439820
Probable space group: P B C M
;
_chemical_formula_sum "Si O2"
_cell_formula_units_Z 24
_cell_length_a 5.124765
_cell_length_b 19.064603
_cell_length_c 11.200750
_cell_angle_alpha 90.000000
_cell_angle_beta 90.000000
_cell_angle_gamma 90.000000
_cell_volume 1094.331310
_symmetry_space_group_name_H-M "P B C M"
_symmetry_group_IT_number 57
_symmetry_cell_setting 'orthorhombic'
loop_
_space_group_symop_operation_xyz
x,y,z
-x,-y,1/2+z
x,1/2-y,-z
-x,1/2+y,1/2-z
-x,-y,-z
x,y,1/2-z
-x,1/2+y,z
x,1/2-y,1/2+z
loop_
_atom_site_type_symbol
_atom_site_label
_atom_site_fract_x
_atom_site_fract_y
_atom_site_fract_z
Si Si1 0.719196 0.366427 0.250000
Si Si2 0.162749 0.696860 0.388921
Si Si3 0.222474 0.265875 0.250000
Si Si4 0.750041 0.450755 0.009800
O O1 0.467221 0.316492 0.250000
O O2 0.725260 0.414841 0.363185
O O3 0.981719 0.321083 0.250000
O O4 0.242389 0.750000 0.500000
O O5 0.271595 0.701474 0.250000
O O6 0.216413 0.617221 0.425112
O O7 0.856035 0.716913 0.363346
O O8 0.500000 0.500000 0.000000
O O9 0.000000 0.500000 0.000000
#
# Coordination Sequence:
#
# PCOD9439820 Si02
#       4
#     4   8   4   8
#     4  12  24  48  72 106 152 195 250 317 392 446
#     4  10  23  49  75 109 146 199 262 319 386 459
#     4  10  24  44  76 104 140 187 254 313 376 448
#     4  12  28  46  73 108 155 201 256 318 394 469
#
# _framework density 21.9312
#
# number of rings (size 3 to 8) (size 9 to 14) (size 15 to 20)
#    1.000    0.000    3.333    2.000    4.667    2.667 
#    0.000    0.000    0.000    0.000    0.000    0.000 
#    0.000    0.000    0.000    0.000    0.000    0.000 
#
# Total GULP energy -133611.865718 kJ/mol
# GULP energy per Si atom -5567.161072 kJ/mol
# Density = 2.188128 g / cm^3
# Si number density = 21.931200 Si / 1000 Ang^3
#
#
#
# Elastic Constant Matrix: (Units=GPa)
#
#
# Indices 1 2 3 4 5 6 
#
# 1 169.7729 109.0388 46.5662 0.0000 0.0000 0.0000
# 2 109.0388 236.4132 99.4871 0.0000 0.0000 0.0000
# 3 46.5662 99.4871 171.5048 0.0000 0.0000 0.0000
# 4 0.0000 0.0000 0.0000 -42.4251 0.0000 0.0000
# 5 0.0000 0.0000 0.0000 0.0000 28.5159 0.0000
# 6 0.0000 0.0000 0.0000 0.0000 0.0000 57.1654
#
#
#
# Elastic Compliance Matrix: (Units=1/GPa)
#
#
# Indices 1 2 3 4 5 6 
#
# 1 0.008370 -0.003842 -0.000044 0.000000 0.000000 0.000000
# 2 -0.003842 0.007359 -0.003226 0.000000 0.000000 0.000000
# 3 -0.000044 -0.003226 0.007714 0.000000 0.000000 0.000000
# 4 0.000000 0.000000 0.000000 -0.023571 0.000000 0.000000
# 5 0.000000 0.000000 0.000000 0.000000 0.035068 0.000000
# 6 0.000000 0.000000 0.000000 0.000000 0.000000 0.017493
#
#
# Mechanical properties :
#
#
# Convention : Reuss Voigt Hill
#
# Bulk Modulus (GPa) = 108.46336 120.87498 114.66917
# Shear Modulus (GPa) = 71.70522 30.15781 50.93152
#
# Velocity S-wave (km/s) = 5.72420 3.71227 4.82429
# Velocity P-wave (km/s) = 9.65672 8.57961 9.13406
#
# Compressibility (1/GPa) = 0.00921970
#
# Stress axis : x y z
#
# Youngs Moduli (GPa) = 119.47831 135.88199 129.63488
#
# Poissons Ratio (x) = 0.52203 0.00570
# Poissons Ratio (y) = 0.45901 0.41819
# Poissons Ratio (z) = 0.00525 0.43834
#
# Static dielectric constant tensor:
#      x y z
#    x 1.932540 0.000000 0.000000 
#    y 0.000000 1.828150 0.000000 
#    z 0.000000 0.000000 1.884510 
# 
# From -- ./inp_files/10546.got.cif
#   From: 2010.05.17/outbox.cif.g08.bks.cpg/sg57_6_cif.got.tgz:10546.got - 2010.06.03 13:58:18.
