data_PCOD9439139
_publ_section_title
;
Structure prediction by ZEFSAII (Michael W. Deem and Ramdas Pophale) SiO2 
 PCOD9439139
Probable space group: P B C M
;
_chemical_formula_sum "Si O2"
_cell_formula_units_Z 36
_cell_length_a 5.194400
_cell_length_b 9.155082
_cell_length_c 27.214112
_cell_angle_alpha 90.000000
_cell_angle_beta 90.000000
_cell_angle_gamma 90.000000
_cell_volume 1294.171394
_symmetry_space_group_name_H-M "P B C M"
_symmetry_group_IT_number 57
_symmetry_cell_setting 'orthorhombic'
loop_
_space_group_symop_operation_xyz
x,y,z
-x,-y,1/2+z
x,1/2-y,-z
-x,1/2+y,1/2-z
-x,-y,-z
x,y,1/2-z
-x,1/2+y,z
x,1/2-y,1/2+z
loop_
_atom_site_type_symbol
_atom_site_label
_atom_site_fract_x
_atom_site_fract_y
_atom_site_fract_z
Si Si1 0.275902 0.486066 0.937411
Si Si2 0.419150 0.750000 0.500000
Si Si3 0.542980 0.336863 0.250000
Si Si4 0.957803 0.858594 0.750000
Si Si5 0.460911 0.347311 0.145591
Si Si6 0.038460 0.647903 0.143203
O O1 0.248883 0.626537 0.972809
O O2 0.482323 0.541752 0.897517
O O3 0.028915 0.445277 0.904979
O O4 0.394937 0.347131 0.965271
O O5 0.326460 0.210251 0.250000
O O6 0.495862 0.418040 0.199187
O O7 0.827180 0.269562 0.250000
O O8 0.002854 0.929935 0.803551
O O9 0.188607 0.268758 0.142606
O O10 0.690443 0.228952 0.142111
#
# Coordination Sequence:
#
# PCOD9439139 Si02
#       6
#     8   4   4   4   8   8
#     4  11  22  45  75  99 143 180 245 290 374 411
#     4  10  24  46  74 104 138 186 242 322 354 428
#     4   8  16  33  60  98 139 175 220 270 336 415
#     4   8  16  33  60  98 139 175 220 270 336 415
#     4  10  21  40  68 102 139 182 225 280 345 424
#     4  10  21  40  68 102 139 182 225 280 345 424
#
# _framework density 27.817028000000001
#
# number of rings (size 3 to 8) (size 9 to 14) (size 15 to 20)
#    0.000    2.222    2.222    0.000    0.000    2.667 
#    0.000    3.333    0.000   16.000    0.000    0.000 
#    0.000    0.000    0.000    0.000    0.000    0.000 
#
# Total GULP energy -201991.625452 kJ/mol
# GULP energy per Si atom -5610.878485 kJ/mol
# Density = 2.775371 g / cm^3
# Si number density = 27.817028 Si / 1000 Ang^3
#
#
#
# Elastic Constant Matrix: (Units=GPa)
#
#
# Indices 1 2 3 4 5 6 
#
# 1 164.5686 78.2157 11.9036 0.0000 0.0000 0.0000
# 2 78.2157 147.8810 88.3561 0.0000 0.0000 0.0000
# 3 11.9036 88.3561 195.8455 0.0000 0.0000 0.0000
# 4 0.0000 0.0000 0.0000 11.8717 0.0000 0.0000
# 5 0.0000 0.0000 0.0000 0.0000 -100.7001 0.0000
# 6 0.0000 0.0000 0.0000 0.0000 0.0000 62.2423
#
#
#
# Elastic Compliance Matrix: (Units=1/GPa)
#
#
# Indices 1 2 3 4 5 6 
#
# 1 0.008717 -0.005878 0.002122 0.000000 0.000000 0.000000
# 2 -0.005878 0.013222 -0.005608 0.000000 0.000000 0.000000
# 3 0.002122 -0.005608 0.007507 0.000000 0.000000 0.000000
# 4 0.000000 0.000000 0.000000 0.084234 0.000000 0.000000
# 5 0.000000 0.000000 0.000000 0.000000 -0.009930 0.000000
# 6 0.000000 0.000000 0.000000 0.000000 0.000000 0.016066
#
#
# Mechanical properties :
#
#
# Convention : Reuss Voigt Hill
#
# Bulk Modulus (GPa) = 93.30224 96.13842 94.72033
# Shear Modulus (GPa) = 35.18250 16.67077 25.92663
#
# Velocity S-wave (km/s) = 3.56024 2.45072 3.05625
# Velocity P-wave (km/s) = 7.10736 6.53024 6.82490
#
# Compressibility (1/GPa) = 0.01071786
#
# Stress axis : x y z
#
# Youngs Moduli (GPa) = 114.71996 75.63200 133.20825
#
# Poissons Ratio (x) = 0.44460 -0.28270
# Poissons Ratio (y) = 0.67438 0.74700
# Poissons Ratio (z) = -0.24346 0.42413
#
# Static dielectric constant tensor:
#      x y z
#    x 2.097030 0.000000 0.000000 
#    y 0.000000 2.172110 0.000000 
#    z 0.000000 0.000000 2.214880 
# 
# From -- ./inp_files/29039.got.cif
#   From: 2010.05.17/outbox.cif.g08.bks.cpg/sg57_15_cif.got.tgz:29039.got - 2010.06.03 13:58:18.
