data_PCOD9439081
_publ_section_title
;
Structure prediction by ZEFSAII (Michael W. Deem and Ramdas Pophale) SiO2 
 PCOD9439081
Probable space group: P B C M
;
_chemical_formula_sum "Si O2"
_cell_formula_units_Z 56
_cell_length_a 13.670074
_cell_length_b 9.195513
_cell_length_c 22.500399
_cell_angle_alpha 90.000000
_cell_angle_beta 90.000000
_cell_angle_gamma 90.000000
_cell_volume 2828.375377
_symmetry_space_group_name_H-M "P B C M"
_symmetry_group_IT_number 57
_symmetry_cell_setting 'orthorhombic'
loop_
_space_group_symop_operation_xyz
x,y,z
-x,-y,1/2+z
x,1/2-y,-z
-x,1/2+y,1/2-z
-x,-y,-z
x,y,1/2-z
-x,1/2+y,z
x,1/2-y,1/2+z
loop_
_atom_site_type_symbol
_atom_site_label
_atom_site_fract_x
_atom_site_fract_y
_atom_site_fract_z
Si Si1 0.606182 0.172664 0.437410
Si Si2 0.298471 0.923400 0.129209
Si Si3 0.895435 0.289587 0.320600
Si Si4 0.605699 0.065309 0.750000
Si Si5 0.393229 0.580341 0.250000
Si Si6 0.899997 0.942370 0.179799
Si Si7 0.695512 0.567782 0.867422
Si Si8 0.382598 0.325384 0.563762
O O1 0.622384 0.250000 0.500000
O O2 0.626547 0.296680 0.389223
O O3 0.494421 0.118230 0.435032
O O4 0.679183 0.043567 0.421625
O O5 0.192817 0.854618 0.140978
O O6 0.336912 0.984350 0.191515
O O7 0.308584 0.045848 0.079215
O O8 0.874250 0.314463 0.250000
O O9 0.904252 0.116453 0.328552
O O10 0.997617 0.367150 0.335075
O O11 0.603856 0.243457 0.750000
O O12 0.499978 0.991745 0.750000
O O13 0.338662 0.518101 0.308401
O O14 0.882591 0.914578 0.250000
O O15 0.807179 0.887342 0.142934
O O16 0.630396 0.705238 0.884891
O O17 0.367087 0.250000 0.500000
#
# Coordination Sequence:
#
# PCOD9439081 Si02
#       8
#     8   8   8   4   4   8   8   8
#     4  11  22  41  66  89 120 175 221 254 306 368
#     4  12  23  40  64  91 131 166 204 265 317 372
#     4  10  21  40  63  92 125 161 205 254 315 385
#     4  12  24  38  59  94 134 167 200 253 325 391
#     4  12  24  38  59  94 134 167 200 253 325 391
#     4  10  21  40  63  92 125 161 205 254 315 385
#     4  12  23  40  64  91 131 166 204 265 317 372
#     4  11  26  43  62  93 128 169 225 262 292 368
#
# _framework density 19.799353
#
# number of rings (size 3 to 8) (size 9 to 14) (size 15 to 20)
#    0.000    0.857    4.286    3.429    4.000    2.286 
#    0.000    0.000    0.000    5.143    0.000    0.000 
#    0.000    0.000    0.000    0.000    0.000    0.000 
#
# Total GULP energy -313064.336129 kJ/mol
# GULP energy per Si atom -5590.434574 kJ/mol
# Density = 1.975429 g / cm^3
# Si number density = 19.799353 Si / 1000 Ang^3
#
#
#
# Elastic Constant Matrix: (Units=GPa)
#
#
# Indices 1 2 3 4 5 6 
#
# 1 89.2752 0.4955 28.2296 0.0000 0.0000 0.0000
# 2 0.4955 31.6881 7.6021 0.0000 0.0000 0.0000
# 3 28.2296 7.6021 68.9654 0.0000 0.0000 0.0000
# 4 0.0000 0.0000 0.0000 22.6043 0.0000 0.0000
# 5 0.0000 0.0000 0.0000 0.0000 21.5488 0.0000
# 6 0.0000 0.0000 0.0000 0.0000 0.0000 29.6224
#
#
#
# Elastic Compliance Matrix: (Units=1/GPa)
#
#
# Indices 1 2 3 4 5 6 
#
# 1 0.012904 0.001094 -0.005402 0.000000 0.000000 0.000000
# 2 0.001094 0.032508 -0.004031 0.000000 0.000000 0.000000
# 3 -0.005402 -0.004031 0.017156 0.000000 0.000000 0.000000
# 4 0.000000 0.000000 0.000000 0.044239 0.000000 0.000000
# 5 0.000000 0.000000 0.000000 0.000000 0.046406 0.000000
# 6 0.000000 0.000000 0.000000 0.000000 0.000000 0.033758
#
#
# Mechanical properties :
#
#
# Convention : Reuss Voigt Hill
#
# Bulk Modulus (GPa) = 21.79213 29.17588 25.48400
# Shear Modulus (GPa) = 22.83674 24.99521 23.91597
#
# Velocity S-wave (km/s) = 3.39987 3.55692 3.47928
# Velocity P-wave (km/s) = 5.14223 5.62465 5.38884
#
# Compressibility (1/GPa) = 0.04588813
#
# Stress axis : x y z
#
# Youngs Moduli (GPa) = 77.49810 30.76206 58.28948
#
# Poissons Ratio (x) = -0.03366 0.31490
# Poissons Ratio (y) = -0.08481 0.23498
# Poissons Ratio (z) = 0.41868 0.12401
#
# Static dielectric constant tensor:
#      x y z
#    x 1.662840 0.000000 0.000000 
#    y 0.000000 1.722860 0.000000 
#    z 0.000000 0.000000 1.717520 
# 
# From -- ./inp_files/25426.got.cif
#   From: 2010.05.17/outbox.cif.g08.bks.cpg/sg57_13_cif.got.tgz:25426.got - 2010.06.03 13:58:18.
