data_PCOD9439490
_publ_section_title
;
Structure prediction by ZEFSAII (Michael W. Deem and Ramdas Pophale) SiO2 
 PCOD9439490
Probable space group: P B C M
;
_chemical_formula_sum "Si O2"
_cell_formula_units_Z 40
_cell_length_a 5.163144
_cell_length_b 15.230163
_cell_length_c 24.728967
_cell_angle_alpha 90.000000
_cell_angle_beta 90.000000
_cell_angle_gamma 90.000000
_cell_volume 1944.575296
_symmetry_space_group_name_H-M "P B C M"
_symmetry_group_IT_number 57
_symmetry_cell_setting 'orthorhombic'
loop_
_space_group_symop_operation_xyz
x,y,z
-x,-y,1/2+z
x,1/2-y,-z
-x,1/2+y,1/2-z
-x,-y,-z
x,y,1/2-z
-x,1/2+y,z
x,1/2-y,1/2+z
loop_
_atom_site_type_symbol
_atom_site_label
_atom_site_fract_x
_atom_site_fract_y
_atom_site_fract_z
Si Si1 0.040709 0.512429 0.136751
Si Si2 0.055780 0.308602 0.928964
Si Si3 0.554325 0.310153 0.408560
Si Si4 0.535714 0.056752 0.812447
Si Si5 0.926713 0.087088 0.967692
O O1 0.964929 0.602941 0.107302
O O2 0.815534 0.486054 0.177954
O O3 0.044042 0.435306 0.090998
O O4 0.317157 0.509698 0.165292
O O5 0.316241 0.253566 0.920339
O O6 0.812304 0.248986 0.912154
O O7 0.028367 0.340420 0.990900
O O8 0.525036 0.358021 0.351151
O O9 0.628984 0.386311 0.453005
O O10 0.491296 0.077347 0.750000
O O11 0.000000 0.000000 0.000000
#
# Coordination Sequence:
#
# PCOD9439490 Si02
#       5
#     8   8   8   8   8
#     4  10  22  41  64  89 119 160 209 251 302 372
#     4  11  23  40  61  94 130 158 197 255 311 367
#     4  11  23  39  62  93 128 163 204 253 309 366
#     4  11  23  43  64  85 116 162 210 256 305 364
#     4   9  21  39  62  91 127 167 202 241 299 375
#
# _framework density 20.570045
#
# number of rings (size 3 to 8) (size 9 to 14) (size 15 to 20)
#    0.000    1.600    0.000    4.800    0.000    8.000 
#    0.000   23.000    0.000    0.000    0.000    0.000 
#    0.000    0.000    0.000    0.000    0.000    0.000 
#
# Total GULP energy -223322.067256 kJ/mol
# GULP energy per Si atom -5583.051681 kJ/mol
# Density = 2.052323 g / cm^3
# Si number density = 20.570045 Si / 1000 Ang^3
#
#
#
# Elastic Constant Matrix: (Units=GPa)
#
#
# Indices 1 2 3 4 5 6 
#
# 1 128.7255 46.8970 45.2112 0.0000 0.0000 0.0000
# 2 46.8970 133.5247 56.3729 0.0000 0.0000 0.0000
# 3 45.2112 56.3729 135.1937 0.0000 0.0000 0.0000
# 4 0.0000 0.0000 0.0000 20.2338 0.0000 0.0000
# 5 0.0000 0.0000 0.0000 0.0000 18.1413 0.0000
# 6 0.0000 0.0000 0.0000 0.0000 0.0000 34.6350
#
#
#
# Elastic Compliance Matrix: (Units=1/GPa)
#
#
# Indices 1 2 3 4 5 6 
#
# 1 0.009393 -0.002394 -0.002143 0.000000 0.000000 0.000000
# 2 -0.002394 0.009700 -0.003244 0.000000 0.000000 0.000000
# 3 -0.002143 -0.003244 0.009466 0.000000 0.000000 0.000000
# 4 0.000000 0.000000 0.000000 0.049422 0.000000 0.000000
# 5 0.000000 0.000000 0.000000 0.000000 0.055123 0.000000
# 6 0.000000 0.000000 0.000000 0.000000 0.000000 0.028873
#
#
# Mechanical properties :
#
#
# Convention : Reuss Voigt Hill
#
# Bulk Modulus (GPa) = 76.94191 77.15623 77.04907
# Shear Modulus (GPa) = 27.49192 31.19954 29.34573
#
# Velocity S-wave (km/s) = 3.65979 3.89877 3.78117
# Velocity P-wave (km/s) = 7.43941 7.60642 7.52338
#
# Compressibility (1/GPa) = 0.01299682
#
# Stress axis : x y z
#
# Youngs Moduli (GPa) = 106.45712 103.09523 105.64098
#
# Poissons Ratio (x) = 0.24686 0.22638
# Poissons Ratio (y) = 0.25491 0.34268
# Poissons Ratio (z) = 0.22813 0.33442
#
# Static dielectric constant tensor:
#      x y z
#    x 1.756320 0.000000 0.000000 
#    y 0.000000 1.804520 0.000000 
#    z 0.000000 0.000000 1.712540 
# 
# From -- ./inp_files/26124.got.cif
#   From: 2010.05.17/outbox.cif.g08.bks.cpg/sg57_14_cif.got.tgz:26124.got - 2010.06.03 13:58:18.
