data_PCOD9439550
_publ_section_title
;
Structure prediction by ZEFSAII (Michael W. Deem and Ramdas Pophale) SiO2 
 PCOD9439550
Probable space group: P B C M
;
_chemical_formula_sum "Si O2"
_cell_formula_units_Z 40
_cell_length_a 17.278792
_cell_length_b 4.964967
_cell_length_c 18.047558
_cell_angle_alpha 90.000000
_cell_angle_beta 90.000000
_cell_angle_gamma 90.000000
_cell_volume 1548.275313
_symmetry_space_group_name_H-M "P B C M"
_symmetry_group_IT_number 57
_symmetry_cell_setting 'orthorhombic'
loop_
_space_group_symop_operation_xyz
x,y,z
-x,-y,1/2+z
x,1/2-y,-z
-x,1/2+y,1/2-z
-x,-y,-z
x,y,1/2-z
-x,1/2+y,z
x,1/2-y,1/2+z
loop_
_atom_site_type_symbol
_atom_site_label
_atom_site_fract_x
_atom_site_fract_y
_atom_site_fract_z
Si Si1 0.333704 0.250000 0.500000
Si Si2 0.839306 0.107886 0.332374
Si Si3 0.262958 0.408170 0.856600
Si Si4 0.031362 0.586409 0.583356
Si Si5 0.549596 0.080109 0.401518
Si Si6 0.614585 0.873451 0.250000
O O1 0.280940 0.411269 0.557143
O O2 0.383675 0.039568 0.547290
O O3 0.876407 0.127480 0.250000
O O4 0.764063 0.300919 0.330678
O O5 0.891676 0.246978 0.396937
O O6 0.804573 0.812045 0.343463
O O7 0.337327 0.301705 0.813231
O O8 0.000000 0.500000 0.500000
O O9 0.031844 0.289672 0.617732
O O10 0.475945 0.884734 0.415401
O O11 0.571377 0.044166 0.315874
#
# Coordination Sequence:
#
# PCOD9439550 Si02
#       6
#     4   8   8   8   8   4
#     4  10  26  42  66  96 136 180 218 280 336 404
#     4  12  24  43  70  97 134 175 224 280 333 396
#     4  11  25  43  67  99 135 174 227 278 340 398
#     4  10  23  42  65  95 132 173 215 268 324 392
#     4  11  24  41  65  94 132 173 223 273 336 401
#     4  10  22  42  66  96 130 172 222 280 334 400
#
# _framework density 25.8352
#
# number of rings (size 3 to 8) (size 9 to 14) (size 15 to 20)
#    0.000    1.200    2.000    2.400    0.000   16.000 
#    0.000    0.000    0.000    0.000    0.000    0.000 
#    0.000    0.000    0.000    0.000    0.000    0.000 
#
# Total GULP energy -222705.174176 kJ/mol
# GULP energy per Si atom -5567.629354 kJ/mol
# Density = 2.577640 g / cm^3
# Si number density = 25.835200 Si / 1000 Ang^3
#
#
#
# Elastic Constant Matrix: (Units=GPa)
#
#
# Indices 1 2 3 4 5 6 
#
# 1 33.6225 13.9468 26.4089 0.0000 0.0000 0.0000
# 2 13.9468 113.9060 -0.0286 0.0000 0.0000 0.0000
# 3 26.4089 -0.0286 178.5740 0.0000 0.0000 0.0000
# 4 0.0000 0.0000 0.0000 9.1498 0.0000 0.0000
# 5 0.0000 0.0000 0.0000 0.0000 30.3857 0.0000
# 6 0.0000 0.0000 0.0000 0.0000 0.0000 29.5299
#
#
#
# Elastic Compliance Matrix: (Units=1/GPa)
#
#
# Indices 1 2 3 4 5 6 
#
# 1 0.035704 -0.004373 -0.005281 0.000000 0.000000 0.000000
# 2 -0.004373 0.009315 0.000648 0.000000 0.000000 0.000000
# 3 -0.005281 0.000648 0.006381 0.000000 0.000000 0.000000
# 4 0.000000 0.000000 0.000000 0.109293 0.000000 0.000000
# 5 0.000000 0.000000 0.000000 0.000000 0.032910 0.000000
# 6 0.000000 0.000000 0.000000 0.000000 0.000000 0.033864
#
#
# Mechanical properties :
#
#
# Convention : Reuss Voigt Hill
#
# Bulk Modulus (GPa) = 29.95058 45.19519 37.57289
# Shear Modulus (GPa) = 19.48506 32.86476 26.17491
#
# Velocity S-wave (km/s) = 2.74926 3.57051 3.18645
# Velocity P-wave (km/s) = 4.65790 5.87620 5.30215
#
# Compressibility (1/GPa) = 0.03338833
#
# Stress axis : x y z
#
# Youngs Moduli (GPa) = 28.00824 107.35643 156.71532
#
# Poissons Ratio (x) = 0.46946 0.82759
# Poissons Ratio (y) = 0.12248 -0.10158
# Poissons Ratio (z) = 0.14791 -0.06959
#
# Static dielectric constant tensor:
#      x y z
#    x 2.117770 0.000000 0.000000 
#    y 0.000000 2.201330 0.000000 
#    z 0.000000 0.000000 2.430600 
# 
# From -- ./inp_files/22788.got.cif
#   From: 2010.05.17/outbox.cif.g08.bks.cpg/sg57_12_cif.got.tgz:22788.got - 2010.06.03 13:58:18.
