data_PCOD9439658
_publ_section_title
;
Structure prediction by ZEFSAII (Michael W. Deem and Ramdas Pophale) SiO2 
 PCOD9439658
Probable space group: P B C M
;
_chemical_formula_sum "Si O2"
_cell_formula_units_Z 56
_cell_length_a 15.851306
_cell_length_b 11.699129
_cell_length_c 14.237058
_cell_angle_alpha 90.000000
_cell_angle_beta 90.000000
_cell_angle_gamma 90.000000
_cell_volume 2640.212202
_symmetry_space_group_name_H-M "P B C M"
_symmetry_group_IT_number 57
_symmetry_cell_setting 'orthorhombic'
loop_
_space_group_symop_operation_xyz
x,y,z
-x,-y,1/2+z
x,1/2-y,-z
-x,1/2+y,1/2-z
-x,-y,-z
x,y,1/2-z
-x,1/2+y,z
x,1/2-y,1/2+z
loop_
_atom_site_type_symbol
_atom_site_label
_atom_site_fract_x
_atom_site_fract_y
_atom_site_fract_z
Si Si1 0.721577 0.324742 0.861329
Si Si2 0.763258 0.080053 0.553439
Si Si3 0.575186 0.485096 0.638457
Si Si4 0.674432 0.780399 0.108198
Si Si5 0.609952 0.544806 0.143588
Si Si6 0.916721 0.933850 0.967956
Si Si7 0.130164 0.284735 0.144506
O O1 0.737994 0.345594 0.750000
O O2 0.741220 0.195103 0.889877
O O3 0.626376 0.368812 0.883061
O O4 0.770760 0.394676 0.941916
O O5 0.686367 0.997106 0.579179
O O6 0.850765 0.021194 0.578606
O O7 0.563051 0.481542 0.750000
O O8 0.633475 0.595219 0.619878
O O9 0.479884 0.492538 0.602409
O O10 0.614042 0.681912 0.147959
O O11 0.768592 0.766774 0.148182
O O12 0.682986 0.750000 0.000000
O O13 0.622385 0.499922 0.250000
O O14 0.918760 0.826445 0.896245
O O15 0.881479 0.880129 0.064861
O O16 0.000000 0.000000 0.000000
O O17 0.101607 0.313394 0.250000
#
# Coordination Sequence:
#
# PCOD9439658 Si02
#       7
#     8   8   8   8   8   8   8
#     4  10  23  41  62  91 132 175 222 271 332 404
#     4  11  23  42  67  92 126 177 220 273 349 406
#     4  10  23  39  59  93 137 182 231 289 335 385
#     4  12  22  39  65  96 133 181 235 285 338 399
#     4  11  23  39  63  94 132 178 232 285 336 400
#     4  11  25  46  69 102 136 166 221 290 343 417
#     4  11  23  44  72 102 137 179 223 276 349 421
#
# _framework density 21.210415999999999
#
# number of rings (size 3 to 8) (size 9 to 14) (size 15 to 20)
#    0.000    1.143    2.857    3.429    2.000    7.429 
#    0.000    1.429    0.000    0.000    0.000    0.000 
#    0.000    0.000    0.000    0.000    0.000    0.000 
#
# Total GULP energy -312511.265813 kJ/mol
# GULP energy per Si atom -5580.558318 kJ/mol
# Density = 2.116214 g / cm^3
# Si number density = 21.210416 Si / 1000 Ang^3
#
#
#
# Elastic Constant Matrix: (Units=GPa)
#
#
# Indices 1 2 3 4 5 6 
#
# 1 69.5697 43.0218 -9.2950 0.0000 0.0000 0.0000
# 2 43.0218 104.6924 3.2077 0.0000 0.0000 0.0000
# 3 -9.2950 3.2077 104.6063 0.0000 0.0000 0.0000
# 4 0.0000 0.0000 0.0000 21.2432 0.0000 0.0000
# 5 0.0000 0.0000 0.0000 0.0000 34.2188 0.0000
# 6 0.0000 0.0000 0.0000 0.0000 0.0000 33.2948
#
#
#
# Elastic Compliance Matrix: (Units=1/GPa)
#
#
# Indices 1 2 3 4 5 6 
#
# 1 0.019680 -0.008148 0.001999 0.000000 0.000000 0.000000
# 2 -0.008148 0.012935 -0.001121 0.000000 0.000000 0.000000
# 3 0.001999 -0.001121 0.009772 0.000000 0.000000 0.000000
# 4 0.000000 0.000000 0.000000 0.047074 0.000000 0.000000
# 5 0.000000 0.000000 0.000000 0.000000 0.029224 0.000000
# 6 0.000000 0.000000 0.000000 0.000000 0.000000 0.030035
#
#
# Mechanical properties :
#
#
# Convention : Reuss Voigt Hill
#
# Bulk Modulus (GPa) = 35.91288 39.19305 37.55297
# Shear Modulus (GPa) = 28.97851 33.88027 31.42939
#
# Velocity S-wave (km/s) = 3.70028 4.00101 3.85358
# Velocity P-wave (km/s) = 5.93503 6.31367 6.12727
#
# Compressibility (1/GPa) = 0.02784516
#
# Stress axis : x y z
#
# Youngs Moduli (GPa) = 50.81273 77.31185 102.33732
#
# Poissons Ratio (x) = 0.62997 -0.20453
# Poissons Ratio (y) = 0.41405 0.11469
# Poissons Ratio (z) = -0.10155 0.08664
#
# Static dielectric constant tensor:
#      x y z
#    x 1.787520 0.000000 0.000000 
#    y 0.000000 1.798930 0.000000 
#    z 0.000000 0.000000 1.791860 
# 
# From -- ./inp_files/18489.got.cif
#   From: 2010.05.17/outbox.cif.g08.bks.cpg/sg57_10_cif.got.tgz:18489.got - 2010.06.03 13:58:18.
