data_PCOD9439632
_publ_section_title
;
Structure prediction by ZEFSAII (Michael W. Deem and Ramdas Pophale) SiO2 
 PCOD9439632
Probable space group: P B C M
;
_chemical_formula_sum "Si O2"
_cell_formula_units_Z 32
_cell_length_a 5.294691
_cell_length_b 14.118612
_cell_length_c 17.399074
_cell_angle_alpha 90.000000
_cell_angle_beta 90.000000
_cell_angle_gamma 90.000000
_cell_volume 1300.644947
_symmetry_space_group_name_H-M "P B C M"
_symmetry_group_IT_number 57
_symmetry_cell_setting 'orthorhombic'
loop_
_space_group_symop_operation_xyz
x,y,z
-x,-y,1/2+z
x,1/2-y,-z
-x,1/2+y,1/2-z
-x,-y,-z
x,y,1/2-z
-x,1/2+y,z
x,1/2-y,1/2+z
loop_
_atom_site_type_symbol
_atom_site_label
_atom_site_fract_x
_atom_site_fract_y
_atom_site_fract_z
Si Si1 0.076867 0.365243 0.164414
Si Si2 0.875869 0.648043 0.366536
Si Si3 0.623410 0.043909 0.369765
Si Si4 0.185629 0.643274 0.991145
O O1 0.976204 0.381310 0.250000
O O2 0.159500 0.256158 0.157184
O O3 0.305772 0.437231 0.149387
O O4 0.877545 0.381451 0.095699
O O5 0.643049 0.583467 0.343916
O O6 0.142239 0.606673 0.337127
O O7 0.925167 0.646163 0.458932
O O8 0.653467 0.069599 0.460166
O O9 0.291915 0.750000 0.000000
#
# Coordination Sequence:
#
# PCOD9439632 Si02
#       4
#     8   8   8   8
#     4  11  23  42  68 104 138 175 220 278 346 401
#     4   9  23  43  69  92 132 175 228 271 321 397
#     4  10  22  44  71  95 129 178 227 270 326 397
#     4   8  19  42  67  96 126 176 221 271 325 389
#
# _framework density 24.603176000000001
#
# number of rings (size 3 to 8) (size 9 to 14) (size 15 to 20)
#    1.500    1.000    0.000    0.750    0.000    8.000 
#    0.000    2.500    0.000    0.000    0.000    0.000 
#    0.000    0.000    0.000    0.000    0.000    0.000 
#
# Total GULP energy -178841.333264 kJ/mol
# GULP energy per Si atom -5588.791664 kJ/mol
# Density = 2.454718 g / cm^3
# Si number density = 24.603176 Si / 1000 Ang^3
#
#
#
# Elastic Constant Matrix: (Units=GPa)
#
#
# Indices 1 2 3 4 5 6 
#
# 1 90.2179 56.1470 16.3505 0.0000 0.0000 0.0000
# 2 56.1470 154.1362 12.8012 0.0000 0.0000 0.0000
# 3 16.3505 12.8012 188.8472 0.0000 0.0000 0.0000
# 4 0.0000 0.0000 0.0000 -126.0022 0.0000 0.0000
# 5 0.0000 0.0000 0.0000 0.0000 -9.7857 0.0000
# 6 0.0000 0.0000 0.0000 0.0000 0.0000 13.4055
#
#
#
# Elastic Compliance Matrix: (Units=1/GPa)
#
#
# Indices 1 2 3 4 5 6 
#
# 1 0.014485 -0.005201 -0.000902 0.000000 0.000000 0.000000
# 2 -0.005201 0.008392 -0.000119 0.000000 0.000000 0.000000
# 3 -0.000902 -0.000119 0.005381 0.000000 0.000000 0.000000
# 4 0.000000 0.000000 0.000000 -0.007936 0.000000 0.000000
# 5 0.000000 0.000000 0.000000 0.000000 -0.102190 0.000000
# 6 0.000000 0.000000 0.000000 0.000000 0.000000 0.074596
#
#
# Mechanical properties :
#
#
# Convention : Reuss Voigt Hill
#
# Bulk Modulus (GPa) = 63.22930 67.08873 65.15902
# Shear Modulus (GPa) = 478.75325 -1.28298 238.73514
#
# Velocity S-wave (km/s) = 13.96469 -0.72291 9.86128
# Velocity P-wave (km/s) = 16.90479 5.16050 12.49806
#
# Compressibility (1/GPa) = 0.01581545
#
# Stress axis : x y z
#
# Youngs Moduli (GPa) = 69.03787 119.15606 185.82610
#
# Poissons Ratio (x) = 0.61979 0.16753
# Poissons Ratio (y) = 0.35910 0.02203
# Poissons Ratio (z) = 0.06224 0.01412
#
# Static dielectric constant tensor:
#      x y z
#    x 1.944610 0.000000 0.000000 
#    y 0.000000 1.937560 0.000000 
#    z 0.000000 0.000000 1.998380 
# 
# From -- ./inp_files/19836.got.cif
#   From: 2010.05.17/outbox.cif.g08.bks.cpg/sg57_10_cif.got.tgz:19836.got - 2010.06.03 13:58:18.
