data_PCOD9439622
_publ_section_title
;
Structure prediction by ZEFSAII (Michael W. Deem and Ramdas Pophale) SiO2 
 PCOD9439622
Probable space group: P B C M
;
_chemical_formula_sum "Si O2"
_cell_formula_units_Z 64
_cell_length_a 5.556962
_cell_length_b 23.969173
_cell_length_c 20.961172
_cell_angle_alpha 90.000000
_cell_angle_beta 90.000000
_cell_angle_gamma 90.000000
_cell_volume 2791.939728
_symmetry_space_group_name_H-M "P B C M"
_symmetry_group_IT_number 57
_symmetry_cell_setting 'orthorhombic'
loop_
_space_group_symop_operation_xyz
x,y,z
-x,-y,1/2+z
x,1/2-y,-z
-x,1/2+y,1/2-z
-x,-y,-z
x,y,1/2-z
-x,1/2+y,z
x,1/2-y,1/2+z
loop_
_atom_site_type_symbol
_atom_site_label
_atom_site_fract_x
_atom_site_fract_y
_atom_site_fract_z
Si Si1 0.759443 0.570946 0.983316
Si Si2 0.851097 0.492645 0.410917
Si Si3 0.803184 0.063183 0.178096
Si Si4 0.765533 0.692045 0.038427
Si Si5 0.733225 0.317317 0.618376
Si Si6 0.541288 0.544375 0.848777
Si Si7 0.252249 0.158011 0.677836
Si Si8 0.248283 0.699951 0.675424
O O1 0.600141 0.553056 0.923550
O O2 0.020745 0.548943 0.960430
O O3 0.696257 0.536006 0.046445
O O4 0.751347 0.636268 0.995567
O O5 0.744438 0.454338 0.354016
O O6 0.022987 0.535503 0.373999
O O7 0.902186 0.067340 0.250000
O O8 0.725231 0.123400 0.153543
O O9 0.595900 0.016407 0.177695
O O10 0.517983 0.690773 0.080015
O O11 0.019336 0.685886 0.076826
O O12 0.772461 0.750000 0.000000
O O13 0.757328 0.266041 0.667286
O O14 0.696241 0.592387 0.817698
O O15 0.242988 0.182022 0.750000
O O16 0.498060 0.180123 0.646073
O O17 0.998450 0.174575 0.647426
O O18 0.256617 0.682690 0.750000
#
# Coordination Sequence:
#
# PCOD9439622 Si02
#       8
#     8   8   8   8   8   8   8   8
#     4  10  23  41  68  95 136 182 231 282 356 418
#     4  10  22  44  67 101 133 185 232 289 349 441
#     4  11  25  44  68 104 142 186 237 296 360 430
#     4  12  28  46  70 104 142 182 235 298 352 419
#     4  12  26  48  72 100 142 181 239 289 356 423
#     4  11  24  39  69  99 139 183 235 293 359 425
#     4  10  23  42  67  99 137 176 229 289 348 419
#     4  10  23  44  69  96 131 181 230 282 344 417
#
# _framework density 22.923131999999999
#
# number of rings (size 3 to 8) (size 9 to 14) (size 15 to 20)
#    0.000    1.250    1.250    3.000    8.750    1.000 
#    0.000    1.250    0.000    0.000    0.000    0.000 
#    0.000    0.000    0.000    0.000    0.000    0.000 
#
# Total GULP energy -357028.298174 kJ/mol
# GULP energy per Si atom -5578.567159 kJ/mol
# Density = 2.287096 g / cm^3
# Si number density = 22.923132 Si / 1000 Ang^3
#
#
#
# Elastic Constant Matrix: (Units=GPa)
#
#
# Indices 1 2 3 4 5 6 
#
# 1 109.7371 52.2728 18.0496 0.0000 0.0000 0.0000
# 2 52.2728 163.4029 29.5284 0.0000 0.0000 0.0000
# 3 18.0496 29.5284 76.7318 0.0000 0.0000 0.0000
# 4 0.0000 0.0000 0.0000 7.7933 0.0000 0.0000
# 5 0.0000 0.0000 0.0000 0.0000 -0.8965 0.0000
# 6 0.0000 0.0000 0.0000 0.0000 0.0000 27.5735
#
#
#
# Elastic Compliance Matrix: (Units=1/GPa)
#
#
# Indices 1 2 3 4 5 6 
#
# 1 0.010872 -0.003241 -0.001310 0.000000 0.000000 0.000000
# 2 -0.003241 0.007544 -0.002141 0.000000 0.000000 0.000000
# 3 -0.001310 -0.002141 0.014164 0.000000 0.000000 0.000000
# 4 0.000000 0.000000 0.000000 0.128315 0.000000 0.000000
# 5 0.000000 0.000000 0.000000 0.000000 -1.115504 0.000000
# 6 0.000000 0.000000 0.000000 0.000000 0.000000 0.036267
#
#
# Mechanical properties :
#
#
# Convention : Reuss Voigt Hill
#
# Bulk Modulus (GPa) = 52.09366 61.06372 56.57869
# Shear Modulus (GPa) = -5.56446 23.56213 8.99883
#
# Velocity S-wave (km/s) = -1.55972 3.20953 1.98348
# Velocity P-wave (km/s) = 4.41940 6.35854 5.47550
#
# Compressibility (1/GPa) = 0.01919619
#
# Stress axis : x y z
#
# Youngs Moduli (GPa) = 91.97816 132.56383 70.59992
#
# Poissons Ratio (x) = 0.42967 0.09250
# Poissons Ratio (y) = 0.29813 0.15112
# Poissons Ratio (z) = 0.12050 0.28375
#
# Static dielectric constant tensor:
#      x y z
#    x 2.044450 0.000000 0.000000 
#    y 0.000000 1.837670 0.000000 
#    z 0.000000 0.000000 1.887110 
# 
# From -- ./inp_files/26396.got.cif
#   From: 2010.05.17/outbox.cif.g08.bks.cpg/sg57_14_cif.got.tgz:26396.got - 2010.06.03 13:58:18.
