data_PCOD9439878
_publ_section_title
;
Structure prediction by ZEFSAII (Michael W. Deem and Ramdas Pophale) SiO2 
 PCOD9439878
Probable space group: P B C M
;
_chemical_formula_sum "Si O2"
_cell_formula_units_Z 48
_cell_length_a 8.473853
_cell_length_b 15.001156
_cell_length_c 18.327028
_cell_angle_alpha 90.000000
_cell_angle_beta 90.000000
_cell_angle_gamma 90.000000
_cell_volume 2329.687645
_symmetry_space_group_name_H-M "P B C M"
_symmetry_group_IT_number 57
_symmetry_cell_setting 'orthorhombic'
loop_
_space_group_symop_operation_xyz
x,y,z
-x,-y,1/2+z
x,1/2-y,-z
-x,1/2+y,1/2-z
-x,-y,-z
x,y,1/2-z
-x,1/2+y,z
x,1/2-y,1/2+z
loop_
_atom_site_type_symbol
_atom_site_label
_atom_site_fract_x
_atom_site_fract_y
_atom_site_fract_z
Si Si1 0.917294 0.185687 0.164399
Si Si2 0.416882 0.402977 0.572682
Si Si3 0.558885 0.248866 0.334465
Si Si4 0.574373 0.583544 0.598326
Si Si5 0.937764 0.976059 0.580344
Si Si6 0.914650 0.869651 0.337133
O O1 0.937523 0.162300 0.250000
O O2 0.738620 0.218670 0.154174
O O3 0.956215 0.101813 0.114841
O O4 0.032502 0.268583 0.147676
O O5 0.447599 0.311943 0.615222
O O6 0.530490 0.479875 0.605017
O O7 0.449821 0.392972 0.486742
O O8 0.239772 0.439851 0.578591
O O9 0.516968 0.235168 0.250000
O O10 0.535958 0.351607 0.355028
O O11 0.751413 0.604314 0.624036
O O12 0.000000 0.000000 0.500000
O O13 0.956120 0.062889 0.630695
O O14 0.899657 0.879882 0.250000
#
# Coordination Sequence:
#
# PCOD9439878 Si02
#       6
#     8   8   8   8   8   8
#     4  10  24  44  66  95 131 171 218 270 326 390
#     4  11  25  42  64  96 135 169 218 268 332 389
#     4  11  24  43  68  97 129 171 218 270 331 390
#     4  11  23  43  65  96 132 171 214 269 325 394
#     4  12  24  42  64  95 133 172 214 267 323 392
#     4  11  23  43  70  97 129 173 220 269 325 389
#
# _framework density 20.603619999999999
#
# number of rings (size 3 to 8) (size 9 to 14) (size 15 to 20)
#    0.000    1.000    1.667    4.500    2.333    6.000 
#    3.000    0.000    0.000    0.000    0.000    0.000 
#    0.000    0.000    0.000    0.000    0.000    0.000 
#
# Total GULP energy -268671.639720 kJ/mol
# GULP energy per Si atom -5597.325828 kJ/mol
# Density = 2.055673 g / cm^3
# Si number density = 20.603620 Si / 1000 Ang^3
#
#
#
# Elastic Constant Matrix: (Units=GPa)
#
#
# Indices 1 2 3 4 5 6 
#
# 1 62.2595 6.9490 17.8162 0.0000 0.0000 0.0000
# 2 6.9490 73.9747 35.0236 0.0000 0.0000 0.0000
# 3 17.8162 35.0236 50.2935 0.0000 0.0000 0.0000
# 4 0.0000 0.0000 0.0000 45.1230 0.0000 0.0000
# 5 0.0000 0.0000 0.0000 0.0000 29.2928 0.0000
# 6 0.0000 0.0000 0.0000 0.0000 0.0000 42.4185
#
#
#
# Elastic Compliance Matrix: (Units=1/GPa)
#
#
# Indices 1 2 3 4 5 6 
#
# 1 0.018068 0.001989 -0.007785 0.000000 0.000000 0.000000
# 2 0.001989 0.020386 -0.014901 0.000000 0.000000 0.000000
# 3 -0.007785 -0.014901 0.033018 0.000000 0.000000 0.000000
# 4 0.000000 0.000000 0.000000 0.022162 0.000000 0.000000
# 5 0.000000 0.000000 0.000000 0.000000 0.034138 0.000000
# 6 0.000000 0.000000 0.000000 0.000000 0.000000 0.023575
#
#
# Mechanical properties :
#
#
# Convention : Reuss Voigt Hill
#
# Bulk Modulus (GPa) = 33.24844 34.01171 33.63008
# Shear Modulus (GPa) = 24.65878 31.81614 28.23746
#
# Velocity S-wave (km/s) = 3.46326 3.93390 3.70606
# Velocity P-wave (km/s) = 5.67137 6.09734 5.88821
#
# Compressibility (1/GPa) = 0.03007660
#
# Stress axis : x y z
#
# Youngs Moduli (GPa) = 55.34744 49.05249 30.28637
#
# Poissons Ratio (x) = -0.09755 0.23579
# Poissons Ratio (y) = -0.11007 0.45130
# Poissons Ratio (z) = 0.43090 0.73094
#
# Static dielectric constant tensor:
#      x y z
#    x 1.740890 0.000000 0.000000 
#    y 0.000000 1.699800 0.000000 
#    z 0.000000 0.000000 1.702400 
# 
# From -- ./inp_files/20920.got.cif
#   From: 2010.05.17/outbox.cif.g08.bks.cpg/sg57_11_cif.got.tgz:20920.got - 2010.06.03 13:58:18.
