data_PCOD9439927
_publ_section_title
;
Structure prediction by ZEFSAII (Michael W. Deem and Ramdas Pophale) SiO2 
 PCOD9439927
Probable space group: P B C M
;
_chemical_formula_sum "Si O2"
_cell_formula_units_Z 24
_cell_length_a 4.656138
_cell_length_b 21.184217
_cell_length_c 8.929345
_cell_angle_alpha 90.000000
_cell_angle_beta 90.000000
_cell_angle_gamma 90.000000
_cell_volume 880.760568
_symmetry_space_group_name_H-M "P B C M"
_symmetry_group_IT_number 57
_symmetry_cell_setting 'orthorhombic'
loop_
_space_group_symop_operation_xyz
x,y,z
-x,-y,1/2+z
x,1/2-y,-z
-x,1/2+y,1/2-z
-x,-y,-z
x,y,1/2-z
-x,1/2+y,z
x,1/2-y,1/2+z
loop_
_atom_site_type_symbol
_atom_site_label
_atom_site_fract_x
_atom_site_fract_y
_atom_site_fract_z
Si Si1 0.549639 0.958010 0.250000
Si Si2 0.589519 0.289220 0.750000
Si Si3 0.950996 0.543028 0.250000
Si Si4 0.247252 0.624217 0.997015
Si Si5 0.917910 0.702673 0.750000
O O1 0.446864 0.919078 0.106837
O O2 0.881927 0.975753 0.250000
O O3 0.380738 0.024725 0.250000
O O4 0.558720 0.330382 0.601311
O O5 0.923208 0.269925 0.750000
O O6 0.411318 0.224172 0.750000
O O7 0.057619 0.580783 0.393954
O O8 0.035908 0.665331 0.892956
#
# Coordination Sequence:
#
# PCOD9439927 Si02
#       5
#     4   4   4   8   4
#     4  11  24  43  69 102 139 182 232 290 352 420
#     4  11  26  45  68 100 140 186 236 290 349 416
#     4  11  24  43  69 102 139 182 232 290 352 420
#     4  10  25  44  70 102 140 186 237 290 352 422
#     4  11  26  45  68 100 140 186 236 290 349 416
#
# _framework density 27.249175999999999
#
# number of rings (size 3 to 8) (size 9 to 14) (size 15 to 20)
#    0.000    1.333    0.000    3.000    0.000   21.333 
#    0.000    5.000    0.000    0.000    0.000    0.000 
#    0.000    0.000    0.000    0.000    0.000    0.000 
#
# Total GULP energy -135021.756103 kJ/mol
# GULP energy per Si atom -5625.906504 kJ/mol
# Density = 2.718716 g / cm^3
# Si number density = 27.249176 Si / 1000 Ang^3
#
#
#
# Elastic Constant Matrix: (Units=GPa)
#
#
# Indices 1 2 3 4 5 6 
#
# 1 102.7257 24.5581 32.3496 0.0000 0.0000 0.0000
# 2 24.5581 119.7329 71.0455 0.0000 0.0000 0.0000
# 3 32.3496 71.0455 204.8745 0.0000 0.0000 0.0000
# 4 0.0000 0.0000 0.0000 41.4091 0.0000 0.0000
# 5 0.0000 0.0000 0.0000 0.0000 23.4191 0.0000
# 6 0.0000 0.0000 0.0000 0.0000 0.0000 56.6470
#
#
#
# Elastic Compliance Matrix: (Units=1/GPa)
#
#
# Indices 1 2 3 4 5 6 
#
# 1 0.010444 -0.001465 -0.001141 0.000000 0.000000 0.000000
# 2 -0.001465 0.010721 -0.003487 0.000000 0.000000 0.000000
# 3 -0.001141 -0.003487 0.006270 0.000000 0.000000 0.000000
# 4 0.000000 0.000000 0.000000 0.024149 0.000000 0.000000
# 5 0.000000 0.000000 0.000000 0.000000 0.042700 0.000000
# 6 0.000000 0.000000 0.000000 0.000000 0.000000 0.017653
#
#
# Mechanical properties :
#
#
# Convention : Reuss Voigt Hill
#
# Bulk Modulus (GPa) = 65.57246 75.91549 70.74397
# Shear Modulus (GPa) = 38.69754 44.25370 41.47562
#
# Velocity S-wave (km/s) = 3.77256 4.03431 3.90563
# Velocity P-wave (km/s) = 6.56449 7.04422 6.80858
#
# Compressibility (1/GPa) = 0.01525031
#
# Stress axis : x y z
#
# Youngs Moduli (GPa) = 95.74634 93.27303 159.48328
#
# Poissons Ratio (x) = 0.13666 0.18198
# Poissons Ratio (y) = 0.14028 0.55604
# Poissons Ratio (z) = 0.10925 0.32520
#
# Static dielectric constant tensor:
#      x y z
#    x 2.017620 0.000000 0.000000 
#    y 0.000000 2.100700 0.000000 
#    z 0.000000 0.000000 2.052990 
# 
# From -- ./inp_files/693.got.cif
#   From: 2010.05.17/outbox.cif.g08.bks.cpg/sg57_1_cif.got.tgz:693.got - 2010.06.03 13:58:18.
