data_PCOD9439609
_publ_section_title
;
Structure prediction by ZEFSAII (Michael W. Deem and Ramdas Pophale) SiO2 
 PCOD9439609
Probable space group: P B C M
;
_chemical_formula_sum "Si O2"
_cell_formula_units_Z 28
_cell_length_a 4.755887
_cell_length_b 26.278636
_cell_length_c 8.139419
_cell_angle_alpha 90.000000
_cell_angle_beta 90.000000
_cell_angle_gamma 90.000000
_cell_volume 1017.250126
_symmetry_space_group_name_H-M "P B C M"
_symmetry_group_IT_number 57
_symmetry_cell_setting 'orthorhombic'
loop_
_space_group_symop_operation_xyz
x,y,z
-x,-y,1/2+z
x,1/2-y,-z
-x,1/2+y,1/2-z
-x,-y,-z
x,y,1/2-z
-x,1/2+y,z
x,1/2-y,1/2+z
loop_
_atom_site_type_symbol
_atom_site_label
_atom_site_fract_x
_atom_site_fract_y
_atom_site_fract_z
Si Si1 0.180385 0.452652 0.437152
Si Si2 0.309522 0.750000 0.000000
Si Si3 0.043705 0.827592 0.750000
Si Si4 0.542755 0.597741 0.250000
Si Si5 0.339766 0.186751 0.750000
Si Si6 0.837340 0.124197 0.750000
O O1 0.291885 0.465068 0.250000
O O2 0.958742 0.407110 0.402175
O O3 0.000000 0.500000 0.500000
O O4 0.381918 0.434140 0.584770
O O5 0.123039 0.790252 0.899573
O O6 0.527825 0.715942 0.899516
O O7 0.235114 0.878252 0.750000
O O8 0.733505 0.850588 0.750000
O O9 0.508105 0.133125 0.750000
O O10 0.011345 0.176880 0.750000
#
# Coordination Sequence:
#
# PCOD9439609 Si02
#       6
#     8   4   4   4   4   4
#     4  10  22  43  71 102 138 176 225 282 340 407
#     4  10  24  40  64  96 134 170 224 276 324 394
#     4  11  26  42  71  98 138 180 229 278 340 403
#     4  12  23  47  68 104 134 184 226 277 341 408
#     4  11  22  42  59  94 124 172 211 266 326 379
#     4  10  23  39  66  88 130 170 212 265 325 392
#
# _framework density 27.525189999999998
#
# number of rings (size 3 to 8) (size 9 to 14) (size 15 to 20)
#    0.857    0.571    1.429    3.429    0.000    6.857 
#    0.000    8.571    0.000    0.000    0.000    0.000 
#    0.000    0.000    0.000    0.000    0.000    0.000 
#
# Total GULP energy -157082.474253 kJ/mol
# GULP energy per Si atom -5610.088366 kJ/mol
# Density = 2.746254 g / cm^3
# Si number density = 27.525190 Si / 1000 Ang^3
#
#
#
# Elastic Constant Matrix: (Units=GPa)
#
#
# Indices 1 2 3 4 5 6 
#
# 1 105.4270 17.1085 30.3370 0.0000 0.0000 0.0000
# 2 17.1085 83.6145 41.7390 0.0000 0.0000 0.0000
# 3 30.3370 41.7390 201.2506 0.0000 0.0000 0.0000
# 4 0.0000 0.0000 0.0000 62.8771 0.0000 0.0000
# 5 0.0000 0.0000 0.0000 0.0000 86.1836 0.0000
# 6 0.0000 0.0000 0.0000 0.0000 0.0000 30.6580
#
#
#
# Elastic Compliance Matrix: (Units=1/GPa)
#
#
# Indices 1 2 3 4 5 6 
#
# 1 0.010071 -0.001453 -0.001217 0.000000 0.000000 0.000000
# 2 -0.001453 0.013551 -0.002591 0.000000 0.000000 0.000000
# 3 -0.001217 -0.002591 0.005690 0.000000 0.000000 0.000000
# 4 0.000000 0.000000 0.000000 0.015904 0.000000 0.000000
# 5 0.000000 0.000000 0.000000 0.000000 0.011603 0.000000
# 6 0.000000 0.000000 0.000000 0.000000 0.000000 0.032618
#
#
# Mechanical properties :
#
#
# Convention : Reuss Voigt Hill
#
# Bulk Modulus (GPa) = 53.22304 63.18454 58.20379
# Shear Modulus (GPa) = 47.07113 56.01758 51.54435
#
# Velocity S-wave (km/s) = 4.13984 4.51615 4.33208
# Velocity P-wave (km/s) = 6.49839 7.08513 6.79809
#
# Compressibility (1/GPa) = 0.01878885
#
# Stress axis : x y z
#
# Youngs Moduli (GPa) = 99.29304 73.79784 175.75408
#
# Poissons Ratio (x) = 0.10725 0.21385
# Poissons Ratio (y) = 0.14430 0.45543
# Poissons Ratio (z) = 0.12081 0.19123
#
# Static dielectric constant tensor:
#      x y z
#    x 2.003290 0.000000 0.000000 
#    y 0.000000 2.136250 0.000000 
#    z 0.000000 0.000000 2.092400 
# 
# From -- ./inp_files/753.got.cif
#   From: 2010.05.17/outbox.cif.g08.bks.cpg/sg57_1_cif.got.tgz:753.got - 2010.06.03 13:58:18.
