data_PCOD9439424
_publ_section_title
;
Structure prediction by ZEFSAII (Michael W. Deem and Ramdas Pophale) SiO2 
 PCOD9439424
Probable space group: P B C M
;
_chemical_formula_sum "Si O2"
_cell_formula_units_Z 40
_cell_length_a 6.938306
_cell_length_b 23.749209
_cell_length_c 11.555555
_cell_angle_alpha 90.000000
_cell_angle_beta 90.000000
_cell_angle_gamma 90.000000
_cell_volume 1904.116025
_symmetry_space_group_name_H-M "P B C M"
_symmetry_group_IT_number 57
_symmetry_cell_setting 'orthorhombic'
loop_
_space_group_symop_operation_xyz
x,y,z
-x,-y,1/2+z
x,1/2-y,-z
-x,1/2+y,1/2-z
-x,-y,-z
x,y,1/2-z
-x,1/2+y,z
x,1/2-y,1/2+z
loop_
_atom_site_type_symbol
_atom_site_label
_atom_site_fract_x
_atom_site_fract_y
_atom_site_fract_z
Si Si1 0.121771 0.686974 0.017796
Si Si2 0.741676 0.881501 0.937885
Si Si3 0.504708 0.220985 0.126913
Si Si4 0.130248 0.997685 0.117703
Si Si5 0.598608 0.389858 0.382419
O O1 0.259443 0.661506 0.917823
O O2 0.041053 0.750000 0.000000
O O3 0.278115 0.696527 0.118837
O O4 0.952517 0.642897 0.034565
O O5 0.637825 0.831631 0.870108
O O6 0.766295 0.941854 0.880142
O O7 0.597212 0.889372 0.045335
O O8 0.479921 0.252503 0.250000
O O9 0.472622 0.250000 0.000000
O O10 0.044729 0.989289 0.250000
O O11 0.280077 0.946948 0.098562
O O12 0.000000 0.000000 0.000000
O O13 0.548778 0.386493 0.250000
#
# Coordination Sequence:
#
# PCOD9439424 Si02
#       5
#     8   8   8   8   8
#     4  10  22  40  63  93 132 172 222 270 326 384
#     4  11  22  41  66  97 129 175 224 273 329 397
#     4  10  23  42  64  95 133 176 222 276 331 393
#     4  11  23  43  69  99 133 172 221 274 333 400
#     4  10  23  43  67  99 138 174 219 274 334 396
#
# _framework density 21.007121000000001
#
# number of rings (size 3 to 8) (size 9 to 14) (size 15 to 20)
#    0.000    1.600    2.000    1.800    0.000   11.200 
#    0.000    3.000    0.000    0.000    0.000    0.000 
#    0.000    0.000    0.000    0.000    0.000    0.000 
#
# Total GULP energy -222855.253243 kJ/mol
# GULP energy per Si atom -5571.381331 kJ/mol
# Density = 2.095931 g / cm^3
# Si number density = 21.007121 Si / 1000 Ang^3
#
#
#
# Elastic Constant Matrix: (Units=GPa)
#
#
# Indices 1 2 3 4 5 6 
#
# 1 59.8118 30.1419 40.1342 0.0000 0.0000 0.0000
# 2 30.1419 124.9904 42.0422 0.0000 0.0000 0.0000
# 3 40.1342 42.0422 182.9883 0.0000 0.0000 0.0000
# 4 0.0000 0.0000 0.0000 16.0278 0.0000 0.0000
# 5 0.0000 0.0000 0.0000 0.0000 61.0339 0.0000
# 6 0.0000 0.0000 0.0000 0.0000 0.0000 38.8237
#
#
#
# Elastic Compliance Matrix: (Units=1/GPa)
#
#
# Indices 1 2 3 4 5 6 
#
# 1 0.021180 -0.003842 -0.003763 0.000000 0.000000 0.000000
# 2 -0.003842 0.009368 -0.001310 0.000000 0.000000 0.000000
# 3 -0.003763 -0.001310 0.006591 0.000000 0.000000 0.000000
# 4 0.000000 0.000000 0.000000 0.062391 0.000000 0.000000
# 5 0.000000 0.000000 0.000000 0.000000 0.016384 0.000000
# 6 0.000000 0.000000 0.000000 0.000000 0.000000 0.025757
#
#
# Mechanical properties :
#
#
# Convention : Reuss Voigt Hill
#
# Bulk Modulus (GPa) = 51.78625 65.82523 58.80574
# Shear Modulus (GPa) = 30.13191 40.20858 35.17024
#
# Velocity S-wave (km/s) = 3.79141 4.37973 4.09614
# Velocity P-wave (km/s) = 6.62357 7.54843 7.10107
#
# Compressibility (1/GPa) = 0.01931015
#
# Stress axis : x y z
#
# Youngs Moduli (GPa) = 47.21424 106.75060 151.72306
#
# Poissons Ratio (x) = 0.41014 0.57088
# Poissons Ratio (y) = 0.18140 0.19869
# Poissons Ratio (z) = 0.17765 0.13980
#
# Static dielectric constant tensor:
#      x y z
#    x 1.754020 0.000000 0.000000 
#    y 0.000000 1.785610 0.000000 
#    z 0.000000 0.000000 1.765380 
# 
# From -- ./inp_files/10945.got.cif
#   From: 2010.05.17/outbox.cif.g08.bks.cpg/sg57_6_cif.got.tgz:10945.got - 2010.06.03 13:58:18.
