data_PCOD9439543
_publ_section_title
;
Structure prediction by ZEFSAII (Michael W. Deem and Ramdas Pophale) SiO2 
 PCOD9439543
Probable space group: P B C M
;
_chemical_formula_sum "Si O2"
_cell_formula_units_Z 40
_cell_length_a 5.318314
_cell_length_b 22.803184
_cell_length_c 13.777000
_cell_angle_alpha 90.000000
_cell_angle_beta 90.000000
_cell_angle_gamma 90.000000
_cell_volume 1670.798686
_symmetry_space_group_name_H-M "P B C M"
_symmetry_group_IT_number 57
_symmetry_cell_setting 'orthorhombic'
loop_
_space_group_symop_operation_xyz
x,y,z
-x,-y,1/2+z
x,1/2-y,-z
-x,1/2+y,1/2-z
-x,-y,-z
x,y,1/2-z
-x,1/2+y,z
x,1/2-y,1/2+z
loop_
_atom_site_type_symbol
_atom_site_label
_atom_site_fract_x
_atom_site_fract_y
_atom_site_fract_z
Si Si1 0.490026 0.472195 0.145863
Si Si2 0.775454 0.069143 0.039165
Si Si3 0.346769 0.243004 0.250000
Si Si4 0.845460 0.180552 0.750000
Si Si5 0.507841 0.806884 0.955310
Si Si6 0.134968 0.373885 0.418683
O O1 0.615279 0.478694 0.250000
O O2 0.679145 0.464408 0.057182
O O3 0.324546 0.413312 0.142295
O O4 0.304818 0.526849 0.125263
O O5 0.057309 0.086135 0.010966
O O6 0.646272 0.132801 0.048370
O O7 0.568675 0.292296 0.250000
O O8 0.392691 0.206585 0.348073
O O9 0.068230 0.270579 0.250000
O O10 0.908170 0.144156 0.652284
O O11 0.366367 0.750000 0.000000
O O12 0.727977 0.818636 0.033843
#
# Coordination Sequence:
#
# PCOD9439543 Si02
#       6
#     8   8   4   4   8   8
#     4  10  22  42  65  97 135 174 240 295 363 426
#     4  10  24  41  67  96 134 183 231 296 361 431
#     4  12  28  46  69 107 143 193 238 297 354 435
#     4  12  26  44  75 103 141 189 250 287 362 423
#     4  11  24  44  66  97 143 179 236 294 358 426
#     4  11  23  41  69  98 134 185 235 305 353 434
#
# _framework density 23.940645
#
# number of rings (size 3 to 8) (size 9 to 14) (size 15 to 20)
#    0.000    1.200    3.000    1.800    8.400    0.800 
#    1.800    0.000    0.000    0.000    0.000    0.000 
#    0.000    0.000    0.000    0.000    0.000    0.000 
#
# Total GULP energy -223776.052412 kJ/mol
# GULP energy per Si atom -5594.401310 kJ/mol
# Density = 2.388615 g / cm^3
# Si number density = 23.940645 Si / 1000 Ang^3
#
#
#
# Elastic Constant Matrix: (Units=GPa)
#
#
# Indices 1 2 3 4 5 6 
#
# 1 40.1690 17.5946 -5.7788 0.0000 0.0000 0.0000
# 2 17.5946 122.8152 52.0411 0.0000 0.0000 0.0000
# 3 -5.7788 52.0411 119.3939 0.0000 0.0000 0.0000
# 4 0.0000 0.0000 0.0000 34.4690 0.0000 0.0000
# 5 0.0000 0.0000 0.0000 0.0000 23.2621 0.0000
# 6 0.0000 0.0000 0.0000 0.0000 0.0000 30.5837
#
#
#
# Elastic Compliance Matrix: (Units=1/GPa)
#
#
# Indices 1 2 3 4 5 6 
#
# 1 0.027895 -0.005603 0.003792 0.000000 0.000000 0.000000
# 2 -0.005603 0.011112 -0.005115 0.000000 0.000000 0.000000
# 3 0.003792 -0.005115 0.010789 0.000000 0.000000 0.000000
# 4 0.000000 0.000000 0.000000 0.029012 0.000000 0.000000
# 5 0.000000 0.000000 0.000000 0.000000 0.042988 0.000000
# 6 0.000000 0.000000 0.000000 0.000000 0.000000 0.032697
#
#
# Mechanical properties :
#
#
# Convention : Reuss Voigt Hill
#
# Bulk Modulus (GPa) = 27.82068 45.56577 36.69322
# Shear Modulus (GPa) = 27.72764 32.23105 29.97935
#
# Velocity S-wave (km/s) = 3.40690 3.67316 3.54253
# Velocity P-wave (km/s) = 5.20787 6.08799 5.66505
#
# Compressibility (1/GPa) = 0.03594449
#
# Stress axis : x y z
#
# Youngs Moduli (GPa) = 35.84915 89.98986 92.69014
#
# Poissons Ratio (x) = 0.50423 -0.35152
# Poissons Ratio (y) = 0.20087 0.47409
# Poissons Ratio (z) = -0.13596 0.46028
#
# Static dielectric constant tensor:
#      x y z
#    x 1.956630 0.000000 0.000000 
#    y 0.000000 1.977170 0.000000 
#    z 0.000000 0.000000 1.895610 
# 
# From -- ./inp_files/14993.got.cif
#   From: 2010.05.17/outbox.cif.g08.bks.cpg/sg57_8_cif.got.tgz:14993.got - 2010.06.03 13:58:18.
