data_PCOD9439461
_publ_section_title
;
Structure prediction by ZEFSAII (Michael W. Deem and Ramdas Pophale) SiO2 
 PCOD9439461
Probable space group: P B C M
;
_chemical_formula_sum "Si O2"
_cell_formula_units_Z 40
_cell_length_a 12.294059
_cell_length_b 9.803444
_cell_length_c 14.772802
_cell_angle_alpha 90.000000
_cell_angle_beta 90.000000
_cell_angle_gamma 90.000000
_cell_volume 1780.478945
_symmetry_space_group_name_H-M "P B C M"
_symmetry_group_IT_number 57
_symmetry_cell_setting 'orthorhombic'
loop_
_space_group_symop_operation_xyz
x,y,z
-x,-y,1/2+z
x,1/2-y,-z
-x,1/2+y,1/2-z
-x,-y,-z
x,y,1/2-z
-x,1/2+y,z
x,1/2-y,1/2+z
loop_
_atom_site_type_symbol
_atom_site_label
_atom_site_fract_x
_atom_site_fract_y
_atom_site_fract_z
Si Si1 0.006125 0.872440 0.065982
Si Si2 0.229081 0.286542 0.359658
Si Si3 0.597033 0.268398 0.397144
Si Si4 0.220621 0.532561 0.646265
Si Si5 0.570498 0.532381 0.907462
O O1 0.891084 0.835002 0.110779
O O2 0.097299 0.917066 0.137025
O O3 0.040991 0.750000 0.000000
O O4 0.000000 0.000000 0.000000
O O5 0.241296 0.299383 0.250000
O O6 0.319023 0.378778 0.410503
O O7 0.236660 0.124665 0.383255
O O8 0.559027 0.250000 0.500000
O O9 0.707467 0.353914 0.402938
O O10 0.510624 0.369383 0.352697
O O11 0.599316 0.113665 0.363286
O O12 0.255054 0.537298 0.750000
O O13 0.500000 0.500000 0.000000
#
# Coordination Sequence:
#
# PCOD9439461 Si02
#       5
#     8   8   8   8   8
#     4  12  26  45  72 103 139 183 239 288 347 416
#     4  11  26  47  70 100 143 187 232 290 355 417
#     4  10  22  40  67  99 135 173 232 281 345 412
#     4  11  25  45  68 101 144 186 232 288 353 418
#     4  10  23  41  68 101 136 179 230 287 349 416
#
# _framework density 22.465864
#
# number of rings (size 3 to 8) (size 9 to 14) (size 15 to 20)
#    0.000    1.200    2.000    2.400    8.400    5.600 
#    0.000    0.000    0.000    0.000    0.000    0.000 
#    0.000    0.000    0.000    0.000    0.000    0.000 
#
# Total GULP energy -223145.452526 kJ/mol
# GULP energy per Si atom -5578.636313 kJ/mol
# Density = 2.241473 g / cm^3
# Si number density = 22.465864 Si / 1000 Ang^3
#
#
#
# Elastic Constant Matrix: (Units=GPa)
#
#
# Indices 1 2 3 4 5 6 
#
# 1 127.4312 86.4313 8.0317 0.0000 0.0000 0.0000
# 2 86.4313 241.7485 37.2697 0.0000 0.0000 0.0000
# 3 8.0317 37.2697 82.7181 0.0000 0.0000 0.0000
# 4 0.0000 0.0000 0.0000 0.5215 0.0000 0.0000
# 5 0.0000 0.0000 0.0000 0.0000 -148.1270 0.0000
# 6 0.0000 0.0000 0.0000 0.0000 0.0000 50.1851
#
#
#
# Elastic Compliance Matrix: (Units=1/GPa)
#
#
# Indices 1 2 3 4 5 6 
#
# 1 0.010399 -0.003828 0.000715 0.000000 0.000000 0.000000
# 2 -0.003828 0.005855 -0.002266 0.000000 0.000000 0.000000
# 3 0.000715 -0.002266 0.013041 0.000000 0.000000 0.000000
# 4 0.000000 0.000000 0.000000 1.917678 0.000000 0.000000
# 5 0.000000 0.000000 0.000000 0.000000 -0.006751 0.000000
# 6 0.000000 0.000000 0.000000 0.000000 0.000000 0.019926
#
#
# Mechanical properties :
#
#
# Convention : Reuss Voigt Hill
#
# Bulk Modulus (GPa) = 53.94935 79.48479 66.71707
# Shear Modulus (GPa) = 2.52898 1.86025 2.19461
#
# Velocity S-wave (km/s) = 1.06214 0.91095 0.98944
# Velocity P-wave (km/s) = 5.05670 6.04678 5.57377
#
# Compressibility (1/GPa) = 0.01853590
#
# Stress axis : x y z
#
# Youngs Moduli (GPa) = 96.16578 170.80816 76.68206
#
# Poissons Ratio (x) = 0.65386 -0.05483
# Poissons Ratio (y) = 0.36813 0.17377
# Poissons Ratio (z) = -0.06877 0.38707
#
# Static dielectric constant tensor:
#      x y z
#    x 1.815130 0.000000 0.000000 
#    y 0.000000 1.908570 0.000000 
#    z 0.000000 0.000000 3.409730 
# 
# From -- ./inp_files/21601.got.cif
#   From: 2010.05.17/outbox.cif.g08.bks.cpg/sg57_11_cif.got.tgz:21601.got - 2010.06.03 13:58:18.
