data_PCOD9439428
_publ_section_title
;
Structure prediction by ZEFSAII (Michael W. Deem and Ramdas Pophale) SiO2 
 PCOD9439428
Probable space group: P B C M
;
_chemical_formula_sum "Si O2"
_cell_formula_units_Z 32
_cell_length_a 4.927232
_cell_length_b 14.041300
_cell_length_c 19.445986
_cell_angle_alpha 90.000000
_cell_angle_beta 90.000000
_cell_angle_gamma 90.000000
_cell_volume 1345.365538
_symmetry_space_group_name_H-M "P B C M"
_symmetry_group_IT_number 57
_symmetry_cell_setting 'orthorhombic'
loop_
_space_group_symop_operation_xyz
x,y,z
-x,-y,1/2+z
x,1/2-y,-z
-x,1/2+y,1/2-z
-x,-y,-z
x,y,1/2-z
-x,1/2+y,z
x,1/2-y,1/2+z
loop_
_atom_site_type_symbol
_atom_site_label
_atom_site_fract_x
_atom_site_fract_y
_atom_site_fract_z
Si Si1 0.962333 0.487262 0.399854
Si Si2 0.653160 0.818375 0.900424
Si Si3 0.558295 0.616982 0.955821
Si Si4 0.874474 0.009944 0.250000
Si Si5 0.616229 0.866656 0.750000
O O1 0.884185 0.599496 0.399954
O O2 0.699246 0.424394 0.416719
O O3 0.057233 0.462156 0.322273
O O4 0.205777 0.461164 0.450734
O O5 0.698230 0.709445 0.921079
O O6 0.543938 0.818755 0.822555
O O7 0.482228 0.854239 0.966408
O O8 0.066864 0.104741 0.250000
O O9 0.559277 0.036889 0.250000
#
# Coordination Sequence:
#
# PCOD9439428 Si02
#       5
#     8   8   8   4   4
#     4  11  23  42  65  93 132 173 213 272 326 378
#     4  10  24  43  64  96 132 170 220 271 324 390
#     4  11  25  40  67  97 127 172 223 267 324 390
#     4  10  22  40  64  94 125 166 215 256 314 390
#     4  10  22  40  64  88 127 170 203 262 326 372
#
# _framework density 23.785360000000001
#
# number of rings (size 3 to 8) (size 9 to 14) (size 15 to 20)
#    0.000    1.500    0.000    4.500    0.000   16.000 
#    0.000    0.000    0.000    0.000    0.000    0.000 
#    0.000    0.000    0.000    0.000    0.000    0.000 
#
# Total GULP energy -178647.489598 kJ/mol
# GULP energy per Si atom -5582.734050 kJ/mol
# Density = 2.373122 g / cm^3
# Si number density = 23.785360 Si / 1000 Ang^3
#
#
#
# Elastic Constant Matrix: (Units=GPa)
#
#
# Indices 1 2 3 4 5 6 
#
# 1 52.5229 19.9055 1.7374 0.0000 0.0000 0.0000
# 2 19.9055 127.7149 38.8783 0.0000 0.0000 0.0000
# 3 1.7374 38.8783 187.2928 0.0000 0.0000 0.0000
# 4 0.0000 0.0000 0.0000 38.8333 0.0000 0.0000
# 5 0.0000 0.0000 0.0000 0.0000 22.1836 0.0000
# 6 0.0000 0.0000 0.0000 0.0000 0.0000 9.1194
#
#
#
# Elastic Compliance Matrix: (Units=1/GPa)
#
#
# Indices 1 2 3 4 5 6 
#
# 1 0.020278 -0.003313 0.000500 0.000000 0.000000 0.000000
# 2 -0.003313 0.008899 -0.001817 0.000000 0.000000 0.000000
# 3 0.000500 -0.001817 0.005712 0.000000 0.000000 0.000000
# 4 0.000000 0.000000 0.000000 0.025751 0.000000 0.000000
# 5 0.000000 0.000000 0.000000 0.000000 0.045078 0.000000
# 6 0.000000 0.000000 0.000000 0.000000 0.000000 0.109656
#
#
# Mechanical properties :
#
#
# Convention : Reuss Voigt Hill
#
# Bulk Modulus (GPa) = 39.01706 54.28590 46.65148
# Shear Modulus (GPa) = 21.44289 34.49456 27.96873
#
# Velocity S-wave (km/s) = 3.00578 3.81234 3.43283
# Velocity P-wave (km/s) = 5.33720 6.50010 5.94715
#
# Compressibility (1/GPa) = 0.02562982
#
# Stress axis : x y z
#
# Youngs Moduli (GPa) = 49.31403 112.36935 175.07970
#
# Poissons Ratio (x) = 0.37223 -0.08745
# Poissons Ratio (y) = 0.16336 0.31805
# Poissons Ratio (z) = -0.02463 0.20413
#
# Static dielectric constant tensor:
#      x y z
#    x 1.867100 0.000000 0.000000 
#    y 0.000000 1.909590 0.000000 
#    z 0.000000 0.000000 1.966990 
# 
# From -- ./inp_files/14727.got.cif
#   From: 2010.05.17/outbox.cif.g08.bks.cpg/sg57_8_cif.got.tgz:14727.got - 2010.06.03 13:58:18.
