data_PCOD9439813
_publ_section_title
;
Structure prediction by ZEFSAII (Michael W. Deem and Ramdas Pophale) SiO2 
 PCOD9439813
Probable space group: P B C M
;
_chemical_formula_sum "Si O2"
_cell_formula_units_Z 32
_cell_length_a 5.079809
_cell_length_b 11.051473
_cell_length_c 23.343754
_cell_angle_alpha 90.000000
_cell_angle_beta 90.000000
_cell_angle_gamma 90.000000
_cell_volume 1310.503690
_symmetry_space_group_name_H-M "P B C M"
_symmetry_group_IT_number 57
_symmetry_cell_setting 'orthorhombic'
loop_
_space_group_symop_operation_xyz
x,y,z
-x,-y,1/2+z
x,1/2-y,-z
-x,1/2+y,1/2-z
-x,-y,-z
x,y,1/2-z
-x,1/2+y,z
x,1/2-y,1/2+z
loop_
_atom_site_type_symbol
_atom_site_label
_atom_site_fract_x
_atom_site_fract_y
_atom_site_fract_z
Si Si1 0.297537 0.902843 0.471658
Si Si2 0.500441 0.390169 0.140100
Si Si3 0.122493 0.576160 0.409954
Si Si4 0.999403 0.233615 0.686044
O O1 0.462856 0.831595 0.423552
O O2 0.073671 0.969955 0.432963
O O3 0.500000 0.000000 0.500000
O O4 0.169993 0.855147 0.530034
O O5 0.381896 0.519723 0.120785
O O6 0.769848 0.364144 0.173104
O O7 0.276054 0.331235 0.178018
O O8 0.007659 0.663752 0.362321
O O9 0.966236 0.282489 0.750000
#
# Coordination Sequence:
#
# PCOD9439813 Si02
#       4
#     8   8   8   8
#     4   9  20  44  72 101 140 171 231 292 362 413
#     4  11  24  48  68 102 140 178 232 297 345 410
#     4  10  23  47  72 105 141 183 231 298 352 413
#     4  12  28  45  68 103 140 191 244 275 346 431
#
# _framework density 24.418092999999999
#
# number of rings (size 3 to 8) (size 9 to 14) (size 15 to 20)
#    0.000    1.500    2.500    0.750    7.000    3.000 
#    9.000    0.000    0.000    0.000    0.000    0.000 
#    0.000    0.000    0.000    0.000    0.000    0.000 
#
# Total GULP energy -178528.195731 kJ/mol
# GULP energy per Si atom -5579.006117 kJ/mol
# Density = 2.436252 g / cm^3
# Si number density = 24.418093 Si / 1000 Ang^3
#
#
#
# Elastic Constant Matrix: (Units=GPa)
#
#
# Indices 1 2 3 4 5 6 
#
# 1 118.5621 8.0173 29.2784 0.0000 0.0000 0.0000
# 2 8.0173 37.0279 27.9538 0.0000 0.0000 0.0000
# 3 29.2784 27.9538 198.8560 0.0000 0.0000 0.0000
# 4 0.0000 0.0000 0.0000 35.3361 0.0000 0.0000
# 5 0.0000 0.0000 0.0000 0.0000 35.0470 0.0000
# 6 0.0000 0.0000 0.0000 0.0000 0.0000 27.2324
#
#
#
# Elastic Compliance Matrix: (Units=1/GPa)
#
#
# Indices 1 2 3 4 5 6 
#
# 1 0.008788 -0.001036 -0.001148 0.000000 0.000000 0.000000
# 2 -0.001036 0.030335 -0.004112 0.000000 0.000000 0.000000
# 3 -0.001148 -0.004112 0.005776 0.000000 0.000000 0.000000
# 4 0.000000 0.000000 0.000000 0.028300 0.000000 0.000000
# 5 0.000000 0.000000 0.000000 0.000000 0.028533 0.000000
# 6 0.000000 0.000000 0.000000 0.000000 0.000000 0.036721
#
#
# Mechanical properties :
#
#
# Convention : Reuss Voigt Hill
#
# Bulk Modulus (GPa) = 30.95303 53.88278 42.41790
# Shear Modulus (GPa) = 30.89974 38.80286 34.85130
#
# Velocity S-wave (km/s) = 3.56117 3.99068 3.78203
# Velocity P-wave (km/s) = 5.44178 6.58397 6.03994
#
# Compressibility (1/GPa) = 0.03230702
#
# Stress axis : x y z
#
# Youngs Moduli (GPa) = 113.79143 32.96511 173.13518
#
# Poissons Ratio (x) = 0.03415 0.19881
# Poissons Ratio (y) = 0.11788 0.71189
# Poissons Ratio (z) = 0.13066 0.13555
#
# Static dielectric constant tensor:
#      x y z
#    x 2.030460 0.000000 0.000000 
#    y 0.000000 2.147580 0.000000 
#    z 0.000000 0.000000 1.917270 
# 
# From -- ./inp_files/23354.got.cif
#   From: 2010.05.17/outbox.cif.g08.bks.cpg/sg57_12_cif.got.tgz:23354.got - 2010.06.03 13:58:18.
