data_PCOD9439283
_publ_section_title
;
Structure prediction by ZEFSAII (Michael W. Deem and Ramdas Pophale) SiO2 
 PCOD9439283
Probable space group: P B C M
;
_chemical_formula_sum "Si O2"
_cell_formula_units_Z 48
_cell_length_a 18.982340
_cell_length_b 7.544922
_cell_length_c 13.942933
_cell_angle_alpha 90.000000
_cell_angle_beta 90.000000
_cell_angle_gamma 90.000000
_cell_volume 1996.910694
_symmetry_space_group_name_H-M "P B C M"
_symmetry_group_IT_number 57
_symmetry_cell_setting 'orthorhombic'
loop_
_space_group_symop_operation_xyz
x,y,z
-x,-y,1/2+z
x,1/2-y,-z
-x,1/2+y,1/2-z
-x,-y,-z
x,y,1/2-z
-x,1/2+y,z
x,1/2-y,1/2+z
loop_
_atom_site_type_symbol
_atom_site_label
_atom_site_fract_x
_atom_site_fract_y
_atom_site_fract_z
Si Si1 0.189641 0.497524 0.508281
Si Si2 0.303949 0.384120 0.355156
Si Si3 0.919579 0.586311 0.142710
Si Si4 0.418058 0.462253 0.488312
Si Si5 0.920943 0.163308 0.359941
Si Si6 0.309785 0.954236 0.359052
O O1 0.249460 0.428186 0.437968
O O2 0.144763 0.364515 0.575541
O O3 0.131814 0.585014 0.438079
O O4 0.238203 0.604345 0.586589
O O5 0.281813 0.444984 0.250000
O O6 0.376565 0.480654 0.387575
O O7 0.307849 0.170113 0.351994
O O8 0.911426 0.658768 0.250000
O O9 0.913726 0.374008 0.145527
O O10 0.998159 0.629361 0.109797
O O11 0.410001 0.250000 0.500000
O O12 0.500000 0.500000 0.500000
O O13 0.375896 0.570886 0.570136
O O14 0.912392 0.094091 0.250000
O O15 0.314794 0.887134 0.250000
#
# Coordination Sequence:
#
# PCOD9439283 Si02
#       6
#     8   8   8   8   8   8
#     4  11  19  32  55  79 103 137 181 231 273 316
#     4   9  19  35  54  79 112 148 184 222 269 327
#     4  10  22  38  55  78 109 144 182 227 279 332
#     4   9  18  34  57  83 111 143 181 223 268 318
#     4  10  22  38  55  78 109 144 182 227 279 332
#     4   9  19  35  54  79 112 148 184 222 269 327
#
# _framework density 24.037127999999999
#
# number of rings (size 3 to 8) (size 9 to 14) (size 15 to 20)
#    0.000    2.333    0.000    3.500    0.000    3.333 
#    0.000   10.000    0.000    4.000    0.000    0.000 
#    0.000    0.000    0.000    0.000    0.000    0.000 
#
# Total GULP energy -268253.685034 kJ/mol
# GULP energy per Si atom -5588.618438 kJ/mol
# Density = 2.398242 g / cm^3
# Si number density = 24.037128 Si / 1000 Ang^3
#
#
#
# Elastic Constant Matrix: (Units=GPa)
#
#
# Indices 1 2 3 4 5 6 
#
# 1 183.7400 -3.1722 75.0061 0.0000 0.0000 0.0000
# 2 -3.1722 43.8530 4.0108 0.0000 0.0000 0.0000
# 3 75.0061 4.0108 157.7053 0.0000 0.0000 0.0000
# 4 0.0000 0.0000 0.0000 23.8800 0.0000 0.0000
# 5 0.0000 0.0000 0.0000 0.0000 10.6644 0.0000
# 6 0.0000 0.0000 0.0000 0.0000 0.0000 32.5621
#
#
#
# Elastic Compliance Matrix: (Units=1/GPa)
#
#
# Indices 1 2 3 4 5 6 
#
# 1 0.006781 0.000787 -0.003245 0.000000 0.000000 0.000000
# 2 0.000787 0.022948 -0.000958 0.000000 0.000000 0.000000
# 3 -0.003245 -0.000958 0.007909 0.000000 0.000000 0.000000
# 4 0.000000 0.000000 0.000000 0.041876 0.000000 0.000000
# 5 0.000000 0.000000 0.000000 0.000000 0.093770 0.000000
# 6 0.000000 0.000000 0.000000 0.000000 0.000000 0.030711
#
#
# Mechanical properties :
#
#
# Convention : Reuss Voigt Hill
#
# Bulk Modulus (GPa) = 32.46135 59.66531 46.06333
# Shear Modulus (GPa) = 22.61479 34.05153 28.33316
#
# Velocity S-wave (km/s) = 3.07062 3.76789 3.43698
# Velocity P-wave (km/s) = 5.10936 6.61856 5.91231
#
# Compressibility (1/GPa) = 0.03080587
#
# Stress axis : x y z
#
# Youngs Moduli (GPa) = 147.47663 43.57670 126.44364
#
# Poissons Ratio (x) = -0.03431 0.41031
# Poissons Ratio (y) = -0.11611 0.12114
# Poissons Ratio (z) = 0.47856 0.04175
#
# Static dielectric constant tensor:
#      x y z
#    x 1.902780 0.000000 0.000000 
#    y 0.000000 2.024790 0.000000 
#    z 0.000000 0.000000 1.957100 
# 
# From -- ./inp_files/18971.got.cif
#   From: 2010.05.17/outbox.cif.g08.bks.cpg/sg57_10_cif.got.tgz:18971.got - 2010.06.03 13:58:18.
