data_PCOD9439816
_publ_section_title
;
Structure prediction by ZEFSAII (Michael W. Deem and Ramdas Pophale) SiO2 
 PCOD9439816
Probable space group: P B C M
;
_chemical_formula_sum "Si O2"
_cell_formula_units_Z 32
_cell_length_a 9.820172
_cell_length_b 14.161429
_cell_length_c 10.132410
_cell_angle_alpha 90.000000
_cell_angle_beta 90.000000
_cell_angle_gamma 90.000000
_cell_volume 1409.090635
_symmetry_space_group_name_H-M "P B C M"
_symmetry_group_IT_number 57
_symmetry_cell_setting 'orthorhombic'
loop_
_space_group_symop_operation_xyz
x,y,z
-x,-y,1/2+z
x,1/2-y,-z
-x,1/2+y,1/2-z
-x,-y,-z
x,y,1/2-z
-x,1/2+y,z
x,1/2-y,1/2+z
loop_
_atom_site_type_symbol
_atom_site_label
_atom_site_fract_x
_atom_site_fract_y
_atom_site_fract_z
Si Si1 0.763944 0.856472 0.473644
Si Si2 0.079550 0.041524 0.750000
Si Si3 0.112504 0.828959 0.750000
Si Si4 0.527463 0.411957 0.097614
Si Si5 0.830826 0.922099 0.750000
Si Si6 0.733730 0.250000 0.500000
O O1 0.803938 0.750000 0.500000
O O2 0.874048 0.905448 0.380519
O O3 0.618079 0.858702 0.403773
O O4 0.753782 0.909262 0.613835
O O5 0.154994 0.939787 0.750000
O O6 0.920145 0.017287 0.750000
O O7 0.172679 0.779725 0.877869
O O8 0.949416 0.840732 0.750000
O O9 0.558767 0.437989 0.250000
O O10 0.639238 0.339035 0.041546
O O11 0.500000 0.500000 0.000000
#
# Coordination Sequence:
#
# PCOD9439816 Si02
#       6
#     8   4   4   8   4   4
#     4  12  24  46  72 105 146 188 244 304 362 436
#     4  10  23  48  67 101 146 188 240 296 357 436
#     4  10  26  46  74 103 147 190 245 300 359 446
#     4  12  28  47  74 107 145 192 244 309 373 443
#     4  10  27  42  73 104 141 196 239 294 366 428
#     4  12  24  50  72 106 146 188 244 298 378 440
#
# _framework density 22.709681
#
# number of rings (size 3 to 8) (size 9 to 14) (size 15 to 20)
#    0.750    0.000    3.750    3.000    5.250    0.000 
#    0.000    0.000    0.000    0.000    0.000    0.000 
#    0.000    0.000    0.000    0.000    0.000    0.000 
#
# Total GULP energy -179130.218888 kJ/mol
# GULP energy per Si atom -5597.819340 kJ/mol
# Density = 2.265799 g / cm^3
# Si number density = 22.709681 Si / 1000 Ang^3
#
#
#
# Elastic Constant Matrix: (Units=GPa)
#
#
# Indices 1 2 3 4 5 6 
#
# 1 70.1881 11.6110 31.0560 0.0000 0.0000 0.0000
# 2 11.6110 114.3471 56.8007 0.0000 0.0000 0.0000
# 3 31.0560 56.8007 195.1470 0.0000 0.0000 0.0000
# 4 0.0000 0.0000 0.0000 52.1264 0.0000 0.0000
# 5 0.0000 0.0000 0.0000 0.0000 40.3908 0.0000
# 6 0.0000 0.0000 0.0000 0.0000 0.0000 -32.8952
#
#
#
# Elastic Compliance Matrix: (Units=1/GPa)
#
#
# Indices 1 2 3 4 5 6 
#
# 1 0.015343 -0.000403 -0.002324 0.000000 0.000000 0.000000
# 2 -0.000403 0.010234 -0.002915 0.000000 0.000000 0.000000
# 3 -0.002324 -0.002915 0.006343 0.000000 0.000000 0.000000
# 4 0.000000 0.000000 0.000000 0.019184 0.000000 0.000000
# 5 0.000000 0.000000 0.000000 0.000000 0.024758 0.000000
# 6 0.000000 0.000000 0.000000 0.000000 0.000000 -0.030400
#
#
# Mechanical properties :
#
#
# Convention : Reuss Voigt Hill
#
# Bulk Modulus (GPa) = 48.46187 64.29085 56.37636
# Shear Modulus (GPa) = 78.58597 30.60534 54.59566
#
# Velocity S-wave (km/s) = 5.88895 3.67506 4.90845
# Velocity P-wave (km/s) = 8.22349 6.81024 7.55000
#
# Compressibility (1/GPa) = 0.02063478
#
# Stress axis : x y z
#
# Youngs Moduli (GPa) = 65.17818 97.71295 157.66495
#
# Poissons Ratio (x) = 0.03941 0.36645
# Poissons Ratio (y) = 0.02629 0.45953
# Poissons Ratio (z) = 0.15149 0.28479
#
# Static dielectric constant tensor:
#      x y z
#    x 1.812310 0.000000 0.000000 
#    y 0.000000 1.904560 0.000000 
#    z 0.000000 0.000000 1.974040 
# 
# From -- ./inp_files/2449.got.cif
#   From: 2010.05.17/outbox.cif.g08.bks.cpg/sg57_2_cif.got.tgz:2449.got - 2010.06.03 13:58:18.
