data_PCOD9439336
_publ_section_title
;
Structure prediction by ZEFSAII (Michael W. Deem and Ramdas Pophale) SiO2 
 PCOD9439336
Probable space group: P B C M
;
_chemical_formula_sum "Si O2"
_cell_formula_units_Z 64
_cell_length_a 15.046762
_cell_length_b 24.268708
_cell_length_c 8.830688
_cell_angle_alpha 90.000000
_cell_angle_beta 90.000000
_cell_angle_gamma 90.000000
_cell_volume 3224.662363
_symmetry_space_group_name_H-M "P B C M"
_symmetry_group_IT_number 57
_symmetry_cell_setting 'orthorhombic'
loop_
_space_group_symop_operation_xyz
x,y,z
-x,-y,1/2+z
x,1/2-y,-z
-x,1/2+y,1/2-z
-x,-y,-z
x,y,1/2-z
-x,1/2+y,z
x,1/2-y,1/2+z
loop_
_atom_site_type_symbol
_atom_site_label
_atom_site_fract_x
_atom_site_fract_y
_atom_site_fract_z
Si Si1 0.140783 0.894156 0.069278
Si Si2 0.550203 0.356605 0.926983
Si Si3 0.735330 0.306707 0.574154
Si Si4 0.016462 0.310787 0.067251
Si Si5 0.641563 0.809933 0.930785
Si Si6 0.779967 0.999083 0.431209
Si Si7 0.587956 0.472160 0.429610
Si Si8 0.195551 0.126621 0.568115
O O1 0.139106 0.900447 0.250000
O O2 0.056483 0.856762 0.022782
O O3 0.223717 0.857369 0.016402
O O4 0.155510 0.953504 0.994666
O O5 0.544288 0.374861 0.750000
O O6 0.629132 0.312460 0.933769
O O7 0.456134 0.331695 0.973166
O O8 0.577264 0.408117 0.028490
O O9 0.765632 0.250000 0.500000
O O10 0.761927 0.309660 0.750000
O O11 0.013258 0.306299 0.250000
O O12 0.112193 0.335568 0.022666
O O13 0.001447 0.250000 0.000000
O O14 0.645603 0.806449 0.750000
O O15 0.657130 0.750000 0.000000
O O16 0.715895 0.851129 0.991050
O O17 0.773208 0.004940 0.250000
O O18 0.680875 0.006675 0.499840
O O19 0.815443 0.937972 0.467284
O O20 0.500000 0.500000 0.500000
O O21 0.589903 0.480957 0.250000
O O22 0.204636 0.131018 0.750000
#
# Coordination Sequence:
#
# PCOD9439336 Si02
#       8
#     8   8   8   8   8   8   8   8
#     4  11  23  40  63  92 126 163 206 256 309 371
#     4  10  22  39  58  85 121 161 206 255 308 370
#     4  11  22  37  59  86 122 162 203 250 303 367
#     4  10  23  43  66  94 126 161 207 258 315 377
#     4  11  23  39  61  90 124 163 208 259 313 373
#     4  11  23  41  64  92 127 165 209 258 314 376
#     4  12  24  38  60  87 122 166 212 260 309 366
#     4  10  23  43  65  90 123 164 208 261 317 373
#
# _framework density 19.847038999999999
#
# number of rings (size 3 to 8) (size 9 to 14) (size 15 to 20)
#    0.000    1.250    1.250    4.500    0.000    8.500 
#    0.000    0.000    0.000    0.000    0.000    0.000 
#    0.000    0.000    0.000    0.000    0.000    0.000 
#
# Total GULP energy -357811.734832 kJ/mol
# GULP energy per Si atom -5590.808357 kJ/mol
# Density = 1.980187 g / cm^3
# Si number density = 19.847039 Si / 1000 Ang^3
#
#
#
# Elastic Constant Matrix: (Units=GPa)
#
#
# Indices 1 2 3 4 5 6 
#
# 1 60.0237 33.5789 20.0358 0.0000 0.0000 0.0000
# 2 33.5789 103.4332 37.3934 0.0000 0.0000 0.0000
# 3 20.0358 37.3934 54.8593 0.0000 0.0000 0.0000
# 4 0.0000 0.0000 0.0000 29.6343 0.0000 0.0000
# 5 0.0000 0.0000 0.0000 0.0000 19.4525 0.0000
# 6 0.0000 0.0000 0.0000 0.0000 0.0000 -3.3977
#
#
#
# Elastic Compliance Matrix: (Units=1/GPa)
#
#
# Indices 1 2 3 4 5 6 
#
# 1 0.021002 -0.005368 -0.004012 0.000000 0.000000 0.000000
# 2 -0.005368 0.014202 -0.007720 0.000000 0.000000 0.000000
# 3 -0.004012 -0.007720 0.024955 0.000000 0.000000 0.000000
# 4 0.000000 0.000000 0.000000 0.033745 0.000000 0.000000
# 5 0.000000 0.000000 0.000000 0.000000 0.051407 0.000000
# 6 0.000000 0.000000 0.000000 0.000000 0.000000 -0.294320
#
#
# Mechanical properties :
#
#
# Convention : Reuss Voigt Hill
#
# Bulk Modulus (GPa) = 38.51945 44.48139 41.50042
# Shear Modulus (GPa) = -47.09978 17.62504 -14.73737
#
# Velocity S-wave (km/s) = -4.87677 2.98324 -2.72793
# Velocity P-wave (km/s) = 3.50146 5.85893 3.32166
#
# Compressibility (1/GPa) = 0.02596091
#
# Stress axis : x y z
#
# Youngs Moduli (GPa) = 47.61432 70.41485 40.07143
#
# Poissons Ratio (x) = 0.37798 0.16075
# Poissons Ratio (y) = 0.25559 0.30934
# Poissons Ratio (z) = 0.19101 0.54358
#
# Static dielectric constant tensor:
#      x y z
#    x 1.703900 0.000000 0.000000 
#    y 0.000000 1.715990 0.000000 
#    z 0.000000 0.000000 1.672310 
# 
# From -- ./inp_files/5728.got.cif
#   From: 2010.05.17/outbox.cif.g08.bks.cpg/sg57_3_cif.got.tgz:5728.got - 2010.06.03 13:58:18.
