data_PCOD9439064
_publ_section_title
;
Structure prediction by ZEFSAII (Michael W. Deem and Ramdas Pophale) SiO2 
 PCOD9439064
Probable space group: P B C M
;
_chemical_formula_sum "Si O2"
_cell_formula_units_Z 60
_cell_length_a 11.670065
_cell_length_b 27.819011
_cell_length_c 9.406683
_cell_angle_alpha 90.000000
_cell_angle_beta 90.000000
_cell_angle_gamma 90.000000
_cell_volume 3053.876500
_symmetry_space_group_name_H-M "P B C M"
_symmetry_group_IT_number 57
_symmetry_cell_setting 'orthorhombic'
loop_
_space_group_symop_operation_xyz
x,y,z
-x,-y,1/2+z
x,1/2-y,-z
-x,1/2+y,1/2-z
-x,-y,-z
x,y,1/2-z
-x,1/2+y,z
x,1/2-y,1/2+z
loop_
_atom_site_type_symbol
_atom_site_label
_atom_site_fract_x
_atom_site_fract_y
_atom_site_fract_z
Si Si1 0.420968 0.961098 0.079286
Si Si2 0.291616 0.798191 0.912662
Si Si3 0.915854 0.132148 0.416996
Si Si4 0.966680 0.985304 0.250000
Si Si5 0.338079 0.298174 0.084968
Si Si6 0.491978 0.133171 0.083163
Si Si7 0.937516 0.797595 0.086903
Si Si8 0.154854 0.524689 0.997669
O O1 0.439220 0.960167 0.250000
O O2 0.286791 0.971729 0.049204
O O3 0.456665 0.911187 0.004299
O O4 0.500000 0.000000 0.000000
O O5 0.267514 0.785630 0.750000
O O6 0.194488 0.836004 0.956794
O O7 0.411856 0.825365 0.919829
O O8 0.290419 0.750000 0.000000
O O9 0.941971 0.138485 0.250000
O O10 0.885278 0.076917 0.442465
O O11 0.015727 0.154503 0.512349
O O12 0.068507 0.986254 0.128973
O O13 0.868349 0.987813 0.375540
O O14 0.377628 0.297305 0.250000
O O15 0.200135 0.298445 0.086309
O O16 0.373770 0.250000 0.000000
O O17 0.384820 0.343836 0.999021
O O18 0.469638 0.121369 0.250000
O O19 0.977092 0.794557 0.250000
O O20 0.975224 0.750000 0.000000
#
# Coordination Sequence:
#
# PCOD9439064 Si02
#       8
#     8   8   8   4   8   8   8   8
#     4  12  27  47  72 100 134 178 225 282 352 417
#     4  10  22  37  58  92 128 168 208 257 317 386
#     4  11  22  39  64  92 131 170 212 265 330 393
#     4  10  24  44  74 100 130 172 220 280 342 410
#     4  10  21  40  62  90 130 174 224 276 327 391
#     4  11  23  42  66  94 127 171 218 270 332 396
#     4  10  22  39  60  89 129 173 218 267 323 387
#     4  11  23  47  70 101 134 174 227 283 351 411
#
# _framework density 19.647158999999998
#
# number of rings (size 3 to 8) (size 9 to 14) (size 15 to 20)
#    0.000    1.333    2.667    2.400    2.800    5.333 
#    4.800    0.000    0.000    0.000    0.000    0.000 
#    0.000    0.000    0.000    0.000    0.000    0.000 
#
# Total GULP energy -334099.565540 kJ/mol
# GULP energy per Si atom -5568.326092 kJ/mol
# Density = 1.960244 g / cm^3
# Si number density = 19.647159 Si / 1000 Ang^3
#
#
#
# Elastic Constant Matrix: (Units=GPa)
#
#
# Indices 1 2 3 4 5 6 
#
# 1 53.3143 19.9808 41.7140 0.0000 0.0000 0.0000
# 2 19.9808 23.5548 24.4548 0.0000 0.0000 0.0000
# 3 41.7140 24.4548 154.0741 0.0000 0.0000 0.0000
# 4 0.0000 0.0000 0.0000 28.5511 0.0000 0.0000
# 5 0.0000 0.0000 0.0000 0.0000 26.2375 0.0000
# 6 0.0000 0.0000 0.0000 0.0000 0.0000 29.0204
#
#
#
# Elastic Compliance Matrix: (Units=1/GPa)
#
#
# Indices 1 2 3 4 5 6 
#
# 1 0.030351 -0.020611 -0.004946 0.000000 0.000000 0.000000
# 2 -0.020611 0.064827 -0.004709 0.000000 0.000000 0.000000
# 3 -0.004946 -0.004709 0.008577 0.000000 0.000000 0.000000
# 4 0.000000 0.000000 0.000000 0.035025 0.000000 0.000000
# 5 0.000000 0.000000 0.000000 0.000000 0.038113 0.000000
# 6 0.000000 0.000000 0.000000 0.000000 0.000000 0.034458
#
#
# Mechanical properties :
#
#
# Convention : Reuss Voigt Hill
#
# Bulk Modulus (GPa) = 23.13595 44.80470 33.97033
# Shear Modulus (GPa) = 17.46482 26.41472 21.93977
#
# Velocity S-wave (km/s) = 2.98472 3.67066 3.34532
# Velocity P-wave (km/s) = 4.86614 6.38899 5.67884
#
# Compressibility (1/GPa) = 0.04322277
#
# Stress axis : x y z
#
# Youngs Moduli (GPa) = 32.94820 15.42576 116.59286
#
# Poissons Ratio (x) = 0.31794 0.57664
# Poissons Ratio (y) = 0.67909 0.54906
# Poissons Ratio (z) = 0.16295 0.07264
#
# Static dielectric constant tensor:
#      x y z
#    x 1.701830 0.000000 0.000000 
#    y 0.000000 1.708160 0.000000 
#    z 0.000000 0.000000 1.674840 
# 
# From -- ./inp_files/3466.got.cif
#   From: 2010.05.17/outbox.cif.g08.bks.cpg/sg57_2_cif.got.tgz:3466.got - 2010.06.03 13:58:18.
