data_PCOD9439252
_publ_section_title
;
Structure prediction by ZEFSAII (Michael W. Deem and Ramdas Pophale) SiO2 
 PCOD9439252
Probable space group: P B C M
;
_chemical_formula_sum "Si O2"
_cell_formula_units_Z 32
_cell_length_a 11.591873
_cell_length_b 11.070844
_cell_length_c 13.926159
_cell_angle_alpha 90.000000
_cell_angle_beta 90.000000
_cell_angle_gamma 90.000000
_cell_volume 1787.169297
_symmetry_space_group_name_H-M "P B C M"
_symmetry_group_IT_number 57
_symmetry_cell_setting 'orthorhombic'
loop_
_space_group_symop_operation_xyz
x,y,z
-x,-y,1/2+z
x,1/2-y,-z
-x,1/2+y,1/2-z
-x,-y,-z
x,y,1/2-z
-x,1/2+y,z
x,1/2-y,1/2+z
loop_
_atom_site_type_symbol
_atom_site_label
_atom_site_fract_x
_atom_site_fract_y
_atom_site_fract_z
Si Si1 0.158291 0.890218 0.519963
Si Si2 0.371644 0.449711 0.007870
Si Si3 0.064759 0.423936 0.637122
Si Si4 0.280510 0.228239 0.363114
O O1 0.164885 0.750000 0.500000
O O2 0.067005 0.906854 0.605786
O O3 0.284073 0.944686 0.536521
O O4 0.110200 0.967154 0.429399
O O5 0.336312 0.340990 0.080823
O O6 0.500000 0.500000 0.000000
O O7 0.342329 0.391038 0.904367
O O8 0.076280 0.449274 0.750000
O O9 0.145233 0.305199 0.616508
O O10 0.293534 0.243771 0.250000
#
# Coordination Sequence:
#
# PCOD9439252 Si02
#       4
#     8   8   8   8
#     4  10  22  35  58  88 116 147 188 238 284 341
#     4  10  22  38  61  83 114 157 196 235 283 336
#     4   9  20  38  59  85 118 150 184 234 295 347
#     4   9  20  39  61  83 112 151 192 236 291 346
#
# _framework density 17.905411000000001
#
# number of rings (size 3 to 8) (size 9 to 14) (size 15 to 20)
#    0.000    2.500    0.000    0.000   14.000    3.000 
#    0.000    0.000    0.000    0.000    0.000    0.000 
#    0.000    0.000    0.000    0.000    0.000    0.000 
#
# Total GULP energy -178228.770134 kJ/mol
# GULP energy per Si atom -5569.649067 kJ/mol
# Density = 1.786466 g / cm^3
# Si number density = 17.905411 Si / 1000 Ang^3
#
#
#
# Elastic Constant Matrix: (Units=GPa)
#
#
# Indices 1 2 3 4 5 6 
#
# 1 153.5845 39.2925 31.0459 0.0000 0.0000 0.0000
# 2 39.2925 77.0750 18.2466 0.0000 0.0000 0.0000
# 3 31.0459 18.2466 94.0112 0.0000 0.0000 0.0000
# 4 0.0000 0.0000 0.0000 15.2673 0.0000 0.0000
# 5 0.0000 0.0000 0.0000 0.0000 12.3859 0.0000
# 6 0.0000 0.0000 0.0000 0.0000 0.0000 -13.0804
#
#
#
# Elastic Compliance Matrix: (Units=1/GPa)
#
#
# Indices 1 2 3 4 5 6 
#
# 1 0.007795 -0.003527 -0.001890 0.000000 0.000000 0.000000
# 2 -0.003527 0.015195 -0.001785 0.000000 0.000000 0.000000
# 3 -0.001890 -0.001785 0.011607 0.000000 0.000000 0.000000
# 4 0.000000 0.000000 0.000000 0.065500 0.000000 0.000000
# 5 0.000000 0.000000 0.000000 0.000000 0.080737 0.000000
# 6 0.000000 0.000000 0.000000 0.000000 0.000000 -0.076450
#
#
# Mechanical properties :
#
#
# Convention : Reuss Voigt Hill
#
# Bulk Modulus (GPa) = 49.51578 55.76008 52.63793
# Shear Modulus (GPa) = 39.83499 18.65359 29.24429
#
# Velocity S-wave (km/s) = 4.72184 3.23117 4.04575
# Velocity P-wave (km/s) = 7.57904 6.71786 7.16141
#
# Compressibility (1/GPa) = 0.02019558
#
# Stress axis : x y z
#
# Youngs Moduli (GPa) = 128.28194 65.81237 86.15139
#
# Poissons Ratio (x) = 0.23210 0.16281
# Poissons Ratio (y) = 0.45240 0.15374
# Poissons Ratio (z) = 0.24243 0.11744
#
# Static dielectric constant tensor:
#      x y z
#    x 1.642800 0.000000 0.000000 
#    y 0.000000 1.571250 0.000000 
#    z 0.000000 0.000000 1.611570 
# 
# From -- ./inp_files/15480.got.cif
#   From: 2010.05.17/outbox.cif.g08.bks.cpg/sg57_8_cif.got.tgz:15480.got - 2010.06.03 13:58:18.
