data_PCOD9439474
_publ_section_title
;
Structure prediction by ZEFSAII (Michael W. Deem and Ramdas Pophale) SiO2 
 PCOD9439474
Probable space group: P B C M
;
_chemical_formula_sum "Si O2"
_cell_formula_units_Z 40
_cell_length_a 5.129720
_cell_length_b 12.438382
_cell_length_c 25.617733
_cell_angle_alpha 90.000000
_cell_angle_beta 90.000000
_cell_angle_gamma 90.000000
_cell_volume 1634.550134
_symmetry_space_group_name_H-M "P B C M"
_symmetry_group_IT_number 57
_symmetry_cell_setting 'orthorhombic'
loop_
_space_group_symop_operation_xyz
x,y,z
-x,-y,1/2+z
x,1/2-y,-z
-x,1/2+y,1/2-z
-x,-y,-z
x,y,1/2-z
-x,1/2+y,z
x,1/2-y,1/2+z
loop_
_atom_site_type_symbol
_atom_site_label
_atom_site_fract_x
_atom_site_fract_y
_atom_site_fract_z
Si Si1 0.686349 0.544717 0.456596
Si Si2 0.276893 0.286867 0.620852
Si Si3 0.068476 0.664082 0.963768
Si Si4 0.508694 0.396300 0.311127
Si Si5 0.017541 0.958730 0.810825
O O1 0.500000 0.500000 0.500000
O O2 0.573393 0.624329 0.413871
O O3 0.902201 0.607826 0.490121
O O4 0.791602 0.432877 0.433940
O O5 0.115727 0.217574 0.578980
O O6 0.456815 0.209495 0.654823
O O7 0.077546 0.357448 0.655499
O O8 0.227092 0.750000 0.000000
O O9 0.462434 0.369299 0.250000
O O10 0.790741 0.451057 0.314345
O O11 0.288894 0.484980 0.325861
O O12 0.038025 0.925811 0.750000
#
# Coordination Sequence:
#
# PCOD9439474 Si02
#       5
#     8   8   8   8   8
#     4  10  22  41  61  89 127 170 217 277 327 387
#     4  11  22  40  67  95 129 177 225 274 336 401
#     4   9  21  41  60  87 126 169 217 269 328 391
#     4  10  23  44  67  98 137 174 219 272 333 403
#     4  10  23  44  68 101 140 174 220 279 334 401
#
# _framework density 24.471564999999998
#
# number of rings (size 3 to 8) (size 9 to 14) (size 15 to 20)
#    0.000    2.000    0.000    1.800    2.800    4.000 
#   14.400    6.000    0.000    0.000    0.000    0.000 
#    0.000    0.000    0.000    0.000    0.000    0.000 
#
# Total GULP energy -223807.153117 kJ/mol
# GULP energy per Si atom -5595.178828 kJ/mol
# Density = 2.441587 g / cm^3
# Si number density = 24.471565 Si / 1000 Ang^3
#
#
#
# Elastic Constant Matrix: (Units=GPa)
#
#
# Indices 1 2 3 4 5 6 
#
# 1 53.1574 10.0943 6.5629 0.0000 0.0000 0.0000
# 2 10.0943 121.0252 61.8983 0.0000 0.0000 0.0000
# 3 6.5629 61.8983 90.4469 0.0000 0.0000 0.0000
# 4 0.0000 0.0000 0.0000 40.6885 0.0000 0.0000
# 5 0.0000 0.0000 0.0000 0.0000 23.4698 0.0000
# 6 0.0000 0.0000 0.0000 0.0000 0.0000 11.5366
#
#
#
# Elastic Compliance Matrix: (Units=1/GPa)
#
#
# Indices 1 2 3 4 5 6 
#
# 1 0.019127 -0.001362 -0.000456 0.000000 0.000000 0.000000
# 2 -0.001362 0.012809 -0.008667 0.000000 0.000000 0.000000
# 3 -0.000456 -0.008667 0.017021 0.000000 0.000000 0.000000
# 4 0.000000 0.000000 0.000000 0.024577 0.000000 0.000000
# 5 0.000000 0.000000 0.000000 0.000000 0.042608 0.000000
# 6 0.000000 0.000000 0.000000 0.000000 0.000000 0.086681
#
#
# Mechanical properties :
#
#
# Convention : Reuss Voigt Hill
#
# Bulk Modulus (GPa) = 35.73123 46.86006 41.29564
# Shear Modulus (GPa) = 21.44800 27.54391 24.49596
#
# Velocity S-wave (km/s) = 2.96369 3.35856 3.16729
# Velocity P-wave (km/s) = 5.13265 5.85066 5.50338
#
# Compressibility (1/GPa) = 0.02798672
#
# Stress axis : x y z
#
# Youngs Moduli (GPa) = 52.28210 78.06860 58.75160
#
# Poissons Ratio (x) = 0.10635 0.02677
# Poissons Ratio (y) = 0.07122 0.50922
# Poissons Ratio (z) = 0.02382 0.67664
#
# Static dielectric constant tensor:
#      x y z
#    x 2.323410 0.000000 0.000000 
#    y 0.000000 1.474750 0.000000 
#    z 0.000000 0.000000 2.013970 
# 
# From -- ./inp_files/27782.got.cif
#   From: 2010.05.17/outbox.cif.g08.bks.cpg/sg57_14_cif.got.tgz:27782.got - 2010.06.03 13:58:18.
