data_PCOD9439469
_publ_section_title
;
Structure prediction by ZEFSAII (Michael W. Deem and Ramdas Pophale) SiO2 
 PCOD9439469
Probable space group: P B C M
;
_chemical_formula_sum "Si O2"
_cell_formula_units_Z 52
_cell_length_a 16.755053
_cell_length_b 9.761374
_cell_length_c 13.756668
_cell_angle_alpha 90.000000
_cell_angle_beta 90.000000
_cell_angle_gamma 90.000000
_cell_volume 2249.935224
_symmetry_space_group_name_H-M "P B C M"
_symmetry_group_IT_number 57
_symmetry_cell_setting 'orthorhombic'
loop_
_space_group_symop_operation_xyz
x,y,z
-x,-y,1/2+z
x,1/2-y,-z
-x,1/2+y,1/2-z
-x,-y,-z
x,y,1/2-z
-x,1/2+y,z
x,1/2-y,1/2+z
loop_
_atom_site_type_symbol
_atom_site_label
_atom_site_fract_x
_atom_site_fract_y
_atom_site_fract_z
Si Si1 0.500517 0.250000 0.500000
Si Si2 0.042395 0.079685 0.864460
Si Si3 0.223538 0.366764 0.366207
Si Si4 0.239806 0.884035 0.526173
Si Si5 0.564133 0.999929 0.635586
Si Si6 0.249587 0.056481 0.142542
Si Si7 0.914508 0.220299 0.136783
O O1 0.539424 0.363201 0.424804
O O2 0.459247 0.138872 0.424859
O O3 0.044343 0.118592 0.750000
O O4 0.131272 0.117487 0.899711
O O5 0.967965 0.159916 0.907246
O O6 0.032671 0.917639 0.868742
O O7 0.225950 0.386434 0.250000
O O8 0.274874 0.488070 0.414684
O O9 0.250196 0.214107 0.388423
O O10 0.290941 0.750000 0.500000
O O11 0.168458 0.821870 0.589107
O O12 0.205742 0.958096 0.431118
O O13 0.535394 0.999044 0.750000
O O14 0.660147 0.996339 0.641980
O O15 0.214535 0.050777 0.250000
O O16 0.896797 0.247332 0.250000
#
# Coordination Sequence:
#
# PCOD9439469 Si02
#       7
#     4   8   8   8   8   8   8
#     4  10  22  40  74 102 140 180 210 274 322 372
#     4   8  15  30  54  78 106 144 192 248 308 368
#     4   9  19  39  62  84 113 158 208 254 308 377
#     4  11  23  36  56  86 121 157 198 258 315 375
#     4  10  22  42  68 104 140 176 222 265 319 383
#     4  10  23  41  62  86 121 168 214 257 301 365
#     4   9  18  35  57  82 113 152 198 255 316 380
#
# _framework density 23.111775000000002
#
# number of rings (size 3 to 8) (size 9 to 14) (size 15 to 20)
#    0.000    2.462    0.000    2.308    3.231    2.462 
#    0.000   10.000    0.000    0.000    0.000    4.308 
#    0.000    0.000    0.000    0.000    0.000    0.000 
#
# Total GULP energy -290010.588201 kJ/mol
# GULP energy per Si atom -5577.126696 kJ/mol
# Density = 2.305917 g / cm^3
# Si number density = 23.111775 Si / 1000 Ang^3
#
#
#
# Elastic Constant Matrix: (Units=GPa)
#
#
# Indices 1 2 3 4 5 6 
#
# 1 29.8356 20.7183 18.7792 0.0000 0.0000 0.0000
# 2 20.7183 153.8440 54.8873 0.0000 0.0000 0.0000
# 3 18.7792 54.8873 141.6668 0.0000 0.0000 0.0000
# 4 0.0000 0.0000 0.0000 40.3386 0.0000 0.0000
# 5 0.0000 0.0000 0.0000 0.0000 13.2553 0.0000
# 6 0.0000 0.0000 0.0000 0.0000 0.0000 16.7392
#
#
#
# Elastic Compliance Matrix: (Units=1/GPa)
#
#
# Indices 1 2 3 4 5 6 
#
# 1 0.038486 -0.003902 -0.003590 0.000000 0.000000 0.000000
# 2 -0.003902 0.007938 -0.002558 0.000000 0.000000 0.000000
# 3 -0.003590 -0.002558 0.008526 0.000000 0.000000 0.000000
# 4 0.000000 0.000000 0.000000 0.024790 0.000000 0.000000
# 5 0.000000 0.000000 0.000000 0.000000 0.075441 0.000000
# 6 0.000000 0.000000 0.000000 0.000000 0.000000 0.059740
#
#
# Mechanical properties :
#
#
# Convention : Reuss Voigt Hill
#
# Bulk Modulus (GPa) = 28.69461 57.12399 42.90930
# Shear Modulus (GPa) = 20.27251 29.46407 24.86829
#
# Velocity S-wave (km/s) = 2.96489 3.57438 3.28380
# Velocity P-wave (km/s) = 4.91561 6.46568 5.74318
#
# Compressibility (1/GPa) = 0.03484975
#
# Stress axis : x y z
#
# Youngs Moduli (GPa) = 25.98324 125.97058 117.28981
#
# Poissons Ratio (x) = 0.49157 0.42105
# Poissons Ratio (y) = 0.10139 0.30007
# Poissons Ratio (z) = 0.09328 0.32228
#
# Static dielectric constant tensor:
#      x y z
#    x 1.873860 0.000000 0.000000 
#    y 0.000000 1.936410 0.000000 
#    z 0.000000 0.000000 1.980790 
# 
# From -- ./inp_files/19285.got.cif
#   From: 2010.05.17/outbox.cif.g08.bks.cpg/sg57_10_cif.got.tgz:19285.got - 2010.06.03 13:58:18.
