data_PCOD9439123
_publ_section_title
;
Structure prediction by ZEFSAII (Michael W. Deem and Ramdas Pophale) SiO2 
 PCOD9439123
Probable space group: P B C M
;
_chemical_formula_sum "Si O2"
_cell_formula_units_Z 48
_cell_length_a 8.563088
_cell_length_b 14.883833
_cell_length_c 17.539359
_cell_angle_alpha 90.000000
_cell_angle_beta 90.000000
_cell_angle_gamma 90.000000
_cell_volume 2235.418872
_symmetry_space_group_name_H-M "P B C M"
_symmetry_group_IT_number 57
_symmetry_cell_setting 'orthorhombic'
loop_
_space_group_symop_operation_xyz
x,y,z
-x,-y,1/2+z
x,1/2-y,-z
-x,1/2+y,1/2-z
-x,-y,-z
x,y,1/2-z
-x,1/2+y,z
x,1/2-y,1/2+z
loop_
_atom_site_type_symbol
_atom_site_label
_atom_site_fract_x
_atom_site_fract_y
_atom_site_fract_z
Si Si1 0.421060 0.805822 0.342325
Si Si2 0.622780 0.530321 0.841744
Si Si3 0.097550 0.284943 0.914913
Si Si4 0.596949 0.867212 0.659497
Si Si5 0.089177 0.628872 0.839956
Si Si6 0.940367 0.031458 0.417085
O O1 0.413689 0.812056 0.250000
O O2 0.461489 0.704029 0.361225
O O3 0.256050 0.840208 0.373034
O O4 0.564024 0.870775 0.363831
O O5 0.661612 0.527202 0.750000
O O6 0.473744 0.465290 0.853443
O O7 0.766656 0.497214 0.892417
O O8 0.250677 0.335161 0.884420
O O9 0.042691 0.197920 0.868210
O O10 0.965640 0.362338 0.910993
O O11 0.120810 0.250000 0.000000
O O12 0.628713 0.858885 0.750000
O O13 0.095954 0.636236 0.750000
O O14 0.049254 0.527247 0.861279
O O15 0.000000 0.000000 0.500000
#
# Coordination Sequence:
#
# PCOD9439123 Si02
#       6
#     8   8   8   8   8   8
#     4   9  19  37  63  95 125 157 211 272 320 379
#     4  10  21  40  66  95 126 167 222 276 327 389
#     4  12  25  43  63  95 139 177 218 271 337 399
#     4  10  21  40  65  94 124 164 221 274 323 389
#     4  11  23  43  72  99 127 173 225 272 327 395
#     4  12  25  43  64  94 138 175 212 271 330 397
#
# _framework density 21.472484999999999
#
# number of rings (size 3 to 8) (size 9 to 14) (size 15 to 20)
#    0.000    1.333    1.667    4.000    0.000    6.667 
#    3.000    1.667    0.000    0.000    0.000    0.000 
#    0.000    0.000    0.000    0.000    0.000    0.000 
#
# Total GULP energy -268326.376710 kJ/mol
# GULP energy per Si atom -5590.132848 kJ/mol
# Density = 2.142361 g / cm^3
# Si number density = 21.472485 Si / 1000 Ang^3
#
#
#
# Elastic Constant Matrix: (Units=GPa)
#
#
# Indices 1 2 3 4 5 6 
#
# 1 63.0140 -19.2645 15.4951 0.0000 0.0000 0.0000
# 2 -19.2645 73.1916 7.4141 0.0000 0.0000 0.0000
# 3 15.4951 7.4141 57.8808 0.0000 0.0000 0.0000
# 4 0.0000 0.0000 0.0000 16.2692 0.0000 0.0000
# 5 0.0000 0.0000 0.0000 0.0000 121.7141 0.0000
# 6 0.0000 0.0000 0.0000 0.0000 0.0000 31.6641
#
#
#
# Elastic Compliance Matrix: (Units=1/GPa)
#
#
# Indices 1 2 3 4 5 6 
#
# 1 0.019006 0.005590 -0.005804 0.000000 0.000000 0.000000
# 2 0.005590 0.015487 -0.003480 0.000000 0.000000 0.000000
# 3 -0.005804 -0.003480 0.019276 0.000000 0.000000 0.000000
# 4 0.000000 0.000000 0.000000 0.061466 0.000000 0.000000
# 5 0.000000 0.000000 0.000000 0.000000 0.008216 0.000000
# 6 0.000000 0.000000 0.000000 0.000000 0.000000 0.031582
#
#
# Mechanical properties :
#
#
# Convention : Reuss Voigt Hill
#
# Bulk Modulus (GPa) = 21.56059 22.37512 21.96785
# Shear Modulus (GPa) = 28.10871 46.62560 37.36715
#
# Velocity S-wave (km/s) = 3.62201 4.66490 4.17614
# Velocity P-wave (km/s) = 5.24927 6.28156 5.78847
#
# Compressibility (1/GPa) = 0.04638092
#
# Stress axis : x y z
#
# Youngs Moduli (GPa) = 52.61559 64.57143 51.87672
#
# Poissons Ratio (x) = -0.36098 0.30110
# Poissons Ratio (y) = -0.29414 0.18055
# Poissons Ratio (z) = 0.30538 0.22473
#
# Static dielectric constant tensor:
#      x y z
#    x 1.798510 0.000000 0.000000 
#    y 0.000000 1.753290 0.000000 
#    z 0.000000 0.000000 1.758890 
# 
# From -- ./inp_files/20931.got.cif
#   From: 2010.05.17/outbox.cif.g08.bks.cpg/sg57_11_cif.got.tgz:20931.got - 2010.06.03 13:58:18.
