data_PCOD9439661
_publ_section_title
;
Structure prediction by ZEFSAII (Michael W. Deem and Ramdas Pophale) SiO2 
 PCOD9439661
Probable space group: P B C M
;
_chemical_formula_sum "Si O2"
_cell_formula_units_Z 64
_cell_length_a 24.067934
_cell_length_b 9.557410
_cell_length_c 14.288839
_cell_angle_alpha 90.000000
_cell_angle_beta 90.000000
_cell_angle_gamma 90.000000
_cell_volume 3286.820385
_symmetry_space_group_name_H-M "P B C M"
_symmetry_group_IT_number 57
_symmetry_cell_setting 'orthorhombic'
loop_
_space_group_symop_operation_xyz
x,y,z
-x,-y,1/2+z
x,1/2-y,-z
-x,1/2+y,1/2-z
-x,-y,-z
x,y,1/2-z
-x,1/2+y,z
x,1/2-y,1/2+z
loop_
_atom_site_type_symbol
_atom_site_label
_atom_site_fract_x
_atom_site_fract_y
_atom_site_fract_z
Si Si1 0.455539 0.133908 0.638688
Si Si2 0.354480 0.417907 0.012890
Si Si3 0.966838 0.451069 0.644149
Si Si4 0.162319 0.937410 0.361439
Si Si5 0.932014 0.610941 0.036042
Si Si6 0.838906 0.117284 0.142496
Si Si7 0.563021 0.539056 0.138800
Si Si8 0.229145 0.418041 0.494594
O O1 0.451128 0.116693 0.750000
O O2 0.402001 0.064133 0.590812
O O3 0.454856 0.300006 0.618870
O O4 0.513049 0.062348 0.609284
O O5 0.380981 0.483221 0.919461
O O6 0.291773 0.462893 0.032097
O O7 0.350523 0.250000 0.000000
O O8 0.975878 0.503520 0.750000
O O9 0.960609 0.560079 0.559802
O O10 0.906191 0.381431 0.641934
O O11 0.019265 0.359970 0.611146
O O12 0.154436 0.949803 0.250000
O O13 0.175322 0.776011 0.384313
O O14 0.108144 0.997956 0.415540
O O15 0.212530 0.027906 0.402540
O O16 0.901177 0.750000 0.000000
O O17 0.821823 0.090531 0.250000
O O18 0.812637 0.998751 0.076350
O O19 0.571695 0.525355 0.250000
O O20 0.225655 0.250000 0.500000
#
# Coordination Sequence:
#
# PCOD9439661 Si02
#       8
#     8   8   8   8   8   8   8   8
#     4   9  17  31  52  79 110 146 183 226 276 333
#     4   9  19  34  54  79 111 146 187 231 282 342
#     4  10  23  39  61  89 122 158 191 235 296 356
#     4  11  24  42  63  86 118 159 199 242 298 359
#     4  11  24  39  62  93 124 156 199 251 292 351
#     4  10  23  43  65  85 116 158 196 237 296 361
#     4   9  17  31  52  78 111 146 182 224 275 333
#     4  11  23  40  61  89 116 150 200 253 298 344
#
# _framework density 19.471705
#
# number of rings (size 3 to 8) (size 9 to 14) (size 15 to 20)
#    0.000    2.000    1.250    1.500    3.500    2.500 
#    0.000    5.000    0.000    3.000    0.000    0.000 
#    0.000    0.000    0.000    0.000    0.000    0.000 
#
# Total GULP energy -356673.503940 kJ/mol
# GULP energy per Si atom -5573.023499 kJ/mol
# Density = 1.942739 g / cm^3
# Si number density = 19.471705 Si / 1000 Ang^3
#
#
#
# Elastic Constant Matrix: (Units=GPa)
#
#
# Indices 1 2 3 4 5 6 
#
# 1 88.7876 24.6643 12.4903 0.0000 0.0000 0.0000
# 2 24.6643 79.4766 36.3711 0.0000 0.0000 0.0000
# 3 12.4903 36.3711 87.0583 0.0000 0.0000 0.0000
# 4 0.0000 0.0000 0.0000 22.3219 0.0000 0.0000
# 5 0.0000 0.0000 0.0000 0.0000 14.4818 0.0000
# 6 0.0000 0.0000 0.0000 0.0000 0.0000 25.9945
#
#
#
# Elastic Compliance Matrix: (Units=1/GPa)
#
#
# Indices 1 2 3 4 5 6 
#
# 1 0.012329 -0.003730 -0.000211 0.000000 0.000000 0.000000
# 2 -0.003730 0.016685 -0.006435 0.000000 0.000000 0.000000
# 3 -0.000211 -0.006435 0.014205 0.000000 0.000000 0.000000
# 4 0.000000 0.000000 0.000000 0.044799 0.000000 0.000000
# 5 0.000000 0.000000 0.000000 0.000000 0.069052 0.000000
# 6 0.000000 0.000000 0.000000 0.000000 0.000000 0.038470
#
#
# Mechanical properties :
#
#
# Convention : Reuss Voigt Hill
#
# Bulk Modulus (GPa) = 44.50906 44.70821 44.60863
# Shear Modulus (GPa) = 22.34334 24.67941 23.51138
#
# Velocity S-wave (km/s) = 3.39112 3.56399 3.47863
# Velocity P-wave (km/s) = 6.18392 6.32032 6.25249
#
# Compressibility (1/GPa) = 0.02246734
#
# Stress axis : x y z
#
# Youngs Moduli (GPa) = 81.11282 59.93471 70.39582
#
# Poissons Ratio (x) = 0.22353 0.01483
# Poissons Ratio (y) = 0.30252 0.45303
# Poissons Ratio (z) = 0.01709 0.38571
#
# Static dielectric constant tensor:
#      x y z
#    x 1.697830 0.000000 0.000000 
#    y 0.000000 1.696110 0.000000 
#    z 0.000000 0.000000 1.705840 
# 
# From -- ./inp_files/19518.got.cif
#   From: 2010.05.17/outbox.cif.g08.bks.cpg/sg57_10_cif.got.tgz:19518.got - 2010.06.03 13:58:18.
