data_PCOD9439967
_publ_section_title
;
Structure prediction by ZEFSAII (Michael W. Deem and Ramdas Pophale) SiO2 
 PCOD9439967
Probable space group: P B C M
;
_chemical_formula_sum "Si O2"
_cell_formula_units_Z 64
_cell_length_a 20.393258
_cell_length_b 9.501671
_cell_length_c 17.155036
_cell_angle_alpha 90.000000
_cell_angle_beta 90.000000
_cell_angle_gamma 90.000000
_cell_volume 3324.131808
_symmetry_space_group_name_H-M "P B C M"
_symmetry_group_IT_number 57
_symmetry_cell_setting 'orthorhombic'
loop_
_space_group_symop_operation_xyz
x,y,z
-x,-y,1/2+z
x,1/2-y,-z
-x,1/2+y,1/2-z
-x,-y,-z
x,y,1/2-z
-x,1/2+y,z
x,1/2-y,1/2+z
loop_
_atom_site_type_symbol
_atom_site_label
_atom_site_fract_x
_atom_site_fract_y
_atom_site_fract_z
Si Si1 0.336669 0.612005 0.553096
Si Si2 0.799887 0.136274 0.605794
Si Si3 0.475121 0.516984 0.588555
Si Si4 0.060038 0.657020 0.662364
Si Si5 0.818787 0.456246 0.573946
Si Si6 0.967140 0.451792 0.582346
Si Si7 0.422779 0.273430 0.158178
Si Si8 0.700694 0.635555 0.938861
O O1 0.325063 0.750000 0.500000
O O2 0.276906 0.597662 0.615045
O O3 0.408664 0.609966 0.589213
O O4 0.333716 0.483045 0.492376
O O5 0.865778 0.097472 0.651658
O O6 0.804133 0.305293 0.611488
O O7 0.812248 0.078239 0.518288
O O8 0.500000 0.500000 0.500000
O O9 0.531107 0.594684 0.637114
O O10 0.455720 0.365048 0.621462
O O11 0.053661 0.712545 0.750000
O O12 0.042357 0.784592 0.601656
O O13 0.011207 0.529283 0.645840
O O14 0.892457 0.505652 0.586646
O O15 0.763300 0.563879 0.599838
O O16 0.000000 0.500000 0.500000
O O17 0.416190 0.257094 0.250000
O O18 0.352619 0.298835 0.117973
O O19 0.725652 0.750000 0.000000
#
# Coordination Sequence:
#
# PCOD9439967 Si02
#       8
#     8   8   8   8   8   8   8   8
#     4  11  19  35  67  95 114 149 214 257 292 351
#     4   9  17  35  58  86 115 153 199 256 296 358
#     4  12  23  42  67  93 118 164 213 254 300 376
#     4  11  23  39  58  87 129 163 198 257 325 373
#     4   9  18  34  61  88 115 149 212 258 295 344
#     4  11  21  38  64  90 117 163 212 260 303 371
#     4  12  26  43  59  90 131 164 196 258 323 367
#     4  11  20  38  62  91 121 158 204 253 302 363
#
# _framework density 19.253146000000001
#
# number of rings (size 3 to 8) (size 9 to 14) (size 15 to 20)
#    0.000    1.250    6.250    2.250    0.000    1.000 
#    0.000    4.375    0.000    0.000    0.000    0.000 
#    0.000    0.000    0.000    0.000    0.000    0.000 
#
# Total GULP energy -356874.623615 kJ/mol
# GULP energy per Si atom -5576.165994 kJ/mol
# Density = 1.920933 g / cm^3
# Si number density = 19.253146 Si / 1000 Ang^3
#
#
#
# Elastic Constant Matrix: (Units=GPa)
#
#
# Indices 1 2 3 4 5 6 
#
# 1 156.7856 23.9001 25.9030 0.0000 0.0000 0.0000
# 2 23.9001 62.8885 15.9498 0.0000 0.0000 0.0000
# 3 25.9030 15.9498 64.2152 0.0000 0.0000 0.0000
# 4 0.0000 0.0000 0.0000 19.8175 0.0000 0.0000
# 5 0.0000 0.0000 0.0000 0.0000 8.0550 0.0000
# 6 0.0000 0.0000 0.0000 0.0000 0.0000 38.3090
#
#
#
# Elastic Compliance Matrix: (Units=1/GPa)
#
#
# Indices 1 2 3 4 5 6 
#
# 1 0.007084 -0.002100 -0.002336 0.000000 0.000000 0.000000
# 2 -0.002100 0.017593 -0.003523 0.000000 0.000000 0.000000
# 3 -0.002336 -0.003523 0.017390 0.000000 0.000000 0.000000
# 4 0.000000 0.000000 0.000000 0.050460 0.000000 0.000000
# 5 0.000000 0.000000 0.000000 0.000000 0.124147 0.000000
# 6 0.000000 0.000000 0.000000 0.000000 0.000000 0.026104
#
#
# Mechanical properties :
#
#
# Convention : Reuss Voigt Hill
#
# Bulk Modulus (GPa) = 38.24139 46.15501 42.19820
# Shear Modulus (GPa) = 18.69780 27.77873 23.23827
#
# Velocity S-wave (km/s) = 3.11972 3.80256 3.47794
# Velocity P-wave (km/s) = 5.73432 6.58058 6.17197
#
# Compressibility (1/GPa) = 0.02614968
#
# Stress axis : x y z
#
# Youngs Moduli (GPa) = 141.15975 56.84217 57.50463
#
# Poissons Ratio (x) = 0.11936 0.13433
# Poissons Ratio (y) = 0.29641 0.20257
# Poissons Ratio (z) = 0.32976 0.20023
#
# Static dielectric constant tensor:
#      x y z
#    x 1.706480 0.000000 0.000000 
#    y 0.000000 1.692620 0.000000 
#    z 0.000000 0.000000 1.676900 
# 
# From -- ./inp_files/23062.got.cif
#   From: 2010.05.17/outbox.cif.g08.bks.cpg/sg57_12_cif.got.tgz:23062.got - 2010.06.03 13:58:18.
