data_PCOD9439178
_publ_section_title
;
Structure prediction by ZEFSAII (Michael W. Deem and Ramdas Pophale) SiO2 
 PCOD9439178
Probable space group: P B C M
;
_chemical_formula_sum "Si O2"
_cell_formula_units_Z 48
_cell_length_a 8.306964
_cell_length_b 16.215651
_cell_length_c 15.592890
_cell_angle_alpha 90.000000
_cell_angle_beta 90.000000
_cell_angle_gamma 90.000000
_cell_volume 2100.406397
_symmetry_space_group_name_H-M "P B C M"
_symmetry_group_IT_number 57
_symmetry_cell_setting 'orthorhombic'
loop_
_space_group_symop_operation_xyz
x,y,z
-x,-y,1/2+z
x,1/2-y,-z
-x,1/2+y,1/2-z
-x,-y,-z
x,y,1/2-z
-x,1/2+y,z
x,1/2-y,1/2+z
loop_
_atom_site_type_symbol
_atom_site_label
_atom_site_fract_x
_atom_site_fract_y
_atom_site_fract_z
Si Si1 0.215268 0.497402 0.844555
Si Si2 0.326427 0.032977 0.976459
Si Si3 0.645022 0.684965 0.848774
Si Si4 0.881648 0.438360 0.653409
Si Si5 0.292966 0.685680 0.651221
Si Si6 0.034179 0.234504 0.097691
O O1 0.258102 0.462690 0.750000
O O2 0.299333 0.586181 0.853191
O O3 0.022220 0.507348 0.844310
O O4 0.251685 0.447752 0.930695
O O5 0.235520 0.961837 0.923302
O O6 0.325931 0.110022 0.913388
O O7 0.500000 0.000000 0.000000
O O8 0.623794 0.656343 0.750000
O O9 0.468290 0.720780 0.874742
O O10 0.804986 0.740016 0.851571
O O11 0.811194 0.433642 0.750000
O O12 0.972267 0.353845 0.630526
O O13 0.267543 0.709816 0.750000
O O14 0.129830 0.711887 0.605425
O O15 0.084010 0.250000 0.000000
#
# Coordination Sequence:
#
# PCOD9439178 Si02
#       6
#     8   8   8   8   8   8
#     4  10  21  41  67  96 133 172 228 287 348 412
#     4  12  23  40  69 100 137 176 229 291 349 413
#     4  11  24  44  69 100 136 187 240 283 347 434
#     4  11  24  42  66 100 136 177 229 295 355 409
#     4  10  21  41  67  94 128 181 233 282 344 424
#     4  12  25  43  69  96 143 186 232 289 354 420
#
# _framework density 22.852719
#
# number of rings (size 3 to 8) (size 9 to 14) (size 15 to 20)
#    0.000    1.000    1.667    5.500    0.000    2.667 
#    3.000    0.000    0.000    0.000    0.000    0.000 
#    0.000    0.000    0.000    0.000    0.000    0.000 
#
# Total GULP energy -268034.357022 kJ/mol
# GULP energy per Si atom -5584.049105 kJ/mol
# Density = 2.280071 g / cm^3
# Si number density = 22.852719 Si / 1000 Ang^3
#
#
#
# Elastic Constant Matrix: (Units=GPa)
#
#
# Indices 1 2 3 4 5 6 
#
# 1 127.3110 30.3790 45.7338 0.0000 0.0000 0.0000
# 2 30.3790 46.7400 16.7041 0.0000 0.0000 0.0000
# 3 45.7338 16.7041 157.0203 0.0000 0.0000 0.0000
# 4 0.0000 0.0000 0.0000 16.6527 0.0000 0.0000
# 5 0.0000 0.0000 0.0000 0.0000 -48.5500 0.0000
# 6 0.0000 0.0000 0.0000 0.0000 0.0000 19.6461
#
#
#
# Elastic Compliance Matrix: (Units=1/GPa)
#
#
# Indices 1 2 3 4 5 6 
#
# 1 0.010049 -0.005702 -0.002320 0.000000 0.000000 0.000000
# 2 -0.005702 0.025476 -0.001049 0.000000 0.000000 0.000000
# 3 -0.002320 -0.001049 0.007156 0.000000 0.000000 0.000000
# 4 0.000000 0.000000 0.000000 0.060050 0.000000 0.000000
# 5 0.000000 0.000000 0.000000 0.000000 -0.020597 0.000000
# 6 0.000000 0.000000 0.000000 0.000000 0.000000 0.050901
#
#
# Mechanical properties :
#
#
# Convention : Reuss Voigt Hill
#
# Bulk Modulus (GPa) = 40.75389 57.41169 49.08279
# Shear Modulus (GPa) = 31.37595 13.43339 22.40467
#
# Velocity S-wave (km/s) = 3.70937 2.42714 3.13452
# Velocity P-wave (km/s) = 6.01813 5.74732 5.88428
#
# Compressibility (1/GPa) = 0.02453753
#
# Stress axis : x y z
#
# Youngs Moduli (GPa) = 99.51308 39.25236 139.74218
#
# Poissons Ratio (x) = 0.22382 0.32424
# Poissons Ratio (y) = 0.56744 0.14664
# Poissons Ratio (z) = 0.23089 0.04119
#
# Static dielectric constant tensor:
#      x y z
#    x 1.904150 0.000000 0.000000 
#    y 0.000000 1.893200 0.000000 
#    z 0.000000 0.000000 1.323810 
# 
# From -- ./inp_files/16367.got.cif
#   From: 2010.05.17/outbox.cif.g08.bks.cpg/sg57_9_cif.got.tgz:16367.got - 2010.06.03 13:58:18.
