data_PCOD9439475
_publ_section_title
;
Structure prediction by ZEFSAII (Michael W. Deem and Ramdas Pophale) SiO2 
 PCOD9439475
Probable space group: P B C M
;
_chemical_formula_sum "Si O2"
_cell_formula_units_Z 56
_cell_length_a 21.332872
_cell_length_b 15.688713
_cell_length_c 8.720037
_cell_angle_alpha 90.000000
_cell_angle_beta 90.000000
_cell_angle_gamma 90.000000
_cell_volume 2918.468254
_symmetry_space_group_name_H-M "P B C M"
_symmetry_group_IT_number 57
_symmetry_cell_setting 'orthorhombic'
loop_
_space_group_symop_operation_xyz
x,y,z
-x,-y,1/2+z
x,1/2-y,-z
-x,1/2+y,1/2-z
-x,-y,-z
x,y,1/2-z
-x,1/2+y,z
x,1/2-y,1/2+z
loop_
_atom_site_type_symbol
_atom_site_label
_atom_site_fract_x
_atom_site_fract_y
_atom_site_fract_z
Si Si1 0.858298 0.340920 0.933503
Si Si2 0.009818 0.904991 0.433741
Si Si3 0.402698 0.837203 0.933808
Si Si4 0.529779 0.586535 0.066615
Si Si5 0.206152 0.482149 0.065594
Si Si6 0.650093 0.978813 0.065406
Si Si7 0.882513 0.837753 0.567471
O O1 0.863973 0.334577 0.750000
O O2 0.812488 0.420128 0.968889
O O3 0.837890 0.250000 0.000000
O O4 0.925818 0.365782 0.003330
O O5 0.011088 0.908007 0.250000
O O6 0.950504 0.851662 0.491995
O O7 0.000000 0.000000 0.500000
O O8 0.398478 0.834553 0.750000
O O9 0.476485 0.845491 0.976555
O O10 0.369445 0.925016 0.984332
O O11 0.376122 0.750000 0.000000
O O12 0.532263 0.582173 0.250000
O O13 0.500000 0.500000 0.000000
O O14 0.599816 0.587589 0.001526
O O15 0.198883 0.471185 0.250000
O O16 0.278012 0.463858 0.023738
O O17 0.159760 0.417756 0.981455
O O18 0.644781 0.976821 0.250000
O O19 0.855508 0.750000 0.500000
O O20 0.888156 0.833185 0.750000
#
# Coordination Sequence:
#
# PCOD9439475 Si02
#       7
#     8   8   8   8   8   8   8
#     4  11  23  39  60  87 122 160 200 246 298 355
#     4  12  23  39  63  91 121 153 195 245 303 360
#     4   9  18  31  50  79 112 142 180 225 275 330
#     4   9  17  31  51  76 104 137 178 223 270 324
#     4  10  22  41  62  84 118 160 200 244 297 354
#     4   9  19  36  56  79 109 147 187 231 282 337
#     4  12  25  42  65  90 118 153 198 249 302 359
#
# _framework density 19.188147000000001
#
# number of rings (size 3 to 8) (size 9 to 14) (size 15 to 20)
#    0.000    1.714    1.429    4.714    0.000    4.571 
#    0.000    0.714    0.000    1.714    0.000    0.000 
#    0.000    0.000    0.000    0.000    0.000    0.000 
#
# Total GULP energy -312683.261307 kJ/mol
# GULP energy per Si atom -5583.629666 kJ/mol
# Density = 1.914447 g / cm^3
# Si number density = 19.188147 Si / 1000 Ang^3
#
#
#
# Elastic Constant Matrix: (Units=GPa)
#
#
# Indices 1 2 3 4 5 6 
#
# 1 72.0433 -14.7755 24.0918 0.0000 0.0000 0.0000
# 2 -14.7755 64.0606 20.9247 0.0000 0.0000 0.0000
# 3 24.0918 20.9247 65.3969 0.0000 0.0000 0.0000
# 4 0.0000 0.0000 0.0000 31.4257 0.0000 0.0000
# 5 0.0000 0.0000 0.0000 0.0000 21.6760 0.0000
# 6 0.0000 0.0000 0.0000 0.0000 0.0000 10.7860
#
#
#
# Elastic Compliance Matrix: (Units=1/GPa)
#
#
# Indices 1 2 3 4 5 6 
#
# 1 0.018397 0.007211 -0.009085 0.000000 0.000000 0.000000
# 2 0.007211 0.020258 -0.009138 0.000000 0.000000 0.000000
# 3 -0.009085 -0.009138 0.021562 0.000000 0.000000 0.000000
# 4 0.000000 0.000000 0.000000 0.031821 0.000000 0.000000
# 5 0.000000 0.000000 0.000000 0.000000 0.046134 0.000000
# 6 0.000000 0.000000 0.000000 0.000000 0.000000 0.092713
#
#
# Mechanical properties :
#
#
# Convention : Reuss Voigt Hill
#
# Bulk Modulus (GPa) = 26.18275 29.10921 27.64598
# Shear Modulus (GPa) = 18.82238 24.19484 21.50861
#
# Velocity S-wave (km/s) = 3.13539 3.55481 3.35166
# Velocity P-wave (km/s) = 5.17518 5.66147 5.42377
#
# Compressibility (1/GPa) = 0.03819308
#
# Stress axis : x y z
#
# Youngs Moduli (GPa) = 54.35550 49.36247 46.37799
#
# Poissons Ratio (x) = -0.35594 0.42133
# Poissons Ratio (y) = -0.39194 0.42382
# Poissons Ratio (z) = 0.49380 0.45109
#
# Static dielectric constant tensor:
#      x y z
#    x 1.674310 0.000000 0.000000 
#    y 0.000000 1.688560 0.000000 
#    z 0.000000 0.000000 1.645330 
# 
# From -- ./inp_files/8203.got.cif
#   From: 2010.05.17/outbox.cif.g08.bks.cpg/sg57_5_cif.got.tgz:8203.got - 2010.06.03 13:58:18.
