data_PCOD9439577
_publ_section_title
;
Structure prediction by ZEFSAII (Michael W. Deem and Ramdas Pophale) SiO2 
 PCOD9439577
Probable space group: P B C M
;
_chemical_formula_sum "Si O2"
_cell_formula_units_Z 52
_cell_length_a 12.114842
_cell_length_b 9.767279
_cell_length_c 21.856869
_cell_angle_alpha 90.000000
_cell_angle_beta 90.000000
_cell_angle_gamma 90.000000
_cell_volume 2586.302367
_symmetry_space_group_name_H-M "P B C M"
_symmetry_group_IT_number 57
_symmetry_cell_setting 'orthorhombic'
loop_
_space_group_symop_operation_xyz
x,y,z
-x,-y,1/2+z
x,1/2-y,-z
-x,1/2+y,1/2-z
-x,-y,-z
x,y,1/2-z
-x,1/2+y,z
x,1/2-y,1/2+z
loop_
_atom_site_type_symbol
_atom_site_label
_atom_site_fract_x
_atom_site_fract_y
_atom_site_fract_z
Si Si1 0.692692 0.855361 0.847336
Si Si2 0.354915 0.743653 0.427045
Si Si3 0.060431 0.038182 0.174054
Si Si4 0.591208 0.058068 0.750000
Si Si5 0.340125 0.371288 0.250000
Si Si6 0.881749 0.258800 0.866984
Si Si7 0.528024 0.524374 0.071610
Si Si8 0.257977 0.676671 0.250000
O O1 0.691063 0.712512 0.811169
O O2 0.817127 0.908204 0.841923
O O3 0.621297 0.959418 0.805923
O O4 0.630620 0.872538 0.912299
O O5 0.363491 0.750000 0.500000
O O6 0.223466 0.752656 0.412788
O O7 0.427267 0.875614 0.405607
O O8 0.418736 0.605920 0.403984
O O9 0.045780 0.044605 0.250000
O O10 0.058953 0.883620 0.149292
O O11 0.975675 0.125590 0.132769
O O12 0.468840 0.107821 0.750000
O O13 0.657421 0.198823 0.750000
O O14 0.295236 0.522596 0.250000
O O15 0.815798 0.299821 0.807575
O O16 0.500000 0.500000 0.000000
#
# Coordination Sequence:
#
# PCOD9439577 Si02
#       8
#     8   8   8   4   4   8   8   4
#     4  11  22  40  61  92 136 168 217 270 331 396
#     4  10  23  45  70 100 133 173 225 279 339 403
#     4  12  22  43  64  90 130 176 218 271 329 392
#     4  11  21  40  56  88 132 177 200 271 327 404
#     4  11  27  32  58 101 134 172 211 261 338 427
#     4  12  25  41  67  93 131 178 223 278 327 395
#     4  10  22  42  71  97 132 173 218 279 340 399
#     4  12  22  38  60  93 132 171 219 262 337 401
#
# _framework density 20.105926
#
# number of rings (size 3 to 8) (size 9 to 14) (size 15 to 20)
#    0.000    0.923    6.154    0.923    8.615    0.000 
#    0.000    0.769    0.000    0.000    0.000    0.000 
#    0.000    0.000    0.000    0.000    0.000    0.000 
#
# Total GULP energy -289599.004763 kJ/mol
# GULP energy per Si atom -5569.211630 kJ/mol
# Density = 2.006016 g / cm^3
# Si number density = 20.105926 Si / 1000 Ang^3
#
#
#
# Elastic Constant Matrix: (Units=GPa)
#
#
# Indices 1 2 3 4 5 6 
#
# 1 36.3509 36.8611 3.4266 0.0000 0.0000 0.0000
# 2 36.8611 160.1493 12.3122 0.0000 0.0000 0.0000
# 3 3.4266 12.3122 42.6809 0.0000 0.0000 0.0000
# 4 0.0000 0.0000 0.0000 18.5718 0.0000 0.0000
# 5 0.0000 0.0000 0.0000 0.0000 34.5154 0.0000
# 6 0.0000 0.0000 0.0000 0.0000 0.0000 48.3383
#
#
#
# Elastic Compliance Matrix: (Units=1/GPa)
#
#
# Indices 1 2 3 4 5 6 
#
# 1 0.035896 -0.008223 -0.000510 0.000000 0.000000 0.000000
# 2 -0.008223 0.008269 -0.001725 0.000000 0.000000 0.000000
# 3 -0.000510 -0.001725 0.023968 0.000000 0.000000 0.000000
# 4 0.000000 0.000000 0.000000 0.053845 0.000000 0.000000
# 5 0.000000 0.000000 0.000000 0.000000 0.028973 0.000000
# 6 0.000000 0.000000 0.000000 0.000000 0.000000 0.020688
#
#
# Mechanical properties :
#
#
# Convention : Reuss Voigt Hill
#
# Bulk Modulus (GPa) = 21.17850 38.26455 29.72152
# Shear Modulus (GPa) = 24.00452 32.72386 28.36419
#
# Velocity S-wave (km/s) = 3.45904 4.03870 3.76005
# Velocity P-wave (km/s) = 5.14875 6.38912 5.80217
#
# Compressibility (1/GPa) = 0.04721770
#
# Stress axis : x y z
#
# Youngs Moduli (GPa) = 27.85826 120.92706 41.72177
#
# Poissons Ratio (x) = 0.99437 0.02127
# Poissons Ratio (y) = 0.22908 0.07198
# Poissons Ratio (z) = 0.01420 0.20864
#
# Static dielectric constant tensor:
#      x y z
#    x 1.774780 0.000000 0.000000 
#    y 0.000000 1.773780 0.000000 
#    z 0.000000 0.000000 1.744120 
# 
# From -- ./inp_files/28593.got.cif
#   From: 2010.05.17/outbox.cif.g08.bks.cpg/sg57_15_cif.got.tgz:28593.got - 2010.06.03 13:58:18.
