data_PCOD9439498
_publ_section_title
;
Structure prediction by ZEFSAII (Michael W. Deem and Ramdas Pophale) SiO2 
 PCOD9439498
Probable space group: P B C M
;
_chemical_formula_sum "Si O2"
_cell_formula_units_Z 64
_cell_length_a 11.225049
_cell_length_b 9.557754
_cell_length_c 24.850257
_cell_angle_alpha 90.000000
_cell_angle_beta 90.000000
_cell_angle_gamma 90.000000
_cell_volume 2666.091059
_symmetry_space_group_name_H-M "P B C M"
_symmetry_group_IT_number 57
_symmetry_cell_setting 'orthorhombic'
loop_
_space_group_symop_operation_xyz
x,y,z
-x,-y,1/2+z
x,1/2-y,-z
-x,1/2+y,1/2-z
-x,-y,-z
x,y,1/2-z
-x,1/2+y,z
x,1/2-y,1/2+z
loop_
_atom_site_type_symbol
_atom_site_label
_atom_site_fract_x
_atom_site_fract_y
_atom_site_fract_z
Si Si1 0.853497 0.764333 0.560496
Si Si2 0.374095 0.199242 0.869263
Si Si3 0.177181 0.628195 0.073504
Si Si4 0.783025 0.874135 0.689076
Si Si5 0.940913 0.144369 0.312779
Si Si6 0.724461 0.333048 0.188828
Si Si7 0.092890 0.914494 0.452578
Si Si8 0.585014 0.108976 0.382927
O O1 0.808419 0.750000 0.500000
O O2 0.749057 0.709662 0.597731
O O3 0.970098 0.665800 0.562811
O O4 0.883787 0.928945 0.567128
O O5 0.319080 0.258381 0.814288
O O6 0.466295 0.307343 0.895646
O O7 0.432002 0.048304 0.862267
O O8 0.117656 0.581605 0.131255
O O9 0.111003 0.586489 0.017860
O O10 0.314964 0.585415 0.071401
O O11 0.181662 0.797599 0.070722
O O12 0.798897 0.918490 0.750000
O O13 0.919330 0.833061 0.674959
O O14 0.728022 0.013721 0.662798
O O15 0.928806 0.083845 0.250000
O O16 0.863434 0.285412 0.309228
O O17 0.677906 0.335837 0.250000
O O18 0.651842 0.211287 0.159182
#
# Coordination Sequence:
#
# PCOD9439498 Si02
#       8
#     8   8   8   8   8   8   8   8
#     4  12  26  46  72 108 142 180 235 296 362 435
#     4  12  28  46  72  98 142 188 245 300 358 431
#     4  10  22  42  71 101 145 186 244 293 358 425
#     4  10  22  41  65 103 142 185 238 297 367 435
#     4   9  19  37  65 106 149 185 227 288 364 432
#     4   9  20  41  70  99 140 188 240 297 359 433
#     4  11  25  44  73 106 144 184 243 295 366 426
#     4  11  26  47  67 100 135 188 247 296 361 427
#
# _framework density 24.005179999999999
#
# number of rings (size 3 to 8) (size 9 to 14) (size 15 to 20)
#    0.000    1.500    1.250    2.625    7.000    3.000 
#    6.750    5.000    0.000    0.000    0.000    0.000 
#    0.000    0.000    0.000    0.000    0.000    0.000 
#
# Total GULP energy -356770.623589 kJ/mol
# GULP energy per Si atom -5574.540994 kJ/mol
# Density = 2.395054 g / cm^3
# Si number density = 24.005180 Si / 1000 Ang^3
#
#
#
# Elastic Constant Matrix: (Units=GPa)
#
#
# Indices 1 2 3 4 5 6 
#
# 1 113.0710 38.1212 19.4235 0.0000 0.0000 0.0000
# 2 38.1212 161.5937 24.1655 0.0000 0.0000 0.0000
# 3 19.4235 24.1655 104.5747 0.0000 0.0000 0.0000
# 4 0.0000 0.0000 0.0000 29.3802 0.0000 0.0000
# 5 0.0000 0.0000 0.0000 0.0000 12.2536 0.0000
# 6 0.0000 0.0000 0.0000 0.0000 0.0000 28.9564
#
#
#
# Elastic Compliance Matrix: (Units=1/GPa)
#
#
# Indices 1 2 3 4 5 6 
#
# 1 0.009784 -0.002109 -0.001330 0.000000 0.000000 0.000000
# 2 -0.002109 0.006865 -0.001195 0.000000 0.000000 0.000000
# 3 -0.001330 -0.001195 0.010086 0.000000 0.000000 0.000000
# 4 0.000000 0.000000 0.000000 0.034037 0.000000 0.000000
# 5 0.000000 0.000000 0.000000 0.000000 0.081609 0.000000
# 6 0.000000 0.000000 0.000000 0.000000 0.000000 0.034535
#
#
# Mechanical properties :
#
#
# Convention : Reuss Voigt Hill
#
# Bulk Modulus (GPa) = 57.25176 60.29555 58.77365
# Shear Modulus (GPa) = 26.04127 33.95331 29.99729
#
# Velocity S-wave (km/s) = 3.29723 3.76495 3.53883
# Velocity P-wave (km/s) = 6.19655 6.63868 6.42142
#
# Compressibility (1/GPa) = 0.01746671
#
# Stress axis : x y z
#
# Youngs Moduli (GPa) = 102.21275 145.67575 99.15149
#
# Poissons Ratio (x) = 0.30725 0.13185
# Poissons Ratio (y) = 0.21558 0.11844
# Poissons Ratio (z) = 0.13592 0.17402
#
# Static dielectric constant tensor:
#      x y z
#    x 1.967060 0.000000 0.000000 
#    y 0.000000 2.050880 0.000000 
#    z 0.000000 0.000000 2.074270 
# 
# From -- ./inp_files/29771.got.cif
#   From: 2010.05.17/outbox.cif.g08.bks.cpg/sg57_15_cif.got.tgz:29771.got - 2010.06.03 13:58:18.
