data_PCOD9439892
_publ_section_title
;
Structure prediction by ZEFSAII (Michael W. Deem and Ramdas Pophale) SiO2 
 PCOD9439892
Probable space group: P B C M
;
_chemical_formula_sum "Si O2"
_cell_formula_units_Z 40
_cell_length_a 9.165553
_cell_length_b 10.505446
_cell_length_c 19.072990
_cell_angle_alpha 90.000000
_cell_angle_beta 90.000000
_cell_angle_gamma 90.000000
_cell_volume 1836.504297
_symmetry_space_group_name_H-M "P B C M"
_symmetry_group_IT_number 57
_symmetry_cell_setting 'orthorhombic'
loop_
_space_group_symop_operation_xyz
x,y,z
-x,-y,1/2+z
x,1/2-y,-z
-x,1/2+y,1/2-z
-x,-y,-z
x,y,1/2-z
-x,1/2+y,z
x,1/2-y,1/2+z
loop_
_atom_site_type_symbol
_atom_site_label
_atom_site_fract_x
_atom_site_fract_y
_atom_site_fract_z
Si Si1 0.647498 0.188993 0.435670
Si Si2 0.826091 0.747531 0.415505
Si Si3 0.876326 0.263153 0.169797
Si Si4 0.432384 0.079969 0.599155
Si Si5 0.702424 0.975243 0.672788
O O1 0.737981 0.250000 0.500000
O O2 0.745091 0.185897 0.366259
O O3 0.520776 0.295501 0.428108
O O4 0.593617 0.046431 0.447123
O O5 0.833288 0.750000 0.500000
O O6 0.745324 0.620950 0.388194
O O7 0.982023 0.751391 0.378157
O O8 0.727308 0.864008 0.387659
O O9 0.905021 0.224704 0.250000
O O10 0.813935 0.406970 0.170109
O O11 0.539710 0.028625 0.659773
O O12 0.710786 0.914916 0.750000
#
# Coordination Sequence:
#
# PCOD9439892 Si02
#       5
#     8   8   8   8   8
#     4  11  23  42  71  99 135 175 225 280 338 406
#     4  12  26  42  70 102 137 178 228 283 343 405
#     4  10  25  46  66  94 135 181 228 281 341 408
#     4  11  24  42  68 100 136 174 223 277 339 402
#     4  10  24  45  66  95 136 180 229 285 338 405
#
# _framework density 21.78051
#
# number of rings (size 3 to 8) (size 9 to 14) (size 15 to 20)
#    0.000    1.200    2.000    2.400    8.400    3.200 
#    0.000    0.000    0.000    0.000    0.000    0.000 
#    0.000    0.000    0.000    0.000    0.000    0.000 
#
# Total GULP energy -223290.375538 kJ/mol
# GULP energy per Si atom -5582.259388 kJ/mol
# Density = 2.173094 g / cm^3
# Si number density = 21.780510 Si / 1000 Ang^3
#
#
#
# Elastic Constant Matrix: (Units=GPa)
#
#
# Indices 1 2 3 4 5 6 
#
# 1 108.2574 41.8912 50.4555 0.0000 0.0000 0.0000
# 2 41.8912 104.3612 26.2298 0.0000 0.0000 0.0000
# 3 50.4555 26.2298 138.9920 0.0000 0.0000 0.0000
# 4 0.0000 0.0000 0.0000 26.1340 0.0000 0.0000
# 5 0.0000 0.0000 0.0000 0.0000 18.0156 0.0000
# 6 0.0000 0.0000 0.0000 0.0000 0.0000 16.4946
#
#
#
# Elastic Compliance Matrix: (Units=1/GPa)
#
#
# Indices 1 2 3 4 5 6 
#
# 1 0.012594 -0.004101 -0.003798 0.000000 0.000000 0.000000
# 2 -0.004101 0.011394 -0.000662 0.000000 0.000000 0.000000
# 3 -0.003798 -0.000662 0.008698 0.000000 0.000000 0.000000
# 4 0.000000 0.000000 0.000000 0.038264 0.000000 0.000000
# 5 0.000000 0.000000 0.000000 0.000000 0.055508 0.000000
# 6 0.000000 0.000000 0.000000 0.000000 0.000000 0.060626
#
#
# Mechanical properties :
#
#
# Convention : Reuss Voigt Hill
#
# Bulk Modulus (GPa) = 64.24233 65.41817 64.83025
# Shear Modulus (GPa) = 23.87841 27.66445 25.77143
#
# Velocity S-wave (km/s) = 3.31466 3.56778 3.44355
# Velocity P-wave (km/s) = 6.64896 6.86094 6.75578
#
# Compressibility (1/GPa) = 0.01556606
#
# Stress axis : x y z
#
# Youngs Moduli (GPa) = 79.40167 87.76169 114.96621
#
# Poissons Ratio (x) = 0.35989 0.43663
# Poissons Ratio (y) = 0.32561 0.07607
# Poissons Ratio (z) = 0.30156 0.05807
#
# Static dielectric constant tensor:
#      x y z
#    x 1.804950 0.000000 0.000000 
#    y 0.000000 1.779190 0.000000 
#    z 0.000000 0.000000 1.835730 
# 
# From -- ./inp_files/20546.got.cif
#   From: 2010.05.17/outbox.cif.g08.bks.cpg/sg57_11_cif.got.tgz:20546.got - 2010.06.03 13:58:18.
