data_PCOD9439007
_publ_section_title
;
Structure prediction by ZEFSAII (Michael W. Deem and Ramdas Pophale) SiO2 
 PCOD9439007
Probable space group: P B C M
;
_chemical_formula_sum "Si O2"
_cell_formula_units_Z 64
_cell_length_a 8.339922
_cell_length_b 24.605024
_cell_length_c 14.433959
_cell_angle_alpha 90.000000
_cell_angle_beta 90.000000
_cell_angle_gamma 90.000000
_cell_volume 2961.905848
_symmetry_space_group_name_H-M "P B C M"
_symmetry_group_IT_number 57
_symmetry_cell_setting 'orthorhombic'
loop_
_space_group_symop_operation_xyz
x,y,z
-x,-y,1/2+z
x,1/2-y,-z
-x,1/2+y,1/2-z
-x,-y,-z
x,y,1/2-z
-x,1/2+y,z
x,1/2-y,1/2+z
loop_
_atom_site_type_symbol
_atom_site_label
_atom_site_fract_x
_atom_site_fract_y
_atom_site_fract_z
Si Si1 0.373018 0.910870 0.638042
Si Si2 0.016469 0.887811 0.858044
Si Si3 0.898432 0.238850 0.358852
Si Si4 0.674681 0.597136 0.858709
Si Si5 0.458154 0.790515 0.636384
Si Si6 0.586948 0.015272 0.641223
Si Si7 0.763921 0.719494 0.862839
Si Si8 0.843873 0.534075 0.016178
O O1 0.370914 0.907253 0.750000
O O2 0.187341 0.912300 0.610803
O O3 0.449026 0.853693 0.605806
O O4 0.466956 0.965541 0.616282
O O5 0.988954 0.900670 0.750000
O O6 0.040353 0.823335 0.865077
O O7 0.878679 0.913913 0.918581
O O8 0.885227 0.253440 0.250000
O O9 0.712193 0.237941 0.392403
O O10 0.052009 0.272265 0.396927
O O11 0.713629 0.590776 0.750000
O O12 0.496542 0.573410 0.871158
O O13 0.701854 0.659297 0.884595
O O14 0.780181 0.557879 0.920873
O O15 0.456154 0.790053 0.750000
O O16 0.623971 0.761606 0.607743
O O17 0.628555 0.009397 0.750000
O O18 0.729747 0.005533 0.572731
O O19 0.771682 0.724438 0.750000
O O20 0.000000 0.500000 0.000000
#
# Coordination Sequence:
#
# PCOD9439007 Si02
#       8
#     8   8   8   8   8   8   8   8
#     4   8  15  30  57  90 121 151 189 250 312 359
#     4   9  18  34  58  91 125 153 194 255 317 366
#     4   8  15  29  53  87 121 153 194 252 309 362
#     4  10  23  43  60  83 120 166 209 249 301 366
#     4   8  14  26  50  86 118 150 195 243 304 365
#     4  10  21  39  65  90 115 153 204 255 306 370
#     4   9  17  32  56  83 118 160 202 245 299 369
#     4  12  25  39  59  89 120 160 200 253 311 363
#
# _framework density 21.607709
#
# number of rings (size 3 to 8) (size 9 to 14) (size 15 to 20)
#    0.000    2.750    0.000    3.000    1.750    2.000 
#    2.250    0.625    0.000    0.000    0.000    0.000 
#    0.000    0.000    0.000    0.000    0.000    0.000 
#
# Total GULP energy -357228.095356 kJ/mol
# GULP energy per Si atom -5581.688990 kJ/mol
# Density = 2.155853 g / cm^3
# Si number density = 21.607709 Si / 1000 Ang^3
#
#
#
# Elastic Constant Matrix: (Units=GPa)
#
#
# Indices 1 2 3 4 5 6 
#
# 1 69.0472 25.0191 5.9782 0.0000 0.0000 0.0000
# 2 25.0191 50.2179 6.8178 0.0000 0.0000 0.0000
# 3 5.9782 6.8178 30.7943 0.0000 0.0000 0.0000
# 4 0.0000 0.0000 0.0000 10.3038 0.0000 0.0000
# 5 0.0000 0.0000 0.0000 0.0000 19.3983 0.0000
# 6 0.0000 0.0000 0.0000 0.0000 0.0000 473.8191
#
#
#
# Elastic Compliance Matrix: (Units=1/GPa)
#
#
# Indices 1 2 3 4 5 6 
#
# 1 0.017743 -0.008632 -0.001534 0.000000 0.000000 0.000000
# 2 -0.008632 0.024729 -0.003799 0.000000 0.000000 0.000000
# 3 -0.001534 -0.003799 0.033612 0.000000 0.000000 0.000000
# 4 0.000000 0.000000 0.000000 0.097051 0.000000 0.000000
# 5 0.000000 0.000000 0.000000 0.000000 0.051551 0.000000
# 6 0.000000 0.000000 0.000000 0.000000 0.000000 0.002111
#
#
# Mechanical properties :
#
#
# Convention : Reuss Voigt Hill
#
# Bulk Modulus (GPa) = 20.76583 25.07661 22.92122
# Shear Modulus (GPa) = 18.46527 108.18723 63.32625
#
# Velocity S-wave (km/s) = 2.92647 7.08361 5.41949
# Velocity P-wave (km/s) = 4.58805 8.86194 7.05635
#
# Compressibility (1/GPa) = 0.04815604
#
# Stress axis : x y z
#
# Youngs Moduli (GPa) = 56.35935 40.43767 29.75092
#
# Poissons Ratio (x) = 0.34905 0.04562
# Poissons Ratio (y) = 0.48648 0.11303
# Poissons Ratio (z) = 0.08643 0.15364
#
# Static dielectric constant tensor:
#      x y z
#    x 1.839940 0.000000 0.000000 
#    y 0.000000 1.768690 0.000000 
#    z 0.000000 0.000000 1.811530 
# 
# From -- ./inp_files/16956.got.cif
#   From: 2010.05.17/outbox.cif.g08.bks.cpg/sg57_9_cif.got.tgz:16956.got - 2010.06.03 13:58:18.
