data_PCOD9439511
_publ_section_title
;
Structure prediction by ZEFSAII (Michael W. Deem and Ramdas Pophale) SiO2 
 PCOD9439511
Probable space group: P B C M
;
_chemical_formula_sum "Si O2"
_cell_formula_units_Z 40
_cell_length_a 12.686051
_cell_length_b 18.695625
_cell_length_c 8.697274
_cell_angle_alpha 90.000000
_cell_angle_beta 90.000000
_cell_angle_gamma 90.000000
_cell_volume 2062.764239
_symmetry_space_group_name_H-M "P B C M"
_symmetry_group_IT_number 57
_symmetry_cell_setting 'orthorhombic'
loop_
_space_group_symop_operation_xyz
x,y,z
-x,-y,1/2+z
x,1/2-y,-z
-x,1/2+y,1/2-z
-x,-y,-z
x,y,1/2-z
-x,1/2+y,z
x,1/2-y,1/2+z
loop_
_atom_site_type_symbol
_atom_site_label
_atom_site_fract_x
_atom_site_fract_y
_atom_site_fract_z
Si Si1 0.222298 0.582201 0.565952
Si Si2 0.965387 0.328321 0.565779
Si Si3 0.362135 0.328814 0.066769
Si Si4 0.170126 0.080270 0.065405
Si Si5 0.456166 0.574907 0.433880
O O1 0.231081 0.587965 0.750000
O O2 0.142933 0.641311 0.502157
O O3 0.175331 0.503631 0.528506
O O4 0.337695 0.586424 0.492332
O O5 0.988477 0.250000 0.500000
O O6 0.958812 0.325043 0.750000
O O7 0.060175 0.382358 0.523999
O O8 0.370604 0.326233 0.250000
O O9 0.344528 0.250000 0.000000
O O10 0.265177 0.379151 0.017597
O O11 0.467082 0.363363 0.995359
O O12 0.184954 0.087587 0.250000
O O13 0.500000 0.500000 0.500000
O O14 0.459277 0.572224 0.250000
#
# Coordination Sequence:
#
# PCOD9439511 Si02
#       5
#     8   8   8   8   8
#     4  11  23  41  67  96 128 168 214 264 320 382
#     4  11  24  42  63  92 129 171 216 265 322 381
#     4  12  25  41  65  96 131 171 214 266 323 380
#     4  10  22  41  66  95 129 167 213 266 319 383
#     4  12  24  42  66  95 129 168 213 261 316 381
#
# _framework density 19.391454
#
# number of rings (size 3 to 8) (size 9 to 14) (size 15 to 20)
#    0.000    0.800    2.000    6.000    0.000    4.800 
#    0.000    4.000    0.000    0.000    0.000    0.000 
#    0.000    0.000    0.000    0.000    0.000    0.000 
#
# Total GULP energy -223911.221668 kJ/mol
# GULP energy per Si atom -5597.780542 kJ/mol
# Density = 1.934732 g / cm^3
# Si number density = 19.391454 Si / 1000 Ang^3
#
#
#
# Elastic Constant Matrix: (Units=GPa)
#
#
# Indices 1 2 3 4 5 6 
#
# 1 99.4417 -12.4345 27.7741 0.0000 0.0000 0.0000
# 2 -12.4345 26.7657 6.2094 0.0000 0.0000 0.0000
# 3 27.7741 6.2094 73.2342 0.0000 0.0000 0.0000
# 4 0.0000 0.0000 0.0000 30.8236 0.0000 0.0000
# 5 0.0000 0.0000 0.0000 0.0000 34.3385 0.0000
# 6 0.0000 0.0000 0.0000 0.0000 0.0000 65.0677
#
#
#
# Elastic Compliance Matrix: (Units=1/GPa)
#
#
# Indices 1 2 3 4 5 6 
#
# 1 0.012411 0.006995 -0.005300 0.000000 0.000000 0.000000
# 2 0.006995 0.042054 -0.006219 0.000000 0.000000 0.000000
# 3 -0.005300 -0.006219 0.016192 0.000000 0.000000 0.000000
# 4 0.000000 0.000000 0.000000 0.032443 0.000000 0.000000
# 5 0.000000 0.000000 0.000000 0.000000 0.029122 0.000000
# 6 0.000000 0.000000 0.000000 0.000000 0.000000 0.015369
#
#
# Mechanical properties :
#
#
# Convention : Reuss Voigt Hill
#
# Bulk Modulus (GPa) = 16.23099 26.94883 21.58991
# Shear Modulus (GPa) = 28.22089 37.90547 33.06318
#
# Velocity S-wave (km/s) = 3.81901 4.42605 4.13369
# Velocity P-wave (km/s) = 5.27587 6.32830 5.82590
#
# Compressibility (1/GPa) = 0.06161052
#
# Stress axis : x y z
#
# Youngs Moduli (GPa) = 80.57240 23.77905 61.75834
#
# Poissons Ratio (x) = -0.16635 0.32732
# Poissons Ratio (y) = -0.56364 0.38406
# Poissons Ratio (z) = 0.42704 0.14787
#
# Static dielectric constant tensor:
#      x y z
#    x 1.644350 0.000000 0.000000 
#    y 0.000000 1.652860 0.000000 
#    z 0.000000 0.000000 1.642590 
# 
# From -- ./inp_files/2667.got.cif
#   From: 2010.05.17/outbox.cif.g08.bks.cpg/sg57_2_cif.got.tgz:2667.got - 2010.06.03 13:58:18.
