data_PCOD9439391
_publ_section_title
;
Structure prediction by ZEFSAII (Michael W. Deem and Ramdas Pophale) SiO2 
 PCOD9439391
Probable space group: P B C M
;
_chemical_formula_sum "Si O2"
_cell_formula_units_Z 36
_cell_length_a 11.225162
_cell_length_b 18.664692
_cell_length_c 9.127496
_cell_angle_alpha 90.000000
_cell_angle_beta 90.000000
_cell_angle_gamma 90.000000
_cell_volume 1912.339944
_symmetry_space_group_name_H-M "P B C M"
_symmetry_group_IT_number 57
_symmetry_cell_setting 'orthorhombic'
loop_
_space_group_symop_operation_xyz
x,y,z
-x,-y,1/2+z
x,1/2-y,-z
-x,1/2+y,1/2-z
-x,-y,-z
x,y,1/2-z
-x,1/2+y,z
x,1/2-y,1/2+z
loop_
_atom_site_type_symbol
_atom_site_label
_atom_site_fract_x
_atom_site_fract_y
_atom_site_fract_z
Si Si1 0.738112 0.713575 0.250000
Si Si2 0.887898 0.862052 0.250000
Si Si3 0.832279 0.159535 0.750000
Si Si4 0.686548 0.013734 0.750000
Si Si5 0.265222 0.399203 0.500182
Si Si6 0.294136 0.750000 0.000000
Si Si7 0.545085 0.269019 0.750000
Si Si8 0.463699 0.111205 0.750000
O O1 0.807714 0.788667 0.250000
O O2 0.763680 0.668389 0.104033
O O3 0.594198 0.716677 0.250000
O O4 0.846027 0.906423 0.391551
O O5 0.025628 0.844131 0.250000
O O6 0.785622 0.202176 0.606933
O O7 0.775257 0.080877 0.750000
O O8 0.709072 0.964693 0.891993
O O9 0.552318 0.044261 0.750000
O O10 0.378649 0.387577 0.392886
O O11 0.383408 0.706254 0.107000
O O12 0.545229 0.182144 0.750000
#
# Coordination Sequence:
#
# PCOD9439391 Si02
#       8
#     4   4   4   4   8   4   4   4
#     4  11  21  35  65 100 124 153 200 273 313 364
#     4  11  24  41  63  91 122 163 216 265 300 355
#     4  11  26  43  65  85 131 164 213 258 298 377
#     4  11  23  43  58  87 130 168 207 251 309 376
#     4  10  23  38  62  94 122 167 209 249 318 363
#     4  10  22  40  58  94 118 166 198 244 318 364
#     4  11  19  35  66  88 132 148 202 253 324 366
#     4  11  19  39  61  91 129 164 196 262 312 374
#
# _framework density 18.825106000000002
#
# number of rings (size 3 to 8) (size 9 to 14) (size 15 to 20)
#    0.000    1.333    4.444    2.667    3.111    0.889 
#    0.000    3.333    0.000    0.000    0.000    0.000 
#    0.000    0.000    0.000    0.000    0.000    0.000 
#
# Total GULP energy -200962.135665 kJ/mol
# GULP energy per Si atom -5582.281546 kJ/mol
# Density = 1.878226 g / cm^3
# Si number density = 18.825106 Si / 1000 Ang^3
#
#
#
# Elastic Constant Matrix: (Units=GPa)
#
#
# Indices 1 2 3 4 5 6 
#
# 1 120.8817 11.4032 47.9715 0.0000 0.0000 0.0000
# 2 11.4032 70.9829 37.7092 0.0000 0.0000 0.0000
# 3 47.9715 37.7092 150.4414 0.0000 0.0000 0.0000
# 4 0.0000 0.0000 0.0000 0.5164 0.0000 0.0000
# 5 0.0000 0.0000 0.0000 0.0000 13.9701 0.0000
# 6 0.0000 0.0000 0.0000 0.0000 0.0000 25.1585
#
#
#
# Elastic Compliance Matrix: (Units=1/GPa)
#
#
# Indices 1 2 3 4 5 6 
#
# 1 0.009472 0.000096 -0.003044 0.000000 0.000000 0.000000
# 2 0.000096 0.016253 -0.004104 0.000000 0.000000 0.000000
# 3 -0.003044 -0.004104 0.008647 0.000000 0.000000 0.000000
# 4 0.000000 0.000000 0.000000 1.936537 0.000000 0.000000
# 5 0.000000 0.000000 0.000000 0.000000 0.071581 0.000000
# 6 0.000000 0.000000 0.000000 0.000000 0.000000 0.039748
#
#
# Mechanical properties :
#
#
# Convention : Reuss Voigt Hill
#
# Bulk Modulus (GPa) = 49.34560 59.60819 54.47689
# Shear Modulus (GPa) = 2.37744 24.27714 13.32729
#
# Velocity S-wave (km/s) = 1.12501 3.59502 2.66363
# Velocity P-wave (km/s) = 5.28745 6.99751 6.20170
#
# Compressibility (1/GPa) = 0.02026523
#
# Stress axis : x y z
#
# Youngs Moduli (GPa) = 105.57867 61.52714 115.65223
#
# Poissons Ratio (x) = -0.00588 0.35207
# Poissons Ratio (y) = -0.01009 0.47468
# Poissons Ratio (z) = 0.32140 0.25253
#
# Static dielectric constant tensor:
#      x y z
#    x 1.656290 0.000000 0.000000 
#    y 0.000000 1.650130 0.000000 
#    z 0.000000 0.000000 1.678680 
# 
# From -- ./inp_files/2856.got.cif
#   From: 2010.05.17/outbox.cif.g08.bks.cpg/sg57_2_cif.got.tgz:2856.got - 2010.06.03 13:58:18.
