data_PCOD9439331
_publ_section_title
;
Structure prediction by ZEFSAII (Michael W. Deem and Ramdas Pophale) SiO2 
 PCOD9439331
Probable space group: P B C M
;
_chemical_formula_sum "Si O2"
_cell_formula_units_Z 28
_cell_length_a 12.812202
_cell_length_b 5.145775
_cell_length_c 18.962315
_cell_angle_alpha 90.000000
_cell_angle_beta 90.000000
_cell_angle_gamma 90.000000
_cell_volume 1250.160943
_symmetry_space_group_name_H-M "P B C M"
_symmetry_group_IT_number 57
_symmetry_cell_setting 'orthorhombic'
loop_
_space_group_symop_operation_xyz
x,y,z
-x,-y,1/2+z
x,1/2-y,-z
-x,1/2+y,1/2-z
-x,-y,-z
x,y,1/2-z
-x,1/2+y,z
x,1/2-y,1/2+z
loop_
_atom_site_type_symbol
_atom_site_label
_atom_site_fract_x
_atom_site_fract_y
_atom_site_fract_z
Si Si1 0.566615 0.329065 0.250000
Si Si2 0.294068 0.510801 0.618926
Si Si3 0.929533 0.575331 0.402033
Si Si4 0.425138 0.250000 0.000000
Si Si5 0.189785 0.750000 0.500000
O O1 0.529971 0.031232 0.250000
O O2 0.633915 0.398182 0.181509
O O3 0.179356 0.409596 0.640631
O O4 0.352493 0.307141 0.567861
O O5 0.262918 0.753930 0.567966
O O6 0.000458 0.323457 0.388045
O O7 0.116627 0.507816 0.519874
O O8 0.500000 0.500000 0.000000
#
# Coordination Sequence:
#
# PCOD9439331 Si02
#       5
#     4   8   8   4   4
#     4  12  28  52  70  96 138 192 236 294 368 418
#     4  10  25  43  72 102 139 183 233 295 345 427
#     4  10  22  38  67 105 143 179 222 279 351 420
#     4  12  25  41  64  98 128 172 237 295 342 394
#     4   8  21  37  68  98 142 164 235 263 350 388
#
# _framework density 22.397116
#
# number of rings (size 3 to 8) (size 9 to 14) (size 15 to 20)
#    1.714    0.000    0.000    3.429    4.000    4.571 
#    0.000    1.429    0.000    0.000    0.000    0.000 
#    0.000    0.000    0.000    0.000    0.000    0.000 
#
# Total GULP energy -156093.433369 kJ/mol
# GULP energy per Si atom -5574.765477 kJ/mol
# Density = 2.234614 g / cm^3
# Si number density = 22.397116 Si / 1000 Ang^3
#
#
#
# Elastic Constant Matrix: (Units=GPa)
#
#
# Indices 1 2 3 4 5 6 
#
# 1 132.6410 25.6722 13.3060 0.0000 0.0000 0.0000
# 2 25.6722 90.3871 -27.5455 0.0000 0.0000 0.0000
# 3 13.3060 -27.5455 54.6962 0.0000 0.0000 0.0000
# 4 0.0000 0.0000 0.0000 15.7745 0.0000 0.0000
# 5 0.0000 0.0000 0.0000 0.0000 8.3698 0.0000
# 6 0.0000 0.0000 0.0000 0.0000 0.0000 26.4504
#
#
#
# Elastic Compliance Matrix: (Units=1/GPa)
#
#
# Indices 1 2 3 4 5 6 
#
# 1 0.008643 -0.003657 -0.003944 0.000000 0.000000 0.000000
# 2 -0.003657 0.014616 0.008251 0.000000 0.000000 0.000000
# 3 -0.003944 0.008251 0.023397 0.000000 0.000000 0.000000
# 4 0.000000 0.000000 0.000000 0.063393 0.000000 0.000000
# 5 0.000000 0.000000 0.000000 0.000000 0.119477 0.000000
# 6 0.000000 0.000000 0.000000 0.000000 0.000000 0.037807
#
#
# Mechanical properties :
#
#
# Convention : Reuss Voigt Hill
#
# Bulk Modulus (GPa) = 20.85241 33.39886 27.12564
# Shear Modulus (GPa) = 17.72933 27.87172 22.80053
#
# Velocity S-wave (km/s) = 2.81657 3.53148 3.19409
# Velocity P-wave (km/s) = 4.46183 5.61898 5.07351
#
# Compressibility (1/GPa) = 0.04795609
#
# Stress axis : x y z
#
# Youngs Moduli (GPa) = 115.70707 68.41604 42.74002
#
# Poissons Ratio (x) = 0.25017 0.16857
# Poissons Ratio (y) = 0.42310 -0.35263
# Poissons Ratio (z) = 0.45635 -0.56447
#
# Static dielectric constant tensor:
#      x y z
#    x 1.903440 0.000000 0.000000 
#    y 0.000000 1.852300 0.000000 
#    z 0.000000 0.000000 1.985090 
# 
# From -- ./inp_files/24778.got.cif
#   From: 2010.05.17/outbox.cif.g08.bks.cpg/sg57_13_cif.got.tgz:24778.got - 2010.06.03 13:58:18.
