data_PCOD9439774
_publ_section_title
;
Structure prediction by ZEFSAII (Michael W. Deem and Ramdas Pophale) SiO2 
 PCOD9439774
Probable space group: P B C M
;
_chemical_formula_sum "Si O2"
_cell_formula_units_Z 40
_cell_length_a 18.834570
_cell_length_b 5.298502
_cell_length_c 16.382785
_cell_angle_alpha 90.000000
_cell_angle_beta 90.000000
_cell_angle_gamma 90.000000
_cell_volume 1634.920141
_symmetry_space_group_name_H-M "P B C M"
_symmetry_group_IT_number 57
_symmetry_cell_setting 'orthorhombic'
loop_
_space_group_symop_operation_xyz
x,y,z
-x,-y,1/2+z
x,1/2-y,-z
-x,1/2+y,1/2-z
-x,-y,-z
x,y,1/2-z
-x,1/2+y,z
x,1/2-y,1/2+z
loop_
_atom_site_type_symbol
_atom_site_label
_atom_site_fract_x
_atom_site_fract_y
_atom_site_fract_z
Si Si1 0.030177 0.495698 0.593034
Si Si2 0.248948 0.493758 0.052334
Si Si3 0.325070 0.356817 0.657179
Si Si4 0.825805 0.147546 0.842841
Si Si5 0.461222 0.834500 0.150586
O O1 0.113917 0.532041 0.599791
O O2 0.000000 0.500000 0.500000
O O3 0.994210 0.738048 0.632789
O O4 0.317026 0.385424 0.099988
O O5 0.192900 0.578392 0.120843
O O6 0.258888 0.750000 0.000000
O O7 0.226737 0.250000 0.000000
O O8 0.342255 0.278146 0.750000
O O9 0.248449 0.494449 0.658070
O O10 0.384293 0.553830 0.628740
O O11 0.851182 0.159009 0.750000
O O12 0.462529 0.824159 0.250000
O O13 0.484495 0.556463 0.123431
#
# Coordination Sequence:
#
# PCOD9439774 Si02
#       5
#     8   8   8   8   8
#     4  10  25  44  69  99 141 184 232 283 357 436
#     4  12  26  43  69 101 144 184 241 295 360 435
#     4  10  23  43  71 107 147 185 241 310 361 418
#     4  11  26  47  75 109 145 188 246 310 364 423
#     4   9  19  35  61  98 141 187 233 287 359 429
#
# _framework density 24.466025999999999
#
# number of rings (size 3 to 8) (size 9 to 14) (size 15 to 20)
#    0.000    1.600    2.000    0.600    8.400    2.400 
#    0.000    0.000    0.000    3.600    0.000    0.000 
#    0.000    0.000    0.000    0.000    0.000    0.000 
#
# Total GULP energy -223627.396941 kJ/mol
# GULP energy per Si atom -5590.684924 kJ/mol
# Density = 2.441034 g / cm^3
# Si number density = 24.466026 Si / 1000 Ang^3
#
#
#
# Elastic Constant Matrix: (Units=GPa)
#
#
# Indices 1 2 3 4 5 6 
#
# 1 129.3947 17.4754 14.0294 0.0000 0.0000 0.0000
# 2 17.4754 147.3239 16.8855 0.0000 0.0000 0.0000
# 3 14.0294 16.8855 85.8470 0.0000 0.0000 0.0000
# 4 0.0000 0.0000 0.0000 7.2428 0.0000 0.0000
# 5 0.0000 0.0000 0.0000 0.0000 14.5777 0.0000
# 6 0.0000 0.0000 0.0000 0.0000 0.0000 35.3419
#
#
#
# Elastic Compliance Matrix: (Units=1/GPa)
#
#
# Indices 1 2 3 4 5 6 
#
# 1 0.007962 -0.000814 -0.001141 0.000000 0.000000 0.000000
# 2 -0.000814 0.007027 -0.001249 0.000000 0.000000 0.000000
# 3 -0.001141 -0.001249 0.012081 0.000000 0.000000 0.000000
# 4 0.000000 0.000000 0.000000 0.138068 0.000000 0.000000
# 5 0.000000 0.000000 0.000000 0.000000 0.068598 0.000000
# 6 0.000000 0.000000 0.000000 0.000000 0.000000 0.028295
#
#
# Mechanical properties :
#
#
# Convention : Reuss Voigt Hill
#
# Bulk Modulus (GPa) = 48.39778 51.03848 49.71813
# Shear Modulus (GPa) = 18.16023 32.37750 25.26887
#
# Velocity S-wave (km/s) = 2.72741 3.64176 3.21723
# Velocity P-wave (km/s) = 5.45370 6.21204 5.84518
#
# Compressibility (1/GPa) = 0.02066211
#
# Stress axis : x y z
#
# Youngs Moduli (GPa) = 125.59812 142.29883 82.77568
#
# Poissons Ratio (x) = 0.11578 0.09446
# Poissons Ratio (y) = 0.10219 0.10341
# Poissons Ratio (z) = 0.14332 0.17777
#
# Static dielectric constant tensor:
#      x y z
#    x 1.991630 0.000000 0.000000 
#    y 0.000000 1.940880 0.000000 
#    z 0.000000 0.000000 1.995440 
# 
# From -- ./inp_files/22776.got.cif
#   From: 2010.05.17/outbox.cif.g08.bks.cpg/sg57_12_cif.got.tgz:22776.got - 2010.06.03 13:58:18.
