data_PCOD9439121
_publ_section_title
;
Structure prediction by ZEFSAII (Michael W. Deem and Ramdas Pophale) SiO2 
 PCOD9439121
Probable space group: P B C M
;
_chemical_formula_sum "Si O2"
_cell_formula_units_Z 64
_cell_length_a 11.440045
_cell_length_b 15.542417
_cell_length_c 17.451361
_cell_angle_alpha 90.000000
_cell_angle_beta 90.000000
_cell_angle_gamma 90.000000
_cell_volume 3102.955819
_symmetry_space_group_name_H-M "P B C M"
_symmetry_group_IT_number 57
_symmetry_cell_setting 'orthorhombic'
loop_
_space_group_symop_operation_xyz
x,y,z
-x,-y,1/2+z
x,1/2-y,-z
-x,1/2+y,1/2-z
-x,-y,-z
x,y,1/2-z
-x,1/2+y,z
x,1/2-y,1/2+z
loop_
_atom_site_type_symbol
_atom_site_label
_atom_site_fract_x
_atom_site_fract_y
_atom_site_fract_z
Si Si1 0.784227 0.487761 0.435959
Si Si2 0.109178 0.238877 0.836491
Si Si3 0.138710 0.804518 0.837704
Si Si4 0.305384 0.133251 0.161766
Si Si5 0.787193 0.909604 0.406127
Si Si6 0.982155 0.479809 0.660502
Si Si7 0.330853 0.802326 0.074169
Si Si8 0.428839 0.314505 0.341641
O O1 0.693586 0.547797 0.388239
O O2 0.793545 0.535506 0.517318
O O3 0.736863 0.391029 0.443721
O O4 0.908580 0.490228 0.391069
O O5 0.148442 0.210346 0.750000
O O6 0.171599 0.331395 0.842617
O O7 0.154580 0.184521 0.907715
O O8 0.970870 0.240084 0.836174
O O9 0.175742 0.821370 0.750000
O O10 0.242391 0.762837 0.883978
O O11 0.078304 0.891335 0.867756
O O12 0.332935 0.113534 0.250000
O O13 0.380703 0.217597 0.139113
O O14 0.873721 0.954850 0.345993
O O15 0.657672 0.886321 0.377184
O O16 0.017227 0.471056 0.750000
O O17 0.441734 0.823150 0.126414
O O18 0.372454 0.750000 0.000000
O O19 0.426449 0.321404 0.250000
#
# Coordination Sequence:
#
# PCOD9439121 Si02
#       8
#     8   8   8   8   8   8   8   8
#     4  12  25  41  67 102 138 176 220 277 347 408
#     4   9  17  35  63  94 129 169 213 265 329 403
#     4  10  21  40  65  93 131 175 220 272 332 397
#     4   9  19  40  67  98 130 167 219 272 324 399
#     4  11  23  38  64  98 133 169 219 272 337 396
#     4  11  22  41  68 102 141 175 221 279 337 408
#     4  12  28  46  64  90 137 181 229 276 338 401
#     4  10  24  47  72  94 125 175 232 276 330 403
#
# _framework density 20.625495000000001
#
# number of rings (size 3 to 8) (size 9 to 14) (size 15 to 20)
#    0.000    1.500    1.250    4.500    1.750    6.000 
#    2.250    0.000    0.000    0.000    0.000    0.000 
#    0.000    0.000    0.000    0.000    0.000    0.000 
#
# Total GULP energy -357088.269115 kJ/mol
# GULP energy per Si atom -5579.504205 kJ/mol
# Density = 2.057855 g / cm^3
# Si number density = 20.625495 Si / 1000 Ang^3
#
#
#
# Elastic Constant Matrix: (Units=GPa)
#
#
# Indices 1 2 3 4 5 6 
#
# 1 97.2959 24.0713 34.6993 0.0000 0.0000 0.0000
# 2 24.0713 91.4366 38.5357 0.0000 0.0000 0.0000
# 3 34.6993 38.5357 63.6786 0.0000 0.0000 0.0000
# 4 0.0000 0.0000 0.0000 59.4895 0.0000 0.0000
# 5 0.0000 0.0000 0.0000 0.0000 23.6659 0.0000
# 6 0.0000 0.0000 0.0000 0.0000 0.0000 25.8153
#
#
#
# Elastic Compliance Matrix: (Units=1/GPa)
#
#
# Indices 1 2 3 4 5 6 
#
# 1 0.012780 -0.000576 -0.006615 0.000000 0.000000 0.000000
# 2 -0.000576 0.014707 -0.008586 0.000000 0.000000 0.000000
# 3 -0.006615 -0.008586 0.024504 0.000000 0.000000 0.000000
# 4 0.000000 0.000000 0.000000 0.016810 0.000000 0.000000
# 5 0.000000 0.000000 0.000000 0.000000 0.042255 0.000000
# 6 0.000000 0.000000 0.000000 0.000000 0.000000 0.038737
#
#
# Mechanical properties :
#
#
# Convention : Reuss Voigt Hill
#
# Bulk Modulus (GPa) = 48.93281 49.66930 49.30106
# Shear Modulus (GPa) = 26.57335 32.13447 29.35391
#
# Velocity S-wave (km/s) = 3.59329 3.95143 3.77661
# Velocity P-wave (km/s) = 6.40246 6.70464 6.55529
#
# Compressibility (1/GPa) = 0.02043619
#
# Stress axis : x y z
#
# Youngs Moduli (GPa) = 78.24920 67.99593 40.80933
#
# Poissons Ratio (x) = 0.03920 0.26995
# Poissons Ratio (y) = 0.04511 0.35038
# Poissons Ratio (z) = 0.51761 0.58380
#
# Static dielectric constant tensor:
#      x y z
#    x 1.734140 0.000000 0.000000 
#    y 0.000000 1.820910 0.000000 
#    z 0.000000 0.000000 1.759670 
# 
# From -- ./inp_files/22047.got.cif
#   From: 2010.05.17/outbox.cif.g08.bks.cpg/sg57_12_cif.got.tgz:22047.got - 2010.06.03 13:58:18.
