data_PCOD9439656
_publ_section_title
;
Structure prediction by ZEFSAII (Michael W. Deem and Ramdas Pophale) SiO2 
 PCOD9439656
Probable space group: P B C M
;
_chemical_formula_sum "Si O2"
_cell_formula_units_Z 48
_cell_length_a 17.078383
_cell_length_b 16.208891
_cell_length_c 8.610270
_cell_angle_alpha 90.000000
_cell_angle_beta 90.000000
_cell_angle_gamma 90.000000
_cell_volume 2383.509135
_symmetry_space_group_name_H-M "P B C M"
_symmetry_group_IT_number 57
_symmetry_cell_setting 'orthorhombic'
loop_
_space_group_symop_operation_xyz
x,y,z
-x,-y,1/2+z
x,1/2-y,-z
-x,1/2+y,1/2-z
-x,-y,-z
x,y,1/2-z
-x,1/2+y,z
x,1/2-y,1/2+z
loop_
_atom_site_type_symbol
_atom_site_label
_atom_site_fract_x
_atom_site_fract_y
_atom_site_fract_z
Si Si1 0.501609 0.841822 0.063030
Si Si2 0.329879 0.900311 0.435702
Si Si3 0.087721 0.501007 0.563700
Si Si4 0.826708 0.336775 0.933984
Si Si5 0.334709 0.080588 0.936709
Si Si6 0.184943 0.337305 0.936598
O O1 0.501413 0.839938 0.250000
O O2 0.417906 0.877931 0.012977
O O3 0.577512 0.893932 0.015305
O O4 0.509684 0.750000 0.000000
O O5 0.323623 0.890632 0.250000
O O6 0.264088 0.845816 0.517178
O O7 0.314276 0.994394 0.483070
O O8 0.087428 0.503709 0.750000
O O9 0.130656 0.582817 0.502187
O O10 0.132696 0.416672 0.517494
O O11 0.000000 0.500000 0.500000
O O12 0.834130 0.337140 0.750000
O O13 0.857307 0.250000 0.000000
O O14 0.331579 0.072468 0.750000
O O15 0.270905 0.146474 0.992461
O O16 0.189493 0.334591 0.750000
O O17 0.154463 0.250000 0.000000
#
# Coordination Sequence:
#
# PCOD9439656 Si02
#       6
#     8   8   8   8   8   8
#     4  10  23  38  55  84 122 165 216 269 321 379
#     4  11  22  39  61  89 126 168 217 270 324 384
#     4  11  25  46  71 100 135 172 215 265 326 391
#     4  12  25  43  69  99 133 174 220 270 327 391
#     4  11  22  38  61  90 124 168 218 266 323 384
#     4  11  24  42  67  97 132 172 216 266 321 385
#
# _framework density 20.138373999999999
#
# number of rings (size 3 to 8) (size 9 to 14) (size 15 to 20)
#    0.000    1.000    1.667    5.000    0.000    8.000 
#    0.000    1.667    0.000    0.000    0.000    0.000 
#    0.000    0.000    0.000    0.000    0.000    0.000 
#
# Total GULP energy -268537.836876 kJ/mol
# GULP energy per Si atom -5594.538268 kJ/mol
# Density = 2.009254 g / cm^3
# Si number density = 20.138374 Si / 1000 Ang^3
#
#
#
# Elastic Constant Matrix: (Units=GPa)
#
#
# Indices 1 2 3 4 5 6 
#
# 1 116.0899 42.7055 28.3814 0.0000 0.0000 0.0000
# 2 42.7055 141.9480 27.8799 0.0000 0.0000 0.0000
# 3 28.3814 27.8799 60.6886 0.0000 0.0000 0.0000
# 4 0.0000 0.0000 0.0000 36.3693 0.0000 0.0000
# 5 0.0000 0.0000 0.0000 0.0000 26.7264 0.0000
# 6 0.0000 0.0000 0.0000 0.0000 0.0000 11.6034
#
#
#
# Elastic Compliance Matrix: (Units=1/GPa)
#
#
# Indices 1 2 3 4 5 6 
#
# 1 0.010416 -0.002393 -0.003772 0.000000 0.000000 0.000000
# 2 -0.002393 0.008293 -0.002691 0.000000 0.000000 0.000000
# 3 -0.003772 -0.002691 0.019478 0.000000 0.000000 0.000000
# 4 0.000000 0.000000 0.000000 0.027496 0.000000 0.000000
# 5 0.000000 0.000000 0.000000 0.000000 0.037416 0.000000
# 6 0.000000 0.000000 0.000000 0.000000 0.000000 0.086181
#
#
# Mechanical properties :
#
#
# Convention : Reuss Voigt Hill
#
# Bulk Modulus (GPa) = 48.83790 57.40667 53.12228
# Shear Modulus (GPa) = 23.38442 29.59046 26.48744
#
# Velocity S-wave (km/s) = 3.41132 3.83738 3.63060
# Velocity P-wave (km/s) = 6.31030 6.94276 6.63407
#
# Compressibility (1/GPa) = 0.02047590
#
# Stress axis : x y z
#
# Youngs Moduli (GPa) = 96.00166 120.57986 51.34073
#
# Poissons Ratio (x) = 0.28854 0.19366
# Poissons Ratio (y) = 0.22973 0.13815
# Poissons Ratio (z) = 0.36212 0.32445
#
# Static dielectric constant tensor:
#      x y z
#    x 1.723800 0.000000 0.000000 
#    y 0.000000 1.716860 0.000000 
#    z 0.000000 0.000000 1.673510 
# 
# From -- ./inp_files/6491.got.cif
#   From: 2010.05.17/outbox.cif.g08.bks.cpg/sg57_4_cif.got.tgz:6491.got - 2010.06.03 13:58:18.
