data_PCOD9439460
_publ_section_title
;
Structure prediction by ZEFSAII (Michael W. Deem and Ramdas Pophale) SiO2 
 PCOD9439460
Probable space group: P B C M
;
_chemical_formula_sum "Si O2"
_cell_formula_units_Z 32
_cell_length_a 4.736997
_cell_length_b 10.369023
_cell_length_c 25.518188
_cell_angle_alpha 90.000000
_cell_angle_beta 90.000000
_cell_angle_gamma 90.000000
_cell_volume 1253.403145
_symmetry_space_group_name_H-M "P B C M"
_symmetry_group_IT_number 57
_symmetry_cell_setting 'orthorhombic'
loop_
_space_group_symop_operation_xyz
x,y,z
-x,-y,1/2+z
x,1/2-y,-z
-x,1/2+y,1/2-z
-x,-y,-z
x,y,1/2-z
-x,1/2+y,z
x,1/2-y,1/2+z
loop_
_atom_site_type_symbol
_atom_site_label
_atom_site_fract_x
_atom_site_fract_y
_atom_site_fract_z
Si Si1 0.128024 0.223016 0.306462
Si Si2 0.818039 0.890565 0.099781
Si Si3 0.333981 0.880717 0.028905
Si Si4 0.633428 0.053271 0.192278
O O1 0.067852 0.284429 0.250000
O O2 0.039278 0.301023 0.356708
O O3 0.454134 0.184454 0.310431
O O4 0.961841 0.089627 0.306092
O O5 0.584066 0.822323 0.064747
O O6 0.068876 0.938151 0.061917
O O7 0.623582 0.980939 0.137327
O O8 0.226404 0.750000 0.000000
O O9 0.500000 0.000000 0.000000
O O10 0.555586 0.997269 0.250000
#
# Coordination Sequence:
#
# PCOD9439460 Si02
#       4
#     8   8   8   8
#     4  10  22  40  67 106 144 179 228 285 356 446
#     4  12  25  44  76  95 143 188 240 295 378 435
#     4  12  30  50  73 105 139 189 251 318 363 428
#     4  10  22  40  67 106 143 178 229 286 355 448
#
# _framework density 25.530493
#
# number of rings (size 3 to 8) (size 9 to 14) (size 15 to 20)
#    0.000    1.000    0.000    5.250   10.500    0.000 
#    0.000   10.000    0.000    0.000    0.000    0.000 
#    0.000    0.000    0.000    0.000    0.000    0.000 
#
# Total GULP energy -178339.038489 kJ/mol
# GULP energy per Si atom -5573.094953 kJ/mol
# Density = 2.547238 g / cm^3
# Si number density = 25.530493 Si / 1000 Ang^3
#
#
#
# Elastic Constant Matrix: (Units=GPa)
#
#
# Indices 1 2 3 4 5 6 
#
# 1 89.3752 -7.2707 33.2662 0.0000 0.0000 0.0000
# 2 -7.2707 59.7177 29.7218 0.0000 0.0000 0.0000
# 3 33.2662 29.7218 125.0452 0.0000 0.0000 0.0000
# 4 0.0000 0.0000 0.0000 36.6956 0.0000 0.0000
# 5 0.0000 0.0000 0.0000 0.0000 36.1164 0.0000
# 6 0.0000 0.0000 0.0000 0.0000 0.0000 34.4102
#
#
#
# Elastic Compliance Matrix: (Units=1/GPa)
#
#
# Indices 1 2 3 4 5 6 
#
# 1 0.013132 0.003785 -0.004393 0.000000 0.000000 0.000000
# 2 0.003785 0.020083 -0.005781 0.000000 0.000000 0.000000
# 3 -0.004393 -0.005781 0.010540 0.000000 0.000000 0.000000
# 4 0.000000 0.000000 0.000000 0.027251 0.000000 0.000000
# 5 0.000000 0.000000 0.000000 0.000000 0.027688 0.000000
# 6 0.000000 0.000000 0.000000 0.000000 0.000000 0.029061
#
#
# Mechanical properties :
#
#
# Convention : Reuss Voigt Hill
#
# Bulk Modulus (GPa) = 32.28081 42.84141 37.56111
# Shear Modulus (GPa) = 33.14353 36.00580 34.57467
#
# Velocity S-wave (km/s) = 3.60695 3.75948 3.68401
# Velocity P-wave (km/s) = 5.47890 5.97175 5.73062
#
# Compressibility (1/GPa) = 0.03097816
#
# Stress axis : x y z
#
# Youngs Moduli (GPa) = 76.15017 49.79237 94.87787
#
# Poissons Ratio (x) = -0.18848 0.41683
# Poissons Ratio (y) = -0.28826 0.54845
# Poissons Ratio (z) = 0.33455 0.28783
#
# Static dielectric constant tensor:
#      x y z
#    x 1.918520 0.000000 0.000000 
#    y 0.000000 2.106720 0.000000 
#    z 0.000000 0.000000 2.074590 
# 
# From -- ./inp_files/23349.got.cif
#   From: 2010.05.17/outbox.cif.g08.bks.cpg/sg57_12_cif.got.tgz:23349.got - 2010.06.03 13:58:18.
