data_PCOD9439679
_publ_section_title
;
Structure prediction by ZEFSAII (Michael W. Deem and Ramdas Pophale) SiO2 
 PCOD9439679
Probable space group: P B C M
;
_chemical_formula_sum "Si O2"
_cell_formula_units_Z 40
_cell_length_a 26.329327
_cell_length_b 9.113494
_cell_length_c 8.575048
_cell_angle_alpha 90.000000
_cell_angle_beta 90.000000
_cell_angle_gamma 90.000000
_cell_volume 2057.601321
_symmetry_space_group_name_H-M "P B C M"
_symmetry_group_IT_number 57
_symmetry_cell_setting 'orthorhombic'
loop_
_space_group_symop_operation_xyz
x,y,z
-x,-y,1/2+z
x,1/2-y,-z
-x,1/2+y,1/2-z
-x,-y,-z
x,y,1/2-z
-x,1/2+y,z
x,1/2-y,1/2+z
loop_
_atom_site_type_symbol
_atom_site_label
_atom_site_fract_x
_atom_site_fract_y
_atom_site_fract_z
Si Si1 0.848935 0.085021 0.062063
Si Si2 0.253559 0.415565 0.437988
Si Si3 0.450669 0.084377 0.936880
Si Si4 0.049159 0.084724 0.562399
Si Si5 0.352053 0.584430 0.936770
O O1 0.849319 0.090183 0.250000
O O2 0.798507 0.996828 0.014415
O O3 0.899776 0.000153 0.011530
O O4 0.848147 0.250000 0.000000
O O5 0.253714 0.250000 0.500000
O O6 0.256618 0.414748 0.250000
O O7 0.301397 0.502871 0.505849
O O8 0.451251 0.085456 0.750000
O O9 0.450749 0.250000 0.000000
O O10 0.500000 0.000000 0.000000
O O11 0.400660 0.001465 0.997113
O O12 0.049677 0.250000 0.500000
O O13 0.047781 0.087018 0.750000
O O14 0.000000 0.000000 0.500000
O O15 0.353937 0.585453 0.750000
O O16 0.352300 0.750000 0.000000
#
# Coordination Sequence:
#
# PCOD9439679 Si02
#       5
#     8   8   8   8   8
#     4  10  23  40  61  88 121 158 202 250 304 362
#     4  11  23  41  63  91 123 161 204 252 305 363
#     4  12  25  44  67  95 128 166 208 255 307 364
#     4  11  23  40  61  89 121 159 202 251 304 363
#     4  12  25  43  65  93 126 164 206 254 306 364
#
# _framework density 19.440111999999999
#
# number of rings (size 3 to 8) (size 9 to 14) (size 15 to 20)
#    0.000    0.800    0.000    7.800    0.000    6.400 
#    0.000    0.000    0.000    0.000    0.000    0.000 
#    0.000    0.000    0.000    0.000    0.000    0.000 
#
# Total GULP energy -223981.331558 kJ/mol
# GULP energy per Si atom -5599.533289 kJ/mol
# Density = 1.939587 g / cm^3
# Si number density = 19.440112 Si / 1000 Ang^3
#
#
#
# Elastic Constant Matrix: (Units=GPa)
#
#
# Indices 1 2 3 4 5 6 
#
# 1 241.7448 145.5504 82.4613 0.0000 0.0000 0.0000
# 2 145.5504 244.3178 77.9400 0.0000 0.0000 0.0000
# 3 82.4613 77.9400 138.0638 0.0000 0.0000 0.0000
# 4 0.0000 0.0000 0.0000 44.8322 0.0000 0.0000
# 5 0.0000 0.0000 0.0000 0.0000 33.8209 0.0000
# 6 0.0000 0.0000 0.0000 0.0000 0.0000 47.5693
#
#
#
# Elastic Compliance Matrix: (Units=1/GPa)
#
#
# Indices 1 2 3 4 5 6 
#
# 1 0.006965 -0.003442 -0.002217 0.000000 0.000000 0.000000
# 2 -0.003442 0.006693 -0.001722 0.000000 0.000000 0.000000
# 3 -0.002217 -0.001722 0.009540 0.000000 0.000000 0.000000
# 4 0.000000 0.000000 0.000000 0.022305 0.000000 0.000000
# 5 0.000000 0.000000 0.000000 0.000000 0.029568 0.000000
# 6 0.000000 0.000000 0.000000 0.000000 0.000000 0.021022
#
#
# Mechanical properties :
#
#
# Convention : Reuss Voigt Hill
#
# Bulk Modulus (GPa) = 118.55875 137.33666 127.94770
# Shear Modulus (GPa) = 43.98770 46.45612 45.22191
#
# Velocity S-wave (km/s) = 4.76198 4.89376 4.82832
# Velocity P-wave (km/s) = 9.55794 10.13564 9.85103
#
# Compressibility (1/GPa) = 0.00843464
#
# Stress axis : x y z
#
# Youngs Moduli (GPa) = 143.56697 149.40370 104.82710
#
# Poissons Ratio (x) = 0.51430 0.23239
# Poissons Ratio (y) = 0.49421 0.18056
# Poissons Ratio (z) = 0.31828 0.25735
#
# Static dielectric constant tensor:
#      x y z
#    x 1.651830 0.000000 0.000000 
#    y 0.000000 1.609810 0.000000 
#    z 0.000000 0.000000 1.657450 
# 
# From -- ./inp_files/8864.got.cif
#   From: 2010.05.17/outbox.cif.g08.bks.cpg/sg57_5_cif.got.tgz:8864.got - 2010.06.03 13:58:18.
