data_PCOD9439664
_publ_section_title
;
Structure prediction by ZEFSAII (Michael W. Deem and Ramdas Pophale) SiO2 
 PCOD9439664
Probable space group: P B C M
;
_chemical_formula_sum "Si O2"
_cell_formula_units_Z 32
_cell_length_a 14.147828
_cell_length_b 5.720625
_cell_length_c 14.380672
_cell_angle_alpha 90.000000
_cell_angle_beta 90.000000
_cell_angle_gamma 90.000000
_cell_volume 1163.891327
_symmetry_space_group_name_H-M "P B C M"
_symmetry_group_IT_number 57
_symmetry_cell_setting 'orthorhombic'
loop_
_space_group_symop_operation_xyz
x,y,z
-x,-y,1/2+z
x,1/2-y,-z
-x,1/2+y,1/2-z
-x,-y,-z
x,y,1/2-z
-x,1/2+y,z
x,1/2-y,1/2+z
loop_
_atom_site_type_symbol
_atom_site_label
_atom_site_fract_x
_atom_site_fract_y
_atom_site_fract_z
Si Si1 0.530097 0.403524 0.856999
Si Si2 0.267750 0.123601 0.851575
Si Si3 0.234491 0.966841 0.044765
Si Si4 0.032794 0.801683 0.392754
O O1 0.491821 0.385843 0.750000
O O2 0.509217 0.147817 0.898725
O O3 0.641322 0.462078 0.848266
O O4 0.222800 0.124919 0.750000
O O5 0.296553 0.384073 0.884602
O O6 0.205262 0.077894 0.943610
O O7 0.142857 0.877995 0.099924
O O8 0.288155 0.750000 0.000000
O O9 0.002530 0.750000 0.500000
O O10 0.014770 0.539882 0.352945
#
# Coordination Sequence:
#
# PCOD9439664 Si02
#       4
#     8   8   8   8
#     4   9  19  37  61  86 117 162 209 249 300 370
#     4  10  23  41  62  91 125 161 204 257 313 367
#     4  10  23  39  64  92 125 161 208 255 311 373
#     4   9  19  34  62  88 115 166 212 246 301 368
#
# _framework density 27.493977000000001
#
# number of rings (size 3 to 8) (size 9 to 14) (size 15 to 20)
#    0.000    2.500    0.000    0.000   21.000    1.000 
#    0.000    5.000    0.000    6.000    0.000    0.000 
#    0.000    0.000    0.000    0.000    0.000    0.000 
#
# Total GULP energy -178138.600221 kJ/mol
# GULP energy per Si atom -5566.831257 kJ/mol
# Density = 2.743140 g / cm^3
# Si number density = 27.493977 Si / 1000 Ang^3
#
#
#
# Elastic Constant Matrix: (Units=GPa)
#
#
# Indices 1 2 3 4 5 6 
#
# 1 51.6678 33.4866 11.9485 0.0000 0.0000 0.0000
# 2 33.4866 202.5379 46.0017 0.0000 0.0000 0.0000
# 3 11.9485 46.0017 131.4792 0.0000 0.0000 0.0000
# 4 0.0000 0.0000 0.0000 -0.1210 0.0000 0.0000
# 5 0.0000 0.0000 0.0000 0.0000 -4.4346 0.0000
# 6 0.0000 0.0000 0.0000 0.0000 0.0000 50.9062
#
#
#
# Elastic Compliance Matrix: (Units=1/GPa)
#
#
# Indices 1 2 3 4 5 6 
#
# 1 0.021751 -0.003419 -0.000780 0.000000 0.000000 0.000000
# 2 -0.003419 0.005901 -0.001754 0.000000 0.000000 0.000000
# 3 -0.000780 -0.001754 0.008290 0.000000 0.000000 0.000000
# 4 0.000000 0.000000 0.000000 -8.264541 0.000000 0.000000
# 5 0.000000 0.000000 0.000000 0.000000 -0.225499 0.000000
# 6 0.000000 0.000000 0.000000 0.000000 0.000000 0.019644
#
#
# Mechanical properties :
#
#
# Convention : Reuss Voigt Hill
#
# Bulk Modulus (GPa) = 41.60509 63.17317 52.38913
# Shear Modulus (GPa) = -0.59421 28.88667 14.14623
#
# Velocity S-wave (km/s) = -0.46540 3.24490 2.27077
# Velocity P-wave (km/s) = 3.85701 6.08819 5.09620
#
# Compressibility (1/GPa) = 0.02403552
#
# Stress axis : x y z
#
# Youngs Moduli (GPa) = 45.97544 169.46364 120.62217
#
# Poissons Ratio (x) = 0.57938 0.09414
# Poissons Ratio (y) = 0.15719 0.21156
# Poissons Ratio (z) = 0.03588 0.29723
#
# Static dielectric constant tensor:
#      x y z
#    x 2.102400 0.000000 0.000000 
#    y 0.000000 2.765120 0.000000 
#    z 0.000000 0.000000 2.150650 
# 
# From -- ./inp_files/18816.got.cif
#   From: 2010.05.17/outbox.cif.g08.bks.cpg/sg57_10_cif.got.tgz:18816.got - 2010.06.03 13:58:18.
