data_PCOD9439734
_publ_section_title
;
Structure prediction by ZEFSAII (Michael W. Deem and Ramdas Pophale) SiO2 
 PCOD9439734
Probable space group: P B C M
;
_chemical_formula_sum "Si O2"
_cell_formula_units_Z 36
_cell_length_a 11.691827
_cell_length_b 10.194141
_cell_length_c 13.357379
_cell_angle_alpha 90.000000
_cell_angle_beta 90.000000
_cell_angle_gamma 90.000000
_cell_volume 1592.041065
_symmetry_space_group_name_H-M "P B C M"
_symmetry_group_IT_number 57
_symmetry_cell_setting 'orthorhombic'
loop_
_space_group_symop_operation_xyz
x,y,z
-x,-y,1/2+z
x,1/2-y,-z
-x,1/2+y,1/2-z
-x,-y,-z
x,y,1/2-z
-x,1/2+y,z
x,1/2-y,1/2+z
loop_
_atom_site_type_symbol
_atom_site_label
_atom_site_fract_x
_atom_site_fract_y
_atom_site_fract_z
Si Si1 0.637136 0.551535 0.367378
Si Si2 0.016806 0.750000 0.000000
Si Si3 0.817488 0.405687 0.862333
Si Si4 0.805072 0.705125 0.864126
Si Si5 0.401719 0.629533 0.054406
O O1 0.662703 0.516339 0.250000
O O2 0.713728 0.681860 0.392719
O O3 0.651527 0.453709 0.461737
O O4 0.499857 0.569561 0.376871
O O5 0.093623 0.860474 0.946640
O O6 0.926782 0.701142 0.918386
O O7 0.864657 0.390085 0.750000
O O8 0.767719 0.553733 0.869881
O O9 0.704041 0.320900 0.879983
O O10 0.829578 0.735876 0.750000
O O11 0.462608 0.750000 0.000000
#
# Coordination Sequence:
#
# PCOD9439734 Si02
#       5
#     8   4   8   8   8
#     4  10  24  43  68  99 133 174 221 274 335 403
#     4  12  22  42  66  96 132 174 222 284 328 398
#     4  11  24  43  65  95 133 176 223 277 335 395
#     4  10  23  42  68  97 131 176 222 274 335 398
#     4  11  24  42  66  98 132 177 218 273 332 399
#
# _framework density 22.612482
#
# number of rings (size 3 to 8) (size 9 to 14) (size 15 to 20)
#    0.000    1.333    1.111    3.333    7.778    1.778 
#    0.000    2.222    0.000    0.000    0.000    0.000 
#    0.000    0.000    0.000    0.000    0.000    0.000 
#
# Total GULP energy -200447.405921 kJ/mol
# GULP energy per Si atom -5567.983498 kJ/mol
# Density = 2.256101 g / cm^3
# Si number density = 22.612482 Si / 1000 Ang^3
#
#
#
# Elastic Constant Matrix: (Units=GPa)
#
#
# Indices 1 2 3 4 5 6 
#
# 1 92.8016 20.9748 31.4817 0.0000 0.0000 0.0000
# 2 20.9748 64.6684 51.4750 0.0000 0.0000 0.0000
# 3 31.4817 51.4750 141.6118 0.0000 0.0000 0.0000
# 4 0.0000 0.0000 0.0000 28.1890 0.0000 0.0000
# 5 0.0000 0.0000 0.0000 0.0000 48.2326 0.0000
# 6 0.0000 0.0000 0.0000 0.0000 0.0000 23.8683
#
#
#
# Elastic Compliance Matrix: (Units=1/GPa)
#
#
# Indices 1 2 3 4 5 6 
#
# 1 0.011929 -0.002474 -0.001753 0.000000 0.000000 0.000000
# 2 -0.002474 0.022272 -0.007546 0.000000 0.000000 0.000000
# 3 -0.001753 -0.007546 0.010194 0.000000 0.000000 0.000000
# 4 0.000000 0.000000 0.000000 0.035475 0.000000 0.000000
# 5 0.000000 0.000000 0.000000 0.000000 0.020733 0.000000
# 6 0.000000 0.000000 0.000000 0.000000 0.000000 0.041896
#
#
# Mechanical properties :
#
#
# Convention : Reuss Voigt Hill
#
# Bulk Modulus (GPa) = 47.96039 56.32718 52.14378
# Shear Modulus (GPa) = 28.90248 33.06801 30.98524
#
# Velocity S-wave (km/s) = 3.57902 3.82825 3.70573
# Velocity P-wave (km/s) = 6.19152 6.67117 6.43582
#
# Compressibility (1/GPa) = 0.02085054
#
# Stress axis : x y z
#
# Youngs Moduli (GPa) = 83.82618 44.89877 98.09633
#
# Poissons Ratio (x) = 0.11108 0.17193
# Poissons Ratio (y) = 0.20740 0.74022
# Poissons Ratio (z) = 0.14692 0.33880
#
# Static dielectric constant tensor:
#      x y z
#    x 1.781140 0.000000 0.000000 
#    y 0.000000 1.972480 0.000000 
#    z 0.000000 0.000000 1.835530 
# 
# From -- ./inp_files/12512.got.cif
#   From: 2010.05.17/outbox.cif.g08.bks.cpg/sg57_7_cif.got.tgz:12512.got - 2010.06.03 13:58:18.
