data_PCOD9439710
_publ_section_title
;
Structure prediction by ZEFSAII (Michael W. Deem and Ramdas Pophale) SiO2 
 PCOD9439710
Probable space group: P B C M
;
_chemical_formula_sum "Si O2"
_cell_formula_units_Z 64
_cell_length_a 13.066831
_cell_length_b 29.264315
_cell_length_c 8.640189
_cell_angle_alpha 90.000000
_cell_angle_beta 90.000000
_cell_angle_gamma 90.000000
_cell_volume 3303.937929
_symmetry_space_group_name_H-M "P B C M"
_symmetry_group_IT_number 57
_symmetry_cell_setting 'orthorhombic'
loop_
_space_group_symop_operation_xyz
x,y,z
-x,-y,1/2+z
x,1/2-y,-z
-x,1/2+y,1/2-z
-x,-y,-z
x,y,1/2-z
-x,1/2+y,z
x,1/2-y,1/2+z
loop_
_atom_site_type_symbol
_atom_site_label
_atom_site_fract_x
_atom_site_fract_y
_atom_site_fract_z
Si Si1 0.087601 0.203124 0.567091
Si Si2 0.550733 0.545920 0.438333
Si Si3 0.087162 0.636217 0.936712
Si Si4 0.281769 0.801748 0.436182
Si Si5 0.233027 0.071380 0.426905
Si Si6 0.008524 0.449250 0.936212
Si Si7 0.297469 0.322727 0.574142
Si Si8 0.516618 0.351609 0.562100
O O1 0.045271 0.250000 0.500000
O O2 0.079672 0.203882 0.750000
O O3 0.205978 0.199059 0.520992
O O4 0.015854 0.162302 0.508577
O O5 0.500000 0.500000 0.500000
O O6 0.552096 0.545536 0.250000
O O7 0.668394 0.546854 0.497421
O O8 0.498317 0.594690 0.482391
O O9 0.087084 0.633693 0.750000
O O10 0.184309 0.666938 0.982946
O O11 0.077686 0.585324 0.002253
O O12 0.275404 0.750000 0.500000
O O13 0.283290 0.799380 0.250000
O O14 0.383579 0.827473 0.495180
O O15 0.223931 0.054337 0.250000
O O16 0.266244 0.123981 0.419560
O O17 0.120808 0.066907 0.495414
O O18 0.005097 0.448289 0.750000
O O19 0.000000 0.500000 0.000000
O O20 0.295767 0.304486 0.750000
O O21 0.413642 0.323844 0.514466
O O22 0.518905 0.350399 0.750000
#
# Coordination Sequence:
#
# PCOD9439710 Si02
#       8
#     8   8   8   8   8   8   8   8
#     4  11  22  35  56  85 115 145 185 235 285 345
#     4   9  18  34  56  83 115 152 196 244 294 352
#     4  10  23  42  60  84 117 153 197 249 297 349
#     4  11  24  42  64  87 119 161 206 255 309 367
#     4   8  16  33  55  76 105 147 186 227 285 343
#     4  11  22  37  60  87 117 156 198 244 299 358
#     4   9  17  35  59  81 108 145 188 233 288 346
#     4   9  20  38  60  85 117 154 198 249 298 356
#
# _framework density 19.370823999999999
#
# number of rings (size 3 to 8) (size 9 to 14) (size 15 to 20)
#    0.000    2.250    1.250    3.000    0.000    4.000 
#    0.000    6.875    0.000    0.000    0.000    0.000 
#    0.000    0.000    0.000    0.000    0.000    0.000 
#
# Total GULP energy -356807.341539 kJ/mol
# GULP energy per Si atom -5575.114712 kJ/mol
# Density = 1.932673 g / cm^3
# Si number density = 19.370824 Si / 1000 Ang^3
#
#
#
# Elastic Constant Matrix: (Units=GPa)
#
#
# Indices 1 2 3 4 5 6 
#
# 1 137.4536 64.0235 28.6821 0.0000 0.0000 0.0000
# 2 64.0235 103.6502 22.4658 0.0000 0.0000 0.0000
# 3 28.6821 22.4658 26.0032 0.0000 0.0000 0.0000
# 4 0.0000 0.0000 0.0000 33.6093 0.0000 0.0000
# 5 0.0000 0.0000 0.0000 0.0000 25.5954 0.0000
# 6 0.0000 0.0000 0.0000 0.0000 0.0000 -3.1552
#
#
#
# Elastic Compliance Matrix: (Units=1/GPa)
#
#
# Indices 1 2 3 4 5 6 
#
# 1 0.011424 -0.005322 -0.008003 0.000000 0.000000 0.000000
# 2 -0.005322 0.014350 -0.006528 0.000000 0.000000 0.000000
# 3 -0.008003 -0.006528 0.052924 0.000000 0.000000 0.000000
# 4 0.000000 0.000000 0.000000 0.029754 0.000000 0.000000
# 5 0.000000 0.000000 0.000000 0.000000 0.039070 0.000000
# 6 0.000000 0.000000 0.000000 0.000000 0.000000 -0.316933
#
#
# Mechanical properties :
#
#
# Convention : Reuss Voigt Hill
#
# Bulk Modulus (GPa) = 25.64574 55.27219 40.45896
# Shear Modulus (GPa) = -42.84165 21.33893 -10.75136
#
# Velocity S-wave (km/s) = -4.70793 3.32264 -2.35846
# Velocity P-wave (km/s) = 4.03543 6.58146 3.67634
#
# Compressibility (1/GPa) = 0.03899283
#
# Stress axis : x y z
#
# Youngs Moduli (GPa) = 87.53533 69.68678 18.89497
#
# Poissons Ratio (x) = 0.37086 0.15122
# Poissons Ratio (y) = 0.46585 0.12334
# Poissons Ratio (z) = 0.70055 0.45490
#
# Static dielectric constant tensor:
#      x y z
#    x 1.703090 0.000000 0.000000 
#    y 0.000000 1.684180 0.000000 
#    z 0.000000 0.000000 1.671160 
# 
# From -- ./inp_files/3814.got.cif
#   From: 2010.05.17/outbox.cif.g08.bks.cpg/sg57_2_cif.got.tgz:3814.got - 2010.06.03 13:58:18.
