data_PCOD9439951
_publ_section_title
;
Structure prediction by ZEFSAII (Michael W. Deem and Ramdas Pophale) SiO2 
 PCOD9439951
Probable space group: P B C M
;
_chemical_formula_sum "Si O2"
_cell_formula_units_Z 60
_cell_length_a 5.010871
_cell_length_b 24.207686
_cell_length_c 20.259892
_cell_angle_alpha 90.000000
_cell_angle_beta 90.000000
_cell_angle_gamma 90.000000
_cell_volume 2457.557148
_symmetry_space_group_name_H-M "P B C M"
_symmetry_group_IT_number 57
_symmetry_cell_setting 'orthorhombic'
loop_
_space_group_symop_operation_xyz
x,y,z
-x,-y,1/2+z
x,1/2-y,-z
-x,1/2+y,1/2-z
-x,-y,-z
x,y,1/2-z
-x,1/2+y,z
x,1/2-y,1/2+z
loop_
_atom_site_type_symbol
_atom_site_label
_atom_site_fract_x
_atom_site_fract_y
_atom_site_fract_z
Si Si1 0.062822 0.945358 0.150012
Si Si2 0.600204 0.100000 0.050690
Si Si3 0.775842 0.874794 0.433988
Si Si4 0.572223 0.018177 0.346711
Si Si5 0.890101 0.268218 0.069106
Si Si6 0.841128 0.105471 0.250000
Si Si7 0.406251 0.660493 0.823795
Si Si8 0.095692 0.346643 0.883641
O O1 0.985349 0.924476 0.076120
O O2 0.199831 0.890693 0.178950
O O3 0.787834 0.972402 0.173397
O O4 0.278377 0.993766 0.161229
O O5 0.591680 0.037666 0.077472
O O6 0.894331 0.121870 0.066029
O O7 0.391603 0.135280 0.095987
O O8 0.472054 0.109060 0.979250
O O9 0.664267 0.863122 0.360406
O O10 0.910719 0.817173 0.452392
O O11 0.662298 0.071353 0.305843
O O12 0.703277 0.293921 0.125367
O O13 0.044499 0.217618 0.102512
O O14 0.753428 0.250000 0.000000
O O15 0.014906 0.135386 0.190176
O O16 0.455052 0.681111 0.750000
#
# Coordination Sequence:
#
# PCOD9439951 Si02
#       8
#     8   8   8   8   8   4   8   8
#     4  11  25  45  72 106 146 200 250 307 373 455
#     4  11  25  45  73 110 153 188 262 312 378 454
#     4  11  25  46  74 113 149 199 253 317 375 470
#     4  11  24  44  72 106 143 205 244 315 381 448
#     4  11  24  46  79 107 144 205 251 309 395 459
#     4  10  26  46  74 106 148 190 256 312 376 444
#     4  11  27  48  73 113 154 194 257 319 379 471
#     4  11  25  46  73 110 147 196 248 321 376 457
#
# _framework density 24.414487000000001
#
# number of rings (size 3 to 8) (size 9 to 14) (size 15 to 20)
#    0.000    1.067    2.667    2.400    6.533    8.000 
#    0.000    0.000    0.000    0.000    0.000    0.000 
#    0.000    0.000    0.000    0.000    0.000    0.000 
#
# Total GULP energy -334465.792737 kJ/mol
# GULP energy per Si atom -5574.429879 kJ/mol
# Density = 2.435892 g / cm^3
# Si number density = 24.414487 Si / 1000 Ang^3
#
#
#
# Elastic Constant Matrix: (Units=GPa)
#
#
# Indices 1 2 3 4 5 6 
#
# 1 39.8561 -5.2863 5.1573 0.0000 0.0000 0.0000
# 2 -5.2863 63.3776 27.8208 0.0000 0.0000 0.0000
# 3 5.1573 27.8208 149.3245 0.0000 0.0000 0.0000
# 4 0.0000 0.0000 0.0000 17.5539 0.0000 0.0000
# 5 0.0000 0.0000 0.0000 0.0000 13.7395 0.0000
# 6 0.0000 0.0000 0.0000 0.0000 0.0000 27.8445
#
#
#
# Elastic Compliance Matrix: (Units=1/GPa)
#
#
# Indices 1 2 3 4 5 6 
#
# 1 0.025636 0.002752 -0.001398 0.000000 0.000000 0.000000
# 2 0.002752 0.017479 -0.003352 0.000000 0.000000 0.000000
# 3 -0.001398 -0.003352 0.007370 0.000000 0.000000 0.000000
# 4 0.000000 0.000000 0.000000 0.056968 0.000000 0.000000
# 5 0.000000 0.000000 0.000000 0.000000 0.072783 0.000000
# 6 0.000000 0.000000 0.000000 0.000000 0.000000 0.035914
#
#
# Mechanical properties :
#
#
# Convention : Reuss Voigt Hill
#
# Bulk Modulus (GPa) = 21.51021 34.21577 27.86299
# Shear Modulus (GPa) = 21.21871 26.81866 24.01869
#
# Velocity S-wave (km/s) = 2.95125 3.31792 3.13994
# Velocity P-wave (km/s) = 4.52137 5.35939 4.95812
#
# Compressibility (1/GPa) = 0.04648955
#
# Stress axis : x y z
#
# Youngs Moduli (GPa) = 39.00735 57.21068 135.69330
#
# Poissons Ratio (x) = -0.15745 0.18972
# Poissons Ratio (y) = -0.10735 0.45479
# Poissons Ratio (z) = 0.05454 0.19175
#
# Static dielectric constant tensor:
#      x y z
#    x 1.959360 0.000000 0.000000 
#    y 0.000000 1.961330 0.000000 
#    z 0.000000 0.000000 2.083650 
# 
# From -- ./inp_files/23832.got.cif
#   From: 2010.05.17/outbox.cif.g08.bks.cpg/sg57_12_cif.got.tgz:23832.got - 2010.06.03 13:58:18.
