data_PCOD9439385
_publ_section_title
;
Structure prediction by ZEFSAII (Michael W. Deem and Ramdas Pophale) SiO2 
 PCOD9439385
Probable space group: P B C M
;
_chemical_formula_sum "Si O2"
_cell_formula_units_Z 64
_cell_length_a 11.224999
_cell_length_b 10.974639
_cell_length_c 25.405719
_cell_angle_alpha 90.000000
_cell_angle_beta 90.000000
_cell_angle_gamma 90.000000
_cell_volume 3129.738445
_symmetry_space_group_name_H-M "P B C M"
_symmetry_group_IT_number 57
_symmetry_cell_setting 'orthorhombic'
loop_
_space_group_symop_operation_xyz
x,y,z
-x,-y,1/2+z
x,1/2-y,-z
-x,1/2+y,1/2-z
-x,-y,-z
x,y,1/2-z
-x,1/2+y,z
x,1/2-y,1/2+z
loop_
_atom_site_type_symbol
_atom_site_label
_atom_site_fract_x
_atom_site_fract_y
_atom_site_fract_z
Si Si1 0.316468 0.161915 0.620132
Si Si2 0.285023 0.543317 0.889460
Si Si3 0.490316 0.873576 0.466721
Si Si4 0.139701 0.710440 0.691453
Si Si5 0.041359 0.485000 0.940384
Si Si6 0.422811 0.140537 0.311340
Si Si7 0.304675 0.943894 0.692403
Si Si8 0.947104 0.732243 0.887356
O O1 0.389363 0.146838 0.566737
O O2 0.398253 0.227362 0.663980
O O3 0.194871 0.235455 0.613659
O O4 0.282670 0.032778 0.644449
O O5 0.383828 0.609294 0.924884
O O6 0.212260 0.628865 0.849606
O O7 0.183423 0.493156 0.929104
O O8 0.353927 0.448910 0.851454
O O9 0.470759 0.750000 0.500000
O O10 0.500000 0.000000 0.500000
O O11 0.140204 0.657081 0.750000
O O12 0.208823 0.837528 0.692497
O O13 0.007263 0.731530 0.669907
O O14 0.005475 0.352117 0.917753
O O15 0.984596 0.603099 0.912267
O O16 0.000000 0.500000 0.000000
O O17 0.384884 0.130825 0.250000
O O18 0.562774 0.110620 0.312947
O O19 0.298648 0.006060 0.750000
#
# Coordination Sequence:
#
# PCOD9439385 Si02
#       8
#     8   8   8   8   8   8   8   8
#     4  12  24  43  69  96 147 174 236 286 347 425
#     4  11  23  45  68  98 139 178 236 287 354 423
#     4  12  29  45  72 106 142 190 235 298 360 417
#     4  10  23  43  68 100 140 183 227 281 349 422
#     4  11  25  45  71  97 132 183 240 292 346 407
#     4  11  22  40  69 104 139 183 224 281 358 431
#     4  10  22  39  67 101 136 181 222 278 349 418
#     4  11  25  44  70 101 135 184 232 289 343 410
#
# _framework density 20.448992000000001
#
# number of rings (size 3 to 8) (size 9 to 14) (size 15 to 20)
#    0.000    1.000    2.500    3.375    3.500    3.000 
#    0.000    1.875    0.000    0.000    0.000    0.000 
#    0.000    0.000    0.000    0.000    0.000    0.000 
#
# Total GULP energy -357458.785883 kJ/mol
# GULP energy per Si atom -5585.293529 kJ/mol
# Density = 2.040245 g / cm^3
# Si number density = 20.448992 Si / 1000 Ang^3
#
#
#
# Elastic Constant Matrix: (Units=GPa)
#
#
# Indices 1 2 3 4 5 6 
#
# 1 98.1970 32.8667 65.1264 0.0000 0.0000 0.0000
# 2 32.8667 89.6677 46.8350 0.0000 0.0000 0.0000
# 3 65.1264 46.8350 141.8905 0.0000 0.0000 0.0000
# 4 0.0000 0.0000 0.0000 40.0512 0.0000 0.0000
# 5 0.0000 0.0000 0.0000 0.0000 71.9196 0.0000
# 6 0.0000 0.0000 0.0000 0.0000 0.0000 27.9571
#
#
#
# Elastic Compliance Matrix: (Units=1/GPa)
#
#
# Indices 1 2 3 4 5 6 
#
# 1 0.015023 -0.002302 -0.006136 0.000000 0.000000 0.000000
# 2 -0.002302 0.013828 -0.003508 0.000000 0.000000 0.000000
# 3 -0.006136 -0.003508 0.011022 0.000000 0.000000 0.000000
# 4 0.000000 0.000000 0.000000 0.024968 0.000000 0.000000
# 5 0.000000 0.000000 0.000000 0.000000 0.013904 0.000000
# 6 0.000000 0.000000 0.000000 0.000000 0.000000 0.035769
#
#
# Mechanical properties :
#
#
# Convention : Reuss Voigt Hill
#
# Bulk Modulus (GPa) = 62.56865 68.82349 65.69607
# Shear Modulus (GPa) = 34.78657 40.31408 37.55032
#
# Velocity S-wave (km/s) = 4.12896 4.44491 4.28985
# Velocity P-wave (km/s) = 7.30718 7.75063 7.53217
#
# Compressibility (1/GPa) = 0.01598244
#
# Stress axis : x y z
#
# Youngs Moduli (GPa) = 66.56258 72.31585 90.72875
#
# Poissons Ratio (x) = 0.16646 0.55670
# Poissons Ratio (y) = 0.15321 0.31827
# Poissons Ratio (z) = 0.40842 0.25368
#
# Static dielectric constant tensor:
#      x y z
#    x 1.603220 0.000000 0.000000 
#    y 0.000000 1.774050 0.000000 
#    z 0.000000 0.000000 1.740870 
# 
# From -- ./inp_files/27264.got.cif
#   From: 2010.05.17/outbox.cif.g08.bks.cpg/sg57_14_cif.got.tgz:27264.got - 2010.06.03 13:58:18.
