data_PCOD9439267
_publ_section_title
;
Structure prediction by ZEFSAII (Michael W. Deem and Ramdas Pophale) SiO2 
 PCOD9439267
Probable space group: P B C M
;
_chemical_formula_sum "Si O2"
_cell_formula_units_Z 40
_cell_length_a 7.842872
_cell_length_b 15.840440
_cell_length_c 13.305435
_cell_angle_alpha 90.000000
_cell_angle_beta 90.000000
_cell_angle_gamma 90.000000
_cell_volume 1652.994641
_symmetry_space_group_name_H-M "P B C M"
_symmetry_group_IT_number 57
_symmetry_cell_setting 'orthorhombic'
loop_
_space_group_symop_operation_xyz
x,y,z
-x,-y,1/2+z
x,1/2-y,-z
-x,1/2+y,1/2-z
-x,-y,-z
x,y,1/2-z
-x,1/2+y,z
x,1/2-y,1/2+z
loop_
_atom_site_type_symbol
_atom_site_label
_atom_site_fract_x
_atom_site_fract_y
_atom_site_fract_z
Si Si1 0.990175 0.119325 0.415559
Si Si2 0.538932 0.409693 0.357878
Si Si3 0.636926 0.844669 0.546231
Si Si4 0.920693 0.437762 0.364861
Si Si5 0.318749 0.725090 0.384885
O O1 0.186257 0.141416 0.399602
O O2 0.964431 0.119284 0.537973
O O3 0.858168 0.180657 0.360986
O O4 0.971871 0.022976 0.379944
O O5 0.463306 0.434655 0.250000
O O6 0.411792 0.405275 0.452111
O O7 0.717376 0.458103 0.375854
O O8 0.612188 0.313797 0.346208
O O9 0.649788 0.750000 0.500000
O O10 0.472414 0.842017 0.618244
O O11 0.944966 0.405518 0.250000
O O12 0.294821 0.750000 0.500000
#
# Coordination Sequence:
#
# PCOD9439267 Si02
#       5
#     8   8   8   8   8
#     4  11  20  36  61  78 112 152 183 230 282 330
#     4   9  18  36  56  79 116 146 182 236 276 327
#     4   9  19  33  57  84 103 136 189 224 272 334
#     4  10  22  37  53  82 114 146 190 229 275 336
#     4   9  17  35  55  81 105 139 182 225 280 328
#
# _framework density 24.198505999999998
#
# number of rings (size 3 to 8) (size 9 to 14) (size 15 to 20)
#    0.000    2.800    4.000    0.600    0.000    2.400 
#    0.000    4.000    0.000    0.000    0.000    0.000 
#    0.000    0.000    0.000    0.000    0.000    0.000 
#
# Total GULP energy -222954.014593 kJ/mol
# GULP energy per Si atom -5573.850365 kJ/mol
# Density = 2.414343 g / cm^3
# Si number density = 24.198506 Si / 1000 Ang^3
#
#
#
# Elastic Constant Matrix: (Units=GPa)
#
#
# Indices 1 2 3 4 5 6 
#
# 1 149.6092 22.1071 10.6241 0.0000 0.0000 0.0000
# 2 22.1071 30.7618 3.1095 0.0000 0.0000 0.0000
# 3 10.6241 3.1095 107.0856 0.0000 0.0000 0.0000
# 4 0.0000 0.0000 0.0000 -9.0477 0.0000 0.0000
# 5 0.0000 0.0000 0.0000 0.0000 -2.6854 0.0000
# 6 0.0000 0.0000 0.0000 0.0000 0.0000 23.2663
#
#
#
# Elastic Compliance Matrix: (Units=1/GPa)
#
#
# Indices 1 2 3 4 5 6 
#
# 1 0.007515 -0.005341 -0.000591 0.000000 0.000000 0.000000
# 2 -0.005341 0.036400 -0.000527 0.000000 0.000000 0.000000
# 3 -0.000591 -0.000527 0.009412 0.000000 0.000000 0.000000
# 4 0.000000 0.000000 0.000000 -0.110526 0.000000 0.000000
# 5 0.000000 0.000000 0.000000 0.000000 -0.372389 0.000000
# 6 0.000000 0.000000 0.000000 0.000000 0.000000 0.042981
#
#
# Mechanical properties :
#
#
# Convention : Reuss Voigt Hill
#
# Bulk Modulus (GPa) = 24.74661 39.90421 32.32541
# Shear Modulus (GPa) = -13.88040 19.08104 2.60032
#
# Velocity S-wave (km/s) = -2.39760 2.81111 1.03774
# Velocity P-wave (km/s) = 1.60749 5.20217 3.85011
#
# Compressibility (1/GPa) = 0.04040957
#
# Stress axis : x y z
#
# Youngs Moduli (GPa) = 133.06264 27.47288 106.24495
#
# Poissons Ratio (x) = 0.14674 0.06274
# Poissons Ratio (y) = 0.71071 0.05599
# Poissons Ratio (z) = 0.07857 0.01448
#
# Static dielectric constant tensor:
#      x y z
#    x 1.959220 0.000000 0.000000 
#    y 0.000000 1.966310 0.000000 
#    z 0.000000 0.000000 1.954730 
# 
# From -- ./inp_files/16130.got.cif
#   From: 2010.05.17/outbox.cif.g08.bks.cpg/sg57_9_cif.got.tgz:16130.got - 2010.06.03 13:58:18.
