data_PCOD9439406
_publ_section_title
;
Structure prediction by ZEFSAII (Michael W. Deem and Ramdas Pophale) SiO2 
 PCOD9439406
Probable space group: P B C M
;
_chemical_formula_sum "Si O2"
_cell_formula_units_Z 48
_cell_length_a 13.354958
_cell_length_b 9.460972
_cell_length_c 15.775842
_cell_angle_alpha 90.000000
_cell_angle_beta 90.000000
_cell_angle_gamma 90.000000
_cell_volume 1993.291578
_symmetry_space_group_name_H-M "P B C M"
_symmetry_group_IT_number 57
_symmetry_cell_setting 'orthorhombic'
loop_
_space_group_symop_operation_xyz
x,y,z
-x,-y,1/2+z
x,1/2-y,-z
-x,1/2+y,1/2-z
-x,-y,-z
x,y,1/2-z
-x,1/2+y,z
x,1/2-y,1/2+z
loop_
_atom_site_type_symbol
_atom_site_label
_atom_site_fract_x
_atom_site_fract_y
_atom_site_fract_z
Si Si1 0.913775 0.057184 0.060165
Si Si2 0.990805 0.822488 0.157182
Si Si3 0.680299 0.667999 0.071280
Si Si4 0.564966 0.581418 0.903601
Si Si5 0.624502 0.263181 0.601760
Si Si6 0.196085 0.912089 0.108719
O O1 0.963937 0.194905 0.101537
O O2 0.825419 0.088371 0.993745
O O3 0.903179 0.925593 0.123927
O O4 0.000000 0.000000 0.000000
O O5 0.966988 0.769787 0.250000
O O6 0.091709 0.918043 0.156496
O O7 0.636177 0.791702 0.128286
O O8 0.594048 0.600256 0.006519
O O9 0.739176 0.551432 0.120229
O O10 0.746406 0.750000 0.000000
O O11 0.457353 0.642531 0.876973
O O12 0.591392 0.422929 0.877100
O O13 0.628229 0.250000 0.500000
O O14 0.733841 0.218936 0.634575
#
# Coordination Sequence:
#
# PCOD9439406 Si02
#       6
#     8   8   8   8   8   8
#     4  10  22  40  62  89 111 151 196 251 301 357
#     4  11  24  42  60  84 118 159 192 240 311 379
#     4   8  17  28  40  78 115 149 182 233 285 340
#     4   9  19  25  44  73 124 156 183 225 308 341
#     4  12  15  27  43  74 118 152 185 235 291 343
#     4  11  21  32  57  85 115 146 198 248 291 340
#
# _framework density 24.080774000000002
#
# number of rings (size 3 to 8) (size 9 to 14) (size 15 to 20)
#    1.000    0.667    3.333    5.000    0.000    2.667 
#    0.000    0.000    0.000    0.000    0.000    4.667 
#    0.000    0.000    0.000    0.000    0.000    0.000 
#
# Total GULP energy -267406.086665 kJ/mol
# GULP energy per Si atom -5570.960139 kJ/mol
# Density = 2.402596 g / cm^3
# Si number density = 24.080774 Si / 1000 Ang^3
#
#
#
# Elastic Constant Matrix: (Units=GPa)
#
#
# Indices 1 2 3 4 5 6 
#
# 1 73.4266 49.2828 -1.1198 0.0000 0.0000 0.0000
# 2 49.2828 153.1691 19.6017 0.0000 0.0000 0.0000
# 3 -1.1198 19.6017 49.6603 0.0000 0.0000 0.0000
# 4 0.0000 0.0000 0.0000 5.5804 0.0000 0.0000
# 5 0.0000 0.0000 0.0000 0.0000 0.6784 0.0000
# 6 0.0000 0.0000 0.0000 0.0000 0.0000 37.5932
#
#
#
# Elastic Compliance Matrix: (Units=1/GPa)
#
#
# Indices 1 2 3 4 5 6 
#
# 1 0.017731 -0.006062 0.002793 0.000000 0.000000 0.000000
# 2 -0.006062 0.008949 -0.003669 0.000000 0.000000 0.000000
# 3 0.002793 -0.003669 0.021648 0.000000 0.000000 0.000000
# 4 0.000000 0.000000 0.000000 0.179199 0.000000 0.000000
# 5 0.000000 0.000000 0.000000 0.000000 1.474112 0.000000
# 6 0.000000 0.000000 0.000000 0.000000 0.000000 0.026601
#
#
# Mechanical properties :
#
#
# Convention : Reuss Voigt Hill
#
# Bulk Modulus (GPa) = 29.02733 45.75392 37.39063
# Shear Modulus (GPa) = 2.85128 22.66982 12.76055
#
# Velocity S-wave (km/s) = 1.08932 3.07156 2.30447
# Velocity P-wave (km/s) = 3.69628 5.62324 4.75832
#
# Compressibility (1/GPa) = 0.03445029
#
# Stress axis : x y z
#
# Youngs Moduli (GPa) = 56.39988 111.74657 46.19368
#
# Poissons Ratio (x) = 0.67744 -0.12900
# Poissons Ratio (y) = 0.34191 0.16948
# Poissons Ratio (z) = -0.15751 0.40999
#
# Static dielectric constant tensor:
#      x y z
#    x 2.018760 0.000000 0.000000 
#    y 0.000000 1.875320 0.000000 
#    z 0.000000 0.000000 2.032450 
# 
# From -- ./inp_files/22401.got.cif
#   From: 2010.05.17/outbox.cif.g08.bks.cpg/sg57_12_cif.got.tgz:22401.got - 2010.06.03 13:58:18.
