data_PCOD9439321
_publ_section_title
;
Structure prediction by ZEFSAII (Michael W. Deem and Ramdas Pophale) SiO2 
 PCOD9439321
Probable space group: P B C M
;
_chemical_formula_sum "Si O2"
_cell_formula_units_Z 32
_cell_length_a 11.516067
_cell_length_b 11.415745
_cell_length_c 10.360147
_cell_angle_alpha 90.000000
_cell_angle_beta 90.000000
_cell_angle_gamma 90.000000
_cell_volume 1361.991382
_symmetry_space_group_name_H-M "P B C M"
_symmetry_group_IT_number 57
_symmetry_cell_setting 'orthorhombic'
loop_
_space_group_symop_operation_xyz
x,y,z
-x,-y,1/2+z
x,1/2-y,-z
-x,1/2+y,1/2-z
-x,-y,-z
x,y,1/2-z
-x,1/2+y,z
x,1/2-y,1/2+z
loop_
_atom_site_type_symbol
_atom_site_label
_atom_site_fract_x
_atom_site_fract_y
_atom_site_fract_z
Si Si1 0.281355 0.665509 0.107366
Si Si2 0.779550 0.591075 0.997680
Si Si3 0.087072 0.168542 0.750000
Si Si4 0.062504 0.070075 0.250000
Si Si5 0.465250 0.095420 0.104864
O O1 0.240351 0.693219 0.250000
O O2 0.251977 0.532746 0.070635
O O3 0.422144 0.677966 0.110082
O O4 0.231271 0.750000 0.000000
O O5 0.836765 0.665242 0.881903
O O6 0.863554 0.563773 0.117739
O O7 0.660043 0.638292 0.060014
O O8 0.020349 0.293345 0.750000
O O9 0.018798 0.044670 0.750000
O O10 0.453045 0.045774 0.250000
O O11 0.500000 0.000000 0.000000
#
# Coordination Sequence:
#
# PCOD9439321 Si02
#       5
#     8   8   4   4   8
#     4  10  22  38  64 105 149 189 232 281 345 420
#     4  11  23  46  71 100 141 184 238 291 357 422
#     4  12  28  50  75 104 138 182 241 306 367 426
#     4  12  28  48  77 104 138 182 243 304 367 430
#     4   9  19  37  62  98 142 188 233 283 342 419
#
# _framework density 23.495010000000001
#
# number of rings (size 3 to 8) (size 9 to 14) (size 15 to 20)
#    0.000    1.500    2.500    1.500    3.500    5.000 
#    0.000    0.000    0.000    0.000    0.000    0.000 
#    0.000    0.000    0.000    0.000    0.000    0.000 
#
# Total GULP energy -178748.967462 kJ/mol
# GULP energy per Si atom -5585.905233 kJ/mol
# Density = 2.344153 g / cm^3
# Si number density = 23.495010 Si / 1000 Ang^3
#
#
#
# Elastic Constant Matrix: (Units=GPa)
#
#
# Indices 1 2 3 4 5 6 
#
# 1 121.8955 37.5356 57.9783 0.0000 0.0000 0.0000
# 2 37.5356 102.7121 45.3749 0.0000 0.0000 0.0000
# 3 57.9783 45.3749 242.9342 0.0000 0.0000 0.0000
# 4 0.0000 0.0000 0.0000 37.6000 0.0000 0.0000
# 5 0.0000 0.0000 0.0000 0.0000 25.3512 0.0000
# 6 0.0000 0.0000 0.0000 0.0000 0.0000 17.1530
#
#
#
# Elastic Compliance Matrix: (Units=1/GPa)
#
#
# Indices 1 2 3 4 5 6 
#
# 1 0.009951 -0.002820 -0.001848 0.000000 0.000000 0.000000
# 2 -0.002820 0.011411 -0.001458 0.000000 0.000000 0.000000
# 3 -0.001848 -0.001458 0.004830 0.000000 0.000000 0.000000
# 4 0.000000 0.000000 0.000000 0.026596 0.000000 0.000000
# 5 0.000000 0.000000 0.000000 0.000000 0.039446 0.000000
# 6 0.000000 0.000000 0.000000 0.000000 0.000000 0.058299
#
#
# Mechanical properties :
#
#
# Convention : Reuss Voigt Hill
#
# Bulk Modulus (GPa) = 71.74310 83.25772 77.50041
# Shear Modulus (GPa) = 29.86292 37.79770 33.83031
#
# Velocity S-wave (km/s) = 3.56902 4.01528 3.79871
# Velocity P-wave (km/s) = 6.89823 7.55049 7.23172
#
# Compressibility (1/GPa) = 0.01393862
#
# Stress axis : x y z
#
# Youngs Moduli (GPa) = 100.48993 87.63656 207.04799
#
# Poissons Ratio (x) = 0.24715 0.38267
# Poissons Ratio (y) = 0.28340 0.30192
# Poissons Ratio (z) = 0.18573 0.12779
#
# Static dielectric constant tensor:
#      x y z
#    x 1.933610 0.000000 0.000000 
#    y 0.000000 2.003610 0.000000 
#    z 0.000000 0.000000 1.853800 
# 
# From -- ./inp_files/12448.got.cif
#   From: 2010.05.17/outbox.cif.g08.bks.cpg/sg57_7_cif.got.tgz:12448.got - 2010.06.03 13:58:18.
