data_PCOD9439630
_publ_section_title
;
Structure prediction by ZEFSAII (Michael W. Deem and Ramdas Pophale) SiO2 
 PCOD9439630
Probable space group: P B C M
;
_chemical_formula_sum "Si O2"
_cell_formula_units_Z 32
_cell_length_a 11.204618
_cell_length_b 13.903880
_cell_length_c 9.415820
_cell_angle_alpha 90.000000
_cell_angle_beta 90.000000
_cell_angle_gamma 90.000000
_cell_volume 1466.868604
_symmetry_space_group_name_H-M "P B C M"
_symmetry_group_IT_number 57
_symmetry_cell_setting 'orthorhombic'
loop_
_space_group_symop_operation_xyz
x,y,z
-x,-y,1/2+z
x,1/2-y,-z
-x,1/2+y,1/2-z
-x,-y,-z
x,y,1/2-z
-x,1/2+y,z
x,1/2-y,1/2+z
loop_
_atom_site_type_symbol
_atom_site_label
_atom_site_fract_x
_atom_site_fract_y
_atom_site_fract_z
Si Si1 0.119596 0.250000 0.000000
Si Si2 0.313395 0.988527 0.250000
Si Si3 0.513720 0.829750 0.750000
Si Si4 0.815322 0.026521 0.250000
Si Si5 0.690351 0.144781 0.021040
Si Si6 0.283505 0.171705 0.750000
Si Si7 0.938502 0.897644 0.750000
O O1 0.205922 0.304252 0.110600
O O2 0.057144 0.172339 0.108389
O O3 0.331726 0.918343 0.383132
O O4 0.404692 0.076432 0.250000
O O5 0.185754 0.043510 0.250000
O O6 0.428457 0.836043 0.613429
O O7 0.597075 0.734982 0.750000
O O8 0.783682 0.086623 0.112775
O O9 0.958071 0.020986 0.250000
O O10 0.716775 0.942407 0.250000
O O11 0.743011 0.250000 0.000000
#
# Coordination Sequence:
#
# PCOD9439630 Si02
#       7
#     4   4   4   4   8   4   4
#     4  10  22  44  70 106 142 188 226 298 356 418
#     4  12  23  47  75 107 140 186 241 293 357 430
#     4  11  25  45  71 103 141 187 240 296 362 424
#     4  11  27  47  68 106 144 188 240 298 362 425
#     4  11  27  46  66 101 145 191 235 294 358 426
#     4  11  24  44  72 105 143 177 240 297 354 423
#     4  11  25  45  74 109 144 188 239 294 359 430
#
# _framework density 21.815178
#
# number of rings (size 3 to 8) (size 9 to 14) (size 15 to 20)
#    0.000    1.000    2.500    3.750    3.500    8.000 
#    4.500    0.000    0.000    0.000    0.000    0.000 
#    0.000    0.000    0.000    0.000    0.000    0.000 
#
# Total GULP energy -178667.543100 kJ/mol
# GULP energy per Si atom -5583.360722 kJ/mol
# Density = 2.176553 g / cm^3
# Si number density = 21.815178 Si / 1000 Ang^3
#
#
#
# Elastic Constant Matrix: (Units=GPa)
#
#
# Indices 1 2 3 4 5 6 
#
# 1 56.0863 14.2202 29.5308 0.0000 0.0000 0.0000
# 2 14.2202 118.5249 37.1275 0.0000 0.0000 0.0000
# 3 29.5308 37.1275 151.8421 0.0000 0.0000 0.0000
# 4 0.0000 0.0000 0.0000 65.6877 0.0000 0.0000
# 5 0.0000 0.0000 0.0000 0.0000 -110.1708 0.0000
# 6 0.0000 0.0000 0.0000 0.0000 0.0000 -42.8632
#
#
#
# Elastic Compliance Matrix: (Units=1/GPa)
#
#
# Indices 1 2 3 4 5 6 
#
# 1 0.020042 -0.001282 -0.003584 0.000000 0.000000 0.000000
# 2 -0.001282 0.009219 -0.002005 0.000000 0.000000 0.000000
# 3 -0.003584 -0.002005 0.007773 0.000000 0.000000 0.000000
# 4 0.000000 0.000000 0.000000 0.015224 0.000000 0.000000
# 5 0.000000 0.000000 0.000000 0.000000 -0.009077 0.000000
# 6 0.000000 0.000000 0.000000 0.000000 0.000000 -0.023330
#
#
# Mechanical properties :
#
#
# Convention : Reuss Voigt Hill
#
# Bulk Modulus (GPa) = 42.93350 54.24558 48.58954
# Shear Modulus (GPa) = 120.89974 -1.09761 59.90106
#
# Velocity S-wave (km/s) = 7.45254 -0.71009 5.24576
# Velocity P-wave (km/s) = 9.68386 4.92419 7.68195
#
# Compressibility (1/GPa) = 0.02329183
#
# Stress axis : x y z
#
# Youngs Moduli (GPa) = 49.89539 108.47352 128.64847
#
# Poissons Ratio (x) = 0.13904 0.46113
# Poissons Ratio (y) = 0.06395 0.25792
# Poissons Ratio (z) = 0.17885 0.21747
#
# Static dielectric constant tensor:
#      x y z
#    x 1.773580 0.000000 0.000000 
#    y 0.000000 1.858080 0.000000 
#    z 0.000000 0.000000 1.774940 
# 
# From -- ./inp_files/2475.got.cif
#   From: 2010.05.17/outbox.cif.g08.bks.cpg/sg57_2_cif.got.tgz:2475.got - 2010.06.03 13:58:18.
