data_PCOD9439099
_publ_section_title
;
Structure prediction by ZEFSAII (Michael W. Deem and Ramdas Pophale) SiO2 
 PCOD9439099
Probable space group: P B C M
;
_chemical_formula_sum "Si O2"
_cell_formula_units_Z 40
_cell_length_a 14.948020
_cell_length_b 7.761480
_cell_length_c 15.182075
_cell_angle_alpha 90.000000
_cell_angle_beta 90.000000
_cell_angle_gamma 90.000000
_cell_volume 1761.405489
_symmetry_space_group_name_H-M "P B C M"
_symmetry_group_IT_number 57
_symmetry_cell_setting 'orthorhombic'
loop_
_space_group_symop_operation_xyz
x,y,z
-x,-y,1/2+z
x,1/2-y,-z
-x,1/2+y,1/2-z
-x,-y,-z
x,y,1/2-z
-x,1/2+y,z
x,1/2-y,1/2+z
loop_
_atom_site_type_symbol
_atom_site_label
_atom_site_fract_x
_atom_site_fract_y
_atom_site_fract_z
Si Si1 0.366272 0.037482 0.250000
Si Si2 0.436351 0.641229 0.250000
Si Si3 0.267528 0.537057 0.580468
Si Si4 0.925037 0.910847 0.940333
Si Si5 0.848628 0.030045 0.250000
Si Si6 0.303537 0.558634 0.390886
Si Si7 0.010809 0.277421 0.750000
O O1 0.398566 0.836572 0.250000
O O2 0.306888 0.065199 0.336722
O O3 0.457706 0.141935 0.250000
O O4 0.393054 0.544118 0.333682
O O5 0.161156 0.526887 0.574422
O O6 0.305563 0.476191 0.486703
O O7 0.291942 0.736370 0.594191
O O8 0.961489 0.859156 0.844295
O O9 0.895495 0.750000 0.000000
O O10 0.000000 0.000000 0.000000
O O11 0.783134 0.007276 0.166810
O O12 0.902028 0.212843 0.250000
O O13 0.930425 0.896537 0.250000
#
# Coordination Sequence:
#
# PCOD9439099 Si02
#       7
#     4   4   8   8   4   8   4
#     4  10  21  42  66  94 125 160 212 266 333 392
#     4   9  20  40  64  94 119 160 207 256 326 403
#     4  10  21  40  64  90 128 167 209 268 321 385
#     4  12  27  43  64  97 135 176 229 273 328 393
#     4  11  24  40  62  90 125 172 219 268 325 390
#     4   9  20  40  66  87 123 169 211 255 328 399
#     4  12  25  40  60  88 129 170 220 276 328 385
#
# _framework density 22.709137999999999
#
# number of rings (size 3 to 8) (size 9 to 14) (size 15 to 20)
#    0.000    1.600    0.000    4.800    8.400    0.800 
#   10.800    0.000    0.000    0.000    0.000    0.000 
#    0.000    0.000    0.000    0.000    0.000    0.000 
#
# Total GULP energy -223668.808170 kJ/mol
# GULP energy per Si atom -5591.720204 kJ/mol
# Density = 2.265745 g / cm^3
# Si number density = 22.709138 Si / 1000 Ang^3
#
#
#
# Elastic Constant Matrix: (Units=GPa)
#
#
# Indices 1 2 3 4 5 6 
#
# 1 113.0529 10.1793 58.2587 0.0000 0.0000 0.0000
# 2 10.1793 27.3050 26.8206 0.0000 0.0000 0.0000
# 3 58.2587 26.8206 214.3746 0.0000 0.0000 0.0000
# 4 0.0000 0.0000 0.0000 26.2549 0.0000 0.0000
# 5 0.0000 0.0000 0.0000 0.0000 24.4724 0.0000
# 6 0.0000 0.0000 0.0000 0.0000 0.0000 27.9995
#
#
#
# Elastic Compliance Matrix: (Units=1/GPa)
#
#
# Indices 1 2 3 4 5 6 
#
# 1 0.010323 -0.001246 -0.002650 0.000000 0.000000 0.000000
# 2 -0.001246 0.041905 -0.004904 0.000000 0.000000 0.000000
# 3 -0.002650 -0.004904 0.005998 0.000000 0.000000 0.000000
# 4 0.000000 0.000000 0.000000 0.038088 0.000000 0.000000
# 5 0.000000 0.000000 0.000000 0.000000 0.040862 0.000000
# 6 0.000000 0.000000 0.000000 0.000000 0.000000 0.035715
#
#
# Mechanical properties :
#
#
# Convention : Reuss Voigt Hill
#
# Bulk Modulus (GPa) = 24.61411 60.58328 42.59870
# Shear Modulus (GPa) = 24.50583 33.04364 28.77474
#
# Velocity S-wave (km/s) = 3.28856 3.81869 3.56350
# Velocity P-wave (km/s) = 5.02811 6.79552 5.97750
#
# Compressibility (1/GPa) = 0.04062710
#
# Stress axis : x y z
#
# Youngs Moduli (GPa) = 96.87161 23.86354 166.71313
#
# Poissons Ratio (x) = 0.02973 0.44171
# Poissons Ratio (y) = 0.12069 0.81759
# Poissons Ratio (z) = 0.25666 0.11703
#
# Static dielectric constant tensor:
#      x y z
#    x 1.840530 0.000000 0.000000 
#    y 0.000000 1.951050 0.000000 
#    z 0.000000 0.000000 1.860720 
# 
# From -- ./inp_files/18319.got.cif
#   From: 2010.05.17/outbox.cif.g08.bks.cpg/sg57_10_cif.got.tgz:18319.got - 2010.06.03 13:58:18.
