data_PCOD9439456
_publ_section_title
;
Structure prediction by ZEFSAII (Michael W. Deem and Ramdas Pophale) SiO2 
 PCOD9439456
Probable space group: P B C M
;
_chemical_formula_sum "Si O2"
_cell_formula_units_Z 44
_cell_length_a 7.883237
_cell_length_b 13.222831
_cell_length_c 16.354417
_cell_angle_alpha 90.000000
_cell_angle_beta 90.000000
_cell_angle_gamma 90.000000
_cell_volume 1704.763340
_symmetry_space_group_name_H-M "P B C M"
_symmetry_group_IT_number 57
_symmetry_cell_setting 'orthorhombic'
loop_
_space_group_symop_operation_xyz
x,y,z
-x,-y,1/2+z
x,1/2-y,-z
-x,1/2+y,1/2-z
-x,-y,-z
x,y,1/2-z
-x,1/2+y,z
x,1/2-y,1/2+z
loop_
_atom_site_type_symbol
_atom_site_label
_atom_site_fract_x
_atom_site_fract_y
_atom_site_fract_z
Si Si1 0.365571 0.137599 0.458536
Si Si2 0.400578 0.731856 0.158619
Si Si3 0.334575 0.366754 0.250000
Si Si4 0.947395 0.633906 0.157818
Si Si5 0.076186 0.813947 0.083325
Si Si6 0.807045 0.981285 0.405794
O O1 0.341720 0.250000 0.500000
O O2 0.538698 0.148170 0.406638
O O3 0.327898 0.052026 0.525690
O O4 0.221633 0.114176 0.391729
O O5 0.338790 0.697973 0.250000
O O6 0.568903 0.794793 0.180575
O O7 0.267270 0.807812 0.115998
O O8 0.262439 0.440235 0.178713
O O9 0.933585 0.596941 0.250000
O O10 0.971682 0.754522 0.153735
O O11 0.113865 0.590641 0.113225
O O12 0.980794 0.918562 0.072840
O O13 0.060443 0.750000 0.000000
#
# Coordination Sequence:
#
# PCOD9439456 Si02
#       6
#     8   8   4   8   8   8
#     4  12  20  41  68  96 128 175 221 265 337 401
#     4  10  23  40  68  97 134 178 218 269 336 397
#     4  10  22  40  66  94 128 174 218 270 326 392
#     4  12  25  40  68 100 135 173 225 281 326 398
#     4  12  25  42  69 101 132 175 223 278 331 393
#     4  12  24  44  69  99 130 177 228 276 332 396
#
# _framework density 25.810032
#
# number of rings (size 3 to 8) (size 9 to 14) (size 15 to 20)
#    0.545    0.000    6.364    2.182    5.091    0.000 
#    0.000    2.727    0.000    0.000    0.000    0.000 
#    0.000    0.000    0.000    0.000    0.000    0.000 
#
# Total GULP energy -245170.878432 kJ/mol
# GULP energy per Si atom -5572.065419 kJ/mol
# Density = 2.575129 g / cm^3
# Si number density = 25.810032 Si / 1000 Ang^3
#
#
#
# Elastic Constant Matrix: (Units=GPa)
#
#
# Indices 1 2 3 4 5 6 
#
# 1 106.2646 4.7034 52.8955 0.0000 0.0000 0.0000
# 2 4.7034 61.1493 14.2821 0.0000 0.0000 0.0000
# 3 52.8955 14.2821 178.9446 0.0000 0.0000 0.0000
# 4 0.0000 0.0000 0.0000 19.6411 0.0000 0.0000
# 5 0.0000 0.0000 0.0000 0.0000 25.8762 0.0000
# 6 0.0000 0.0000 0.0000 0.0000 0.0000 28.1291
#
#
#
# Elastic Compliance Matrix: (Units=1/GPa)
#
#
# Indices 1 2 3 4 5 6 
#
# 1 0.011034 -0.000089 -0.003255 0.000000 0.000000 0.000000
# 2 -0.000089 0.016665 -0.001304 0.000000 0.000000 0.000000
# 3 -0.003255 -0.001304 0.006654 0.000000 0.000000 0.000000
# 4 0.000000 0.000000 0.000000 0.050914 0.000000 0.000000
# 5 0.000000 0.000000 0.000000 0.000000 0.038645 0.000000
# 6 0.000000 0.000000 0.000000 0.000000 0.000000 0.035550
#
#
# Mechanical properties :
#
#
# Convention : Reuss Voigt Hill
#
# Bulk Modulus (GPa) = 39.90514 54.45784 47.18149
# Shear Modulus (GPa) = 28.23096 33.02780 30.62938
#
# Velocity S-wave (km/s) = 3.31085 3.58110 3.44862
# Velocity P-wave (km/s) = 5.48728 6.18420 5.84614
#
# Compressibility (1/GPa) = 0.02505943
#
# Stress axis : x y z
#
# Youngs Moduli (GPa) = 90.62500 60.00687 150.27501
#
# Poissons Ratio (x) = 0.00531 0.48910
# Poissons Ratio (y) = 0.00803 0.19594
# Poissons Ratio (z) = 0.29496 0.07824
#
# Static dielectric constant tensor:
#      x y z
#    x 2.074480 0.000000 0.000000 
#    y 0.000000 2.049360 0.000000 
#    z 0.000000 0.000000 2.018300 
# 
# From -- ./inp_files/20817.got.cif
#   From: 2010.05.17/outbox.cif.g08.bks.cpg/sg57_11_cif.got.tgz:20817.got - 2010.06.03 13:58:18.
