data_PCOD9439729
_publ_section_title
;
Structure prediction by ZEFSAII (Michael W. Deem and Ramdas Pophale) SiO2 
 PCOD9439729
Probable space group: P B C M
;
_chemical_formula_sum "Si O2"
_cell_formula_units_Z 64
_cell_length_a 11.078987
_cell_length_b 9.451730
_cell_length_c 29.360931
_cell_angle_alpha 90.000000
_cell_angle_beta 90.000000
_cell_angle_gamma 90.000000
_cell_volume 3074.547324
_symmetry_space_group_name_H-M "P B C M"
_symmetry_group_IT_number 57
_symmetry_cell_setting 'orthorhombic'
loop_
_space_group_symop_operation_xyz
x,y,z
-x,-y,1/2+z
x,1/2-y,-z
-x,1/2+y,1/2-z
-x,-y,-z
x,y,1/2-z
-x,1/2+y,z
x,1/2-y,1/2+z
loop_
_atom_site_type_symbol
_atom_site_label
_atom_site_fract_x
_atom_site_fract_y
_atom_site_fract_z
Si Si1 0.972997 0.059968 0.661825
Si Si2 0.044709 0.316288 0.601950
Si Si3 0.635803 0.798327 0.141323
Si Si4 0.595646 0.288311 0.301609
Si Si5 0.255819 0.437674 0.700172
Si Si6 0.231463 0.536930 0.303475
Si Si7 0.740917 0.832962 0.045487
Si Si8 0.890308 0.096523 0.022797
O O1 0.010678 0.213078 0.643577
O O2 0.866211 0.030335 0.696928
O O3 0.920540 0.971883 0.619033
O O4 0.095927 0.988554 0.679543
O O5 0.928264 0.354588 0.572870
O O6 0.139302 0.239373 0.568487
O O7 0.504959 0.760981 0.160774
O O8 0.725266 0.676880 0.160707
O O9 0.648120 0.821896 0.087456
O O10 0.681920 0.937505 0.167059
O O11 0.550385 0.257061 0.250000
O O12 0.635657 0.450882 0.302913
O O13 0.713968 0.192951 0.308787
O O14 0.257140 0.367109 0.750000
O O15 0.237495 0.500898 0.250000
O O16 0.779512 0.989120 0.029057
O O17 0.705628 0.750000 0.000000
O O18 0.870777 0.250000 0.000000
O O19 0.000000 0.000000 0.000000
#
# Coordination Sequence:
#
# PCOD9439729 Si02
#       8
#     8   8   8   8   8   8   8   8
#     4  12  22  36  58  97 137 168 201 258 326 398
#     4  12  20  35  56  87 131 169 207 249 319 395
#     4  12  23  41  64  91 124 169 224 276 320 380
#     4  10  23  42  66  96 127 171 226 268 309 380
#     4  11  23  39  64  96 130 173 216 259 321 389
#     4  11  22  39  63  93 132 172 210 264 326 387
#     4  12  24  40  60  92 124 168 220 278 335 390
#     4  12  20  34  60  88 125 168 212 270 330 392
#
# _framework density 20.816071000000001
#
# number of rings (size 3 to 8) (size 9 to 14) (size 15 to 20)
#    0.000    0.500    6.250    3.000    0.000    2.000 
#    0.000    3.750    0.000    3.000    0.000    0.000 
#    0.000    0.000    0.000    0.000    0.000    0.000 
#
# Total GULP energy -357212.597286 kJ/mol
# GULP energy per Si atom -5581.446833 kJ/mol
# Density = 2.076869 g / cm^3
# Si number density = 20.816071 Si / 1000 Ang^3
#
#
#
# Elastic Constant Matrix: (Units=GPa)
#
#
# Indices 1 2 3 4 5 6 
#
# 1 69.2543 15.0164 26.6690 0.0000 0.0000 0.0000
# 2 15.0164 98.4779 38.9506 0.0000 0.0000 0.0000
# 3 26.6690 38.9506 120.5034 0.0000 0.0000 0.0000
# 4 0.0000 0.0000 0.0000 30.8055 0.0000 0.0000
# 5 0.0000 0.0000 0.0000 0.0000 15.8605 0.0000
# 6 0.0000 0.0000 0.0000 0.0000 0.0000 16.4862
#
#
#
# Elastic Compliance Matrix: (Units=1/GPa)
#
#
# Indices 1 2 3 4 5 6 
#
# 1 0.015904 -0.001184 -0.003137 0.000000 0.000000 0.000000
# 2 -0.001184 0.011731 -0.003530 0.000000 0.000000 0.000000
# 3 -0.003137 -0.003530 0.010134 0.000000 0.000000 0.000000
# 4 0.000000 0.000000 0.000000 0.032462 0.000000 0.000000
# 5 0.000000 0.000000 0.000000 0.000000 0.063050 0.000000
# 6 0.000000 0.000000 0.000000 0.000000 0.000000 0.060657
#
#
# Mechanical properties :
#
#
# Convention : Reuss Voigt Hill
#
# Bulk Modulus (GPa) = 45.31666 49.94530 47.63098
# Shear Modulus (GPa) = 23.04195 26.47043 24.75619
#
# Velocity S-wave (km/s) = 3.33067 3.56987 3.45234
# Velocity P-wave (km/s) = 6.05049 6.40606 6.23081
#
# Compressibility (1/GPa) = 0.02206694
#
# Stress axis : x y z
#
# Youngs Moduli (GPa) = 62.87579 85.24200 98.68031
#
# Poissons Ratio (x) = 0.10096 0.30956
# Poissons Ratio (y) = 0.07447 0.34832
# Poissons Ratio (z) = 0.19724 0.30089
#
# Static dielectric constant tensor:
#      x y z
#    x 1.773510 0.000000 0.000000 
#    y 0.000000 1.750790 0.000000 
#    z 0.000000 0.000000 1.799030 
# 
# From -- ./inp_files/29755.got.cif
#   From: 2010.05.17/outbox.cif.g08.bks.cpg/sg57_15_cif.got.tgz:29755.got - 2010.06.03 13:58:18.
