data_PCOD9439285
_publ_section_title
;
Structure prediction by ZEFSAII (Michael W. Deem and Ramdas Pophale) SiO2 
 PCOD9439285
Probable space group: P B C M
;
_chemical_formula_sum "Si O2"
_cell_formula_units_Z 48
_cell_length_a 16.205804
_cell_length_b 18.547974
_cell_length_c 8.432576
_cell_angle_alpha 90.000000
_cell_angle_beta 90.000000
_cell_angle_gamma 90.000000
_cell_volume 2534.704434
_symmetry_space_group_name_H-M "P B C M"
_symmetry_group_IT_number 57
_symmetry_cell_setting 'orthorhombic'
loop_
_space_group_symop_operation_xyz
x,y,z
-x,-y,1/2+z
x,1/2-y,-z
-x,1/2+y,1/2-z
-x,-y,-z
x,y,1/2-z
-x,1/2+y,z
x,1/2-y,1/2+z
loop_
_atom_site_type_symbol
_atom_site_label
_atom_site_fract_x
_atom_site_fract_y
_atom_site_fract_z
Si Si1 0.676836 0.585272 0.443167
Si Si2 0.997593 0.581620 0.940290
Si Si3 0.677960 0.417595 0.441075
Si Si4 0.160470 0.668391 0.558183
Si Si5 0.160627 0.331345 0.559609
Si Si6 0.496635 0.917452 0.560117
O O1 0.678255 0.584769 0.250000
O O2 0.685549 0.501421 0.493592
O O3 0.753827 0.632442 0.497577
O O4 0.585818 0.613407 0.490608
O O5 0.996847 0.581636 0.750000
O O6 0.079599 0.624330 0.993810
O O7 0.000000 0.500000 0.000000
O O8 0.916547 0.621929 0.001714
O O9 0.678176 0.418510 0.250000
O O10 0.756039 0.371520 0.496308
O O11 0.589358 0.387377 0.495445
O O12 0.157158 0.750000 0.500000
O O13 0.161130 0.668259 0.750000
O O14 0.153385 0.250000 0.500000
O O15 0.160985 0.331572 0.750000
O O16 0.493357 0.917002 0.750000
O O17 0.500000 0.000000 0.500000
#
# Coordination Sequence:
#
# PCOD9439285 Si02
#       6
#     8   8   8   8   8   8
#     4   8  16  32  54  75 103 141 179 219 269 320
#     4  11  23  40  61  85 109 140 180 225 272 323
#     4   9  17  33  54  77 103 137 179 224 269 316
#     4  10  22  38  56  78 110 146 179 216 267 322
#     4  11  22  38  57  80 111 147 182 222 270 324
#     4   9  16  29  50  77 105 137 176 222 270 317
#
# _framework density 18.937118999999999
#
# number of rings (size 3 to 8) (size 9 to 14) (size 15 to 20)
#    0.000    2.333    0.000    4.000    0.000    6.000 
#    0.000   12.500    0.000    4.000    0.000    0.000 
#    0.000    0.000    0.000    0.000    0.000    0.000 
#
# Total GULP energy -267814.644256 kJ/mol
# GULP energy per Si atom -5579.471755 kJ/mol
# Density = 1.889402 g / cm^3
# Si number density = 18.937119 Si / 1000 Ang^3
#
#
#
# Elastic Constant Matrix: (Units=GPa)
#
#
# Indices 1 2 3 4 5 6 
#
# 1 223.7847 99.7018 31.2348 0.0000 0.0000 0.0000
# 2 99.7018 124.9373 19.7043 0.0000 0.0000 0.0000
# 3 31.2348 19.7043 27.4388 0.0000 0.0000 0.0000
# 4 0.0000 0.0000 0.0000 26.6558 0.0000 0.0000
# 5 0.0000 0.0000 0.0000 0.0000 29.6509 0.0000
# 6 0.0000 0.0000 0.0000 0.0000 0.0000 -10.4597
#
#
#
# Elastic Compliance Matrix: (Units=1/GPa)
#
#
# Indices 1 2 3 4 5 6 
#
# 1 0.007444 -0.005192 -0.004745 0.000000 0.000000 0.000000
# 2 -0.005192 0.012648 -0.003172 0.000000 0.000000 0.000000
# 3 -0.004745 -0.003172 0.044125 0.000000 0.000000 0.000000
# 4 0.000000 0.000000 0.000000 0.037515 0.000000 0.000000
# 5 0.000000 0.000000 0.000000 0.000000 0.033726 0.000000
# 6 0.000000 0.000000 0.000000 0.000000 0.000000 -0.095605
#
#
# Mechanical properties :
#
#
# Convention : Reuss Voigt Hill
#
# Bulk Modulus (GPa) = 26.31776 75.27138 50.79457
# Shear Modulus (GPa) = 63.50204 24.20407 43.85306
#
# Velocity S-wave (km/s) = 5.79706 3.57897 4.81741
# Velocity P-wave (km/s) = 7.66391 7.54407 7.60423
#
# Compressibility (1/GPa) = 0.03799715
#
# Stress axis : x y z
#
# Youngs Moduli (GPa) = 134.33380 79.06589 22.66304
#
# Poissons Ratio (x) = 0.41052 0.10755
# Poissons Ratio (y) = 0.69748 0.07189
# Poissons Ratio (z) = 0.63747 0.25081
#
# Static dielectric constant tensor:
#      x y z
#    x 1.684820 0.000000 0.000000 
#    y 0.000000 1.609140 0.000000 
#    z 0.000000 0.000000 1.656040 
# 
# From -- ./inp_files/4641.got.cif
#   From: 2010.05.17/outbox.cif.g08.bks.cpg/sg57_3_cif.got.tgz:4641.got - 2010.06.03 13:58:18.
