data_PCOD9439501
_publ_section_title
;
Structure prediction by ZEFSAII (Michael W. Deem and Ramdas Pophale) SiO2 
 PCOD9439501
Probable space group: P B C M
;
_chemical_formula_sum "Si O2"
_cell_formula_units_Z 48
_cell_length_a 11.481575
_cell_length_b 8.893655
_cell_length_c 23.917866
_cell_angle_alpha 90.000000
_cell_angle_beta 90.000000
_cell_angle_gamma 90.000000
_cell_volume 2442.329043
_symmetry_space_group_name_H-M "P B C M"
_symmetry_group_IT_number 57
_symmetry_cell_setting 'orthorhombic'
loop_
_space_group_symop_operation_xyz
x,y,z
-x,-y,1/2+z
x,1/2-y,-z
-x,1/2+y,1/2-z
-x,-y,-z
x,y,1/2-z
-x,1/2+y,z
x,1/2-y,1/2+z
loop_
_atom_site_type_symbol
_atom_site_label
_atom_site_fract_x
_atom_site_fract_y
_atom_site_fract_z
Si Si1 0.252858 0.966354 0.392027
Si Si2 0.127225 0.069768 0.497836
Si Si3 0.094340 0.374528 0.683545
Si Si4 0.853606 0.532292 0.817727
Si Si5 0.718395 0.118793 0.410856
Si Si6 0.460942 0.378314 0.544054
O O1 0.239999 0.789307 0.401970
O O2 0.165923 0.038899 0.435460
O O3 0.201249 0.018053 0.333252
O O4 0.372738 0.046401 0.411751
O O5 0.127286 0.250000 0.500000
O O6 0.214202 0.977926 0.540567
O O7 0.000000 0.000000 0.500000
O O8 0.085882 0.369945 0.750000
O O9 0.120857 0.204439 0.665425
O O10 0.968713 0.437723 0.665067
O O11 0.837723 0.523135 0.750000
O O12 0.745842 0.470449 0.853744
O O13 0.583085 0.151521 0.425084
O O14 0.415770 0.250000 0.500000
O O15 0.500000 0.500000 0.500000
#
# Coordination Sequence:
#
# PCOD9439501 Si02
#       6
#     8   8   8   8   8   8
#     4  12  24  39  63  90 123 161 206 257 308 375
#     4  12  24  38  58  86 123 158 199 252 308 372
#     4  10  22  41  65  93 125 164 207 256 315 375
#     4  10  22  41  65  92 125 163 207 257 314 377
#     4  12  24  40  62  91 122 161 208 254 313 371
#     4  12  24  43  64  90 124 168 209 253 307 373
#
# _framework density 19.653372000000001
#
# number of rings (size 3 to 8) (size 9 to 14) (size 15 to 20)
#    0.000    0.667    3.333    5.000    2.333    2.000 
#    0.000    0.833    0.000    0.000    0.000    0.000 
#    0.000    0.000    0.000    0.000    0.000    0.000 
#
# Total GULP energy -267518.314838 kJ/mol
# GULP energy per Si atom -5573.298226 kJ/mol
# Density = 1.960864 g / cm^3
# Si number density = 19.653372 Si / 1000 Ang^3
#
#
#
# Elastic Constant Matrix: (Units=GPa)
#
#
# Indices 1 2 3 4 5 6 
#
# 1 75.8178 11.1253 1.7630 0.0000 0.0000 0.0000
# 2 11.1253 134.1457 5.7934 0.0000 0.0000 0.0000
# 3 1.7630 5.7934 18.8318 0.0000 0.0000 0.0000
# 4 0.0000 0.0000 0.0000 34.7220 0.0000 0.0000
# 5 0.0000 0.0000 0.0000 0.0000 15.8443 0.0000
# 6 0.0000 0.0000 0.0000 0.0000 0.0000 27.5512
#
#
#
# Elastic Compliance Matrix: (Units=1/GPa)
#
#
# Indices 1 2 3 4 5 6 
#
# 1 0.013368 -0.001069 -0.000923 0.000000 0.000000 0.000000
# 2 -0.001069 0.007640 -0.002250 0.000000 0.000000 0.000000
# 3 -0.000923 -0.002250 0.053880 0.000000 0.000000 0.000000
# 4 0.000000 0.000000 0.000000 0.028800 0.000000 0.000000
# 5 0.000000 0.000000 0.000000 0.000000 0.063114 0.000000
# 6 0.000000 0.000000 0.000000 0.000000 0.000000 0.036296
#
#
# Mechanical properties :
#
#
# Convention : Reuss Voigt Hill
#
# Bulk Modulus (GPa) = 15.05920 29.57322 22.31621
# Shear Modulus (GPa) = 21.39335 29.63108 25.51222
#
# Velocity S-wave (km/s) = 3.30287 3.88710 3.60684
# Velocity P-wave (km/s) = 4.71427 5.93516 5.35959
#
# Compressibility (1/GPa) = 0.06640459
#
# Stress axis : x y z
#
# Youngs Moduli (GPa) = 74.80664 130.88300 18.55968
#
# Poissons Ratio (x) = 0.13989 0.01712
# Poissons Ratio (y) = 0.07995 0.04177
# Poissons Ratio (z) = 0.06902 0.29454
#
# Static dielectric constant tensor:
#      x y z
#    x 1.694170 0.000000 0.000000 
#    y 0.000000 1.664580 0.000000 
#    z 0.000000 0.000000 1.644080 
# 
# From -- ./inp_files/27084.got.cif
#   From: 2010.05.17/outbox.cif.g08.bks.cpg/sg57_14_cif.got.tgz:27084.got - 2010.06.03 13:58:18.
