data_PCOD9439653
_publ_section_title
;
Structure prediction by ZEFSAII (Michael W. Deem and Ramdas Pophale) SiO2 
 PCOD9439653
Probable space group: P B C M
;
_chemical_formula_sum "Si O2"
_cell_formula_units_Z 64
_cell_length_a 10.313600
_cell_length_b 14.210473
_cell_length_c 20.601383
_cell_angle_alpha 90.000000
_cell_angle_beta 90.000000
_cell_angle_gamma 90.000000
_cell_volume 3019.362061
_symmetry_space_group_name_H-M "P B C M"
_symmetry_group_IT_number 57
_symmetry_cell_setting 'orthorhombic'
loop_
_space_group_symop_operation_xyz
x,y,z
-x,-y,1/2+z
x,1/2-y,-z
-x,1/2+y,1/2-z
-x,-y,-z
x,y,1/2-z
-x,1/2+y,z
x,1/2-y,1/2+z
loop_
_atom_site_type_symbol
_atom_site_label
_atom_site_fract_x
_atom_site_fract_y
_atom_site_fract_z
Si Si1 0.336576 0.822044 0.678334
Si Si2 0.575348 0.668482 0.553884
Si Si3 0.012905 0.706100 0.934487
Si Si4 0.181584 0.454636 0.620115
Si Si5 0.913367 0.397946 0.870955
Si Si6 0.822644 0.550073 0.535266
Si Si7 0.707547 0.355293 0.413040
Si Si8 0.619750 0.803869 0.826618
O O1 0.336243 0.780347 0.750000
O O2 0.215051 0.890843 0.672053
O O3 0.315075 0.737814 0.628758
O O4 0.481830 0.859410 0.667529
O O5 0.598277 0.750000 0.500000
O O6 0.675661 0.583983 0.544387
O O7 0.425943 0.635042 0.547756
O O8 0.602496 0.715537 0.624572
O O9 0.032814 0.792230 0.885056
O O10 0.156306 0.665924 0.947676
O O11 0.913342 0.621836 0.923477
O O12 0.958587 0.750000 0.000000
O O13 0.154829 0.445575 0.542276
O O14 0.261424 0.550925 0.627444
O O15 0.266066 0.368742 0.646418
O O16 0.040117 0.453291 0.652678
O O17 0.859249 0.449462 0.935304
O O18 0.638572 0.781244 0.750000
#
# Coordination Sequence:
#
# PCOD9439653 Si02
#       8
#     8   8   8   8   8   8   8   8
#     4   9  22  46  65  84 121 172 219 264 323 390
#     4  11  22  42  63  95 133 172 218 271 325 385
#     4  11  19  37  59  85 125 175 199 254 331 382
#     4  12  22  39  61  99 129 166 210 270 328 387
#     4  11  23  37  64  92 127 165 215 264 322 386
#     4  12  23  38  61  98 137 163 210 272 329 387
#     4  10  23  36  62  94 126 166 214 272 321 386
#     4  10  23  43  67  91 125 172 219 265 325 391
#
# _framework density 21.196531
#
# number of rings (size 3 to 8) (size 9 to 14) (size 15 to 20)
#    0.000    1.250    3.750    2.625    1.750    3.500 
#    0.000    0.625    0.000    0.000    0.000    0.000 
#    0.000    0.000    0.000    0.000    0.000    0.000 
#
# Total GULP energy -356946.007787 kJ/mol
# GULP energy per Si atom -5577.281372 kJ/mol
# Density = 2.114829 g / cm^3
# Si number density = 21.196531 Si / 1000 Ang^3
#
#
#
# Elastic Constant Matrix: (Units=GPa)
#
#
# Indices 1 2 3 4 5 6 
#
# 1 137.7881 25.9504 9.2581 0.0000 0.0000 0.0000
# 2 25.9504 44.4286 5.1196 0.0000 0.0000 0.0000
# 3 9.2581 5.1196 51.9163 0.0000 0.0000 0.0000
# 4 0.0000 0.0000 0.0000 11.7587 0.0000 0.0000
# 5 0.0000 0.0000 0.0000 0.0000 31.7825 0.0000
# 6 0.0000 0.0000 0.0000 0.0000 0.0000 15.0470
#
#
#
# Elastic Compliance Matrix: (Units=1/GPa)
#
#
# Indices 1 2 3 4 5 6 
#
# 1 0.008206 -0.004677 -0.001002 0.000000 0.000000 0.000000
# 2 -0.004677 0.025433 -0.001674 0.000000 0.000000 0.000000
# 3 -0.001002 -0.001674 0.019606 0.000000 0.000000 0.000000
# 4 0.000000 0.000000 0.000000 0.085043 0.000000 0.000000
# 5 0.000000 0.000000 0.000000 0.000000 0.031464 0.000000
# 6 0.000000 0.000000 0.000000 0.000000 0.000000 0.066458
#
#
# Mechanical properties :
#
#
# Convention : Reuss Voigt Hill
#
# Bulk Modulus (GPa) = 25.94881 34.97661 30.46271
# Shear Modulus (GPa) = 18.95647 24.63799 21.79723
#
# Velocity S-wave (km/s) = 2.99376 3.41304 3.21025
# Velocity P-wave (km/s) = 4.92125 5.66292 5.30507
#
# Compressibility (1/GPa) = 0.03853741
#
# Stress axis : x y z
#
# Youngs Moduli (GPa) = 121.86529 39.31904 51.00604
#
# Poissons Ratio (x) = 0.18391 0.05111
# Poissons Ratio (y) = 0.57002 0.08538
# Poissons Ratio (z) = 0.12212 0.06582
#
# Static dielectric constant tensor:
#      x y z
#    x 1.806620 0.000000 0.000000 
#    y 0.000000 1.833000 0.000000 
#    z 0.000000 0.000000 9.042360 
# 
# From -- ./inp_files/26887.got.cif
#   From: 2010.05.17/outbox.cif.g08.bks.cpg/sg57_14_cif.got.tgz:26887.got - 2010.06.03 13:58:18.
