data_PCOD9439062
_publ_section_title
;
Structure prediction by ZEFSAII (Michael W. Deem and Ramdas Pophale) SiO2 
 PCOD9439062
Probable space group: P B C M
;
_chemical_formula_sum "Si O2"
_cell_formula_units_Z 48
_cell_length_a 15.451923
_cell_length_b 9.299723
_cell_length_c 15.657108
_cell_angle_alpha 90.000000
_cell_angle_beta 90.000000
_cell_angle_gamma 90.000000
_cell_volume 2249.904558
_symmetry_space_group_name_H-M "P B C M"
_symmetry_group_IT_number 57
_symmetry_cell_setting 'orthorhombic'
loop_
_space_group_symop_operation_xyz
x,y,z
-x,-y,1/2+z
x,1/2-y,-z
-x,1/2+y,1/2-z
-x,-y,-z
x,y,1/2-z
-x,1/2+y,z
x,1/2-y,1/2+z
loop_
_atom_site_type_symbol
_atom_site_label
_atom_site_fract_x
_atom_site_fract_y
_atom_site_fract_z
Si Si1 0.904158 0.836162 0.653312
Si Si2 0.428037 0.588661 0.894222
Si Si3 0.593977 0.415330 0.900031
Si Si4 0.215698 0.868968 0.852965
Si Si5 0.046064 0.029039 0.910496
Si Si6 0.759478 0.460904 0.350369
O O1 0.884340 0.787474 0.750000
O O2 0.820558 0.914851 0.613011
O O3 0.978122 0.957523 0.654580
O O4 0.938219 0.696925 0.604605
O O5 0.518646 0.519604 0.868367
O O6 0.424253 0.754429 0.867290
O O7 0.342223 0.511417 0.860085
O O8 0.416546 0.585260 0.997144
O O9 0.692981 0.444219 0.875430
O O10 0.204428 0.871375 0.750000
O O11 0.222239 0.701451 0.882599
O O12 0.136349 0.947092 0.897929
O O13 0.000000 0.000000 0.000000
O O14 0.780817 0.456424 0.250000
#
# Coordination Sequence:
#
# PCOD9439062 Si02
#       6
#     8   8   8   8   8   8
#     4  11  23  42  64  88 122 164 203 254 317 377
#     4   9  18  35  55  86 123 160 204 256 306 367
#     4   9  19  34  57  83 118 163 203 250 315 367
#     4  10  21  40  62  87 122 165 210 260 318 383
#     4  12  26  42  62  92 123 158 208 263 315 376
#     4   9  20  37  62  89 121 163 207 256 310 369
#
# _framework density 21.334239
#
# number of rings (size 3 to 8) (size 9 to 14) (size 15 to 20)
#    0.000    2.000    0.000    3.000    2.333    3.333 
#    3.000    0.000    0.000    0.000    0.000    0.000 
#    0.000    0.000    0.000    0.000    0.000    0.000 
#
# Total GULP energy -268169.036675 kJ/mol
# GULP energy per Si atom -5586.854931 kJ/mol
# Density = 2.128568 g / cm^3
# Si number density = 21.334239 Si / 1000 Ang^3
#
#
#
# Elastic Constant Matrix: (Units=GPa)
#
#
# Indices 1 2 3 4 5 6 
#
# 1 161.8365 53.5671 26.2130 0.0000 0.0000 0.0000
# 2 53.5671 72.1711 20.4701 0.0000 0.0000 0.0000
# 3 26.2130 20.4701 60.1333 0.0000 0.0000 0.0000
# 4 0.0000 0.0000 0.0000 13.6923 0.0000 0.0000
# 5 0.0000 0.0000 0.0000 0.0000 13.8951 0.0000
# 6 0.0000 0.0000 0.0000 0.0000 0.0000 47.1218
#
#
#
# Elastic Compliance Matrix: (Units=1/GPa)
#
#
# Indices 1 2 3 4 5 6 
#
# 1 0.008344 -0.005713 -0.001693 0.000000 0.000000 0.000000
# 2 -0.005713 0.019249 -0.004062 0.000000 0.000000 0.000000
# 3 -0.001693 -0.004062 0.018750 0.000000 0.000000 0.000000
# 4 0.000000 0.000000 0.000000 0.073034 0.000000 0.000000
# 5 0.000000 0.000000 0.000000 0.000000 0.071968 0.000000
# 6 0.000000 0.000000 0.000000 0.000000 0.000000 0.021222
#
#
# Mechanical properties :
#
#
# Convention : Reuss Voigt Hill
#
# Bulk Modulus (GPa) = 42.72114 54.96014 48.84064
# Shear Modulus (GPa) = 20.55043 27.86790 24.20916
#
# Velocity S-wave (km/s) = 3.10701 3.61813 3.37227
# Velocity P-wave (km/s) = 5.73930 6.57814 6.17298
#
# Compressibility (1/GPa) = 0.02340762
#
# Stress axis : x y z
#
# Youngs Moduli (GPa) = 119.84251 51.95179 53.33260
#
# Poissons Ratio (x) = 0.29681 0.09027
# Poissons Ratio (y) = 0.68469 0.21664
# Poissons Ratio (z) = 0.20284 0.21103
#
# Static dielectric constant tensor:
#      x y z
#    x 1.762080 0.000000 0.000000 
#    y 0.000000 1.758110 0.000000 
#    z 0.000000 0.000000 1.771000 
# 
# From -- ./inp_files/18423.got.cif
#   From: 2010.05.17/outbox.cif.g08.bks.cpg/sg57_10_cif.got.tgz:18423.got - 2010.06.03 13:58:18.
