data_PCOD9439059
_publ_section_title
;
Structure prediction by ZEFSAII (Michael W. Deem and Ramdas Pophale) SiO2 
 PCOD9439059
Probable space group: P B C M
;
_chemical_formula_sum "Si O2"
_cell_formula_units_Z 64
_cell_length_a 16.915914
_cell_length_b 10.996710
_cell_length_c 17.169462
_cell_angle_alpha 90.000000
_cell_angle_beta 90.000000
_cell_angle_gamma 90.000000
_cell_volume 3193.853031
_symmetry_space_group_name_H-M "P B C M"
_symmetry_group_IT_number 57
_symmetry_cell_setting 'orthorhombic'
loop_
_space_group_symop_operation_xyz
x,y,z
-x,-y,1/2+z
x,1/2-y,-z
-x,1/2+y,1/2-z
-x,-y,-z
x,y,1/2-z
-x,1/2+y,z
x,1/2-y,1/2+z
loop_
_atom_site_type_symbol
_atom_site_label
_atom_site_fract_x
_atom_site_fract_y
_atom_site_fract_z
Si Si1 0.420041 0.631748 0.556572
Si Si2 0.164861 0.904094 0.880325
Si Si3 0.038277 0.719470 0.836611
Si Si4 0.398613 0.116735 0.539284
Si Si5 0.261946 0.369778 0.163502
Si Si6 0.726845 0.174130 0.657672
Si Si7 0.869406 0.821641 0.660871
Si Si8 0.859504 0.047301 0.562218
O O1 0.411717 0.750000 0.500000
O O2 0.396364 0.503034 0.516038
O O3 0.512951 0.618989 0.575139
O O4 0.362132 0.659350 0.627979
O O5 0.084143 0.847860 0.846410
O O6 0.232478 0.801990 0.866356
O O7 0.196625 0.024633 0.840759
O O8 0.153636 0.930522 0.971688
O O9 0.059223 0.672304 0.750000
O O10 0.074026 0.636708 0.903816
O O11 0.945028 0.733783 0.841307
O O12 0.388782 0.250000 0.500000
O O13 0.329261 0.105003 0.601442
O O14 0.296296 0.365413 0.250000
O O15 0.212895 0.247205 0.149106
O O16 0.733519 0.159433 0.750000
O O17 0.780049 0.078838 0.610038
O O18 0.869222 0.873665 0.750000
O O19 0.881828 0.914560 0.590899
#
# Coordination Sequence:
#
# PCOD9439059 Si02
#       8
#     8   8   8   8   8   8   8   8
#     4  10  21  41  66  93 126 165 211 253 310 375
#     4  11  23  39  62  90 121 157 203 260 310 372
#     4  10  21  40  62  84 117 158 203 256 312 360
#     4  10  23  41  64  94 129 167 203 256 316 375
#     4  11  24  41  61  89 125 164 204 247 313 379
#     4  11  21  36  64  94 121 157 207 257 308 365
#     4  10  24  40  59  85 118 163 207 252 310 378
#     4  11  22  39  59  88 121 157 204 256 310 368
#
# _framework density 20.038492000000002
#
# number of rings (size 3 to 8) (size 9 to 14) (size 15 to 20)
#    0.000    1.500    0.000    6.750    5.250    1.000 
#    2.250    0.000    0.000    4.500    0.000    0.000 
#    0.000    0.000    0.000    0.000    0.000    0.000 
#
# Total GULP energy -357493.164659 kJ/mol
# GULP energy per Si atom -5585.830698 kJ/mol
# Density = 1.999288 g / cm^3
# Si number density = 20.038492 Si / 1000 Ang^3
#
#
#
# Elastic Constant Matrix: (Units=GPa)
#
#
# Indices 1 2 3 4 5 6 
#
# 1 66.3790 10.9417 37.7376 0.0000 0.0000 0.0000
# 2 10.9417 58.4634 4.0244 0.0000 0.0000 0.0000
# 3 37.7376 4.0244 93.2749 0.0000 0.0000 0.0000
# 4 0.0000 0.0000 0.0000 177.8019 0.0000 0.0000
# 5 0.0000 0.0000 0.0000 0.0000 34.0642 0.0000
# 6 0.0000 0.0000 0.0000 0.0000 0.0000 6.8494
#
#
#
# Elastic Compliance Matrix: (Units=1/GPa)
#
#
# Indices 1 2 3 4 5 6 
#
# 1 0.020152 -0.003220 -0.008014 0.000000 0.000000 0.000000
# 2 -0.003220 0.017670 0.000540 0.000000 0.000000 0.000000
# 3 -0.008014 0.000540 0.013940 0.000000 0.000000 0.000000
# 4 0.000000 0.000000 0.000000 0.005624 0.000000 0.000000
# 5 0.000000 0.000000 0.000000 0.000000 0.029356 0.000000
# 6 0.000000 0.000000 0.000000 0.000000 0.000000 0.145998
#
#
# Mechanical properties :
#
#
# Convention : Reuss Voigt Hill
#
# Bulk Modulus (GPa) = 32.92221 35.94720 34.43471
# Shear Modulus (GPa) = 18.92124 54.77069 36.84597
#
# Velocity S-wave (km/s) = 3.07619 5.23374 4.29273
# Velocity P-wave (km/s) = 5.39281 7.38247 6.46464
#
# Compressibility (1/GPa) = 0.03037463
#
# Stress axis : x y z
#
# Youngs Moduli (GPa) = 49.62283 56.59268 71.73528
#
# Poissons Ratio (x) = 0.18222 0.57491
# Poissons Ratio (y) = 0.15978 -0.03876
# Poissons Ratio (z) = 0.39769 -0.03058
#
# Static dielectric constant tensor:
#      x y z
#    x 1.688930 0.000000 0.000000 
#    y 0.000000 1.765450 0.000000 
#    z 0.000000 0.000000 1.683460 
# 
# From -- ./inp_files/19152.got.cif
#   From: 2010.05.17/outbox.cif.g08.bks.cpg/sg57_10_cif.got.tgz:19152.got - 2010.06.03 13:58:18.
