data_PCOD9439958
_publ_section_title
;
Structure prediction by ZEFSAII (Michael W. Deem and Ramdas Pophale) SiO2 
 PCOD9439958
Probable space group: P B C M
;
_chemical_formula_sum "Si O2"
_cell_formula_units_Z 52
_cell_length_a 11.582516
_cell_length_b 8.252172
_cell_length_c 29.321715
_cell_angle_alpha 90.000000
_cell_angle_beta 90.000000
_cell_angle_gamma 90.000000
_cell_volume 2802.596326
_symmetry_space_group_name_H-M "P B C M"
_symmetry_group_IT_number 57
_symmetry_cell_setting 'orthorhombic'
loop_
_space_group_symop_operation_xyz
x,y,z
-x,-y,1/2+z
x,1/2-y,-z
-x,1/2+y,1/2-z
-x,-y,-z
x,y,1/2-z
-x,1/2+y,z
x,1/2-y,1/2+z
loop_
_atom_site_type_symbol
_atom_site_label
_atom_site_fract_x
_atom_site_fract_y
_atom_site_fract_z
Si Si1 0.974041 0.673927 0.304188
Si Si2 0.177100 0.026683 0.805712
Si Si3 0.600323 0.211054 0.871779
Si Si4 0.562302 0.491209 0.934111
Si Si5 0.605222 0.785697 0.198578
Si Si6 0.759000 0.041657 0.698908
Si Si7 0.574943 0.750000 0.500000
O O1 0.983312 0.704419 0.250000
O O2 0.900275 0.822370 0.323170
O O3 0.889833 0.517710 0.308260
O O4 0.102327 0.628588 0.320211
O O5 0.176404 0.029118 0.750000
O O6 0.309328 0.068744 0.816618
O O7 0.629213 0.371502 0.900365
O O8 0.498354 0.243967 0.835503
O O9 0.540272 0.080804 0.905987
O O10 0.704064 0.141393 0.842005
O O11 0.503093 0.369005 0.969749
O O12 0.631185 0.628976 0.962601
O O13 0.563046 0.820468 0.250000
O O14 0.683845 0.624909 0.200460
O O15 0.749486 0.116268 0.750000
#
# Coordination Sequence:
#
# PCOD9439958 Si02
#       7
#     8   8   8   8   8   8   4
#     4   8  14  26  41  54  71 106 155 196 221 237
#     4   8  14  26  41  54  71 106 155 196 221 237
#     4  11  17  29  41  66  88 122 145 173 207 257
#     4   9  18  28  49  62  86 108 141 172 216 263
#     4   9  17  28  40  56  88 128 157 180 208 242
#     4   9  17  28  40  56  88 128 157 180 208 242
#     4   8  16  34  46  66  78 110 136 170 224 268
#
# _framework density 18.554224000000001
#
# number of rings (size 3 to 8) (size 9 to 14) (size 15 to 20)
#    0.000    3.077    1.538    2.308    0.000    0.000 
#    2.769    0.000    0.000    0.000    0.000    0.000 
#    0.000    0.000    0.000   96.923    0.000    0.000 
#
# Total GULP energy -289626.382578 kJ/mol
# GULP energy per Si atom -5569.738126 kJ/mol
# Density = 1.851199 g / cm^3
# Si number density = 18.554224 Si / 1000 Ang^3
#
#
#
# Elastic Constant Matrix: (Units=GPa)
#
#
# Indices 1 2 3 4 5 6 
#
# 1 48.0342 7.2899 15.1995 0.0000 0.0000 0.0000
# 2 7.2899 61.4706 33.9745 0.0000 0.0000 0.0000
# 3 15.1995 33.9745 76.8246 0.0000 0.0000 0.0000
# 4 0.0000 0.0000 0.0000 40.5231 0.0000 0.0000
# 5 0.0000 0.0000 0.0000 0.0000 18.3916 0.0000
# 6 0.0000 0.0000 0.0000 0.0000 0.0000 30.5373
#
#
#
# Elastic Compliance Matrix: (Units=1/GPa)
#
#
# Indices 1 2 3 4 5 6 
#
# 1 0.022212 -0.000272 -0.004274 0.000000 0.000000 0.000000
# 2 -0.000272 0.021534 -0.009469 0.000000 0.000000 0.000000
# 3 -0.004274 -0.009469 0.018050 0.000000 0.000000 0.000000
# 4 0.000000 0.000000 0.000000 0.024677 0.000000 0.000000
# 5 0.000000 0.000000 0.000000 0.000000 0.054373 0.000000
# 6 0.000000 0.000000 0.000000 0.000000 0.000000 0.032747
#
#
# Mechanical properties :
#
#
# Convention : Reuss Voigt Hill
#
# Bulk Modulus (GPa) = 29.61626 33.25080 31.43353
# Shear Modulus (GPa) = 23.48755 26.54810 25.01783
#
# Velocity S-wave (km/s) = 3.56179 3.78675 3.67599
# Velocity P-wave (km/s) = 5.73688 6.08926 5.91569
#
# Compressibility (1/GPa) = 0.03376524
#
# Stress axis : x y z
#
# Youngs Moduli (GPa) = 45.02006 46.43868 55.40169
#
# Poissons Ratio (x) = 0.01262 0.23681
# Poissons Ratio (y) = 0.01223 0.52461
# Poissons Ratio (z) = 0.19244 0.43974
#
# Static dielectric constant tensor:
#      x y z
#    x 1.631900 0.000000 0.000000 
#    y 0.000000 1.772770 0.000000 
#    z 0.000000 0.000000 1.648120 
# 
# From -- ./inp_files/29703.got.cif
#   From: 2010.05.17/outbox.cif.g08.bks.cpg/sg57_15_cif.got.tgz:29703.got - 2010.06.03 13:58:18.
