data_PCOD9439413
_publ_section_title
;
Structure prediction by ZEFSAII (Michael W. Deem and Ramdas Pophale) SiO2 
 PCOD9439413
Probable space group: P B C M
;
_chemical_formula_sum "Si O2"
_cell_formula_units_Z 48
_cell_length_a 9.973133
_cell_length_b 29.453150
_cell_length_c 8.909198
_cell_angle_alpha 90.000000
_cell_angle_beta 90.000000
_cell_angle_gamma 90.000000
_cell_volume 2616.989444
_symmetry_space_group_name_H-M "P B C M"
_symmetry_group_IT_number 57
_symmetry_cell_setting 'orthorhombic'
loop_
_space_group_symop_operation_xyz
x,y,z
-x,-y,1/2+z
x,1/2-y,-z
-x,1/2+y,1/2-z
-x,-y,-z
x,y,1/2-z
-x,1/2+y,z
x,1/2-y,1/2+z
loop_
_atom_site_type_symbol
_atom_site_label
_atom_site_fract_x
_atom_site_fract_y
_atom_site_fract_z
Si Si1 0.764511 0.799105 0.429666
Si Si2 0.479937 0.700304 0.069638
Si Si3 0.891259 0.967377 0.925454
Si Si4 0.274412 0.880556 0.570195
Si Si5 0.979285 0.623830 0.571143
Si Si6 0.376903 0.973845 0.425791
O O1 0.792239 0.750000 0.500000
O O2 0.747634 0.795669 0.250000
O O3 0.623705 0.814593 0.502402
O O4 0.887020 0.832729 0.461311
O O5 0.490385 0.704371 0.250000
O O6 0.367182 0.662973 0.033937
O O7 0.450606 0.750000 0.000000
O O8 0.922284 0.960713 0.750000
O O9 0.750302 0.992750 0.937955
O O10 0.900635 0.919749 0.009138
O O11 0.000000 0.000000 0.000000
O O12 0.266411 0.884493 0.750000
O O13 0.339997 0.926368 0.504436
O O14 0.125538 0.874852 0.503681
O O15 0.996551 0.619712 0.750000
O O16 0.402909 0.965378 0.250000
O O17 0.500000 0.000000 0.500000
#
# Coordination Sequence:
#
# PCOD9439413 Si02
#       6
#     8   8   8   8   8   8
#     4  10  22  40  63  91 121 156 199 246 299 358
#     4  10  22  40  63  90 120 156 199 245 300 359
#     4  11  23  40  63  89 121 161 202 245 298 355
#     4  11  24  41  62  90 122 159 203 249 301 358
#     4  11  24  40  61  91 122 159 203 247 301 359
#     4  11  25  42  62  90 123 160 203 249 300 357
#
# _framework density 18.341685999999999
#
# number of rings (size 3 to 8) (size 9 to 14) (size 15 to 20)
#    0.000    1.333    1.667    4.000    2.333    8.000 
#    0.000    3.333    0.000    0.000    0.000    0.000 
#    0.000    0.000    0.000    0.000    0.000    0.000 
#
# Total GULP energy -268304.731995 kJ/mol
# GULP energy per Si atom -5589.681917 kJ/mol
# Density = 1.829994 g / cm^3
# Si number density = 18.341686 Si / 1000 Ang^3
#
#
#
# Elastic Constant Matrix: (Units=GPa)
#
#
# Indices 1 2 3 4 5 6 
#
# 1 92.9644 74.3228 74.2042 0.0000 0.0000 0.0000
# 2 74.3228 117.4330 69.9941 0.0000 0.0000 0.0000
# 3 74.2042 69.9941 106.0233 0.0000 0.0000 0.0000
# 4 0.0000 0.0000 0.0000 27.0086 0.0000 0.0000
# 5 0.0000 0.0000 0.0000 0.0000 32.0799 0.0000
# 6 0.0000 0.0000 0.0000 0.0000 0.0000 32.9327
#
#
#
# Elastic Compliance Matrix: (Units=1/GPa)
#
#
# Indices 1 2 3 4 5 6 
#
# 1 0.031232 -0.011110 -0.014525 0.000000 0.000000 0.000000
# 2 -0.011110 0.017992 -0.004102 0.000000 0.000000 0.000000
# 3 -0.014525 -0.004102 0.022306 0.000000 0.000000 0.000000
# 4 0.000000 0.000000 0.000000 0.037025 0.000000 0.000000
# 5 0.000000 0.000000 0.000000 0.000000 0.031172 0.000000
# 6 0.000000 0.000000 0.000000 0.000000 0.000000 0.030365
#
#
# Mechanical properties :
#
#
# Convention : Reuss Voigt Hill
#
# Bulk Modulus (GPa) = 82.94207 83.71810 83.33008
# Shear Modulus (GPa) = 21.40551 24.93088 23.16819
#
# Velocity S-wave (km/s) = 3.41990 3.69080 3.55793
# Velocity P-wave (km/s) = 7.80468 7.99408 7.89995
#
# Compressibility (1/GPa) = 0.01205661
#
# Stress axis : x y z
#
# Youngs Moduli (GPa) = 32.01810 55.58075 44.83114
#
# Poissons Ratio (x) = 0.61748 0.65116
# Poissons Ratio (y) = 0.35571 0.18392
# Poissons Ratio (z) = 0.46506 0.22801
#
# Static dielectric constant tensor:
#      x y z
#    x 1.603710 0.000000 0.000000 
#    y 0.000000 1.608300 0.000000 
#    z 0.000000 0.000000 1.617630 
# 
# From -- ./inp_files/2127.got.cif
#   From: 2010.05.17/outbox.cif.g08.bks.cpg/sg57_2_cif.got.tgz:2127.got - 2010.06.03 13:58:18.
