data_PCOD9439189
_publ_section_title
;
Structure prediction by ZEFSAII (Michael W. Deem and Ramdas Pophale) SiO2 
 PCOD9439189
Probable space group: P B C M
;
_chemical_formula_sum "Si O2"
_cell_formula_units_Z 56
_cell_length_a 14.720570
_cell_length_b 9.276194
_cell_length_c 20.600032
_cell_angle_alpha 90.000000
_cell_angle_beta 90.000000
_cell_angle_gamma 90.000000
_cell_volume 2812.952150
_symmetry_space_group_name_H-M "P B C M"
_symmetry_group_IT_number 57
_symmetry_cell_setting 'orthorhombic'
loop_
_space_group_symop_operation_xyz
x,y,z
-x,-y,1/2+z
x,1/2-y,-z
-x,1/2+y,1/2-z
-x,-y,-z
x,y,1/2-z
-x,1/2+y,z
x,1/2-y,1/2+z
loop_
_atom_site_type_symbol
_atom_site_label
_atom_site_fract_x
_atom_site_fract_y
_atom_site_fract_z
Si Si1 0.040234 0.446099 0.567517
Si Si2 0.775244 0.037966 0.631559
Si Si3 0.130968 0.667624 0.750000
Si Si4 0.719292 0.717184 0.827586
Si Si5 0.617285 0.100954 0.963812
Si Si6 0.973727 0.859763 0.750000
Si Si7 0.587148 0.633234 0.941779
Si Si8 0.087160 0.162499 0.629519
O O1 0.139255 0.509544 0.584381
O O2 0.055781 0.274646 0.573456
O O3 0.000000 0.500000 0.500000
O O4 0.970357 0.517391 0.619902
O O5 0.809450 0.145776 0.686431
O O6 0.690874 0.094465 0.591683
O O7 0.745538 0.886037 0.663865
O O8 0.064172 0.523127 0.750000
O O9 0.079941 0.820211 0.750000
O O10 0.708540 0.686638 0.750000
O O11 0.633884 0.684408 0.875224
O O12 0.806052 0.636399 0.860240
O O13 0.516244 0.076087 0.934389
O O14 0.614634 0.250000 0.000000
O O15 0.641723 0.990681 0.021223
O O16 0.937030 0.765569 0.810024
O O17 0.584490 0.750000 0.000000
#
# Coordination Sequence:
#
# PCOD9439189 Si02
#       8
#     8   8   4   8   8   4   8   8
#     4  11  24  36  55  87 121 158 204 251 302 351
#     4  11  21  40  63  88 123 169 207 254 321 383
#     4  12  22  40  66  87 125 171 217 250 316 373
#     4  11  21  38  66  97 122 162 219 263 311 385
#     4  10  23  42  66  93 127 160 210 264 327 386
#     4  12  18  40  58  87 115 167 213 246 286 383
#     4  10  21  41  71  95 116 165 217 260 318 391
#     4  11  21  38  59  82 120 159 201 247 301 368
#
# _framework density 19.907910000000001
#
# number of rings (size 3 to 8) (size 9 to 14) (size 15 to 20)
#    0.000    1.143    7.143    0.429    2.000    1.143 
#    1.286    0.000    1.571    0.000    0.000    0.000 
#    0.000    0.000    0.000    0.000    0.000    0.000 
#
# Total GULP energy -312250.154409 kJ/mol
# GULP energy per Si atom -5575.895614 kJ/mol
# Density = 1.986260 g / cm^3
# Si number density = 19.907910 Si / 1000 Ang^3
#
#
#
# Elastic Constant Matrix: (Units=GPa)
#
#
# Indices 1 2 3 4 5 6 
#
# 1 112.5044 12.2393 62.5153 0.0000 0.0000 0.0000
# 2 12.2393 33.8238 21.6468 0.0000 0.0000 0.0000
# 3 62.5153 21.6468 135.7776 0.0000 0.0000 0.0000
# 4 0.0000 0.0000 0.0000 24.6403 0.0000 0.0000
# 5 0.0000 0.0000 0.0000 0.0000 46.2536 0.0000
# 6 0.0000 0.0000 0.0000 0.0000 0.0000 25.1307
#
#
#
# Elastic Compliance Matrix: (Units=1/GPa)
#
#
# Indices 1 2 3 4 5 6 
#
# 1 0.011969 -0.000896 -0.005368 0.000000 0.000000 0.000000
# 2 -0.000896 0.032991 -0.004847 0.000000 0.000000 0.000000
# 3 -0.005368 -0.004847 0.010609 0.000000 0.000000 0.000000
# 4 0.000000 0.000000 0.000000 0.040584 0.000000 0.000000
# 5 0.000000 0.000000 0.000000 0.000000 0.021620 0.000000
# 6 0.000000 0.000000 0.000000 0.000000 0.000000 0.039792
#
#
# Mechanical properties :
#
#
# Convention : Reuss Voigt Hill
#
# Bulk Modulus (GPa) = 29.98716 52.76765 41.37740
# Shear Modulus (GPa) = 26.19132 31.58522 28.88827
#
# Velocity S-wave (km/s) = 3.63109 3.98749 3.81346
# Velocity P-wave (km/s) = 5.71624 6.91112 6.34188
#
# Compressibility (1/GPa) = 0.03334761
#
# Stress axis : x y z
#
# Youngs Moduli (GPa) = 83.55080 30.31099 94.25663
#
# Poissons Ratio (x) = 0.02714 0.50596
# Poissons Ratio (y) = 0.07482 0.45690
# Poissons Ratio (z) = 0.44850 0.14693
#
# Static dielectric constant tensor:
#      x y z
#    x 1.741620 0.000000 0.000000 
#    y 0.000000 1.730500 0.000000 
#    z 0.000000 0.000000 1.739800 
# 
# From -- ./inp_files/25434.got.cif
#   From: 2010.05.17/outbox.cif.g08.bks.cpg/sg57_13_cif.got.tgz:25434.got - 2010.06.03 13:58:18.
