data_PCOD9439274
_publ_section_title
;
Structure prediction by ZEFSAII (Michael W. Deem and Ramdas Pophale) SiO2 
 PCOD9439274
Probable space group: P B C M
;
_chemical_formula_sum "Si O2"
_cell_formula_units_Z 36
_cell_length_a 21.666423
_cell_length_b 5.201500
_cell_length_c 13.528123
_cell_angle_alpha 90.000000
_cell_angle_beta 90.000000
_cell_angle_gamma 90.000000
_cell_volume 1524.591043
_symmetry_space_group_name_H-M "P B C M"
_symmetry_group_IT_number 57
_symmetry_cell_setting 'orthorhombic'
loop_
_space_group_symop_operation_xyz
x,y,z
-x,-y,1/2+z
x,1/2-y,-z
-x,1/2+y,1/2-z
-x,-y,-z
x,y,1/2-z
-x,1/2+y,z
x,1/2-y,1/2+z
loop_
_atom_site_type_symbol
_atom_site_label
_atom_site_fract_x
_atom_site_fract_y
_atom_site_fract_z
Si Si1 0.960028 0.037352 0.365736
Si Si2 0.243594 0.414514 0.868191
Si Si3 0.677807 0.407644 0.869727
Si Si4 0.135907 0.250000 0.000000
Si Si5 0.538780 0.472467 0.630228
O O1 0.942122 0.017446 0.250000
O O2 0.905452 0.942140 0.435228
O O3 0.014171 0.824201 0.382035
O O4 0.232896 0.432226 0.750000
O O5 0.289029 0.644101 0.898330
O O6 0.278340 0.147971 0.890003
O O7 0.179771 0.409470 0.926332
O O8 0.672711 0.394767 0.750000
O O9 0.608543 0.449422 0.908091
O O10 0.543049 0.473349 0.750000
O O11 0.503444 0.731268 0.603904
#
# Coordination Sequence:
#
# PCOD9439274 Si02
#       5
#     8   8   8   4   8
#     4  10  23  43  66  93 125 156 188 235 289 336
#     4  10  22  37  55  81 116 156 193 237 289 342
#     4   9  18  34  51  76 117 153 189 243 299 346
#     4  12  24  40  64  92 118 156 202 238 274 340
#     4   9  15  24  45  76 105 139 188 241 291 348
#
# _framework density 23.612891000000001
#
# number of rings (size 3 to 8) (size 9 to 14) (size 15 to 20)
#    0.000    2.222    0.000    2.667    0.000    9.778 
#    0.000    6.667    0.000    0.000    0.000   15.556 
#    0.000    0.000    0.000    0.000    0.000    4.444 
#
# Total GULP energy -201788.525933 kJ/mol
# GULP energy per Si atom -5605.236831 kJ/mol
# Density = 2.355915 g / cm^3
# Si number density = 23.612891 Si / 1000 Ang^3
#
#
#
# Elastic Constant Matrix: (Units=GPa)
#
#
# Indices 1 2 3 4 5 6 
#
# 1 157.7462 52.8916 48.3578 0.0000 0.0000 0.0000
# 2 52.8916 153.1508 9.5642 0.0000 0.0000 0.0000
# 3 48.3578 9.5642 105.3282 0.0000 0.0000 0.0000
# 4 0.0000 0.0000 0.0000 70.8822 0.0000 0.0000
# 5 0.0000 0.0000 0.0000 0.0000 18.1195 0.0000
# 6 0.0000 0.0000 0.0000 0.0000 0.0000 -7.4084
#
#
#
# Elastic Compliance Matrix: (Units=1/GPa)
#
#
# Indices 1 2 3 4 5 6 
#
# 1 0.008327 -0.002652 -0.003582 0.000000 0.000000 0.000000
# 2 -0.002652 0.007411 0.000545 0.000000 0.000000 0.000000
# 3 -0.003582 0.000545 0.011089 0.000000 0.000000 0.000000
# 4 0.000000 0.000000 0.000000 0.014108 0.000000 0.000000
# 5 0.000000 0.000000 0.000000 0.000000 0.055189 0.000000
# 6 0.000000 0.000000 0.000000 0.000000 0.000000 -0.134982
#
#
# Mechanical properties :
#
#
# Convention : Reuss Voigt Hill
#
# Bulk Modulus (GPa) = 64.73182 70.87249 67.80216
# Shear Modulus (GPa) = -223.92359 36.67943 -93.62208
#
# Velocity S-wave (km/s) = -9.74869 3.94555 -6.30355
# Velocity P-wave (km/s) = 9.96206 7.12993 4.91969
#
# Compressibility (1/GPa) = 0.01544835
#
# Stress axis : x y z
#
# Youngs Moduli (GPa) = 120.09736 134.92790 90.17731
#
# Poissons Ratio (x) = 0.35782 0.32302
# Poissons Ratio (y) = 0.31849 -0.04911
# Poissons Ratio (z) = 0.43020 -0.07348
#
# Static dielectric constant tensor:
#      x y z
#    x 1.837980 0.000000 0.000000 
#    y 0.000000 1.815460 0.000000 
#    z 0.000000 0.000000 1.970210 
# 
# From -- ./inp_files/19215.got.cif
#   From: 2010.05.17/outbox.cif.g08.bks.cpg/sg57_10_cif.got.tgz:19215.got - 2010.06.03 13:58:18.
