data_PCOD9439631
_publ_section_title
;
Structure prediction by ZEFSAII (Michael W. Deem and Ramdas Pophale) SiO2 
 PCOD9439631
Probable space group: P B C M
;
_chemical_formula_sum "Si O2"
_cell_formula_units_Z 40
_cell_length_a 7.874629
_cell_length_b 14.353560
_cell_length_c 15.918196
_cell_angle_alpha 90.000000
_cell_angle_beta 90.000000
_cell_angle_gamma 90.000000
_cell_volume 1799.217136
_symmetry_space_group_name_H-M "P B C M"
_symmetry_group_IT_number 57
_symmetry_cell_setting 'orthorhombic'
loop_
_space_group_symop_operation_xyz
x,y,z
-x,-y,1/2+z
x,1/2-y,-z
-x,1/2+y,1/2-z
-x,-y,-z
x,y,1/2-z
-x,1/2+y,z
x,1/2-y,1/2+z
loop_
_atom_site_type_symbol
_atom_site_label
_atom_site_fract_x
_atom_site_fract_y
_atom_site_fract_z
Si Si1 0.687560 0.862528 0.750000
Si Si2 0.348743 0.080554 0.083932
Si Si3 0.970734 0.482937 0.750000
Si Si4 0.518572 0.379684 0.094337
Si Si5 0.259723 0.750000 0.500000
Si Si6 0.734937 0.849279 0.250000
Si Si7 0.969230 0.083958 0.066700
O O1 0.575179 0.874268 0.667159
O O2 0.770569 0.760795 0.750000
O O3 0.833272 0.944467 0.750000
O O4 0.159279 0.120464 0.080647
O O5 0.361055 0.970192 0.102044
O O6 0.428677 0.102472 0.995117
O O7 0.907612 0.590152 0.750000
O O8 0.904927 0.447404 0.841104
O O9 0.627854 0.287932 0.077181
O O10 0.382960 0.372348 0.168865
O O11 0.148656 0.837315 0.528870
O O12 0.000000 0.000000 0.000000
#
# Coordination Sequence:
#
# PCOD9439631 Si02
#       7
#     4   8   4   8   4   4   8
#     4  10  23  45  66 101 139 180 232 278 349 418
#     4  10  22  44  70  96 143 183 217 294 347 415
#     4  10  26  43  71 104 139 189 236 289 356 425
#     4  11  24  43  71 104 139 179 239 281 361 418
#     4  12  26  42  72 108 132 194 244 290 348 432
#     4  12  25  44  73 103 140 189 226 299 355 423
#     4  11  23  46  70 103 145 186 237 293 355 415
#
# _framework density 22.23189
#
# number of rings (size 3 to 8) (size 9 to 14) (size 15 to 20)
#    0.000    1.200    2.000    3.000    2.800    8.000 
#    3.600    0.000    0.000    0.000    0.000    0.000 
#    0.000    0.000    0.000    0.000    0.000    0.000 
#
# Total GULP energy -223210.285957 kJ/mol
# GULP energy per Si atom -5580.257149 kJ/mol
# Density = 2.218129 g / cm^3
# Si number density = 22.231890 Si / 1000 Ang^3
#
#
#
# Elastic Constant Matrix: (Units=GPa)
#
#
# Indices 1 2 3 4 5 6 
#
# 1 61.2684 44.1523 24.9605 0.0000 0.0000 0.0000
# 2 44.1523 139.8874 61.0814 0.0000 0.0000 0.0000
# 3 24.9605 61.0814 182.6363 0.0000 0.0000 0.0000
# 4 0.0000 0.0000 0.0000 28.8424 0.0000 0.0000
# 5 0.0000 0.0000 0.0000 0.0000 27.4342 0.0000
# 6 0.0000 0.0000 0.0000 0.0000 0.0000 44.8842
#
#
#
# Elastic Compliance Matrix: (Units=1/GPa)
#
#
# Indices 1 2 3 4 5 6 
#
# 1 0.021220 -0.006360 -0.000773 0.000000 0.000000 0.000000
# 2 -0.006360 0.010277 -0.002568 0.000000 0.000000 0.000000
# 3 -0.000773 -0.002568 0.006440 0.000000 0.000000 0.000000
# 4 0.000000 0.000000 0.000000 0.034671 0.000000 0.000000
# 5 0.000000 0.000000 0.000000 0.000000 0.036451 0.000000
# 6 0.000000 0.000000 0.000000 0.000000 0.000000 0.022280
#
#
# Mechanical properties :
#
#
# Convention : Reuss Voigt Hill
#
# Bulk Modulus (GPa) = 53.95202 71.57561 62.76381
# Shear Modulus (GPa) = 31.86362 37.13869 34.50116
#
# Velocity S-wave (km/s) = 3.78992 4.09163 3.94366
# Velocity P-wave (km/s) = 6.59332 7.38829 7.00209
#
# Compressibility (1/GPa) = 0.01853499
#
# Stress axis : x y z
#
# Youngs Moduli (GPa) = 47.12576 97.30194 155.28328
#
# Poissons Ratio (x) = 0.61884 0.12004
# Poissons Ratio (y) = 0.29972 0.39876
# Poissons Ratio (z) = 0.03643 0.24987
#
# Static dielectric constant tensor:
#      x y z
#    x 1.843860 0.000000 0.000000 
#    y 0.000000 1.826320 0.000000 
#    z 0.000000 0.000000 1.989060 
# 
# From -- ./inp_files/16007.got.cif
#   From: 2010.05.17/outbox.cif.g08.bks.cpg/sg57_9_cif.got.tgz:16007.got - 2010.06.03 13:58:18.
