data_PCOD9439850
_publ_section_title
;
Structure prediction by ZEFSAII (Michael W. Deem and Ramdas Pophale) SiO2 
 PCOD9439850
Probable space group: P B C M
;
_chemical_formula_sum "Si O2"
_cell_formula_units_Z 32
_cell_length_a 13.950550
_cell_length_b 5.103144
_cell_length_c 21.092426
_cell_angle_alpha 90.000000
_cell_angle_beta 90.000000
_cell_angle_gamma 90.000000
_cell_volume 1501.604937
_symmetry_space_group_name_H-M "P B C M"
_symmetry_group_IT_number 57
_symmetry_cell_setting 'orthorhombic'
loop_
_space_group_symop_operation_xyz
x,y,z
-x,-y,1/2+z
x,1/2-y,-z
-x,1/2+y,1/2-z
-x,-y,-z
x,y,1/2-z
-x,1/2+y,z
x,1/2-y,1/2+z
loop_
_atom_site_type_symbol
_atom_site_label
_atom_site_fract_x
_atom_site_fract_y
_atom_site_fract_z
Si Si1 0.799157 0.126201 0.635549
Si Si2 0.692951 0.632126 0.675914
Si Si3 0.434459 0.516450 0.427653
Si Si4 0.937875 0.964973 0.750000
Si Si5 0.259393 0.750000 0.500000
O O1 0.774292 0.417534 0.659684
O O2 0.878745 0.021160 0.685034
O O3 0.804795 0.147685 0.558868
O O4 0.714346 0.914009 0.645269
O O5 0.686729 0.666838 0.750000
O O6 0.600291 0.505821 0.644480
O O7 0.500369 0.765960 0.437736
O O8 0.335722 0.545889 0.468079
O O9 0.025418 0.168885 0.750000
#
# Coordination Sequence:
#
# PCOD9439850 Si02
#       5
#     8   8   8   4   4
#     4  11  23  42  67  96 126 166 217 258 317 410
#     4  11  21  39  63  89 127 177 221 267 318 376
#     4  11  23  37  58  90 129 171 223 273 310 352
#     4  12  24  44  72 102 126 158 202 266 336 396
#     4  10  24  42  66  92 130 184 222 262 320 386
#
# _framework density 21.310533
#
# number of rings (size 3 to 8) (size 9 to 14) (size 15 to 20)
#    0.000    1.000    2.500    5.250    0.000    9.000 
#    0.000    1.250    0.000    0.000    0.000    0.000 
#    0.000    0.000    0.000    0.000    0.000    0.000 
#
# Total GULP energy -178575.214273 kJ/mol
# GULP energy per Si atom -5580.475446 kJ/mol
# Density = 2.126203 g / cm^3
# Si number density = 21.310533 Si / 1000 Ang^3
#
#
#
# Elastic Constant Matrix: (Units=GPa)
#
#
# Indices 1 2 3 4 5 6 
#
# 1 44.3449 5.0951 21.8860 0.0000 0.0000 0.0000
# 2 5.0951 104.1542 24.9321 0.0000 0.0000 0.0000
# 3 21.8860 24.9321 188.7139 0.0000 0.0000 0.0000
# 4 0.0000 0.0000 0.0000 33.3976 0.0000 0.0000
# 5 0.0000 0.0000 0.0000 0.0000 37.2828 0.0000
# 6 0.0000 0.0000 0.0000 0.0000 0.0000 -1.2184
#
#
#
# Elastic Compliance Matrix: (Units=1/GPa)
#
#
# Indices 1 2 3 4 5 6 
#
# 1 0.023947 -0.000523 -0.002708 0.000000 0.000000 0.000000
# 2 -0.000523 0.009926 -0.001251 0.000000 0.000000 0.000000
# 3 -0.002708 -0.001251 0.005778 0.000000 0.000000 0.000000
# 4 0.000000 0.000000 0.000000 0.029942 0.000000 0.000000
# 5 0.000000 0.000000 0.000000 0.000000 0.026822 0.000000
# 6 0.000000 0.000000 0.000000 0.000000 0.000000 -0.820752
#
#
# Mechanical properties :
#
#
# Convention : Reuss Voigt Hill
#
# Bulk Modulus (GPa) = 32.58650 49.00437 40.79543
# Shear Modulus (GPa) = -7.09076 32.91238 12.91081
#
# Velocity S-wave (km/s) = -1.82608 3.93417 2.46406
# Velocity P-wave (km/s) = 3.29824 6.60925 5.22305
#
# Compressibility (1/GPa) = 0.03068756
#
# Stress axis : x y z
#
# Youngs Moduli (GPa) = 41.75849 100.74411 173.06003
#
# Poissons Ratio (x) = 0.05271 0.46867
# Poissons Ratio (y) = 0.02185 0.21645
# Poissons Ratio (z) = 0.11309 0.12600
#
# Static dielectric constant tensor:
#      x y z
#    x 1.794950 0.000000 0.000000 
#    y 0.000000 1.748380 0.000000 
#    z 0.000000 0.000000 1.828080 
# 
# From -- ./inp_files/22240.got.cif
#   From: 2010.05.17/outbox.cif.g08.bks.cpg/sg57_12_cif.got.tgz:22240.got - 2010.06.03 13:58:18.
