data_PCOD9439555
_publ_section_title
;
Structure prediction by ZEFSAII (Michael W. Deem and Ramdas Pophale) SiO2 
 PCOD9439555
Probable space group: P B C M
;
_chemical_formula_sum "Si O2"
_cell_formula_units_Z 40
_cell_length_a 5.389685
_cell_length_b 15.426856
_cell_length_c 21.752130
_cell_angle_alpha 90.000000
_cell_angle_beta 90.000000
_cell_angle_gamma 90.000000
_cell_volume 1808.600304
_symmetry_space_group_name_H-M "P B C M"
_symmetry_group_IT_number 57
_symmetry_cell_setting 'orthorhombic'
loop_
_space_group_symop_operation_xyz
x,y,z
-x,-y,1/2+z
x,1/2-y,-z
-x,1/2+y,1/2-z
-x,-y,-z
x,y,1/2-z
-x,1/2+y,z
x,1/2-y,1/2+z
loop_
_atom_site_type_symbol
_atom_site_label
_atom_site_fract_x
_atom_site_fract_y
_atom_site_fract_z
Si Si1 0.919033 0.108548 0.061157
Si Si2 0.944208 0.084990 0.581890
Si Si3 0.205074 0.321853 0.183255
Si Si4 0.575463 0.475757 0.316035
Si Si5 0.565449 0.658097 0.129492
O O1 0.682200 0.157016 0.088950
O O2 0.182590 0.139667 0.089692
O O3 0.909823 0.115001 0.987625
O O4 0.897674 0.004841 0.076329
O O5 0.711352 0.054119 0.622100
O O6 0.041686 0.163599 0.623226
O O7 0.088664 0.301996 0.250000
O O8 0.338109 0.414734 0.187864
O O9 0.395622 0.246020 0.166859
O O10 0.712173 0.462892 0.250000
O O11 0.532585 0.577121 0.324629
#
# Coordination Sequence:
#
# PCOD9439555 Si02
#       5
#     8   8   8   8   8
#     4  10  24  43  72  94 137 173 226 279 343 403
#     4  10  22  42  68  97 131 178 226 280 342 405
#     4  11  24  42  66  98 135 177 230 281 336 408
#     4  10  22  42  67  93 134 176 221 278 338 401
#     4  11  24  45  66 102 130 181 221 279 339 406
#
# _framework density 22.116548999999999
#
# number of rings (size 3 to 8) (size 9 to 14) (size 15 to 20)
#    0.000    1.600    2.000    1.200    5.600    3.200 
#    0.000    2.000    0.000    0.000    0.000    0.000 
#    0.000    0.000    0.000    0.000    0.000    0.000 
#
# Total GULP energy -223142.534770 kJ/mol
# GULP energy per Si atom -5578.563369 kJ/mol
# Density = 2.206621 g / cm^3
# Si number density = 22.116549 Si / 1000 Ang^3
#
#
#
# Elastic Constant Matrix: (Units=GPa)
#
#
# Indices 1 2 3 4 5 6 
#
# 1 77.2096 19.8958 41.2538 0.0000 0.0000 0.0000
# 2 19.8958 59.0209 28.2797 0.0000 0.0000 0.0000
# 3 41.2538 28.2797 172.8512 0.0000 0.0000 0.0000
# 4 0.0000 0.0000 0.0000 37.4574 0.0000 0.0000
# 5 0.0000 0.0000 0.0000 0.0000 24.2209 0.0000
# 6 0.0000 0.0000 0.0000 0.0000 0.0000 31.2959
#
#
#
# Elastic Compliance Matrix: (Units=1/GPa)
#
#
# Indices 1 2 3 4 5 6 
#
# 1 0.015580 -0.003765 -0.003102 0.000000 0.000000 0.000000
# 2 -0.003765 0.019294 -0.002258 0.000000 0.000000 0.000000
# 3 -0.003102 -0.002258 0.006895 0.000000 0.000000 0.000000
# 4 0.000000 0.000000 0.000000 0.026697 0.000000 0.000000
# 5 0.000000 0.000000 0.000000 0.000000 0.041287 0.000000
# 6 0.000000 0.000000 0.000000 0.000000 0.000000 0.031953
#
#
# Mechanical properties :
#
#
# Convention : Reuss Voigt Hill
#
# Bulk Modulus (GPa) = 42.52107 54.21560 48.36833
# Shear Modulus (GPa) = 29.79799 33.23834 31.51816
#
# Velocity S-wave (km/s) = 3.67456 3.88089 3.77914
# Velocity P-wave (km/s) = 6.10499 6.68196 6.39998
#
# Compressibility (1/GPa) = 0.02351775
#
# Stress axis : x y z
#
# Youngs Moduli (GPa) = 64.18638 51.82850 145.02908
#
# Poissons Ratio (x) = 0.19516 0.44992
# Poissons Ratio (y) = 0.24169 0.32748
# Poissons Ratio (z) = 0.19913 0.11703
#
# Static dielectric constant tensor:
#      x y z
#    x 1.855980 0.000000 0.000000 
#    y 0.000000 1.833110 0.000000 
#    z 0.000000 0.000000 1.845570 
# 
# From -- ./inp_files/23584.got.cif
#   From: 2010.05.17/outbox.cif.g08.bks.cpg/sg57_12_cif.got.tgz:23584.got - 2010.06.03 13:58:18.
