data_PCOD9439002
_publ_section_title
;
Structure prediction by ZEFSAII (Michael W. Deem and Ramdas Pophale) SiO2 
 PCOD9439002
Probable space group: P B C M
;
_chemical_formula_sum "Si O2"
_cell_formula_units_Z 56
_cell_length_a 32.874563
_cell_length_b 5.084390
_cell_length_c 15.743787
_cell_angle_alpha 90.000000
_cell_angle_beta 90.000000
_cell_angle_gamma 90.000000
_cell_volume 2631.528330
_symmetry_space_group_name_H-M "P B C M"
_symmetry_group_IT_number 57
_symmetry_cell_setting 'orthorhombic'
loop_
_space_group_symop_operation_xyz
x,y,z
-x,-y,1/2+z
x,1/2-y,-z
-x,1/2+y,1/2-z
-x,-y,-z
x,y,1/2-z
-x,1/2+y,z
x,1/2-y,1/2+z
loop_
_atom_site_type_symbol
_atom_site_label
_atom_site_fract_x
_atom_site_fract_y
_atom_site_fract_z
Si Si1 0.835041 0.168851 0.902732
Si Si2 0.527520 0.282464 0.902845
Si Si3 0.640301 0.851050 0.250000
Si Si4 0.300880 0.283383 0.594666
Si Si5 0.975058 0.629113 0.646160
Si Si6 0.412548 0.849903 0.250000
Si Si7 0.255041 0.704539 0.349637
Si Si8 0.882892 0.829635 0.150092
O O1 0.791174 0.202727 0.860177
O O2 0.866052 0.377089 0.861444
O O3 0.853423 0.879147 0.894096
O O4 0.830347 0.250000 0.000000
O O5 0.509301 0.573636 0.892266
O O6 0.560863 0.215035 0.832981
O O7 0.542441 0.250000 0.000000
O O8 0.666760 0.789043 0.166726
O O9 0.602505 0.649412 0.250000
O O10 0.625459 0.150627 0.250000
O O11 0.317440 0.250000 0.500000
O O12 0.283969 0.574188 0.610476
O O13 0.264085 0.074231 0.606537
O O14 0.973670 0.628563 0.750000
O O15 0.929170 0.683323 0.617687
O O16 0.993262 0.351496 0.619301
O O17 0.264247 0.678671 0.250000
O O18 0.882799 0.763246 0.250000
#
# Coordination Sequence:
#
# PCOD9439002 Si02
#       8
#     8   8   4   8   8   4   8   8
#     4  12  25  40  60  91 125 160 195 245 319 379
#     4  10  21  39  64  95 131 172 221 275 333 395
#     4  12  26  43  62  96 130 176 220 278 318 395
#     4  12  25  45  68  93 128 171 217 270 328 386
#     4   9  17  31  55  84 111 146 195 246 290 347
#     4  12  24  39  66  92 134 172 224 270 336 383
#     4  12  23  44  69  93 123 158 212 265 318 388
#     4  11  22  39  61  89 121 154 198 250 305 361
#
# _framework density 21.280408999999999
#
# number of rings (size 3 to 8) (size 9 to 14) (size 15 to 20)
#    0.000    0.857    1.429    6.857    0.000    3.429 
#    0.000    0.000    0.000    8.571    0.000    0.000 
#    0.000    0.000    0.000    0.000    0.000    0.000 
#
# Total GULP energy -313520.513437 kJ/mol
# GULP energy per Si atom -5598.580597 kJ/mol
# Density = 2.123197 g / cm^3
# Si number density = 21.280409 Si / 1000 Ang^3
#
#
#
# Elastic Constant Matrix: (Units=GPa)
#
#
# Indices 1 2 3 4 5 6 
#
# 1 57.7960 -15.7811 25.7893 0.0000 0.0000 0.0000
# 2 -15.7811 54.6266 -9.1100 0.0000 0.0000 0.0000
# 3 25.7893 -9.1100 102.5189 0.0000 0.0000 0.0000
# 4 0.0000 0.0000 0.0000 29.0630 0.0000 0.0000
# 5 0.0000 0.0000 0.0000 0.0000 -14.3045 0.0000
# 6 0.0000 0.0000 0.0000 0.0000 0.0000 32.3719
#
#
#
# Elastic Compliance Matrix: (Units=1/GPa)
#
#
# Indices 1 2 3 4 5 6 
#
# 1 0.020865 0.005230 -0.004784 0.000000 0.000000 0.000000
# 2 0.005230 0.019892 0.000452 0.000000 0.000000 0.000000
# 3 -0.004784 0.000452 0.010998 0.000000 0.000000 0.000000
# 4 0.000000 0.000000 0.000000 0.034408 0.000000 0.000000
# 5 0.000000 0.000000 0.000000 0.000000 -0.069908 0.000000
# 6 0.000000 0.000000 0.000000 0.000000 0.000000 0.030891
#
#
# Mechanical properties :
#
#
# Convention : Reuss Voigt Hill
#
# Bulk Modulus (GPa) = 18.67377 24.08200 21.37788
# Shear Modulus (GPa) = 79.11317 23.69563 51.40440
#
# Velocity S-wave (km/s) = 6.10387 3.34053 4.92018
# Velocity P-wave (km/s) = 7.64660 5.12054 6.50732
#
# Compressibility (1/GPa) = 0.05355105
#
# Stress axis : x y z
#
# Youngs Moduli (GPa) = 47.92737 50.27060 90.92636
#
# Poissons Ratio (x) = -0.26291 0.43499
# Poissons Ratio (y) = -0.25065 -0.04110
# Poissons Ratio (z) = 0.22928 -0.02273
#
# Static dielectric constant tensor:
#      x y z
#    x 1.737600 0.000000 0.000000 
#    y 0.000000 1.717700 0.000000 
#    z 0.000000 0.000000 1.767600 
# 
# From -- ./inp_files/19674.got.cif
#   From: 2010.05.17/outbox.cif.g08.bks.cpg/sg57_10_cif.got.tgz:19674.got - 2010.06.03 13:58:18.
