data_PCOD9439584
_publ_section_title
;
Structure prediction by ZEFSAII (Michael W. Deem and Ramdas Pophale) SiO2 
 PCOD9439584
Probable space group: P B C M
;
_chemical_formula_sum "Si O2"
_cell_formula_units_Z 32
_cell_length_a 7.134218
_cell_length_b 10.034629
_cell_length_c 20.361380
_cell_angle_alpha 90.000000
_cell_angle_beta 90.000000
_cell_angle_gamma 90.000000
_cell_volume 1457.655533
_symmetry_space_group_name_H-M "P B C M"
_symmetry_group_IT_number 57
_symmetry_cell_setting 'orthorhombic'
loop_
_space_group_symop_operation_xyz
x,y,z
-x,-y,1/2+z
x,1/2-y,-z
-x,1/2+y,1/2-z
-x,-y,-z
x,y,1/2-z
-x,1/2+y,z
x,1/2-y,1/2+z
loop_
_atom_site_type_symbol
_atom_site_label
_atom_site_fract_x
_atom_site_fract_y
_atom_site_fract_z
Si Si1 0.087149 0.660321 0.675785
Si Si2 0.169119 0.944438 0.633222
Si Si3 0.517756 0.372497 0.954733
Si Si4 0.575849 0.974244 0.677441
O O1 0.027771 0.624552 0.750000
O O2 0.302418 0.608537 0.669852
O O3 0.968344 0.568260 0.627056
O O4 0.073700 0.817915 0.667498
O O5 0.266806 0.878560 0.569773
O O6 0.352708 0.996149 0.672503
O O7 0.396037 0.384408 0.887669
O O8 0.470591 0.250000 0.000000
O O9 0.500000 0.500000 0.000000
O O10 0.619107 0.918034 0.750000
#
# Coordination Sequence:
#
# PCOD9439584 Si02
#       4
#     8   8   8   8
#     4  11  21  39  64 103 136 172 219 279 335 399
#     4  10  24  39  66  95 138 171 221 269 338 391
#     4  10  22  43  65  92 130 175 221 273 326 395
#     4   9  21  39  66  93 129 173 222 271 328 388
#
# _framework density 21.953060000000001
#
# number of rings (size 3 to 8) (size 9 to 14) (size 15 to 20)
#    1.500    0.500    0.000    3.750    0.000    4.000 
#    0.000    8.750    0.000    0.000    0.000    0.000 
#    0.000    0.000    0.000    0.000    0.000    0.000 
#
# Total GULP energy -178224.603681 kJ/mol
# GULP energy per Si atom -5569.518865 kJ/mol
# Density = 2.190309 g / cm^3
# Si number density = 21.953060 Si / 1000 Ang^3
#
#
#
# Elastic Constant Matrix: (Units=GPa)
#
#
# Indices 1 2 3 4 5 6 
#
# 1 25.4953 -1.5031 0.6363 0.0000 0.0000 0.0000
# 2 -1.5031 66.9443 22.1694 0.0000 0.0000 0.0000
# 3 0.6363 22.1694 112.1191 0.0000 0.0000 0.0000
# 4 0.0000 0.0000 0.0000 26.0135 0.0000 0.0000
# 5 0.0000 0.0000 0.0000 0.0000 13.7352 0.0000
# 6 0.0000 0.0000 0.0000 0.0000 0.0000 24.1063
#
#
#
# Elastic Compliance Matrix: (Units=1/GPa)
#
#
# Indices 1 2 3 4 5 6 
#
# 1 0.039294 0.001023 -0.000425 0.000000 0.000000 0.000000
# 2 0.001023 0.016011 -0.003172 0.000000 0.000000 0.000000
# 3 -0.000425 -0.003172 0.009549 0.000000 0.000000 0.000000
# 4 0.000000 0.000000 0.000000 0.038442 0.000000 0.000000
# 5 0.000000 0.000000 0.000000 0.000000 0.072806 0.000000
# 6 0.000000 0.000000 0.000000 0.000000 0.000000 0.041483
#
#
# Mechanical properties :
#
#
# Convention : Reuss Voigt Hill
#
# Bulk Modulus (GPa) = 16.74881 27.46267 22.10574
# Shear Modulus (GPa) = 20.60721 24.98806 22.79764
#
# Velocity S-wave (km/s) = 3.06714 3.37746 3.22603
# Velocity P-wave (km/s) = 4.49322 5.26749 4.89569
#
# Compressibility (1/GPa) = 0.05970572
#
# Stress axis : x y z
#
# Youngs Moduli (GPa) = 25.44931 62.45664 104.72689
#
# Poissons Ratio (x) = -0.06390 0.04454
# Poissons Ratio (y) = -0.02604 0.33216
# Poissons Ratio (z) = 0.01082 0.19809
#
# Static dielectric constant tensor:
#      x y z
#    x 1.856790 0.000000 0.000000 
#    y 0.000000 1.774560 0.000000 
#    z 0.000000 0.000000 1.795810 
# 
# From -- ./inp_files/23927.got.cif
#   From: 2010.05.17/outbox.cif.g08.bks.cpg/sg57_12_cif.got.tgz:23927.got - 2010.06.03 13:58:18.
