data_PCOD9439495
_publ_section_title
;
Structure prediction by ZEFSAII (Michael W. Deem and Ramdas Pophale) SiO2 
 PCOD9439495
Probable space group: P B C M
;
_chemical_formula_sum "Si O2"
_cell_formula_units_Z 64
_cell_length_a 20.046010
_cell_length_b 19.019372
_cell_length_c 8.716290
_cell_angle_alpha 90.000000
_cell_angle_beta 90.000000
_cell_angle_gamma 90.000000
_cell_volume 3323.194702
_symmetry_space_group_name_H-M "P B C M"
_symmetry_group_IT_number 57
_symmetry_cell_setting 'orthorhombic'
loop_
_space_group_symop_operation_xyz
x,y,z
-x,-y,1/2+z
x,1/2-y,-z
-x,1/2+y,1/2-z
-x,-y,-z
x,y,1/2-z
-x,1/2+y,z
x,1/2-y,1/2+z
loop_
_atom_site_type_symbol
_atom_site_label
_atom_site_fract_x
_atom_site_fract_y
_atom_site_fract_z
Si Si1 0.714442 0.549879 0.933090
Si Si2 0.030283 0.327381 0.066388
Si Si3 0.390003 0.325827 0.066999
Si Si4 0.138728 0.074065 0.433413
Si Si5 0.901624 0.081090 0.565653
Si Si6 0.535293 0.327687 0.566579
Si Si7 0.660084 0.095958 0.566801
Si Si8 0.784734 0.325362 0.567367
O O1 0.718966 0.538648 0.750000
O O2 0.665104 0.615113 0.962286
O O3 0.787372 0.566130 0.999176
O O4 0.684528 0.480038 0.009696
O O5 0.032781 0.323960 0.250000
O O6 0.969072 0.378623 0.022220
O O7 0.019221 0.250000 0.000000
O O8 0.097900 0.361476 0.002990
O O9 0.399870 0.319361 0.250000
O O10 0.369938 0.250000 0.000000
O O11 0.460701 0.344827 0.990283
O O12 0.142410 0.080655 0.250000
O O13 0.099725 0.001470 0.470556
O O14 0.892402 0.088235 0.750000
O O15 0.839757 0.117987 0.482583
O O16 0.550880 0.250000 0.500000
O O17 0.537635 0.325438 0.750000
O O18 0.589054 0.382165 0.502197
O O19 0.658042 0.097919 0.750000
O O20 0.714695 0.151199 0.505129
O O21 0.804812 0.250000 0.500000
O O22 0.779261 0.322079 0.750000
#
# Coordination Sequence:
#
# PCOD9439495 Si02
#       8
#     8   8   8   8   8   8   8   8
#     4  11  24  42  64  93 126 164 209 256 310 370
#     4  11  24  42  64  92 127 163 210 261 312 370
#     4  10  22  41  65  92 123 159 206 257 309 370
#     4  11  23  41  66  93 126 166 208 255 315 376
#     4  10  22  41  64  93 125 163 206 254 309 372
#     4  11  22  39  63  91 125 164 208 255 311 371
#     4  12  24  40  61  88 125 164 208 257 308 368
#     4  12  24  38  60  89 125 166 208 254 305 364
#
# _framework density 19.258576999999999
#
# number of rings (size 3 to 8) (size 9 to 14) (size 15 to 20)
#    0.000    1.000    1.250    6.750    0.000    5.500 
#    0.000    1.250    0.000    0.000    0.000    0.000 
#    0.000    0.000    0.000    0.000    0.000    0.000 
#
# Total GULP energy -358121.723462 kJ/mol
# GULP energy per Si atom -5595.651929 kJ/mol
# Density = 1.921474 g / cm^3
# Si number density = 19.258577 Si / 1000 Ang^3
#
#
#
# Elastic Constant Matrix: (Units=GPa)
#
#
# Indices 1 2 3 4 5 6 
#
# 1 102.3401 44.2544 50.9551 0.0000 0.0000 0.0000
# 2 44.2544 39.2830 35.3250 0.0000 0.0000 0.0000
# 3 50.9551 35.3250 96.1855 0.0000 0.0000 0.0000
# 4 0.0000 0.0000 0.0000 33.3191 0.0000 0.0000
# 5 0.0000 0.0000 0.0000 0.0000 8.7515 0.0000
# 6 0.0000 0.0000 0.0000 0.0000 0.0000 33.5628
#
#
#
# Elastic Compliance Matrix: (Units=1/GPa)
#
#
# Indices 1 2 3 4 5 6 
#
# 1 0.019782 -0.019203 -0.003427 0.000000 0.000000 0.000000
# 2 -0.019203 0.056651 -0.010632 0.000000 0.000000 0.000000
# 3 -0.003427 -0.010632 0.016117 0.000000 0.000000 0.000000
# 4 0.000000 0.000000 0.000000 0.030013 0.000000 0.000000
# 5 0.000000 0.000000 0.000000 0.000000 0.114267 0.000000
# 6 0.000000 0.000000 0.000000 0.000000 0.000000 0.029795
#
#
# Mechanical properties :
#
#
# Convention : Reuss Voigt Hill
#
# Bulk Modulus (GPa) = 38.42591 55.43086 46.92839
# Shear Modulus (GPa) = 14.62741 22.27828 18.45285
#
# Velocity S-wave (km/s) = 2.75894 3.40486 3.09878
# Velocity P-wave (km/s) = 5.49044 6.65600 6.10112
#
# Compressibility (1/GPa) = 0.02602411
#
# Stress axis : x y z
#
# Youngs Moduli (GPa) = 50.55205 17.65190 62.04690
#
# Poissons Ratio (x) = 0.33898 0.21262
# Poissons Ratio (y) = 0.97077 0.65971
# Poissons Ratio (z) = 0.17323 0.18768
#
# Static dielectric constant tensor:
#      x y z
#    x 1.645960 0.000000 0.000000 
#    y 0.000000 1.655450 0.000000 
#    z 0.000000 0.000000 1.638000 
# 
# From -- ./inp_files/8528.got.cif
#   From: 2010.05.17/outbox.cif.g08.bks.cpg/sg57_5_cif.got.tgz:8528.got - 2010.06.03 13:58:18.
