data_PCOD9439788
_publ_section_title
;
Structure prediction by ZEFSAII (Michael W. Deem and Ramdas Pophale) SiO2 
 PCOD9439788
Probable space group: P B C M
;
_chemical_formula_sum "Si O2"
_cell_formula_units_Z 40
_cell_length_a 5.222591
_cell_length_b 20.848259
_cell_length_c 15.357092
_cell_angle_alpha 90.000000
_cell_angle_beta 90.000000
_cell_angle_gamma 90.000000
_cell_volume 1672.109813
_symmetry_space_group_name_H-M "P B C M"
_symmetry_group_IT_number 57
_symmetry_cell_setting 'orthorhombic'
loop_
_space_group_symop_operation_xyz
x,y,z
-x,-y,1/2+z
x,1/2-y,-z
-x,1/2+y,1/2-z
-x,-y,-z
x,y,1/2-z
-x,1/2+y,z
x,1/2-y,1/2+z
loop_
_atom_site_type_symbol
_atom_site_label
_atom_site_fract_x
_atom_site_fract_y
_atom_site_fract_z
Si Si1 0.235680 0.415147 0.250000
Si Si2 0.271846 0.829796 0.250000
Si Si3 0.302988 0.326529 0.505681
Si Si4 0.908333 0.588974 0.350306
Si Si5 0.808499 0.189621 0.936308
Si Si6 0.591657 0.486725 0.599714
O O1 0.445524 0.358867 0.250000
O O2 0.301689 0.457918 0.164460
O O3 0.947789 0.385566 0.250000
O O4 0.240293 0.790224 0.338166
O O5 0.336770 0.250000 0.500000
O O6 0.206676 0.349930 0.598554
O O7 0.572955 0.351508 0.471899
O O8 0.076148 0.346385 0.441672
O O9 0.967562 0.601973 0.250000
O O10 0.670747 0.539788 0.357424
O O11 0.166382 0.562518 0.395479
O O12 0.838861 0.250000 0.000000
O O13 0.500000 0.500000 0.500000
#
# Coordination Sequence:
#
# PCOD9439788 Si02
#       6
#     4   4   8   8   8   8
#     4  12  26  46  70 107 148 179 254 290 350 453
#     4  12  26  42  76 101 142 201 234 300 370 407
#     4  10  23  44  69  99 140 179 236 295 353 429
#     4  12  24  47  72 102 143 189 241 292 361 428
#     4  10  23  46  66 101 142 181 248 291 358 437
#     4  12  27  46  72 103 145 191 234 300 359 423
#
# _framework density 23.921872
#
# number of rings (size 3 to 8) (size 9 to 14) (size 15 to 20)
#    0.000    0.800    2.000    4.200    8.400    0.000 
#   14.400    0.000    0.000    0.000    0.000    0.000 
#    0.000    0.000    0.000    0.000    0.000    0.000 
#
# Total GULP energy -223497.318494 kJ/mol
# GULP energy per Si atom -5587.432962 kJ/mol
# Density = 2.386742 g / cm^3
# Si number density = 23.921872 Si / 1000 Ang^3
#
#
#
# Elastic Constant Matrix: (Units=GPa)
#
#
# Indices 1 2 3 4 5 6 
#
# 1 170.6259 7.5316 6.1566 0.0000 0.0000 0.0000
# 2 7.5316 56.8374 55.5516 0.0000 0.0000 0.0000
# 3 6.1566 55.5516 158.8776 0.0000 0.0000 0.0000
# 4 0.0000 0.0000 0.0000 45.6737 0.0000 0.0000
# 5 0.0000 0.0000 0.0000 0.0000 34.7233 0.0000
# 6 0.0000 0.0000 0.0000 0.0000 0.0000 66.3620
#
#
#
# Elastic Compliance Matrix: (Units=1/GPa)
#
#
# Indices 1 2 3 4 5 6 
#
# 1 0.005896 -0.000848 0.000068 0.000000 0.000000 0.000000
# 2 -0.000848 0.026850 -0.009355 0.000000 0.000000 0.000000
# 3 0.000068 -0.009355 0.009563 0.000000 0.000000 0.000000
# 4 0.000000 0.000000 0.000000 0.021894 0.000000 0.000000
# 5 0.000000 0.000000 0.000000 0.000000 0.028799 0.000000
# 6 0.000000 0.000000 0.000000 0.000000 0.000000 0.015069
#
#
# Mechanical properties :
#
#
# Convention : Reuss Voigt Hill
#
# Bulk Modulus (GPa) = 45.37538 58.31338 51.84438
# Shear Modulus (GPa) = 36.84956 50.49188 43.67072
#
# Velocity S-wave (km/s) = 3.92907 4.59922 4.27729
# Velocity P-wave (km/s) = 6.29228 7.25488 6.79066
#
# Compressibility (1/GPa) = 0.02203838
#
# Stress axis : x y z
#
# Youngs Moduli (GPa) = 169.61398 37.24391 104.57411
#
# Poissons Ratio (x) = 0.03157 -0.00710
# Poissons Ratio (y) = 0.14377 0.97832
# Poissons Ratio (z) = -0.01152 0.34843
#
# Static dielectric constant tensor:
#      x y z
#    x 2.005230 0.000000 0.000000 
#    y 0.000000 1.464810 0.000000 
#    z 0.000000 0.000000 1.922620 
# 
# From -- ./inp_files/14995.got.cif
#   From: 2010.05.17/outbox.cif.g08.bks.cpg/sg57_8_cif.got.tgz:14995.got - 2010.06.03 13:58:18.
