data_PCOD9439394
_publ_section_title
;
Structure prediction by ZEFSAII (Michael W. Deem and Ramdas Pophale) SiO2 
 PCOD9439394
Probable space group: P B C M
;
_chemical_formula_sum "Si O2"
_cell_formula_units_Z 64
_cell_length_a 9.160475
_cell_length_b 21.143592
_cell_length_c 17.199966
_cell_angle_alpha 90.000000
_cell_angle_beta 90.000000
_cell_angle_gamma 90.000000
_cell_volume 3331.381365
_symmetry_space_group_name_H-M "P B C M"
_symmetry_group_IT_number 57
_symmetry_cell_setting 'orthorhombic'
loop_
_space_group_symop_operation_xyz
x,y,z
-x,-y,1/2+z
x,1/2-y,-z
-x,1/2+y,1/2-z
-x,-y,-z
x,y,1/2-z
-x,1/2+y,z
x,1/2-y,1/2+z
loop_
_atom_site_type_symbol
_atom_site_label
_atom_site_fract_x
_atom_site_fract_y
_atom_site_fract_z
Si Si1 0.669922 0.497924 0.406085
Si Si2 0.164976 0.126689 0.406748
Si Si3 0.328066 0.250000 0.843390
Si Si4 0.335090 0.750000 0.344619
Si Si5 0.837012 0.124177 0.656688
Si Si6 0.837012 0.375823 0.656688
Si Si7 0.330078 0.502076 0.406084
Si Si8 0.164976 0.126689 0.593252
O O1 0.750555 0.562718 0.383167
O O2 0.750784 0.437860 0.370226
O O3 0.500000 0.500000 0.383361
O O4 0.676968 0.492794 0.500000
O O5 0.246358 0.187775 0.373336
O O6 0.166027 0.130020 0.500000
O O7 0.999341 0.124345 0.377415
O O8 0.325726 0.250000 0.750000
O O9 0.496734 0.250000 0.870131
O O10 0.246358 0.187775 0.873336
O O11 0.336052 0.750000 0.250000
O O12 0.250220 0.813080 0.369447
O O13 0.250220 0.686919 0.369447
O O14 0.846036 0.125241 0.750000
O O15 0.999341 0.124346 0.622585
O O16 0.846037 0.374759 0.750000
O O17 0.750783 0.437860 0.629775
O O18 0.249445 0.437281 0.383167
#
# Coordination Sequence:
#
# PCOD9439394 Si02
#       8
#     8   8   8   8   8   8   8   8
#     4  10  22  40  60  84 117 155 195 242 294 348
#     4  11  23  39  59  85 118 154 192 235 289 349
#     4  11  22  39  62  86 114 147 190 241 288 338
#     4   9  21  39  58  84 116 149 186 235 290 342
#     4  11  22  38  61  87 117 154 196 240 289 345
#     4  11  22  38  61  87 117 154 196 240 289 345
#     4  10  22  40  60  84 117 155 195 242 294 348
#     4  11  23  39  59  85 118 154 192 235 289 349
#
# _framework density 19.21125
#
# number of rings (size 3 to 8) (size 9 to 14) (size 15 to 20)
#    0.000    1.500    0.000    4.875    0.000    6.500 
#    0.000    5.625    0.000    0.000    0.000    0.000 
#    0.000    0.000    0.000    0.000    0.000    0.000 
#
# Total GULP energy -357959.756453 kJ/mol
# GULP energy per Si atom -5593.121195 kJ/mol
# Density = 1.916752 g / cm^3
# Si number density = 19.211250 Si / 1000 Ang^3
#
#
#
# Elastic Constant Matrix: (Units=GPa)
#
#
# Indices 1 2 3 4 5 6 
#
# 1 231.5007 140.1937 52.7837 0.0000 0.0000 0.0000
# 2 140.1937 233.6086 57.5240 0.0000 0.0000 0.0000
# 3 52.7837 57.5240 42.5073 0.0000 0.0000 0.0000
# 4 0.0000 0.0000 0.0000 35.3014 0.0000 0.0000
# 5 0.0000 0.0000 0.0000 0.0000 31.9792 0.0000
# 6 0.0000 0.0000 0.0000 0.0000 0.0000 44.2666
#
#
#
# Elastic Compliance Matrix: (Units=1/GPa)
#
#
# Indices 1 2 3 4 5 6 
#
# 1 0.007375 -0.003256 -0.004752 0.000000 0.000000 0.000000
# 2 -0.003256 0.007857 -0.006590 0.000000 0.000000 0.000000
# 3 -0.004752 -0.006590 0.038345 0.000000 0.000000 0.000000
# 4 0.000000 0.000000 0.000000 0.028327 0.000000 0.000000
# 5 0.000000 0.000000 0.000000 0.000000 0.031270 0.000000
# 6 0.000000 0.000000 0.000000 0.000000 0.000000 0.022590
#
#
# Mechanical properties :
#
#
# Convention : Reuss Voigt Hill
#
# Bulk Modulus (GPa) = 41.01566 112.06883 76.54224
# Shear Modulus (GPa) = 28.88722 39.45045 34.16883
#
# Velocity S-wave (km/s) = 3.88191 4.53648 4.22190
# Velocity P-wave (km/s) = 6.44116 9.26829 7.98090
#
# Compressibility (1/GPa) = 0.02438093
#
# Stress axis : x y z
#
# Youngs Moduli (GPa) = 135.60017 127.27127 26.07936
#
# Poissons Ratio (x) = 0.41434 0.12392
# Poissons Ratio (y) = 0.44146 0.17187
# Poissons Ratio (z) = 0.64434 0.83876
#
# Static dielectric constant tensor:
#      x y z
#    x 1.632960 0.000000 0.000000 
#    y 0.000000 1.631080 0.000000 
#    z 0.000000 0.000000 1.658680 
# 
# From -- ./inp_files/21403.got.cif
#   From: 2010.05.17/outbox.cif.g08.bks.cpg/sg57_11_cif.got.tgz:21403.got - 2010.06.03 13:58:18.
