data_PCOD9439589
_publ_section_title
;
Structure prediction by ZEFSAII (Michael W. Deem and Ramdas Pophale) SiO2 
 PCOD9439589
Probable space group: P B C M
;
_chemical_formula_sum "Si O2"
_cell_formula_units_Z 56
_cell_length_a 9.337144
_cell_length_b 13.378345
_cell_length_c 22.172388
_cell_angle_alpha 90.000000
_cell_angle_beta 90.000000
_cell_angle_gamma 90.000000
_cell_volume 2769.675681
_symmetry_space_group_name_H-M "P B C M"
_symmetry_group_IT_number 57
_symmetry_cell_setting 'orthorhombic'
loop_
_space_group_symop_operation_xyz
x,y,z
-x,-y,1/2+z
x,1/2-y,-z
-x,1/2+y,1/2-z
-x,-y,-z
x,y,1/2-z
-x,1/2+y,z
x,1/2-y,1/2+z
loop_
_atom_site_type_symbol
_atom_site_label
_atom_site_fract_x
_atom_site_fract_y
_atom_site_fract_z
Si Si1 0.438722 0.770625 0.598638
Si Si2 0.826695 0.260823 0.180364
Si Si3 0.763673 0.675615 0.372076
Si Si4 0.140337 0.064337 0.011676
Si Si5 0.609928 0.088452 0.511663
Si Si6 0.921366 0.865415 0.383577
Si Si7 0.005107 0.056098 0.183884
O O1 0.331678 0.755915 0.654313
O O2 0.594787 0.813196 0.616812
O O3 0.372561 0.847192 0.549405
O O4 0.444962 0.665160 0.562569
O O5 0.826357 0.298650 0.250000
O O6 0.910573 0.155886 0.181703
O O7 0.918213 0.325524 0.131876
O O8 0.843739 0.643161 0.434290
O O9 0.821835 0.783560 0.350821
O O10 0.831674 0.590502 0.329395
O O11 0.147982 0.126594 0.949788
O O12 0.251000 0.975723 0.026535
O O13 0.000000 0.000000 0.000000
O O14 0.500000 0.000000 0.500000
O O15 0.933365 0.977866 0.360643
O O16 0.997739 0.010718 0.250000
#
# Coordination Sequence:
#
# PCOD9439589 Si02
#       7
#     8   8   8   8   8   8   8
#     4  11  24  40  63  95 134 178 213 265 335 397
#     4  10  23  43  64  92 126 169 223 272 324 392
#     4  11  24  40  62  98 128 170 216 268 330 407
#     4  12  22  38  63  93 129 165 215 266 329 395
#     4  11  23  40  61  91 137 173 211 266 330 396
#     4  11  22  39  64  92 128 163 216 277 329 383
#     4  10  22  43  66  90 122 165 217 277 327 383
#
# _framework density 20.218973999999999
#
# number of rings (size 3 to 8) (size 9 to 14) (size 15 to 20)
#    0.000    1.143    2.857    3.429    4.000    1.143 
#    0.000    0.000    0.000    2.571    0.000    0.000 
#    0.000    0.000    0.000    0.000    0.000    0.000 
#
# Total GULP energy -312087.315917 kJ/mol
# GULP energy per Si atom -5572.987784 kJ/mol
# Density = 2.017295 g / cm^3
# Si number density = 20.218974 Si / 1000 Ang^3
#
#
#
# Elastic Constant Matrix: (Units=GPa)
#
#
# Indices 1 2 3 4 5 6 
#
# 1 73.3503 1.5399 11.6422 0.0000 0.0000 0.0000
# 2 1.5399 88.3775 13.0545 0.0000 0.0000 0.0000
# 3 11.6422 13.0545 75.1432 0.0000 0.0000 0.0000
# 4 0.0000 0.0000 0.0000 9.2010 0.0000 0.0000
# 5 0.0000 0.0000 0.0000 0.0000 22.3386 0.0000
# 6 0.0000 0.0000 0.0000 0.0000 0.0000 33.9270
#
#
#
# Elastic Compliance Matrix: (Units=1/GPa)
#
#
# Indices 1 2 3 4 5 6 
#
# 1 0.013977 0.000078 -0.002179 0.000000 0.000000 0.000000
# 2 0.000078 0.011614 -0.002030 0.000000 0.000000 0.000000
# 3 -0.002179 -0.002030 0.013998 0.000000 0.000000 0.000000
# 4 0.000000 0.000000 0.000000 0.108684 0.000000 0.000000
# 5 0.000000 0.000000 0.000000 0.000000 0.044765 0.000000
# 6 0.000000 0.000000 0.000000 0.000000 0.000000 0.029475
#
#
# Mechanical properties :
#
#
# Convention : Reuss Voigt Hill
#
# Bulk Modulus (GPa) = 31.92031 32.14935 32.03483
# Shear Modulus (GPa) = 20.72816 27.13562 23.93189
#
# Velocity S-wave (km/s) = 3.20532 3.66743 3.44413
# Velocity P-wave (km/s) = 5.43326 5.81966 5.62978
#
# Compressibility (1/GPa) = 0.03132802
#
# Stress axis : x y z
#
# Youngs Moduli (GPa) = 71.54385 86.10635 71.43785
#
# Poissons Ratio (x) = -0.00675 0.15568
# Poissons Ratio (y) = -0.00561 0.14500
# Poissons Ratio (z) = 0.15591 0.17477
#
# Static dielectric constant tensor:
#      x y z
#    x 1.698250 0.000000 0.000000 
#    y 0.000000 1.738650 0.000000 
#    z 0.000000 0.000000 -1.620170 
# 
# From -- ./inp_files/24437.got.cif
#   From: 2010.05.17/outbox.cif.g08.bks.cpg/sg57_13_cif.got.tgz:24437.got - 2010.06.03 13:58:18.
