data_PCOD9439977
_publ_section_title
;
Structure prediction by ZEFSAII (Michael W. Deem and Ramdas Pophale) SiO2 
 PCOD9439977
Probable space group: P B C M
;
_chemical_formula_sum "Si O2"
_cell_formula_units_Z 48
_cell_length_a 15.818164
_cell_length_b 20.412349
_cell_length_c 8.670682
_cell_angle_alpha 90.000000
_cell_angle_beta 90.000000
_cell_angle_gamma 90.000000
_cell_volume 2799.640823
_symmetry_space_group_name_H-M "P B C M"
_symmetry_group_IT_number 57
_symmetry_cell_setting 'orthorhombic'
loop_
_space_group_symop_operation_xyz
x,y,z
-x,-y,1/2+z
x,1/2-y,-z
-x,1/2+y,1/2-z
-x,-y,-z
x,y,1/2-z
-x,1/2+y,z
x,1/2-y,1/2+z
loop_
_atom_site_type_symbol
_atom_site_label
_atom_site_fract_x
_atom_site_fract_y
_atom_site_fract_z
Si Si1 0.921427 0.586445 0.566592
Si Si2 0.276355 0.955585 0.565889
Si Si3 0.251530 0.102390 0.066787
Si Si4 0.103040 0.940026 0.064839
Si Si5 0.591615 0.821169 0.065480
Si Si6 0.542505 0.065924 0.934868
O O1 0.909948 0.591730 0.750000
O O2 0.843766 0.621464 0.482712
O O3 0.911113 0.510444 0.516162
O O4 0.019266 0.602436 0.529015
O O5 0.272246 0.955289 0.750000
O O6 0.194596 0.918980 0.495474
O O7 0.364755 0.927441 0.506764
O O8 0.271586 0.031213 0.507744
O O9 0.256107 0.095747 0.250000
O O10 0.321151 0.152490 0.006163
O O11 0.105616 0.949364 0.250000
O O12 0.599997 0.818846 0.250000
O O13 0.518632 0.873560 0.027261
O O14 0.571595 0.750000 0.000000
O O15 0.549151 0.060475 0.750000
O O16 0.500000 0.000000 0.000000
#
# Coordination Sequence:
#
# PCOD9439977 Si02
#       6
#     8   8   8   8   8   8
#     4   9  16  26  42  65  97 133 169 208 253 306
#     4  11  20  30  48  74 105 138 175 219 265 316
#     4  11  20  31  50  73 102 138 175 215 261 316
#     4   9  16  26  41  65  98 134 169 209 256 306
#     4  11  24  40  57  78 106 139 178 222 270 323
#     4  11  22  36  56  79 105 139 179 222 269 324
#
# _framework density 17.145057000000001
#
# number of rings (size 3 to 8) (size 9 to 14) (size 15 to 20)
#    0.000    1.667    1.667    7.000    0.000    4.000 
#    0.000    0.000    0.000    0.000    0.000    1.167 
#    0.000    5.333    0.000    0.000    0.000    0.000 
#
# Total GULP energy -267777.991953 kJ/mol
# GULP energy per Si atom -5578.708166 kJ/mol
# Density = 1.710603 g / cm^3
# Si number density = 17.145057 Si / 1000 Ang^3
#
#
#
# Elastic Constant Matrix: (Units=GPa)
#
#
# Indices 1 2 3 4 5 6 
#
# 1 157.6996 43.6016 41.3458 0.0000 0.0000 0.0000
# 2 43.6016 61.6200 31.8896 0.0000 0.0000 0.0000
# 3 41.3458 31.8896 72.6853 0.0000 0.0000 0.0000
# 4 0.0000 0.0000 0.0000 18.6636 0.0000 0.0000
# 5 0.0000 0.0000 0.0000 0.0000 32.3539 0.0000
# 6 0.0000 0.0000 0.0000 0.0000 0.0000 13.8869
#
#
#
# Elastic Compliance Matrix: (Units=1/GPa)
#
#
# Indices 1 2 3 4 5 6 
#
# 1 0.008294 -0.004434 -0.002773 0.000000 0.000000 0.000000
# 2 -0.004434 0.023366 -0.007729 0.000000 0.000000 0.000000
# 3 -0.002773 -0.007729 0.018726 0.000000 0.000000 0.000000
# 4 0.000000 0.000000 0.000000 0.053580 0.000000 0.000000
# 5 0.000000 0.000000 0.000000 0.000000 0.030908 0.000000
# 6 0.000000 0.000000 0.000000 0.000000 0.000000 0.072010
#
#
# Mechanical properties :
#
#
# Convention : Reuss Voigt Hill
#
# Bulk Modulus (GPa) = 48.74589 58.40876 53.57733
# Shear Modulus (GPa) = 20.52592 24.65874 22.59233
#
# Velocity S-wave (km/s) = 3.46380 3.79653 3.63398
# Velocity P-wave (km/s) = 6.67011 7.30476 6.99464
#
# Compressibility (1/GPa) = 0.02051455
#
# Stress axis : x y z
#
# Youngs Moduli (GPa) = 120.56923 42.79732 53.40099
#
# Poissons Ratio (x) = 0.18976 0.14806
# Poissons Ratio (y) = 0.53459 0.41276
# Poissons Ratio (z) = 0.33429 0.33080
#
# Static dielectric constant tensor:
#      x y z
#    x 1.646740 0.000000 0.000000 
#    y 0.000000 1.550690 0.000000 
#    z 0.000000 0.000000 1.568760 
# 
# From -- ./inp_files/4892.got.cif
#   From: 2010.05.17/outbox.cif.g08.bks.cpg/sg57_3_cif.got.tgz:4892.got - 2010.06.03 13:58:18.
