data_PCOD9439508
_publ_section_title
;
Structure prediction by ZEFSAII (Michael W. Deem and Ramdas Pophale) SiO2 
 PCOD9439508
Probable space group: P B C M
;
_chemical_formula_sum "Si O2"
_cell_formula_units_Z 48
_cell_length_a 7.169448
_cell_length_b 19.068999
_cell_length_c 15.334638
_cell_angle_alpha 90.000000
_cell_angle_beta 90.000000
_cell_angle_gamma 90.000000
_cell_volume 2096.462717
_symmetry_space_group_name_H-M "P B C M"
_symmetry_group_IT_number 57
_symmetry_cell_setting 'orthorhombic'
loop_
_space_group_symop_operation_xyz
x,y,z
-x,-y,1/2+z
x,1/2-y,-z
-x,1/2+y,1/2-z
-x,-y,-z
x,y,1/2-z
-x,1/2+y,z
x,1/2-y,1/2+z
loop_
_atom_site_type_symbol
_atom_site_label
_atom_site_fract_x
_atom_site_fract_y
_atom_site_fract_z
Si Si1 0.904295 0.733652 0.855603
Si Si2 0.473363 0.206473 0.078513
Si Si3 0.550822 0.576808 0.963852
Si Si4 0.136563 0.010689 0.646279
Si Si5 0.811630 0.108783 0.853561
Si Si6 0.834766 0.354169 0.851003
O O1 0.897099 0.732760 0.750000
O O2 0.693587 0.744447 0.887863
O O3 0.039688 0.669115 0.878851
O O4 0.011605 0.802797 0.889078
O O5 0.564254 0.250000 0.000000
O O6 0.636205 0.184333 0.143655
O O7 0.402732 0.132681 0.038986
O O8 0.724187 0.563623 0.900555
O O9 0.500000 0.500000 0.000000
O O10 0.374692 0.606250 0.909586
O O11 0.176941 0.012971 0.750000
O O12 0.925413 0.036310 0.634570
O O13 0.168751 0.932158 0.610975
O O14 0.769853 0.117340 0.750000
O O15 0.885258 0.363961 0.750000
#
# Coordination Sequence:
#
# PCOD9439508 Si02
#       6
#     8   8   8   8   8   8
#     4  10  23  44  68  94 124 170 225 274 326 387
#     4  12  25  41  63  96 133 170 212 265 340 397
#     4  12  25  41  63 101 140 177 214 272 348 404
#     4  10  22  42  67  95 128 176 229 274 324 391
#     4  10  23  44  70  97 130 178 230 279 330 396
#     4  10  22  41  66  93 124 168 221 273 321 386
#
# _framework density 22.895710000000001
#
# number of rings (size 3 to 8) (size 9 to 14) (size 15 to 20)
#    0.000    1.333    1.667    3.000    2.333    4.000 
#    0.000    6.667    0.000    0.000    0.000    0.000 
#    0.000    0.000    0.000    0.000    0.000    0.000 
#
# Total GULP energy -268414.601143 kJ/mol
# GULP energy per Si atom -5591.970857 kJ/mol
# Density = 2.284360 g / cm^3
# Si number density = 22.895710 Si / 1000 Ang^3
#
#
#
# Elastic Constant Matrix: (Units=GPa)
#
#
# Indices 1 2 3 4 5 6 
#
# 1 96.1201 12.6982 17.8718 0.0000 0.0000 0.0000
# 2 12.6982 87.3830 9.5931 0.0000 0.0000 0.0000
# 3 17.8718 9.5931 33.9496 0.0000 0.0000 0.0000
# 4 0.0000 0.0000 0.0000 23.0699 0.0000 0.0000
# 5 0.0000 0.0000 0.0000 0.0000 -89.3682 0.0000
# 6 0.0000 0.0000 0.0000 0.0000 0.0000 39.0732
#
#
#
# Elastic Compliance Matrix: (Units=1/GPa)
#
#
# Indices 1 2 3 4 5 6 
#
# 1 0.011625 -0.001050 -0.005823 0.000000 0.000000 0.000000
# 2 -0.001050 0.011905 -0.002811 0.000000 0.000000 0.000000
# 3 -0.005823 -0.002811 0.033315 0.000000 0.000000 0.000000
# 4 0.000000 0.000000 0.000000 0.043347 0.000000 0.000000
# 5 0.000000 0.000000 0.000000 0.000000 -0.011190 0.000000
# 6 0.000000 0.000000 0.000000 0.000000 0.000000 0.025593
#
#
# Mechanical properties :
#
#
# Convention : Reuss Voigt Hill
#
# Bulk Modulus (GPa) = 26.68321 33.08653 29.88487
# Shear Modulus (GPa) = 34.14000 6.37430 20.25715
#
# Velocity S-wave (km/s) = 3.86568 1.67036 2.97771
# Velocity P-wave (km/s) = 5.62176 4.26644 4.99032
#
# Compressibility (1/GPa) = 0.03747676
#
# Stress axis : x y z
#
# Youngs Moduli (GPa) = 86.02118 83.99770 30.01645
#
# Poissons Ratio (x) = 0.08820 0.17478
# Poissons Ratio (y) = 0.09033 0.08438
# Poissons Ratio (z) = 0.50090 0.23614
#
# Static dielectric constant tensor:
#      x y z
#    x 1.822110 0.000000 0.000000 
#    y 0.000000 1.900180 0.000000 
#    z 0.000000 0.000000 1.849060 
# 
# From -- ./inp_files/21113.got.cif
#   From: 2010.05.17/outbox.cif.g08.bks.cpg/sg57_11_cif.got.tgz:21113.got - 2010.06.03 13:58:18.
