data_PCOD9439900
_publ_section_title
;
Structure prediction by ZEFSAII (Michael W. Deem and Ramdas Pophale) SiO2 
 PCOD9439900
Probable space group: P B C M
;
_chemical_formula_sum "Si O2"
_cell_formula_units_Z 60
_cell_length_a 5.044198
_cell_length_b 21.042887
_cell_length_c 23.381277
_cell_angle_alpha 90.000000
_cell_angle_beta 90.000000
_cell_angle_gamma 90.000000
_cell_volume 2481.793688
_symmetry_space_group_name_H-M "P B C M"
_symmetry_group_IT_number 57
_symmetry_cell_setting 'orthorhombic'
loop_
_space_group_symop_operation_xyz
x,y,z
-x,-y,1/2+z
x,1/2-y,-z
-x,1/2+y,1/2-z
-x,-y,-z
x,y,1/2-z
-x,1/2+y,z
x,1/2-y,1/2+z
loop_
_atom_site_type_symbol
_atom_site_label
_atom_site_fract_x
_atom_site_fract_y
_atom_site_fract_z
Si Si1 0.006228 0.522092 0.647228
Si Si2 0.696055 0.098053 0.335417
Si Si3 0.424912 0.616108 0.467921
Si Si4 0.494336 0.561724 0.911204
Si Si5 0.719990 0.141083 0.812081
Si Si6 0.990630 0.773405 0.668896
Si Si7 0.933299 0.695216 0.038899
Si Si8 0.638921 0.659611 0.250000
O O1 0.870347 0.463358 0.678399
O O2 0.796044 0.542584 0.598491
O O3 0.290615 0.511161 0.617130
O O4 0.063514 0.584149 0.685008
O O5 0.670061 0.098413 0.404049
O O6 0.843195 0.162980 0.314385
O O7 0.428698 0.106487 0.300275
O O8 0.419602 0.571186 0.523093
O O9 0.218383 0.672319 0.482909
O O10 0.726636 0.638088 0.461589
O O11 0.445495 0.623597 0.869727
O O12 0.581864 0.136173 0.750000
O O13 0.861498 0.208935 0.815807
O O14 0.957745 0.777276 0.601783
O O15 0.717551 0.786688 0.700784
O O16 0.819365 0.750000 0.000000
#
# Coordination Sequence:
#
# PCOD9439900 Si02
#       8
#     8   8   8   8   8   8   8   4
#     4  10  26  47  71 103 142 191 237 300 355 435
#     4  11  27  45  70 105 145 191 240 300 364 429
#     4  11  23  43  68 105 139 187 236 299 359 426
#     4  10  24  45  73 104 140 186 243 293 359 429
#     4  10  24  46  69 102 142 190 238 299 355 426
#     4  11  24  46  69 105 143 188 242 299 359 429
#     4  11  23  40  68 103 144 185 236 293 363 430
#     4  12  24  44  70 104 140 190 236 296 354 430
#
# _framework density 24.176062999999999
#
# number of rings (size 3 to 8) (size 9 to 14) (size 15 to 20)
#    0.800    0.533    2.000    2.400    4.667    3.733 
#    2.400    0.000    0.000    0.000    0.000    0.000 
#    0.000    0.000    0.000    0.000    0.000    0.000 
#
# Total GULP energy -334156.596206 kJ/mol
# GULP energy per Si atom -5569.276603 kJ/mol
# Density = 2.412104 g / cm^3
# Si number density = 24.176063 Si / 1000 Ang^3
#
#
#
# Elastic Constant Matrix: (Units=GPa)
#
#
# Indices 1 2 3 4 5 6 
#
# 1 66.8426 3.6898 -2.7055 0.0000 0.0000 0.0000
# 2 3.6898 110.9140 31.0619 0.0000 0.0000 0.0000
# 3 -2.7055 31.0619 109.8129 0.0000 0.0000 0.0000
# 4 0.0000 0.0000 0.0000 -1.2242 0.0000 0.0000
# 5 0.0000 0.0000 0.0000 0.0000 -15.7842 0.0000
# 6 0.0000 0.0000 0.0000 0.0000 0.0000 31.8792
#
#
#
# Elastic Compliance Matrix: (Units=1/GPa)
#
#
# Indices 1 2 3 4 5 6 
#
# 1 0.015019 -0.000655 0.000555 0.000000 0.000000 0.000000
# 2 -0.000655 0.009820 -0.002794 0.000000 0.000000 0.000000
# 3 0.000555 -0.002794 0.009910 0.000000 0.000000 0.000000
# 4 0.000000 0.000000 0.000000 -0.816877 0.000000 0.000000
# 5 0.000000 0.000000 0.000000 0.000000 -0.063355 0.000000
# 6 0.000000 0.000000 0.000000 0.000000 0.000000 0.031368
#
#
# Mechanical properties :
#
#
# Convention : Reuss Voigt Hill
#
# Bulk Modulus (GPa) = 34.52764 39.07354 36.80059
# Shear Modulus (GPa) = -6.26040 20.00906 6.87433
#
# Velocity S-wave (km/s) = -1.61094 2.87999 1.68808
# Velocity P-wave (km/s) = 3.29433 5.22076 4.36514
#
# Compressibility (1/GPa) = 0.02896231
#
# Stress axis : x y z
#
# Youngs Moduli (GPa) = 66.58159 101.83057 100.90439
#
# Poissons Ratio (x) = 0.06672 -0.05604
# Poissons Ratio (y) = 0.04362 0.28192
# Poissons Ratio (z) = -0.03698 0.28451
#
# Static dielectric constant tensor:
#      x y z
#    x 2.038980 0.000000 0.000000 
#    y 0.000000 1.963210 0.000000 
#    z 0.000000 0.000000 1.877290 
# 
# From -- ./inp_files/26343.got.cif
#   From: 2010.05.17/outbox.cif.g08.bks.cpg/sg57_14_cif.got.tgz:26343.got - 2010.06.03 13:58:18.
