data_PCOD9439137
_publ_section_title
;
Structure prediction by ZEFSAII (Michael W. Deem and Ramdas Pophale) SiO2 
 PCOD9439137
Probable space group: P B C M
;
_chemical_formula_sum "Si O2"
_cell_formula_units_Z 32
_cell_length_a 17.295174
_cell_length_b 5.265480
_cell_length_c 15.945179
_cell_angle_alpha 90.000000
_cell_angle_beta 90.000000
_cell_angle_gamma 90.000000
_cell_volume 1452.085879
_symmetry_space_group_name_H-M "P B C M"
_symmetry_group_IT_number 57
_symmetry_cell_setting 'orthorhombic'
loop_
_space_group_symop_operation_xyz
x,y,z
-x,-y,1/2+z
x,1/2-y,-z
-x,1/2+y,1/2-z
-x,-y,-z
x,y,1/2-z
-x,1/2+y,z
x,1/2-y,1/2+z
loop_
_atom_site_type_symbol
_atom_site_label
_atom_site_fract_x
_atom_site_fract_y
_atom_site_fract_z
Si Si1 0.546504 0.586421 0.148438
Si Si2 0.194396 0.811781 0.846441
Si Si3 0.720523 0.800652 0.902653
Si Si4 0.031615 0.968648 0.594982
O O1 0.553155 0.589064 0.250000
O O2 0.510115 0.316815 0.123756
O O3 0.631019 0.634519 0.112098
O O4 0.169461 0.796222 0.750000
O O5 0.230497 0.543795 0.873027
O O6 0.120053 0.886186 0.901220
O O7 0.255288 0.041864 0.855924
O O8 0.735285 0.750000 0.000000
O O9 0.981828 0.742867 0.635205
O O10 0.000000 0.000000 0.500000
#
# Coordination Sequence:
#
# PCOD9439137 Si02
#       4
#     8   8   8   8
#     4  10  21  40  67  97 135 180 226 281 344 406
#     4  12  26  45  70 100 140 183 236 287 342 415
#     4  12  27  43  70 103 141 185 230 287 346 414
#     4  10  23  40  67  96 131 175 216 287 337 415
#
# _framework density 22.037265999999999
#
# number of rings (size 3 to 8) (size 9 to 14) (size 15 to 20)
#    0.000    1.000    0.000    6.000   10.500    4.000 
#    0.000    0.000    0.000    0.000    0.000    0.000 
#    0.000    0.000    0.000    0.000    0.000    0.000 
#
# Total GULP energy -179103.860136 kJ/mol
# GULP energy per Si atom -5596.995629 kJ/mol
# Density = 2.198711 g / cm^3
# Si number density = 22.037266 Si / 1000 Ang^3
#
#
#
# Elastic Constant Matrix: (Units=GPa)
#
#
# Indices 1 2 3 4 5 6 
#
# 1 67.6074 -7.9908 24.7357 0.0000 0.0000 0.0000
# 2 -7.9908 131.3463 17.4451 0.0000 0.0000 0.0000
# 3 24.7357 17.4451 78.7679 0.0000 0.0000 0.0000
# 4 0.0000 0.0000 0.0000 17.5259 0.0000 0.0000
# 5 0.0000 0.0000 0.0000 0.0000 44.7106 0.0000
# 6 0.0000 0.0000 0.0000 0.0000 0.0000 41.9033
#
#
#
# Elastic Compliance Matrix: (Units=1/GPa)
#
#
# Indices 1 2 3 4 5 6 
#
# 1 0.017118 0.001809 -0.005776 0.000000 0.000000 0.000000
# 2 0.001809 0.008035 -0.002348 0.000000 0.000000 0.000000
# 3 -0.005776 -0.002348 0.015029 0.000000 0.000000 0.000000
# 4 0.000000 0.000000 0.000000 0.057058 0.000000 0.000000
# 5 0.000000 0.000000 0.000000 0.000000 0.022366 0.000000
# 6 0.000000 0.000000 0.000000 0.000000 0.000000 0.023864
#
#
# Mechanical properties :
#
#
# Convention : Reuss Voigt Hill
#
# Bulk Modulus (GPa) = 36.29420 38.45574 37.37497
# Shear Modulus (GPa) = 30.25046 37.06342 33.65694
#
# Velocity S-wave (km/s) = 3.70901 4.10549 3.91227
# Velocity P-wave (km/s) = 5.90318 6.32152 6.11593
#
# Compressibility (1/GPa) = 0.02755261
#
# Stress axis : x y z
#
# Youngs Moduli (GPa) = 58.41652 124.45090 66.53615
#
# Poissons Ratio (x) = -0.22509 0.38433
# Poissons Ratio (y) = -0.10565 0.15620
# Poissons Ratio (z) = 0.33743 0.29216
#
# Static dielectric constant tensor:
#      x y z
#    x 1.771860 0.000000 0.000000 
#    y 0.000000 1.717820 0.000000 
#    z 0.000000 0.000000 1.782830 
# 
# From -- ./inp_files/18766.got.cif
#   From: 2010.05.17/outbox.cif.g08.bks.cpg/sg57_10_cif.got.tgz:18766.got - 2010.06.03 13:58:18.
