data_PCOD9439950
_publ_section_title
;
Structure prediction by ZEFSAII (Michael W. Deem and Ramdas Pophale) SiO2 
 PCOD9439950
Probable space group: P B C M
;
_chemical_formula_sum "Si O2"
_cell_formula_units_Z 60
_cell_length_a 4.901864
_cell_length_b 25.030932
_cell_length_c 20.218857
_cell_angle_alpha 90.000000
_cell_angle_beta 90.000000
_cell_angle_gamma 90.000000
_cell_volume 2480.817854
_symmetry_space_group_name_H-M "P B C M"
_symmetry_group_IT_number 57
_symmetry_cell_setting 'orthorhombic'
loop_
_space_group_symop_operation_xyz
x,y,z
-x,-y,1/2+z
x,1/2-y,-z
-x,1/2+y,1/2-z
-x,-y,-z
x,y,1/2-z
-x,1/2+y,z
x,1/2-y,1/2+z
loop_
_atom_site_type_symbol
_atom_site_label
_atom_site_fract_x
_atom_site_fract_y
_atom_site_fract_z
Si Si1 0.010966 0.945556 0.131542
Si Si2 0.733701 0.110100 0.051389
Si Si3 0.662829 0.870104 0.436411
Si Si4 0.529882 0.018130 0.361589
Si Si5 0.983311 0.268990 0.068495
Si Si6 0.305194 0.101283 0.250000
Si Si7 0.304279 0.658553 0.824664
Si Si8 0.236696 0.339504 0.883780
O O1 0.862047 0.920817 0.066903
O O2 0.117692 0.894433 0.171851
O O3 0.779522 0.982173 0.164744
O O4 0.275202 0.981584 0.118499
O O5 0.652101 0.051971 0.077740
O O6 0.550004 0.150942 0.095764
O O7 0.044144 0.122847 0.070039
O O8 0.606687 0.119900 0.979273
O O9 0.811002 0.815499 0.455413
O O10 0.577691 0.860947 0.360286
O O11 0.423985 0.060155 0.307556
O O12 0.143821 0.220271 0.101335
O O13 0.804496 0.296306 0.125318
O O14 0.841518 0.250000 0.000000
O O15 0.197058 0.141530 0.191027
O O16 0.336141 0.676966 0.750000
#
# Coordination Sequence:
#
# PCOD9439950 Si02
#       8
#     8   8   8   8   8   4   8   8
#     4  11  25  45  72 107 148 197 252 304 376 443
#     4  11  25  45  73 107 152 181 259 301 372 442
#     4  11  25  46  73 111 145 198 246 316 363 461
#     4  11  24  44  71 109 142 207 239 315 374 450
#     4  11  24  46  79 105 143 199 248 303 388 449
#     4  10  26  46  74 106 148 186 252 304 372 436
#     4  11  27  48  72 113 151 192 253 317 370 463
#     4  11  25  46  72 111 143 193 237 318 365 451
#
# _framework density 24.185573999999999
#
# number of rings (size 3 to 8) (size 9 to 14) (size 15 to 20)
#    0.000    1.067    2.667    2.400    6.533    8.000 
#    0.000    0.000    0.000    0.000    0.000    0.000 
#    0.000    0.000    0.000    0.000    0.000    0.000 
#
# Total GULP energy -334808.345617 kJ/mol
# GULP energy per Si atom -5580.139094 kJ/mol
# Density = 2.413053 g / cm^3
# Si number density = 24.185574 Si / 1000 Ang^3
#
#
#
# Elastic Constant Matrix: (Units=GPa)
#
#
# Indices 1 2 3 4 5 6 
#
# 1 80.9306 23.5618 13.9959 0.0000 0.0000 0.0000
# 2 23.5618 123.4372 45.5728 0.0000 0.0000 0.0000
# 3 13.9959 45.5728 164.7516 0.0000 0.0000 0.0000
# 4 0.0000 0.0000 0.0000 18.4905 0.0000 0.0000
# 5 0.0000 0.0000 0.0000 0.0000 -5.0794 0.0000
# 6 0.0000 0.0000 0.0000 0.0000 0.0000 31.0562
#
#
#
# Elastic Compliance Matrix: (Units=1/GPa)
#
#
# Indices 1 2 3 4 5 6 
#
# 1 0.013116 -0.002330 -0.000470 0.000000 0.000000 0.000000
# 2 -0.002330 0.009437 -0.002412 0.000000 0.000000 0.000000
# 3 -0.000470 -0.002412 0.006777 0.000000 0.000000 0.000000
# 4 0.000000 0.000000 0.000000 0.054082 0.000000 0.000000
# 5 0.000000 0.000000 0.000000 0.000000 -0.196873 0.000000
# 6 0.000000 0.000000 0.000000 0.000000 0.000000 0.032200
#
#
# Mechanical properties :
#
#
# Convention : Reuss Voigt Hill
#
# Bulk Modulus (GPa) = 52.89575 59.48672 56.19123
# Shear Modulus (GPa) = -77.47679 27.95937 -24.75871
#
# Velocity S-wave (km/s) = -5.66603 3.40374 -3.20300
# Velocity P-wave (km/s) = 4.57021 6.33219 3.09917
#
# Compressibility (1/GPa) = 0.01890511
#
# Stress axis : x y z
#
# Youngs Moduli (GPa) = 76.24344 105.96896 147.55905
#
# Poissons Ratio (x) = 0.24693 0.06930
# Poissons Ratio (y) = 0.17766 0.35597
# Poissons Ratio (z) = 0.03581 0.25564
#
# Static dielectric constant tensor:
#      x y z
#    x 1.955780 0.000000 0.000000 
#    y 0.000000 1.944900 0.000000 
#    z 0.000000 0.000000 1.944930 
# 
# From -- ./inp_files/23831.got.cif
#   From: 2010.05.17/outbox.cif.g08.bks.cpg/sg57_12_cif.got.tgz:23831.got - 2010.06.03 13:58:18.
