data_PCOD9439086
_publ_section_title
;
Structure prediction by ZEFSAII (Michael W. Deem and Ramdas Pophale) SiO2 
 PCOD9439086
Probable space group: P B C M
;
_chemical_formula_sum "Si O2"
_cell_formula_units_Z 48
_cell_length_a 11.045877
_cell_length_b 20.824783
_cell_length_c 10.337917
_cell_angle_alpha 90.000000
_cell_angle_beta 90.000000
_cell_angle_gamma 90.000000
_cell_volume 2378.010285
_symmetry_space_group_name_H-M "P B C M"
_symmetry_group_IT_number 57
_symmetry_cell_setting 'orthorhombic'
loop_
_space_group_symop_operation_xyz
x,y,z
-x,-y,1/2+z
x,1/2-y,-z
-x,1/2+y,1/2-z
-x,-y,-z
x,y,1/2-z
-x,1/2+y,z
x,1/2-y,1/2+z
loop_
_atom_site_type_symbol
_atom_site_label
_atom_site_fract_x
_atom_site_fract_y
_atom_site_fract_z
Si Si1 0.412559 0.843871 0.896962
Si Si2 0.819497 0.940471 0.974480
Si Si3 0.398138 0.505989 0.391973
Si Si4 0.218715 0.802421 0.096429
Si Si5 0.073342 0.566952 0.609019
Si Si6 0.305631 0.191766 0.398757
O O1 0.384865 0.819188 0.750000
O O2 0.555602 0.832742 0.914050
O O3 0.371968 0.918078 0.892392
O O4 0.345067 0.815082 0.021425
O O5 0.774279 0.872799 0.918177
O O6 0.834441 0.006976 0.895511
O O7 0.718461 0.962399 0.078639
O O8 0.958795 0.933235 0.015735
O O9 0.500000 0.500000 0.500000
O O10 0.447197 0.489301 0.250000
O O11 0.224688 0.786790 0.250000
O O12 0.146599 0.868450 0.088558
O O13 0.159093 0.750000 0.000000
O O14 0.015772 0.566796 0.750000
O O15 0.282329 0.250000 0.500000
O O16 0.290563 0.214279 0.250000
#
# Coordination Sequence:
#
# PCOD9439086 Si02
#       6
#     8   8   8   8   8   8
#     4  10  21  40  63  95 130 165 210 258 313 378
#     4  11  22  43  66  93 127 167 216 265 324 377
#     4  11  22  37  64  98 130 163 205 258 317 380
#     4  11  23  41  64  93 128 169 213 264 317 380
#     4  10  23  41  64  93 125 165 216 266 320 381
#     4  11  25  43  65  93 130 171 212 265 321 383
#
# _framework density 20.184943000000001
#
# number of rings (size 3 to 8) (size 9 to 14) (size 15 to 20)
#    0.000    1.333    3.333    2.000    0.000    5.333 
#    0.000    4.167    0.000    0.000    0.000    0.000 
#    0.000    0.000    0.000    0.000    0.000    0.000 
#
# Total GULP energy -267255.629407 kJ/mol
# GULP energy per Si atom -5567.825613 kJ/mol
# Density = 2.013900 g / cm^3
# Si number density = 20.184943 Si / 1000 Ang^3
#
#
#
# Elastic Constant Matrix: (Units=GPa)
#
#
# Indices 1 2 3 4 5 6 
#
# 1 51.2982 24.2718 26.0329 0.0000 0.0000 0.0000
# 2 24.2718 131.5171 50.2272 0.0000 0.0000 0.0000
# 3 26.0329 50.2272 149.4685 0.0000 0.0000 0.0000
# 4 0.0000 0.0000 0.0000 10.4038 0.0000 0.0000
# 5 0.0000 0.0000 0.0000 0.0000 22.4915 0.0000
# 6 0.0000 0.0000 0.0000 0.0000 0.0000 21.4974
#
#
#
# Elastic Compliance Matrix: (Units=1/GPa)
#
#
# Indices 1 2 3 4 5 6 
#
# 1 0.022390 -0.003032 -0.002881 0.000000 0.000000 0.000000
# 2 -0.003032 0.009134 -0.002541 0.000000 0.000000 0.000000
# 3 -0.002881 -0.002541 0.008046 0.000000 0.000000 0.000000
# 4 0.000000 0.000000 0.000000 0.096119 0.000000 0.000000
# 5 0.000000 0.000000 0.000000 0.000000 0.044461 0.000000
# 6 0.000000 0.000000 0.000000 0.000000 0.000000 0.046517
#
#
# Mechanical properties :
#
#
# Convention : Reuss Voigt Hill
#
# Bulk Modulus (GPa) = 44.12662 59.26084 51.69373
# Shear Modulus (GPa) = 19.91003 26.32866 23.11935
#
# Velocity S-wave (km/s) = 3.14408 3.61553 3.38801
# Velocity P-wave (km/s) = 5.92359 6.84486 6.40082
#
# Compressibility (1/GPa) = 0.02266206
#
# Stress axis : x y z
#
# Youngs Moduli (GPa) = 44.66196 109.48553 124.28438
#
# Poissons Ratio (x) = 0.33196 0.35805
# Poissons Ratio (y) = 0.13541 0.31583
# Poissons Ratio (z) = 0.12867 0.27822
#
# Static dielectric constant tensor:
#      x y z
#    x 1.691620 0.000000 0.000000 
#    y 0.000000 1.777630 0.000000 
#    z 0.000000 0.000000 4.298900 
# 
# From -- ./inp_files/12901.got.cif
#   From: 2010.05.17/outbox.cif.g08.bks.cpg/sg57_7_cif.got.tgz:12901.got - 2010.06.03 13:58:18.
