data_PCOD9439042
_publ_section_title
;
Structure prediction by ZEFSAII (Michael W. Deem and Ramdas Pophale) SiO2 
 PCOD9439042
Probable space group: P B C M
;
_chemical_formula_sum "Si O2"
_cell_formula_units_Z 60
_cell_length_a 5.181347
_cell_length_b 18.201159
_cell_length_c 30.405941
_cell_angle_alpha 90.000000
_cell_angle_beta 90.000000
_cell_angle_gamma 90.000000
_cell_volume 2867.478501
_symmetry_space_group_name_H-M "P B C M"
_symmetry_group_IT_number 57
_symmetry_cell_setting 'orthorhombic'
loop_
_space_group_symop_operation_xyz
x,y,z
-x,-y,1/2+z
x,1/2-y,-z
-x,1/2+y,1/2-z
-x,-y,-z
x,y,1/2-z
-x,1/2+y,z
x,1/2-y,1/2+z
loop_
_atom_site_type_symbol
_atom_site_label
_atom_site_fract_x
_atom_site_fract_y
_atom_site_fract_z
Si Si1 0.630741 0.601597 0.029499
Si Si2 0.106948 0.755103 0.088245
Si Si3 0.614543 0.843406 0.387720
Si Si4 0.776424 0.750000 0.500000
Si Si5 0.963473 0.597576 0.108876
Si Si6 0.907918 0.970828 0.799250
Si Si7 0.778425 0.977915 0.050287
Si Si8 0.591081 0.572593 0.700725
O O1 0.404352 0.543851 0.033937
O O2 0.718133 0.616486 0.079061
O O3 0.594099 0.680361 0.008009
O O4 0.841226 0.564766 0.995629
O O5 0.882541 0.798181 0.115119
O O6 0.377998 0.795688 0.093740
O O7 0.136588 0.669632 0.101394
O O8 0.970968 0.758258 0.040680
O O9 0.552684 0.871949 0.339043
O O10 0.649117 0.914100 0.419882
O O11 0.041136 0.520754 0.084900
O O12 0.924901 0.583915 0.159953
O O13 0.933774 0.938729 0.750000
O O14 0.636545 0.012754 0.801864
O O15 0.137975 0.030006 0.804465
O O16 0.583512 0.605094 0.750000
#
# Coordination Sequence:
#
# PCOD9439042 Si02
#       8
#     8   8   8   4   8   8   8   8
#     4  10  23  38  61  96 125 172 216 267 320 382
#     4  11  28  41  67  91 137 176 221 258 345 384
#     4  12  24  45  64  98 128 174 216 278 322 396
#     4  10  22  46  60  88 142 176 220 262 328 392
#     4  11  24  41  62  92 131 172 212 274 319 395
#     4  10  21  39  67  99 126 164 213 270 327 383
#     4  11  23  37  67  92 127 166 227 272 316 374
#     4  10  21  39  68  99 128 162 213 272 330 383
#
# _framework density 20.924308
#
# number of rings (size 3 to 8) (size 9 to 14) (size 15 to 20)
#    0.000    1.333    2.667    2.000    5.600    4.800 
#    0.000    1.333    0.000    0.000    0.000    0.000 
#    0.000    0.000    0.000    0.000    0.000    0.000 
#
# Total GULP energy -334796.542820 kJ/mol
# GULP energy per Si atom -5579.942380 kJ/mol
# Density = 2.087668 g / cm^3
# Si number density = 20.924308 Si / 1000 Ang^3
#
#
#
# Elastic Constant Matrix: (Units=GPa)
#
#
# Indices 1 2 3 4 5 6 
#
# 1 45.3661 18.4910 -0.4921 0.0000 0.0000 0.0000
# 2 18.4910 85.2405 28.4744 0.0000 0.0000 0.0000
# 3 -0.4921 28.4744 155.3675 0.0000 0.0000 0.0000
# 4 0.0000 0.0000 0.0000 31.3256 0.0000 0.0000
# 5 0.0000 0.0000 0.0000 0.0000 27.7938 0.0000
# 6 0.0000 0.0000 0.0000 0.0000 0.0000 27.3624
#
#
#
# Elastic Compliance Matrix: (Units=1/GPa)
#
#
# Indices 1 2 3 4 5 6 
#
# 1 0.024361 -0.005657 0.001114 0.000000 0.000000 0.000000
# 2 -0.005657 0.013810 -0.002549 0.000000 0.000000 0.000000
# 3 0.001114 -0.002549 0.006907 0.000000 0.000000 0.000000
# 4 0.000000 0.000000 0.000000 0.031923 0.000000 0.000000
# 5 0.000000 0.000000 0.000000 0.000000 0.035979 0.000000
# 6 0.000000 0.000000 0.000000 0.000000 0.000000 0.036546
#
#
# Mechanical properties :
#
#
# Convention : Reuss Voigt Hill
#
# Bulk Modulus (GPa) = 32.36832 42.10229 37.23530
# Shear Modulus (GPa) = 28.73441 33.26309 30.99875
#
# Velocity S-wave (km/s) = 3.70977 3.99141 3.85316
# Velocity P-wave (km/s) = 5.81830 6.43481 6.13430
#
# Compressibility (1/GPa) = 0.03089441
#
# Stress axis : x y z
#
# Youngs Moduli (GPa) = 41.04996 72.41113 144.78021
#
# Poissons Ratio (x) = 0.40960 -0.16126
# Poissons Ratio (y) = 0.23220 0.36903
# Poissons Ratio (z) = -0.04572 0.18457
#
# Static dielectric constant tensor:
#      x y z
#    x 1.803470 0.000000 0.000000 
#    y 0.000000 1.790900 0.000000 
#    z 0.000000 0.000000 1.772060 
# 
# From -- ./inp_files/29251.got.cif
#   From: 2010.05.17/outbox.cif.g08.bks.cpg/sg57_15_cif.got.tgz:29251.got - 2010.06.03 13:58:18.
