data_PCOD9439439
_publ_section_title
;
Structure prediction by ZEFSAII (Michael W. Deem and Ramdas Pophale) SiO2 
 PCOD9439439
Probable space group: P B C M
;
_chemical_formula_sum "Si O2"
_cell_formula_units_Z 40
_cell_length_a 13.188538
_cell_length_b 9.547787
_cell_length_c 16.718389
_cell_angle_alpha 90.000000
_cell_angle_beta 90.000000
_cell_angle_gamma 90.000000
_cell_volume 2105.202141
_symmetry_space_group_name_H-M "P B C M"
_symmetry_group_IT_number 57
_symmetry_cell_setting 'orthorhombic'
loop_
_space_group_symop_operation_xyz
x,y,z
-x,-y,1/2+z
x,1/2-y,-z
-x,1/2+y,1/2-z
-x,-y,-z
x,y,1/2-z
-x,1/2+y,z
x,1/2-y,1/2+z
loop_
_atom_site_type_symbol
_atom_site_label
_atom_site_fract_x
_atom_site_fract_y
_atom_site_fract_z
Si Si1 0.736366 0.960554 0.658494
Si Si2 0.109604 0.242409 0.655372
Si Si3 0.944409 0.052937 0.079531
Si Si4 0.548576 0.019580 0.750000
Si Si5 0.367521 0.676018 0.250000
Si Si6 0.748361 0.246224 0.085600
O O1 0.775392 0.986389 0.750000
O O2 0.615524 0.965003 0.674070
O O3 0.770737 0.091931 0.606850
O O4 0.784266 0.815685 0.630713
O O5 0.108197 0.228084 0.750000
O O6 0.024383 0.353030 0.628291
O O7 0.090509 0.090169 0.620717
O O8 0.847092 0.152434 0.069744
O O9 0.000000 0.000000 0.000000
O O10 0.560167 0.186486 0.750000
O O11 0.437018 0.960389 0.750000
O O12 0.304433 0.688983 0.332846
O O13 0.690276 0.250000 0.000000
#
# Coordination Sequence:
#
# PCOD9439439 Si02
#       6
#     8   8   8   4   4   8
#     4   8  18  38  60  86 121 157 199 250 303 352
#     4  11  22  35  58  85 112 156 207 241 296 362
#     4  12  25  38  54  84 125 160 200 254 304 356
#     4   8  18  38  63  88 125 150 191 260 312 350
#     4  10  22  40  65  92 119 158 205 248 310 372
#     4  11  22  39  63  88 123 163 204 248 307 365
#
# _framework density 19.000551000000002
#
# number of rings (size 3 to 8) (size 9 to 14) (size 15 to 20)
#    0.600    1.200    1.000    4.800    2.800    3.200 
#    0.000    4.000    0.000    2.400    0.000    0.000 
#    0.000    0.000    0.000    0.000    0.000    0.000 
#
# Total GULP energy -222867.172080 kJ/mol
# GULP energy per Si atom -5571.679302 kJ/mol
# Density = 1.895731 g / cm^3
# Si number density = 19.000551 Si / 1000 Ang^3
#
#
#
# Elastic Constant Matrix: (Units=GPa)
#
#
# Indices 1 2 3 4 5 6 
#
# 1 32.9486 5.6089 28.9877 0.0000 0.0000 0.0000
# 2 5.6089 68.5426 33.8355 0.0000 0.0000 0.0000
# 3 28.9877 33.8355 109.5968 0.0000 0.0000 0.0000
# 4 0.0000 0.0000 0.0000 27.8046 0.0000 0.0000
# 5 0.0000 0.0000 0.0000 0.0000 13.5313 0.0000
# 6 0.0000 0.0000 0.0000 0.0000 0.0000 41.4911
#
#
#
# Elastic Compliance Matrix: (Units=1/GPa)
#
#
# Indices 1 2 3 4 5 6 
#
# 1 0.039857 0.002292 -0.011250 0.000000 0.000000 0.000000
# 2 0.002292 0.017344 -0.005961 0.000000 0.000000 0.000000
# 3 -0.011250 -0.005961 0.013940 0.000000 0.000000 0.000000
# 4 0.000000 0.000000 0.000000 0.035965 0.000000 0.000000
# 5 0.000000 0.000000 0.000000 0.000000 0.073903 0.000000
# 6 0.000000 0.000000 0.000000 0.000000 0.000000 0.024102
#
#
# Mechanical properties :
#
#
# Convention : Reuss Voigt Hill
#
# Bulk Modulus (GPa) = 24.21044 38.66136 31.43590
# Shear Modulus (GPa) = 20.10315 26.07578 23.08947
#
# Velocity S-wave (km/s) = 3.25627 3.70857 3.48975
# Velocity P-wave (km/s) = 5.18723 6.22332 5.72874
#
# Compressibility (1/GPa) = 0.04130449
#
# Stress axis : x y z
#
# Youngs Moduli (GPa) = 25.08947 57.65530 71.73557
#
# Poissons Ratio (x) = -0.13213 0.80699
# Poissons Ratio (y) = -0.05750 0.42761
# Poissons Ratio (z) = 0.28225 0.34367
#
# Static dielectric constant tensor:
#      x y z
#    x 1.691980 0.000000 0.000000 
#    y 0.000000 1.623390 0.000000 
#    z 0.000000 0.000000 1.603510 
# 
# From -- ./inp_files/18254.got.cif
#   From: 2010.05.17/outbox.cif.g08.bks.cpg/sg57_10_cif.got.tgz:18254.got - 2010.06.03 13:58:18.
