data_PCOD9439706
_publ_section_title
;
Structure prediction by ZEFSAII (Michael W. Deem and Ramdas Pophale) SiO2 
 PCOD9439706
Probable space group: P B C M
;
_chemical_formula_sum "Si O2"
_cell_formula_units_Z 40
_cell_length_a 5.046011
_cell_length_b 24.078552
_cell_length_c 15.419688
_cell_angle_alpha 90.000000
_cell_angle_beta 90.000000
_cell_angle_gamma 90.000000
_cell_volume 1873.501934
_symmetry_space_group_name_H-M "P B C M"
_symmetry_group_IT_number 57
_symmetry_cell_setting 'orthorhombic'
loop_
_space_group_symop_operation_xyz
x,y,z
-x,-y,1/2+z
x,1/2-y,-z
-x,1/2+y,1/2-z
-x,-y,-z
x,y,1/2-z
-x,1/2+y,z
x,1/2-y,1/2+z
loop_
_atom_site_type_symbol
_atom_site_label
_atom_site_fract_x
_atom_site_fract_y
_atom_site_fract_z
Si Si1 0.889640 0.841988 0.649927
Si Si2 0.225736 0.464952 0.394089
Si Si3 0.685454 0.873837 0.250000
Si Si4 0.811822 0.200203 0.750000
Si Si5 0.635098 0.221156 0.407258
Si Si6 0.285648 0.462315 0.598305
O O1 0.954374 0.830457 0.750000
O O2 0.647700 0.803122 0.620432
O O3 0.798174 0.905218 0.641606
O O4 0.148467 0.828225 0.593612
O O5 0.262761 0.412198 0.333428
O O6 0.286258 0.451538 0.494617
O O7 0.434833 0.513450 0.371093
O O8 0.933685 0.490305 0.386156
O O9 0.386823 0.851993 0.250000
O O10 0.888771 0.822186 0.250000
O O11 0.741071 0.235706 0.664732
O O12 0.619145 0.250000 0.500000
#
# Coordination Sequence:
#
# PCOD9439706 Si02
#       6
#     8   8   4   4   8   8
#     4  12  24  44  70 101 130 173 219 277 330 390
#     4  10  23  42  61  97 126 169 212 262 310 398
#     4  12  26  40  71  88 133 168 218 258 334 376
#     4  12  26  46  63  98 127 172 220 282 308 394
#     4  12  27  46  70  95 135 174 225 272 333 389
#     4  10  23  41  66  91 133 163 213 262 322 384
#
# _framework density 21.350390000000001
#
# number of rings (size 3 to 8) (size 9 to 14) (size 15 to 20)
#    0.000    0.800    2.000    4.200    8.400    0.000 
#    0.000    0.000    0.000    0.000    0.000    0.000 
#    0.000    0.000    0.000    0.000    0.000    0.000 
#
# Total GULP energy -224030.310145 kJ/mol
# GULP energy per Si atom -5600.757754 kJ/mol
# Density = 2.130180 g / cm^3
# Si number density = 21.350390 Si / 1000 Ang^3
#
#
#
# Elastic Constant Matrix: (Units=GPa)
#
#
# Indices 1 2 3 4 5 6 
#
# 1 41.3895 -27.1544 -11.0691 0.0000 0.0000 0.0000
# 2 -27.1544 44.0013 26.7342 0.0000 0.0000 0.0000
# 3 -11.0691 26.7342 63.6015 0.0000 0.0000 0.0000
# 4 0.0000 0.0000 0.0000 29.2330 0.0000 0.0000
# 5 0.0000 0.0000 0.0000 0.0000 22.9797 0.0000
# 6 0.0000 0.0000 0.0000 0.0000 0.0000 36.9966
#
#
#
# Elastic Compliance Matrix: (Units=1/GPa)
#
#
# Indices 1 2 3 4 5 6 
#
# 1 0.041650 0.028605 -0.004775 0.000000 0.000000 0.000000
# 2 0.028605 0.050167 -0.016109 0.000000 0.000000 0.000000
# 3 -0.004775 -0.016109 0.021663 0.000000 0.000000 0.000000
# 4 0.000000 0.000000 0.000000 0.034208 0.000000 0.000000
# 5 0.000000 0.000000 0.000000 0.000000 0.043517 0.000000
# 6 0.000000 0.000000 0.000000 0.000000 0.000000 0.027029
#
#
# Mechanical properties :
#
#
# Convention : Reuss Voigt Hill
#
# Bulk Modulus (GPa) = 7.75660 14.00151 10.87906
# Shear Modulus (GPa) = 20.34455 28.54064 24.44259
#
# Velocity S-wave (km/s) = 3.09024 3.66016 3.38721
# Velocity P-wave (km/s) = 4.04644 4.94313 4.51709
#
# Compressibility (1/GPa) = 0.12892243
#
# Stress axis : x y z
#
# Youngs Moduli (GPa) = 24.00936 19.93353 46.16163
#
# Poissons Ratio (x) = -0.57019 0.22042
# Poissons Ratio (y) = -0.68678 0.74360
# Poissons Ratio (z) = 0.11464 0.32110
#
# Static dielectric constant tensor:
#      x y z
#    x 1.741060 0.000000 0.000000 
#    y 0.000000 1.748560 0.000000 
#    z 0.000000 0.000000 1.754040 
# 
# From -- ./inp_files/14989.got.cif
#   From: 2010.05.17/outbox.cif.g08.bks.cpg/sg57_8_cif.got.tgz:14989.got - 2010.06.03 13:58:18.
