data_PCOD9439220
_publ_section_title
;
Structure prediction by ZEFSAII (Michael W. Deem and Ramdas Pophale) SiO2 
 PCOD9439220
Probable space group: P B C M
;
_chemical_formula_sum "Si O2"
_cell_formula_units_Z 48
_cell_length_a 5.859251
_cell_length_b 14.447034
_cell_length_c 27.510585
_cell_angle_alpha 90.000000
_cell_angle_beta 90.000000
_cell_angle_gamma 90.000000
_cell_volume 2328.737964
_symmetry_space_group_name_H-M "P B C M"
_symmetry_group_IT_number 57
_symmetry_cell_setting 'orthorhombic'
loop_
_space_group_symop_operation_xyz
x,y,z
-x,-y,1/2+z
x,1/2-y,-z
-x,1/2+y,1/2-z
-x,-y,-z
x,y,1/2-z
-x,1/2+y,z
x,1/2-y,1/2+z
loop_
_atom_site_type_symbol
_atom_site_label
_atom_site_fract_x
_atom_site_fract_y
_atom_site_fract_z
Si Si1 0.753023 0.519896 0.024473
Si Si2 0.392125 0.212853 0.450314
Si Si3 0.256725 0.626854 0.376583
Si Si4 0.352878 0.126238 0.192869
Si Si5 0.908871 0.476200 0.373929
Si Si6 0.120112 0.217306 0.634576
O O1 0.773358 0.630396 0.033425
O O2 0.758436 0.468602 0.077194
O O3 0.500000 0.500000 0.000000
O O4 0.000000 0.500000 0.000000
O O5 0.496724 0.250000 0.500000
O O6 0.565740 0.158261 0.416591
O O7 0.267737 0.286428 0.415302
O O8 0.388381 0.616904 0.325700
O O9 0.134243 0.532278 0.389304
O O10 0.076305 0.708336 0.374356
O O11 0.325648 0.117000 0.250000
O O12 0.271237 0.228245 0.174590
O O13 0.216183 0.045068 0.164085
O O14 0.998340 0.378950 0.353763
#
# Coordination Sequence:
#
# PCOD9439220 Si02
#       6
#     8   8   8   8   8   8
#     4  12  25  40  65 100 139 188 237 285 347 421
#     4  11  23  39  60  94 134 184 228 277 334 409
#     4  10  21  43  64  90 136 174 224 289 348 417
#     4  10  23  44  69  97 130 173 230 294 365 429
#     4  11  23  44  67  98 140 179 230 291 360 421
#     4  10  23  42  66  92 135 172 226 284 346 424
#
# _framework density 20.612023000000001
#
# number of rings (size 3 to 8) (size 9 to 14) (size 15 to 20)
#    0.000    1.333    5.000    2.000    2.333    6.667 
#    0.000    1.667    0.000    0.000    0.000    0.000 
#    0.000    0.000    0.000    0.000    0.000    0.000 
#
# Total GULP energy -267666.578032 kJ/mol
# GULP energy per Si atom -5576.387042 kJ/mol
# Density = 2.056511 g / cm^3
# Si number density = 20.612023 Si / 1000 Ang^3
#
#
#
# Elastic Constant Matrix: (Units=GPa)
#
#
# Indices 1 2 3 4 5 6 
#
# 1 80.7029 12.3456 42.8168 0.0000 0.0000 0.0000
# 2 12.3456 84.7145 10.8414 0.0000 0.0000 0.0000
# 3 42.8168 10.8414 143.6063 0.0000 0.0000 0.0000
# 4 0.0000 0.0000 0.0000 17.6270 0.0000 0.0000
# 5 0.0000 0.0000 0.0000 0.0000 15.8358 0.0000
# 6 0.0000 0.0000 0.0000 0.0000 0.0000 13.7517
#
#
#
# Elastic Compliance Matrix: (Units=1/GPa)
#
#
# Indices 1 2 3 4 5 6 
#
# 1 0.014937 -0.001623 -0.004331 0.000000 0.000000 0.000000
# 2 -0.001623 0.012096 -0.000429 0.000000 0.000000 0.000000
# 3 -0.004331 -0.000429 0.008287 0.000000 0.000000 0.000000
# 4 0.000000 0.000000 0.000000 0.056731 0.000000 0.000000
# 5 0.000000 0.000000 0.000000 0.000000 0.063148 0.000000
# 6 0.000000 0.000000 0.000000 0.000000 0.000000 0.072718
#
#
# Mechanical properties :
#
#
# Convention : Reuss Voigt Hill
#
# Bulk Modulus (GPa) = 44.33779 49.00349 46.67064
# Shear Modulus (GPa) = 20.14491 25.64423 22.89457
#
# Velocity S-wave (km/s) = 3.12963 3.53106 3.33639
# Velocity P-wave (km/s) = 5.88360 6.36006 6.12647
#
# Compressibility (1/GPa) = 0.02255412
#
# Stress axis : x y z
#
# Youngs Moduli (GPa) = 66.94701 82.67360 120.66761
#
# Poissons Ratio (x) = 0.13414 0.52262
# Poissons Ratio (y) = 0.10862 0.05181
# Poissons Ratio (z) = 0.28995 0.03550
#
# Static dielectric constant tensor:
#      x y z
#    x 1.800560 0.000000 0.000000 
#    y 0.000000 1.756340 0.000000 
#    z 0.000000 0.000000 1.778860 
# 
# From -- ./inp_files/27930.got.cif
#   From: 2010.05.17/outbox.cif.g08.bks.cpg/sg57_14_cif.got.tgz:27930.got - 2010.06.03 13:58:18.
