data_PCOD9439069
_publ_section_title
;
Structure prediction by ZEFSAII (Michael W. Deem and Ramdas Pophale) SiO2 
 PCOD9439069
Probable space group: P B C M
;
_chemical_formula_sum "Si O2"
_cell_formula_units_Z 40
_cell_length_a 12.814437
_cell_length_b 18.919391
_cell_length_c 8.532370
_cell_angle_alpha 90.000000
_cell_angle_beta 90.000000
_cell_angle_gamma 90.000000
_cell_volume 2068.599251
_symmetry_space_group_name_H-M "P B C M"
_symmetry_group_IT_number 57
_symmetry_cell_setting 'orthorhombic'
loop_
_space_group_symop_operation_xyz
x,y,z
-x,-y,1/2+z
x,1/2-y,-z
-x,1/2+y,1/2-z
-x,-y,-z
x,y,1/2-z
-x,1/2+y,z
x,1/2-y,1/2+z
loop_
_atom_site_type_symbol
_atom_site_label
_atom_site_fract_x
_atom_site_fract_y
_atom_site_fract_z
Si Si1 0.467226 0.671477 0.937606
Si Si2 0.662035 0.922339 0.059218
Si Si3 0.957226 0.425248 0.561924
Si Si4 0.716009 0.079953 0.439519
Si Si5 0.861370 0.670984 0.938075
O O1 0.469845 0.673059 0.750000
O O2 0.558350 0.618175 0.993659
O O3 0.485991 0.750000 0.000000
O O4 0.357088 0.640890 0.994141
O O5 0.661321 0.923197 0.250000
O O6 0.764190 0.878138 0.011212
O O7 0.672344 0.003387 0.007759
O O8 0.959950 0.426742 0.750000
O O9 0.837020 0.414978 0.513063
O O10 0.000000 0.500000 0.500000
O O11 0.032885 0.364306 0.499966
O O12 0.712147 0.082145 0.250000
O O13 0.863224 0.671643 0.750000
O O14 0.848158 0.750000 0.000000
#
# Coordination Sequence:
#
# PCOD9439069 Si02
#       5
#     8   8   8   8   8
#     4  11  23  39  60  87 120 158 200 245 297 356
#     4   9  19  38  62  88 120 155 195 247 301 353
#     4  11  22  39  63  89 120 159 198 246 300 356
#     4  10  21  40  63  87 119 156 196 246 300 353
#     4  11  22  39  61  90 125 160 200 249 301 358
#
# _framework density 19.336756999999999
#
# number of rings (size 3 to 8) (size 9 to 14) (size 15 to 20)
#    0.000    1.600    2.000    3.000    0.000    2.400 
#    0.000    4.000    0.000    0.000    0.000    0.000 
#    0.000    0.000    0.000    0.000    0.000    0.000 
#
# Total GULP energy -223589.652707 kJ/mol
# GULP energy per Si atom -5589.741318 kJ/mol
# Density = 1.929275 g / cm^3
# Si number density = 19.336757 Si / 1000 Ang^3
#
#
#
# Elastic Constant Matrix: (Units=GPa)
#
#
# Indices 1 2 3 4 5 6 
#
# 1 100.5949 -10.0168 15.6442 0.0000 0.0000 0.0000
# 2 -10.0168 29.4439 -0.3505 0.0000 0.0000 0.0000
# 3 15.6442 -0.3505 31.5234 0.0000 0.0000 0.0000
# 4 0.0000 0.0000 0.0000 32.9790 0.0000 0.0000
# 5 0.0000 0.0000 0.0000 0.0000 21.3931 0.0000
# 6 0.0000 0.0000 0.0000 0.0000 0.0000 26.8168
#
#
#
# Elastic Compliance Matrix: (Units=1/GPa)
#
#
# Indices 1 2 3 4 5 6 
#
# 1 0.011168 0.003734 -0.005501 0.000000 0.000000 0.000000
# 2 0.003734 0.035216 -0.001461 0.000000 0.000000 0.000000
# 3 -0.005501 -0.001461 0.034436 0.000000 0.000000 0.000000
# 4 0.000000 0.000000 0.000000 0.030322 0.000000 0.000000
# 5 0.000000 0.000000 0.000000 0.000000 0.046744 0.000000
# 6 0.000000 0.000000 0.000000 0.000000 0.000000 0.037290
#
#
# Mechanical properties :
#
#
# Convention : Reuss Voigt Hill
#
# Bulk Modulus (GPa) = 13.44751 19.12398 16.28574
# Shear Modulus (GPa) = 22.08273 26.65680 24.36976
#
# Velocity S-wave (km/s) = 3.38303 3.71692 3.55390
# Velocity P-wave (km/s) = 4.71480 5.32279 5.02799
#
# Compressibility (1/GPa) = 0.07436323
#
# Stress axis : x y z
#
# Youngs Moduli (GPa) = 89.54033 28.39634 29.03922
#
# Poissons Ratio (x) = -0.10603 0.15974
# Poissons Ratio (y) = -0.33434 0.04244
# Poissons Ratio (z) = 0.49255 0.04150
#
# Static dielectric constant tensor:
#      x y z
#    x 1.664330 0.000000 0.000000 
#    y 0.000000 1.640420 0.000000 
#    z 0.000000 0.000000 1.594480 
# 
# From -- ./inp_files/2642.got.cif
#   From: 2010.05.17/outbox.cif.g08.bks.cpg/sg57_2_cif.got.tgz:2642.got - 2010.06.03 13:58:18.
