data_PCOD9439238
_publ_section_title
;
Structure prediction by ZEFSAII (Michael W. Deem and Ramdas Pophale) SiO2 
 PCOD9439238
Probable space group: P B C M
;
_chemical_formula_sum "Si O2"
_cell_formula_units_Z 40
_cell_length_a 8.835622
_cell_length_b 14.734937
_cell_length_c 14.897320
_cell_angle_alpha 90.000000
_cell_angle_beta 90.000000
_cell_angle_gamma 90.000000
_cell_volume 1939.516854
_symmetry_space_group_name_H-M "P B C M"
_symmetry_group_IT_number 57
_symmetry_cell_setting 'orthorhombic'
loop_
_space_group_symop_operation_xyz
x,y,z
-x,-y,1/2+z
x,1/2-y,-z
-x,1/2+y,1/2-z
-x,-y,-z
x,y,1/2-z
-x,1/2+y,z
x,1/2-y,1/2+z
loop_
_atom_site_type_symbol
_atom_site_label
_atom_site_fract_x
_atom_site_fract_y
_atom_site_fract_z
Si Si1 0.161792 0.587626 0.569244
Si Si2 0.997711 0.354361 0.250000
Si Si3 0.085905 0.113539 0.060731
Si Si4 0.058234 0.863094 0.750000
Si Si5 0.512414 0.366606 0.354509
Si Si6 0.663242 0.750000 0.500000
Si Si7 0.292497 0.026026 0.750000
O O1 0.147262 0.485197 0.534493
O O2 0.332449 0.610346 0.594993
O O3 0.071418 0.602078 0.661247
O O4 0.062701 0.641340 0.496095
O O5 0.947942 0.247857 0.250000
O O6 0.171956 0.389548 0.250000
O O7 0.033206 0.110014 0.162238
O O8 0.223905 0.179442 0.045727
O O9 0.208383 0.928613 0.750000
O O10 0.541158 0.334885 0.250000
O O11 0.430861 0.296006 0.419966
O O12 0.401999 0.453194 0.335165
#
# Coordination Sequence:
#
# PCOD9439238 Si02
#       7
#     8   4   8   4   8   4   4
#     4  11  23  46  70 100 141 192 236 294 368 420
#     4  12  21  43  71  98 145 180 250 298 337 443
#     4  11  25  43  75 104 136 195 243 299 351 439
#     4  12  24  39  74 103 134 187 249 295 357 419
#     4  10  25  46  71 102 151 190 225 306 373 427
#     4  12  26  46  72 112 144 186 252 296 366 442
#     4  10  21  44  69 103 139 195 233 297 374 432
#
# _framework density 20.623692999999999
#
# number of rings (size 3 to 8) (size 9 to 14) (size 15 to 20)
#    0.600    0.400    3.000    3.600    4.200    3.200 
#    3.600    0.000    0.000    0.000    0.000    0.000 
#    0.000    0.000    0.000    0.000    0.000    0.000 
#
# Total GULP energy -223002.188527 kJ/mol
# GULP energy per Si atom -5575.054713 kJ/mol
# Density = 2.057675 g / cm^3
# Si number density = 20.623693 Si / 1000 Ang^3
#
#
#
# Elastic Constant Matrix: (Units=GPa)
#
#
# Indices 1 2 3 4 5 6 
#
# 1 180.7182 52.7941 69.4840 0.0000 0.0000 0.0000
# 2 52.7941 80.1377 25.0543 0.0000 0.0000 0.0000
# 3 69.4840 25.0543 113.3943 0.0000 0.0000 0.0000
# 4 0.0000 0.0000 0.0000 26.6181 0.0000 0.0000
# 5 0.0000 0.0000 0.0000 0.0000 87.3653 0.0000
# 6 0.0000 0.0000 0.0000 0.0000 0.0000 8.1088
#
#
#
# Elastic Compliance Matrix: (Units=1/GPa)
#
#
# Indices 1 2 3 4 5 6 
#
# 1 0.008379 -0.004205 -0.004205 0.000000 0.000000 0.000000
# 2 -0.004205 0.015515 -0.000851 0.000000 0.000000 0.000000
# 3 -0.004205 -0.000851 0.011584 0.000000 0.000000 0.000000
# 4 0.000000 0.000000 0.000000 0.037568 0.000000 0.000000
# 5 0.000000 0.000000 0.000000 0.000000 0.011446 0.000000
# 6 0.000000 0.000000 0.000000 0.000000 0.000000 0.123322
#
#
# Mechanical properties :
#
#
# Convention : Reuss Voigt Hill
#
# Bulk Modulus (GPa) = 58.98191 74.32390 66.65290
# Shear Modulus (GPa) = 21.55277 39.54631 30.54954
#
# Velocity S-wave (km/s) = 3.23623 4.38370 3.85292
# Velocity P-wave (km/s) = 6.52881 7.85740 7.22372
#
# Compressibility (1/GPa) = 0.01695435
#
# Stress axis : x y z
#
# Youngs Moduli (GPa) = 119.34945 64.45384 86.32903
#
# Poissons Ratio (x) = 0.27104 0.36302
# Poissons Ratio (y) = 0.50189 0.07349
# Poissons Ratio (z) = 0.50187 0.05487
#
# Static dielectric constant tensor:
#      x y z
#    x 1.763020 0.000000 0.000000 
#    y 0.000000 1.815130 0.000000 
#    z 0.000000 0.000000 1.712390 
# 
# From -- ./inp_files/15983.got.cif
#   From: 2010.05.17/outbox.cif.g08.bks.cpg/sg57_8_cif.got.tgz:15983.got - 2010.06.03 13:58:18.
