data_PCOD9439803
_publ_section_title
;
Structure prediction by ZEFSAII (Michael W. Deem and Ramdas Pophale) SiO2 
 PCOD9439803
Probable space group: P B C M
;
_chemical_formula_sum "Si O2"
_cell_formula_units_Z 56
_cell_length_a 14.149536
_cell_length_b 7.945765
_cell_length_c 21.692340
_cell_angle_alpha 90.000000
_cell_angle_beta 90.000000
_cell_angle_gamma 90.000000
_cell_volume 2438.845662
_symmetry_space_group_name_H-M "P B C M"
_symmetry_group_IT_number 57
_symmetry_cell_setting 'orthorhombic'
loop_
_space_group_symop_operation_xyz
x,y,z
-x,-y,1/2+z
x,1/2-y,-z
-x,1/2+y,1/2-z
-x,-y,-z
x,y,1/2-z
-x,1/2+y,z
x,1/2-y,1/2+z
loop_
_atom_site_type_symbol
_atom_site_label
_atom_site_fract_x
_atom_site_fract_y
_atom_site_fract_z
Si Si1 0.872875 0.509345 0.954847
Si Si2 0.075398 0.869195 0.079931
Si Si3 0.719702 0.840005 0.131862
Si Si4 0.614660 0.143687 0.876935
Si Si5 0.467914 0.673312 0.750000
Si Si6 0.202204 0.980962 0.176847
Si Si7 0.456929 0.179708 0.431727
Si Si8 0.346990 0.013812 0.750000
O O1 0.892297 0.322108 0.929060
O O2 0.781579 0.589851 0.924184
O O3 0.965266 0.616181 0.936553
O O4 0.871131 0.483700 0.028522
O O5 0.101647 0.938645 0.146843
O O6 0.766246 0.669996 0.159530
O O7 0.615896 0.791715 0.107781
O O8 0.712564 0.970866 0.188096
O O9 0.723928 0.138404 0.860289
O O10 0.586933 0.005179 0.927455
O O11 0.566682 0.086518 0.812548
O O12 0.560090 0.308246 0.900112
O O13 0.413908 0.851239 0.750000
O O14 0.580587 0.672456 0.750000
O O15 0.207625 0.954533 0.250000
O O16 0.460009 0.250000 0.500000
#
# Coordination Sequence:
#
# PCOD9439803 Si02
#       8
#     8   8   8   8   4   8   8   4
#     4  10  23  45  72 102 130 170 222 270 337 407
#     4  10  23  46  73 100 132 173 218 272 334 409
#     4  11  25  41  66  97 133 172 223 278 334 395
#     4  11  24  41  64  88 131 172 224 268 331 393
#     4  12  24  42  66  89 125 184 226 274 320 402
#     4  11  24  42  64  97 133 176 224 276 333 401
#     4  11  25  42  61  95 130 177 217 279 334 398
#     4  12  26  42  66  95 137 178 236 278 336 396
#
# _framework density 22.961684000000002
#
# number of rings (size 3 to 8) (size 9 to 14) (size 15 to 20)
#    0.000    1.143    2.857    2.143    8.000    1.143 
#    3.857    0.000    0.000    0.000    0.000    0.000 
#    0.000    0.000    0.000    0.000    0.000    0.000 
#
# Total GULP energy -313488.313795 kJ/mol
# GULP energy per Si atom -5598.005603 kJ/mol
# Density = 2.290942 g / cm^3
# Si number density = 22.961684 Si / 1000 Ang^3
#
#
#
# Elastic Constant Matrix: (Units=GPa)
#
#
# Indices 1 2 3 4 5 6 
#
# 1 49.8101 20.2105 12.2541 0.0000 0.0000 0.0000
# 2 20.2105 79.8820 14.3001 0.0000 0.0000 0.0000
# 3 12.2541 14.3001 95.1164 0.0000 0.0000 0.0000
# 4 0.0000 0.0000 0.0000 27.0692 0.0000 0.0000
# 5 0.0000 0.0000 0.0000 0.0000 37.6481 0.0000
# 6 0.0000 0.0000 0.0000 0.0000 0.0000 19.7418
#
#
#
# Elastic Compliance Matrix: (Units=1/GPa)
#
#
# Indices 1 2 3 4 5 6 
#
# 1 0.022784 -0.005384 -0.002126 0.000000 0.000000 0.000000
# 2 -0.005384 0.014137 -0.001432 0.000000 0.000000 0.000000
# 3 -0.002126 -0.001432 0.011003 0.000000 0.000000 0.000000
# 4 0.000000 0.000000 0.000000 0.036942 0.000000 0.000000
# 5 0.000000 0.000000 0.000000 0.000000 0.026562 0.000000
# 6 0.000000 0.000000 0.000000 0.000000 0.000000 0.050654
#
#
# Mechanical properties :
#
#
# Convention : Reuss Voigt Hill
#
# Bulk Modulus (GPa) = 33.28864 35.37088 34.32976
# Shear Modulus (GPa) = 26.31887 28.76139 27.54013
#
# Velocity S-wave (km/s) = 3.38924 3.54302 3.46699
# Velocity P-wave (km/s) = 5.46305 5.67231 5.56866
#
# Compressibility (1/GPa) = 0.03004028
#
# Stress axis : x y z
#
# Youngs Moduli (GPa) = 43.89094 70.73678 90.88785
#
# Poissons Ratio (x) = 0.38084 0.19322
# Poissons Ratio (y) = 0.23630 0.13013
# Poissons Ratio (z) = 0.09331 0.10128
#
# Static dielectric constant tensor:
#      x y z
#    x 1.847850 0.000000 0.000000 
#    y 0.000000 1.918990 0.000000 
#    z 0.000000 0.000000 1.827510 
# 
# From -- ./inp_files/25428.got.cif
#   From: 2010.05.17/outbox.cif.g08.bks.cpg/sg57_13_cif.got.tgz:25428.got - 2010.06.03 13:58:18.
