data_PCOD9439207
_publ_section_title
;
Structure prediction by ZEFSAII (Michael W. Deem and Ramdas Pophale) SiO2 
 PCOD9439207
Probable space group: P B C M
;
_chemical_formula_sum "Si O2"
_cell_formula_units_Z 64
_cell_length_a 10.117244
_cell_length_b 9.452045
_cell_length_c 27.143143
_cell_angle_alpha 90.000000
_cell_angle_beta 90.000000
_cell_angle_gamma 90.000000
_cell_volume 2595.662001
_symmetry_space_group_name_H-M "P B C M"
_symmetry_group_IT_number 57
_symmetry_cell_setting 'orthorhombic'
loop_
_space_group_symop_operation_xyz
x,y,z
-x,-y,1/2+z
x,1/2-y,-z
-x,1/2+y,1/2-z
-x,-y,-z
x,y,1/2-z
-x,1/2+y,z
x,1/2-y,1/2+z
loop_
_atom_site_type_symbol
_atom_site_label
_atom_site_fract_x
_atom_site_fract_y
_atom_site_fract_z
Si Si1 0.612511 0.589471 0.867245
Si Si2 0.747357 0.594382 0.012087
Si Si3 0.980665 0.240090 0.637838
Si Si4 0.368020 0.879686 0.194300
Si Si5 0.792187 0.174345 0.048021
Si Si6 0.166772 0.468395 0.621255
Si Si7 0.498805 0.334544 0.568384
Si Si8 0.215183 0.908154 0.805188
O O1 0.520258 0.611377 0.819661
O O2 0.594494 0.728396 0.900749
O O3 0.541595 0.467302 0.899039
O O4 0.746937 0.524597 0.845728
O O5 0.803231 0.530144 0.063040
O O6 0.590998 0.613942 0.023072
O O7 0.801274 0.750000 0.000000
O O8 0.775633 0.488851 0.967493
O O9 0.886974 0.296756 0.593271
O O10 0.954441 0.073755 0.634869
O O11 0.915055 0.314555 0.685065
O O12 0.122826 0.309155 0.632429
O O13 0.340839 0.926688 0.250000
O O14 0.283620 0.969839 0.154901
O O15 0.326011 0.715408 0.190196
O O16 0.642332 0.232189 0.056404
O O17 0.848720 0.250000 0.000000
O O18 0.213295 0.966412 0.750000
#
# Coordination Sequence:
#
# PCOD9439207 Si02
#       8
#     8   8   8   8   8   8   8   8
#     4  12  20  39  68  97 135 172 209 257 324 388
#     4  12  26  41  64 100 133 173 220 272 326 388
#     4  11  25  45  69  92 126 173 218 274 328 385
#     4  10  21  42  68  96 130 170 210 262 328 393
#     4  12  23  44  66  94 132 174 222 265 331 389
#     4  11  25  45  67  92 127 169 221 272 326 389
#     4  12  23  39  67  96 136 175 211 262 322 384
#     4  10  22  42  68  98 132 170 211 262 329 393
#
# _framework density 24.656523
#
# number of rings (size 3 to 8) (size 9 to 14) (size 15 to 20)
#    0.000    0.750    5.000    3.375    1.750    1.500 
#    0.000    0.000    0.000    0.000    0.000    0.000 
#    0.000    0.000    0.000    0.000    0.000    0.000 
#
# Total GULP energy -358290.169409 kJ/mol
# GULP energy per Si atom -5598.283897 kJ/mol
# Density = 2.460040 g / cm^3
# Si number density = 24.656523 Si / 1000 Ang^3
#
#
#
# Elastic Constant Matrix: (Units=GPa)
#
#
# Indices 1 2 3 4 5 6 
#
# 1 48.3894 8.8364 -4.2667 0.0000 0.0000 0.0000
# 2 8.8364 112.0496 31.3511 0.0000 0.0000 0.0000
# 3 -4.2667 31.3511 85.0588 0.0000 0.0000 0.0000
# 4 0.0000 0.0000 0.0000 25.7480 0.0000 0.0000
# 5 0.0000 0.0000 0.0000 0.0000 -0.4677 0.0000
# 6 0.0000 0.0000 0.0000 0.0000 0.0000 26.2413
#
#
#
# Elastic Compliance Matrix: (Units=1/GPa)
#
#
# Indices 1 2 3 4 5 6 
#
# 1 0.021233 -0.002199 0.001876 0.000000 0.000000 0.000000
# 2 -0.002199 0.010179 -0.003862 0.000000 0.000000 0.000000
# 3 0.001876 -0.003862 0.013274 0.000000 0.000000 0.000000
# 4 0.000000 0.000000 0.000000 0.038838 0.000000 0.000000
# 5 0.000000 0.000000 0.000000 0.000000 -2.138212 0.000000
# 6 0.000000 0.000000 0.000000 0.000000 0.000000 0.038108
#
#
# Mechanical properties :
#
#
# Convention : Reuss Voigt Hill
#
# Bulk Modulus (GPa) = 27.53736 35.25994 31.39865
# Shear Modulus (GPa) = -2.50488 24.27613 10.88562
#
# Velocity S-wave (km/s) = -1.00902 3.14119 2.10345
# Velocity P-wave (km/s) = 3.13610 5.24286 4.31988
#
# Compressibility (1/GPa) = 0.03631431
#
# Stress axis : x y z
#
# Youngs Moduli (GPa) = 47.09726 98.24510 75.33461
#
# Poissons Ratio (x) = 0.21607 -0.14130
# Poissons Ratio (y) = 0.10358 0.29094
# Poissons Ratio (z) = -0.08834 0.37942
#
# Static dielectric constant tensor:
#      x y z
#    x 2.027440 0.000000 0.000000 
#    y 0.000000 1.971320 0.000000 
#    z 0.000000 0.000000 1.927780 
# 
# From -- ./inp_files/29769.got.cif
#   From: 2010.05.17/outbox.cif.g08.bks.cpg/sg57_15_cif.got.tgz:29769.got - 2010.06.03 13:58:18.
