data_PCOD9439580
_publ_section_title
;
Structure prediction by ZEFSAII (Michael W. Deem and Ramdas Pophale) SiO2 
 PCOD9439580
Probable space group: P B C M
;
_chemical_formula_sum "Si O2"
_cell_formula_units_Z 40
_cell_length_a 7.936739
_cell_length_b 11.667950
_cell_length_c 19.263743
_cell_angle_alpha 90.000000
_cell_angle_beta 90.000000
_cell_angle_gamma 90.000000
_cell_volume 1783.928048
_symmetry_space_group_name_H-M "P B C M"
_symmetry_group_IT_number 57
_symmetry_cell_setting 'orthorhombic'
loop_
_space_group_symop_operation_xyz
x,y,z
-x,-y,1/2+z
x,1/2-y,-z
-x,1/2+y,1/2-z
-x,-y,-z
x,y,1/2-z
-x,1/2+y,z
x,1/2-y,1/2+z
loop_
_atom_site_type_symbol
_atom_site_label
_atom_site_fract_x
_atom_site_fract_y
_atom_site_fract_z
Si Si1 0.129065 0.210794 0.886321
Si Si2 0.232674 0.726848 0.169275
Si Si3 0.752472 0.594684 0.481659
Si Si4 0.588823 0.388103 0.436662
Si Si5 0.638918 0.978379 0.172882
O O1 0.199410 0.332214 0.914245
O O2 0.953535 0.229208 0.848466
O O3 0.257561 0.138381 0.839323
O O4 0.123839 0.134109 0.956659
O O5 0.276643 0.755282 0.250000
O O6 0.351320 0.783268 0.110440
O O7 0.245571 0.589677 0.162871
O O8 0.738956 0.458508 0.472115
O O9 0.566085 0.629652 0.510825
O O10 0.510134 0.478088 0.381952
O O11 0.570033 0.982420 0.250000
#
# Coordination Sequence:
#
# PCOD9439580 Si02
#       5
#     8   8   8   8   8
#     4  10  22  43  63  93 136 165 212 264 330 394
#     4  11  25  43  67  97 130 176 221 267 327 388
#     4   9  22  44  64  97 124 170 218 265 335 380
#     4  10  22  44  69  92 133 166 224 276 321 388
#     4  10  23  42  64  94 129 171 221 269 319 387
#
# _framework density 22.422429000000001
#
# number of rings (size 3 to 8) (size 9 to 14) (size 15 to 20)
#    0.000    2.000    0.000    1.200   11.200    0.800 
#   18.000    2.000    0.000    0.000    0.000    0.000 
#    0.000    0.000    0.000    0.000    0.000    0.000 
#
# Total GULP energy -223362.388106 kJ/mol
# GULP energy per Si atom -5584.059703 kJ/mol
# Density = 2.237139 g / cm^3
# Si number density = 22.422429 Si / 1000 Ang^3
#
#
#
# Elastic Constant Matrix: (Units=GPa)
#
#
# Indices 1 2 3 4 5 6 
#
# 1 55.1165 -1.8500 7.1696 0.0000 0.0000 0.0000
# 2 -1.8500 41.3870 25.4853 0.0000 0.0000 0.0000
# 3 7.1696 25.4853 75.6859 0.0000 0.0000 0.0000
# 4 0.0000 0.0000 0.0000 36.9495 0.0000 0.0000
# 5 0.0000 0.0000 0.0000 0.0000 28.8857 0.0000
# 6 0.0000 0.0000 0.0000 0.0000 0.0000 28.0038
#
#
#
# Elastic Compliance Matrix: (Units=1/GPa)
#
#
# Indices 1 2 3 4 5 6 
#
# 1 0.018559 0.002412 -0.002570 0.000000 0.000000 0.000000
# 2 0.002412 0.030796 -0.010598 0.000000 0.000000 0.000000
# 3 -0.002570 -0.010598 0.017025 0.000000 0.000000 0.000000
# 4 0.000000 0.000000 0.000000 0.027064 0.000000 0.000000
# 5 0.000000 0.000000 0.000000 0.000000 0.034619 0.000000
# 6 0.000000 0.000000 0.000000 0.000000 0.000000 0.035710
#
#
# Mechanical properties :
#
#
# Convention : Reuss Voigt Hill
#
# Bulk Modulus (GPa) = 22.28809 25.97767 24.13288
# Shear Modulus (GPa) = 24.96994 28.19343 26.58169
#
# Velocity S-wave (km/s) = 3.34071 3.54980 3.44684
# Velocity P-wave (km/s) = 4.98418 5.33030 5.16015
#
# Compressibility (1/GPa) = 0.04486700
#
# Stress axis : x y z
#
# Youngs Moduli (GPa) = 53.88307 32.47143 58.73816
#
# Poissons Ratio (x) = -0.07833 0.15098
# Poissons Ratio (y) = -0.12998 0.62253
# Poissons Ratio (z) = 0.13850 0.34414
#
# Static dielectric constant tensor:
#      x y z
#    x 1.808030 0.000000 0.000000 
#    y 0.000000 1.852580 0.000000 
#    z 0.000000 0.000000 1.856190 
# 
# From -- ./inp_files/24148.got.cif
#   From: 2010.05.17/outbox.cif.g08.bks.cpg/sg57_13_cif.got.tgz:24148.got - 2010.06.03 13:58:18.
