data_PCOD9439941
_publ_section_title
;
Structure prediction by ZEFSAII (Michael W. Deem and Ramdas Pophale) SiO2 
 PCOD9439941
Probable space group: P B C M
;
_chemical_formula_sum "Si O2"
_cell_formula_units_Z 20
_cell_length_a 10.161000
_cell_length_b 7.890861
_cell_length_c 10.316880
_cell_angle_alpha 90.000000
_cell_angle_beta 90.000000
_cell_angle_gamma 90.000000
_cell_volume 827.197520
_symmetry_space_group_name_H-M "P B C M"
_symmetry_group_IT_number 57
_symmetry_cell_setting 'orthorhombic'
loop_
_space_group_symop_operation_xyz
x,y,z
-x,-y,1/2+z
x,1/2-y,-z
-x,1/2+y,1/2-z
-x,-y,-z
x,y,1/2-z
-x,1/2+y,z
x,1/2-y,1/2+z
loop_
_atom_site_type_symbol
_atom_site_label
_atom_site_fract_x
_atom_site_fract_y
_atom_site_fract_z
Si Si1 0.216305 0.263033 0.750000
Si Si2 0.051372 0.583144 0.250000
Si Si3 0.384388 0.018948 0.102671
Si Si4 0.823563 0.250000 0.000000
O O1 0.314226 0.300179 0.869001
O O2 0.106483 0.412765 0.750000
O O3 0.134022 0.091337 0.750000
O O4 0.091565 0.679081 0.381445
O O5 0.428512 0.968412 0.250000
O O6 0.500000 0.000000 0.000000
O O7 0.271223 0.894591 0.054121
#
# Coordination Sequence:
#
# PCOD9439941 Si02
#       4
#     4   4   8   4
#     4  10  26  51  78 119 148 215 253 333 395 472
#     4  12  26  49  84 111 168 195 269 321 405 470
#     4  10  25  50  76 113 155 207 266 319 393 467
#     4  12  26  48  78 114 156 212 252 338 384 470
#
# _framework density 24.178021999999999
#
# number of rings (size 3 to 8) (size 9 to 14) (size 15 to 20)
#    1.200    0.000    2.000    2.400    2.800   11.200 
#    0.000    0.000    8.800    0.000    0.000    0.000 
#    0.000    0.000    0.000    0.000    0.000    0.000 
#
# Total GULP energy -111828.332474 kJ/mol
# GULP energy per Si atom -5591.416624 kJ/mol
# Density = 2.412299 g / cm^3
# Si number density = 24.178022 Si / 1000 Ang^3
#
#
#
# Elastic Constant Matrix: (Units=GPa)
#
#
# Indices 1 2 3 4 5 6 
#
# 1 149.4404 30.7882 98.9314 0.0000 0.0000 0.0000
# 2 30.7882 73.3864 39.5484 0.0000 0.0000 0.0000
# 3 98.9314 39.5484 240.3960 0.0000 0.0000 0.0000
# 4 0.0000 0.0000 0.0000 45.1144 0.0000 0.0000
# 5 0.0000 0.0000 0.0000 0.0000 37.7421 0.0000
# 6 0.0000 0.0000 0.0000 0.0000 0.0000 22.2007
#
#
#
# Elastic Compliance Matrix: (Units=1/GPa)
#
#
# Indices 1 2 3 4 5 6 
#
# 1 0.009472 -0.002055 -0.003560 0.000000 0.000000 0.000000
# 2 -0.002055 0.015398 -0.001687 0.000000 0.000000 0.000000
# 3 -0.003560 -0.001687 0.005902 0.000000 0.000000 0.000000
# 4 0.000000 0.000000 0.000000 0.022166 0.000000 0.000000
# 5 0.000000 0.000000 0.000000 0.000000 0.026496 0.000000
# 6 0.000000 0.000000 0.000000 0.000000 0.000000 0.045044
#
#
# Mechanical properties :
#
#
# Convention : Reuss Voigt Hill
#
# Bulk Modulus (GPa) = 61.85355 89.08434 75.46894
# Shear Modulus (GPa) = 34.60891 40.60841 37.60866
#
# Velocity S-wave (km/s) = 3.78752 4.10269 3.94825
# Velocity P-wave (km/s) = 6.69067 7.70506 7.21571
#
# Compressibility (1/GPa) = 0.01616722
#
# Stress axis : x y z
#
# Youngs Moduli (GPa) = 105.57750 64.94304 169.42298
#
# Poissons Ratio (x) = 0.13348 0.60311
# Poissons Ratio (y) = 0.21699 0.28588
# Poissons Ratio (z) = 0.37584 0.10958
#
# Static dielectric constant tensor:
#      x y z
#    x 1.917780 0.000000 0.000000 
#    y 0.000000 2.003540 0.000000 
#    z 0.000000 0.000000 1.842070 
# 
# From -- ./inp_files/2235.got.cif
#   From: 2010.05.17/outbox.cif.g08.bks.cpg/sg57_2_cif.got.tgz:2235.got - 2010.06.03 13:58:18.
