data_PCOD9439167
_publ_section_title
;
Structure prediction by ZEFSAII (Michael W. Deem and Ramdas Pophale) SiO2 
 PCOD9439167
Probable space group: P B C M
;
_chemical_formula_sum "Si O2"
_cell_formula_units_Z 48
_cell_length_a 16.459073
_cell_length_b 9.772016
_cell_length_c 14.504292
_cell_angle_alpha 90.000000
_cell_angle_beta 90.000000
_cell_angle_gamma 90.000000
_cell_volume 2332.846026
_symmetry_space_group_name_H-M "P B C M"
_symmetry_group_IT_number 57
_symmetry_cell_setting 'orthorhombic'
loop_
_space_group_symop_operation_xyz
x,y,z
-x,-y,1/2+z
x,1/2-y,-z
-x,1/2+y,1/2-z
-x,-y,-z
x,y,1/2-z
-x,1/2+y,z
x,1/2-y,1/2+z
loop_
_atom_site_type_symbol
_atom_site_label
_atom_site_fract_x
_atom_site_fract_y
_atom_site_fract_z
Si Si1 0.537649 0.052415 0.640991
Si Si2 0.406777 0.650100 0.357925
Si Si3 0.753533 0.392565 0.551160
Si Si4 0.324347 0.363302 0.568574
Si Si5 0.154131 0.289146 0.858415
Si Si6 0.092649 0.462064 0.481811
O O1 0.524238 0.073762 0.750000
O O2 0.457924 0.977006 0.600899
O O3 0.609141 0.941230 0.628228
O O4 0.565789 0.200875 0.604131
O O5 0.426048 0.652949 0.250000
O O6 0.311079 0.622956 0.367395
O O7 0.746222 0.250000 0.500000
O O8 0.718764 0.518521 0.491544
O O9 0.848804 0.422937 0.562014
O O10 0.360387 0.250000 0.500000
O O11 0.251600 0.288233 0.624358
O O12 0.137110 0.290645 0.750000
O O13 0.110171 0.164932 0.912574
O O14 0.124282 0.420361 0.916155
O O15 0.000000 0.500000 0.500000
#
# Coordination Sequence:
#
# PCOD9439167 Si02
#       6
#     8   8   8   8   8   8
#     4  10  22  39  59  86 127 171 219 274 323 380
#     4  10  23  40  58  89 126 168 219 269 325 385
#     4  11  22  40  62  88 121 165 208 264 328 383
#     4  11  21  40  60  91 121 165 220 263 320 382
#     4  10  21  41  65  93 127 168 215 264 326 398
#     4  10  23  42  66  96 129 165 213 273 329 401
#
# _framework density 20.575726
#
# number of rings (size 3 to 8) (size 9 to 14) (size 15 to 20)
#    0.000    1.667    5.000    0.500    4.667    2.667 
#    0.000    0.000    0.000    0.000    0.000    0.000 
#    0.000    0.000    0.000    0.000    0.000    0.000 
#
# Total GULP energy -267581.371216 kJ/mol
# GULP energy per Si atom -5574.611900 kJ/mol
# Density = 2.052889 g / cm^3
# Si number density = 20.575726 Si / 1000 Ang^3
#
#
#
# Elastic Constant Matrix: (Units=GPa)
#
#
# Indices 1 2 3 4 5 6 
#
# 1 133.8046 38.0701 21.7384 0.0000 0.0000 0.0000
# 2 38.0701 103.3368 34.0967 0.0000 0.0000 0.0000
# 3 21.7384 34.0967 81.9216 0.0000 0.0000 0.0000
# 4 0.0000 0.0000 0.0000 24.4920 0.0000 0.0000
# 5 0.0000 0.0000 0.0000 0.0000 21.9384 0.0000
# 6 0.0000 0.0000 0.0000 0.0000 0.0000 -46.3597
#
#
#
# Elastic Compliance Matrix: (Units=1/GPa)
#
#
# Indices 1 2 3 4 5 6 
#
# 1 0.008433 -0.002745 -0.001095 0.000000 0.000000 0.000000
# 2 -0.002745 0.012111 -0.004312 0.000000 0.000000 0.000000
# 3 -0.001095 -0.004312 0.014292 0.000000 0.000000 0.000000
# 4 0.000000 0.000000 0.000000 0.040830 0.000000 0.000000
# 5 0.000000 0.000000 0.000000 0.000000 0.045582 0.000000
# 6 0.000000 0.000000 0.000000 0.000000 0.000000 -0.021570
#
#
# Mechanical properties :
#
#
# Convention : Reuss Voigt Hill
#
# Bulk Modulus (GPa) = 53.96440 56.31927 55.14183
# Shear Modulus (GPa) = 40.92993 15.02465 27.97729
#
# Velocity S-wave (km/s) = 4.46492 2.70518 3.69144
# Velocity P-wave (km/s) = 7.27082 6.09823 6.71019
#
# Compressibility (1/GPa) = 0.01853074
#
# Stress axis : x y z
#
# Youngs Moduli (GPa) = 118.58756 82.56676 69.96805
#
# Poissons Ratio (x) = 0.22667 0.07662
# Poissons Ratio (y) = 0.32556 0.30173
# Poissons Ratio (z) = 0.12985 0.35606
#
# Static dielectric constant tensor:
#      x y z
#    x 1.792990 0.000000 0.000000 
#    y 0.000000 1.776170 0.000000 
#    z 0.000000 0.000000 1.739910 
# 
# From -- ./inp_files/18940.got.cif
#   From: 2010.05.17/outbox.cif.g08.bks.cpg/sg57_10_cif.got.tgz:18940.got - 2010.06.03 13:58:18.
