data_PCOD9439355
_publ_section_title
;
Structure prediction by ZEFSAII (Michael W. Deem and Ramdas Pophale) SiO2 
 PCOD9439355
Probable space group: P B C M
;
_chemical_formula_sum "Si O2"
_cell_formula_units_Z 48
_cell_length_a 17.104440
_cell_length_b 16.078740
_cell_length_c 8.903861
_cell_angle_alpha 90.000000
_cell_angle_beta 90.000000
_cell_angle_gamma 90.000000
_cell_volume 2448.720652
_symmetry_space_group_name_H-M "P B C M"
_symmetry_group_IT_number 57
_symmetry_cell_setting 'orthorhombic'
loop_
_space_group_symop_operation_xyz
x,y,z
-x,-y,1/2+z
x,1/2-y,-z
-x,1/2+y,1/2-z
-x,-y,-z
x,y,1/2-z
-x,1/2+y,z
x,1/2-y,1/2+z
loop_
_atom_site_type_symbol
_atom_site_label
_atom_site_fract_x
_atom_site_fract_y
_atom_site_fract_z
Si Si1 0.842728 0.584583 0.926293
Si Si2 0.675487 0.165309 0.571792
Si Si3 0.831415 0.111695 0.425562
Si Si4 0.991330 0.839978 0.569845
Si Si5 0.690616 0.661744 0.069625
Si Si6 0.585878 0.997777 0.931400
O O1 0.845262 0.606242 0.750000
O O2 0.822264 0.487462 0.940034
O O3 0.776550 0.638132 0.008675
O O4 0.926908 0.599559 0.999929
O O5 0.643804 0.250000 0.500000
O O6 0.669433 0.170912 0.750000
O O7 0.765578 0.154904 0.523847
O O8 0.631606 0.081396 0.521032
O O9 0.820037 0.134112 0.250000
O O10 0.919805 0.135068 0.468067
O O11 0.975374 0.750000 0.500000
O O12 0.984193 0.838829 0.750000
O O13 0.692372 0.667276 0.250000
O O14 0.633490 0.585479 0.025704
O O15 0.666459 0.750000 0.000000
O O16 0.581479 0.998340 0.750000
O O17 0.500000 0.000000 0.000000
#
# Coordination Sequence:
#
# PCOD9439355 Si02
#       6
#     8   8   8   8   8   8
#     4  11  22  38  61  89 120 161 209 257 311 367
#     4  11  23  41  65  95 128 166 208 254 309 369
#     4  10  22  39  61  89 120 161 210 257 310 366
#     4  11  23  38  55  82 120 161 208 259 308 363
#     4  11  23  42  65  94 127 165 209 255 310 369
#     4  10  24  44  67  94 127 163 203 252 311 372
#
# _framework density 19.602074000000002
#
# number of rings (size 3 to 8) (size 9 to 14) (size 15 to 20)
#    0.000    1.333    1.667    3.500    0.000    6.667 
#    0.000    3.333    0.000    0.000    0.000    0.000 
#    0.000    0.000    0.000    0.000    0.000    0.000 
#
# Total GULP energy -268411.645266 kJ/mol
# GULP energy per Si atom -5591.909276 kJ/mol
# Density = 1.955746 g / cm^3
# Si number density = 19.602074 Si / 1000 Ang^3
#
#
#
# Elastic Constant Matrix: (Units=GPa)
#
#
# Indices 1 2 3 4 5 6 
#
# 1 104.1941 43.2159 35.3094 0.0000 0.0000 0.0000
# 2 43.2159 113.9535 46.0849 0.0000 0.0000 0.0000
# 3 35.3094 46.0849 56.4221 0.0000 0.0000 0.0000
# 4 0.0000 0.0000 0.0000 28.5368 0.0000 0.0000
# 5 0.0000 0.0000 0.0000 0.0000 36.1062 0.0000
# 6 0.0000 0.0000 0.0000 0.0000 0.0000 8.8014
#
#
#
# Elastic Compliance Matrix: (Units=1/GPa)
#
#
# Indices 1 2 3 4 5 6 
#
# 1 0.012596 -0.002373 -0.005945 0.000000 0.000000 0.000000
# 2 -0.002373 0.013551 -0.009583 0.000000 0.000000 0.000000
# 3 -0.005945 -0.009583 0.029271 0.000000 0.000000 0.000000
# 4 0.000000 0.000000 0.000000 0.035043 0.000000 0.000000
# 5 0.000000 0.000000 0.000000 0.000000 0.027696 0.000000
# 6 0.000000 0.000000 0.000000 0.000000 0.000000 0.113618
#
#
# Mechanical properties :
#
#
# Convention : Reuss Voigt Hill
#
# Bulk Modulus (GPa) = 50.97677 58.19889 54.58783
# Shear Modulus (GPa) = 18.24042 24.68617 21.46329
#
# Velocity S-wave (km/s) = 3.05378 3.55260 3.31259
# Velocity P-wave (km/s) = 6.20454 6.82515 6.52223
#
# Compressibility (1/GPa) = 0.01961678
#
# Stress axis : x y z
#
# Youngs Moduli (GPa) = 79.38916 73.79462 34.16306
#
# Poissons Ratio (x) = 0.17510 0.20309
# Poissons Ratio (y) = 0.18838 0.32740
# Poissons Ratio (z) = 0.47194 0.70721
#
# Static dielectric constant tensor:
#      x y z
#    x 1.656510 0.000000 0.000000 
#    y 0.000000 1.701170 0.000000 
#    z 0.000000 0.000000 1.657790 
# 
# From -- ./inp_files/6520.got.cif
#   From: 2010.05.17/outbox.cif.g08.bks.cpg/sg57_4_cif.got.tgz:6520.got - 2010.06.03 13:58:18.
