data_PCOD9439269
_publ_section_title
;
Structure prediction by ZEFSAII (Michael W. Deem and Ramdas Pophale) SiO2 
 PCOD9439269
Probable space group: P B C M
;
_chemical_formula_sum "Si O2"
_cell_formula_units_Z 48
_cell_length_a 10.788518
_cell_length_b 15.616774
_cell_length_c 11.275593
_cell_angle_alpha 90.000000
_cell_angle_beta 90.000000
_cell_angle_gamma 90.000000
_cell_volume 1899.732739
_symmetry_space_group_name_H-M "P B C M"
_symmetry_group_IT_number 57
_symmetry_cell_setting 'orthorhombic'
loop_
_space_group_symop_operation_xyz
x,y,z
-x,-y,1/2+z
x,1/2-y,-z
-x,1/2+y,1/2-z
-x,-y,-z
x,y,1/2-z
-x,1/2+y,z
x,1/2-y,1/2+z
loop_
_atom_site_type_symbol
_atom_site_label
_atom_site_fract_x
_atom_site_fract_y
_atom_site_fract_z
Si Si1 0.625518 0.275027 0.623188
Si Si2 0.141295 0.477092 0.622557
Si Si3 0.858088 0.473239 0.624790
Si Si4 0.908670 0.271968 0.624735
Si Si5 0.501159 0.557351 0.117932
Si Si6 0.268800 0.308355 0.882693
O O1 0.563713 0.250000 0.500000
O O2 0.570237 0.247913 0.750000
O O3 0.765308 0.238371 0.621389
O O4 0.616605 0.378087 0.621375
O O5 0.195357 0.504163 0.750000
O O6 0.202175 0.505539 0.500313
O O7 0.152467 0.374058 0.618917
O O8 0.999727 0.510142 0.621440
O O9 0.801765 0.502306 0.750000
O O10 0.884760 0.372782 0.628825
O O11 0.968909 0.250000 0.500000
O O12 0.964401 0.242388 0.750000
O O13 0.507144 0.515306 0.250000
O O14 0.615837 0.624740 0.112376
O O15 0.500000 0.500000 0.000000
O O16 0.272569 0.267007 0.750000
O O17 0.267640 0.250000 0.000000
#
# Coordination Sequence:
#
# PCOD9439269 Si02
#       6
#     8   8   8   8   8   8
#     4   9  18  33  51  72 100 132 167 208 253 304
#     4   9  19  35  53  76 106 139 176 220 265 312
#     4   9  18  33  53  76 105 140 178 219 263 313
#     4   9  18  31  48  73 101 130 166 208 253 303
#     4  10  22  37  54  79 107 137 176 221 266 316
#     4  10  22  39  57  81 112 145 183 226 272 324
#
# _framework density 25.266711999999998
#
# number of rings (size 3 to 8) (size 9 to 14) (size 15 to 20)
#    0.000    2.667    0.000    0.500    2.333    3.333 
#    0.000    0.000    0.000    0.000    0.000    0.000 
#    0.000    0.000    0.000    0.000    0.000    0.000 
#
# Total GULP energy -267557.983044 kJ/mol
# GULP energy per Si atom -5574.124647 kJ/mol
# Density = 2.520920 g / cm^3
# Si number density = 25.266712 Si / 1000 Ang^3
#
#
#
# Elastic Constant Matrix: (Units=GPa)
#
#
# Indices 1 2 3 4 5 6 
#
# 1 94.3380 -4.8795 7.3113 0.0000 0.0000 0.0000
# 2 -4.8795 29.4360 74.1904 0.0000 0.0000 0.0000
# 3 7.3113 74.1904 397.6384 0.0000 0.0000 0.0000
# 4 0.0000 0.0000 0.0000 52.4905 0.0000 0.0000
# 5 0.0000 0.0000 0.0000 0.0000 -54.5573 0.0000
# 6 0.0000 0.0000 0.0000 0.0000 0.0000 23.8763
#
#
#
# Elastic Compliance Matrix: (Units=1/GPa)
#
#
# Indices 1 2 3 4 5 6 
#
# 1 0.010905 0.004366 -0.001015 0.000000 0.000000 0.000000
# 2 0.004366 0.065876 -0.012371 0.000000 0.000000 0.000000
# 3 -0.001015 -0.012371 0.004842 0.000000 0.000000 0.000000
# 4 0.000000 0.000000 0.000000 0.019051 0.000000 0.000000
# 5 0.000000 0.000000 0.000000 0.000000 -0.018329 0.000000
# 6 0.000000 0.000000 0.000000 0.000000 0.000000 0.041882
#
#
# Mechanical properties :
#
#
# Convention : Reuss Voigt Hill
#
# Bulk Modulus (GPa) = 15.72767 74.96185 45.34476
# Shear Modulus (GPa) = 30.58822 34.01459 32.30140
#
# Velocity S-wave (km/s) = 3.48316 3.67307 3.57938
# Velocity P-wave (km/s) = 4.73442 6.90805 5.92182
#
# Compressibility (1/GPa) = 0.06358223
#
# Stress axis : x y z
#
# Youngs Moduli (GPa) = 91.70361 15.17995 206.53795
#
# Poissons Ratio (x) = -0.06628 0.20966
# Poissons Ratio (y) = -0.40039 2.55515
# Poissons Ratio (z) = 0.09309 0.18780
#
# Static dielectric constant tensor:
#      x y z
#    x 2.144000 0.000000 0.000000 
#    y 0.000000 1.944300 0.000000 
#    z 0.000000 0.000000 2.064480 
# 
# From -- ./inp_files/13729.got.cif
#   From: 2010.05.17/outbox.cif.g08.bks.cpg/sg57_7_cif.got.tgz:13729.got - 2010.06.03 13:58:18.
