data_PCOD9439305
_publ_section_title
;
Structure prediction by ZEFSAII (Michael W. Deem and Ramdas Pophale) SiO2 
 PCOD9439305
Probable space group: P B C M
;
_chemical_formula_sum "Si O2"
_cell_formula_units_Z 32
_cell_length_a 8.965207
_cell_length_b 10.961334
_cell_length_c 14.258248
_cell_angle_alpha 90.000000
_cell_angle_beta 90.000000
_cell_angle_gamma 90.000000
_cell_volume 1401.166990
_symmetry_space_group_name_H-M "P B C M"
_symmetry_group_IT_number 57
_symmetry_cell_setting 'orthorhombic'
loop_
_space_group_symop_operation_xyz
x,y,z
-x,-y,1/2+z
x,1/2-y,-z
-x,1/2+y,1/2-z
-x,-y,-z
x,y,1/2-z
-x,1/2+y,z
x,1/2-y,1/2+z
loop_
_atom_site_type_symbol
_atom_site_label
_atom_site_fract_x
_atom_site_fract_y
_atom_site_fract_z
Si Si1 0.125298 0.899738 0.250000
Si Si2 0.369334 0.203368 0.908044
Si Si3 0.487156 0.546041 0.750000
Si Si4 0.754249 0.876162 0.750000
Si Si5 0.908574 0.540944 0.590582
Si Si6 0.760028 0.376206 0.750000
O O1 0.217666 0.767978 0.250000
O O2 0.020866 0.883164 0.343095
O O3 0.089406 0.062654 0.250000
O O4 0.469194 0.120239 0.841321
O O5 0.302026 0.307154 0.840256
O O6 0.228137 0.126113 0.942066
O O7 0.451495 0.250000 0.000000
O O8 0.310712 0.517663 0.750000
O O9 0.583631 0.421199 0.750000
O O10 0.823872 0.440343 0.655327
O O11 0.000000 0.500000 0.500000
#
# Coordination Sequence:
#
# PCOD9439305 Si02
#       6
#     4   8   4   4   8   4
#     4  11  23  33  61  91 117 157 197 241 301 369
#     4  10  22  40  64  88 119 158 201 249 304 362
#     4   9  22  43  62  85 118 163 203 254 294 346
#     4  11  23  39  65  87 119 163 205 243 305 349
#     4  10  22  38  61  88 124 154 191 247 306 364
#     4   9  22  39  56  89 120 153 201 246 296 360
#
# _framework density 22.838106
#
# number of rings (size 3 to 8) (size 9 to 14) (size 15 to 20)
#    0.000    2.000    0.000    3.750   14.000    1.000 
#    0.000    0.000    0.000    0.000    0.000    0.000 
#    0.000    0.000    0.000    0.000    0.000    0.000 
#
# Total GULP energy -178291.385043 kJ/mol
# GULP energy per Si atom -5571.605783 kJ/mol
# Density = 2.278613 g / cm^3
# Si number density = 22.838106 Si / 1000 Ang^3
#
#
#
# Elastic Constant Matrix: (Units=GPa)
#
#
# Indices 1 2 3 4 5 6 
#
# 1 53.1632 16.5451 23.8579 0.0000 0.0000 0.0000
# 2 16.5451 91.8465 3.8530 0.0000 0.0000 0.0000
# 3 23.8579 3.8530 127.4604 0.0000 0.0000 0.0000
# 4 0.0000 0.0000 0.0000 38.3241 0.0000 0.0000
# 5 0.0000 0.0000 0.0000 0.0000 85.3312 0.0000
# 6 0.0000 0.0000 0.0000 0.0000 0.0000 6.1351
#
#
#
# Elastic Compliance Matrix: (Units=1/GPa)
#
#
# Indices 1 2 3 4 5 6 
#
# 1 0.021754 -0.003753 -0.003959 0.000000 0.000000 0.000000
# 2 -0.003753 0.011549 0.000353 0.000000 0.000000 0.000000
# 3 -0.003959 0.000353 0.008576 0.000000 0.000000 0.000000
# 4 0.000000 0.000000 0.000000 0.026093 0.000000 0.000000
# 5 0.000000 0.000000 0.000000 0.000000 0.011719 0.000000
# 6 0.000000 0.000000 0.000000 0.000000 0.000000 0.162996
#
#
# Mechanical properties :
#
#
# Convention : Reuss Voigt Hill
#
# Bulk Modulus (GPa) = 36.81442 40.10912 38.46177
# Shear Modulus (GPa) = 18.76470 41.17234 29.96852
#
# Velocity S-wave (km/s) = 2.86954 4.25054 3.62638
# Velocity P-wave (km/s) = 5.20900 6.45677 5.86616
#
# Compressibility (1/GPa) = 0.02716327
#
# Stress axis : x y z
#
# Youngs Moduli (GPa) = 45.96778 86.58818 116.60663
#
# Poissons Ratio (x) = 0.32494 0.46159
# Poissons Ratio (y) = 0.17250 -0.04120
# Poissons Ratio (z) = 0.18196 -0.03059
#
# Static dielectric constant tensor:
#      x y z
#    x 1.929470 0.000000 0.000000 
#    y 0.000000 1.940460 0.000000 
#    z 0.000000 0.000000 1.963140 
# 
# From -- ./inp_files/15574.got.cif
#   From: 2010.05.17/outbox.cif.g08.bks.cpg/sg57_8_cif.got.tgz:15574.got - 2010.06.03 13:58:18.
