data_PCOD9439208
_publ_section_title
;
Structure prediction by ZEFSAII (Michael W. Deem and Ramdas Pophale) SiO2 
 PCOD9439208
Probable space group: P B C M
;
_chemical_formula_sum "Si O2"
_cell_formula_units_Z 48
_cell_length_a 13.712053
_cell_length_b 9.008357
_cell_length_c 16.060627
_cell_angle_alpha 90.000000
_cell_angle_beta 90.000000
_cell_angle_gamma 90.000000
_cell_volume 1983.857931
_symmetry_space_group_name_H-M "P B C M"
_symmetry_group_IT_number 57
_symmetry_cell_setting 'orthorhombic'
loop_
_space_group_symop_operation_xyz
x,y,z
-x,-y,1/2+z
x,1/2-y,-z
-x,1/2+y,1/2-z
-x,-y,-z
x,y,1/2-z
-x,1/2+y,z
x,1/2-y,1/2+z
loop_
_atom_site_type_symbol
_atom_site_label
_atom_site_fract_x
_atom_site_fract_y
_atom_site_fract_z
Si Si1 0.573312 0.424843 0.064505
Si Si2 0.249810 0.947794 0.655608
Si Si3 0.932607 0.564768 0.922737
Si Si4 0.465978 0.868218 0.657290
Si Si5 0.789934 0.352496 0.073674
Si Si6 0.082576 0.386085 0.845323
O O1 0.536971 0.265267 0.093064
O O2 0.560715 0.533012 0.143240
O O3 0.684961 0.405386 0.040660
O O4 0.500000 0.500000 0.000000
O O5 0.226868 0.995671 0.750000
O O6 0.366547 0.963714 0.645602
O O7 0.229779 0.771379 0.644354
O O8 0.181881 0.026762 0.586741
O O9 0.934897 0.739107 0.901232
O O10 0.981039 0.474623 0.847043
O O11 0.000000 0.500000 0.000000
O O12 0.462119 0.807158 0.750000
O O13 0.844679 0.493800 0.112075
O O14 0.837773 0.250000 0.000000
O O15 0.110198 0.350432 0.750000
#
# Coordination Sequence:
#
# PCOD9439208 Si02
#       6
#     8   8   8   8   8   8
#     4  11  22  41  67  98 137 183 230 283 347 412
#     4  10  21  42  68  97 136 183 230 284 347 414
#     4  12  26  46  71 102 141 183 228 283 346 415
#     4  10  22  39  65  98 136 180 230 284 342 407
#     4  11  24  44  69  98 137 183 233 286 348 418
#     4  12  26  46  73 105 139 182 232 288 349 416
#
# _framework density 24.195281999999999
#
# number of rings (size 3 to 8) (size 9 to 14) (size 15 to 20)
#    0.000    1.000    0.000    7.500    0.000    3.333 
#    0.000    3.333    0.000    0.000    0.000    0.000 
#    0.000    0.000    0.000    0.000    0.000    0.000 
#
# Total GULP energy -268022.112587 kJ/mol
# GULP energy per Si atom -5583.794012 kJ/mol
# Density = 2.414021 g / cm^3
# Si number density = 24.195282 Si / 1000 Ang^3
#
#
#
# Elastic Constant Matrix: (Units=GPa)
#
#
# Indices 1 2 3 4 5 6 
#
# 1 85.6169 52.2528 37.8557 0.0000 0.0000 0.0000
# 2 52.2528 143.1443 37.8804 0.0000 0.0000 0.0000
# 3 37.8557 37.8804 152.5009 0.0000 0.0000 0.0000
# 4 0.0000 0.0000 0.0000 31.9859 0.0000 0.0000
# 5 0.0000 0.0000 0.0000 0.0000 37.3474 0.0000
# 6 0.0000 0.0000 0.0000 0.0000 0.0000 47.1373
#
#
#
# Elastic Compliance Matrix: (Units=1/GPa)
#
#
# Indices 1 2 3 4 5 6 
#
# 1 0.016002 -0.005127 -0.002699 0.000000 0.000000 0.000000
# 2 -0.005127 0.009120 -0.000993 0.000000 0.000000 0.000000
# 3 -0.002699 -0.000993 0.007474 0.000000 0.000000 0.000000
# 4 0.000000 0.000000 0.000000 0.031264 0.000000 0.000000
# 5 0.000000 0.000000 0.000000 0.000000 0.026776 0.000000
# 6 0.000000 0.000000 0.000000 0.000000 0.000000 0.021215
#
#
# Mechanical properties :
#
#
# Convention : Reuss Voigt Hill
#
# Bulk Modulus (GPa) = 66.84869 70.80443 68.82656
# Shear Modulus (GPa) = 37.18180 40.17899 38.68040
#
# Velocity S-wave (km/s) = 3.92438 4.07948 4.00268
# Velocity P-wave (km/s) = 6.94429 7.17752 7.06187
#
# Compressibility (1/GPa) = 0.01495916
#
# Stress axis : x y z
#
# Youngs Moduli (GPa) = 62.49052 109.64552 133.80034
#
# Poissons Ratio (x) = 0.56219 0.36109
# Poissons Ratio (y) = 0.32041 0.13282
# Poissons Ratio (z) = 0.16864 0.10884
#
# Static dielectric constant tensor:
#      x y z
#    x 1.944130 0.000000 0.000000 
#    y 0.000000 1.962040 0.000000 
#    z 0.000000 0.000000 2.098470 
# 
# From -- ./inp_files/22473.got.cif
#   From: 2010.05.17/outbox.cif.g08.bks.cpg/sg57_12_cif.got.tgz:22473.got - 2010.06.03 13:58:18.
