data_PCOD9439249
_publ_section_title
;
Structure prediction by ZEFSAII (Michael W. Deem and Ramdas Pophale) SiO2 
 PCOD9439249
Probable space group: P B C M
;
_chemical_formula_sum "Si O2"
_cell_formula_units_Z 52
_cell_length_a 7.740671
_cell_length_b 20.419156
_cell_length_c 12.096611
_cell_angle_alpha 90.000000
_cell_angle_beta 90.000000
_cell_angle_gamma 90.000000
_cell_volume 1911.965763
_symmetry_space_group_name_H-M "P B C M"
_symmetry_group_IT_number 57
_symmetry_cell_setting 'orthorhombic'
loop_
_space_group_symop_operation_xyz
x,y,z
-x,-y,1/2+z
x,1/2-y,-z
-x,1/2+y,1/2-z
-x,-y,-z
x,y,1/2-z
-x,1/2+y,z
x,1/2-y,1/2+z
loop_
_atom_site_type_symbol
_atom_site_label
_atom_site_fract_x
_atom_site_fract_y
_atom_site_fract_z
Si Si1 0.963860 0.734216 0.750000
Si Si2 0.899276 0.133333 0.931329
Si Si3 0.373665 0.319985 0.250000
Si Si4 0.258654 0.998701 0.123717
Si Si5 0.589716 0.358727 0.921850
Si Si6 0.687204 0.241771 0.250000
Si Si7 0.760767 0.830010 0.490845
Si Si8 0.334925 0.493537 0.127338
O O1 0.029533 0.688891 0.649667
O O2 0.114903 0.785632 0.750000
O O3 0.760557 0.743735 0.750000
O O4 0.874519 0.062397 0.879255
O O5 0.051616 0.141382 0.020884
O O6 0.711678 0.151611 0.973588
O O7 0.578796 0.309780 0.250000
O O8 0.308169 0.349255 0.133477
O O9 0.238044 0.028751 0.250000
O O10 0.460691 0.975052 0.123174
O O11 0.247356 0.022208 0.992206
O O12 0.612072 0.293185 0.855211
O O13 0.657738 0.426742 0.873211
O O14 0.385965 0.361645 0.934893
O O15 0.759580 0.750000 0.500000
O O16 0.267218 0.474164 0.250000
#
# Coordination Sequence:
#
# PCOD9439249 Si02
#       8
#     4   8   4   8   8   4   8   8
#     4  10  22  34  55  81 111 147 194 240 280 346
#     4  10  22  37  57  85 111 148 196 241 291 345
#     4  10  22  38  52  76 110 152 192 238 286 334
#     4   9  17  35  62  88 116 153 196 251 302 352
#     4  11  23  36  56  83 114 153 194 234 289 353
#     4  12  22  34  53  79 113 153 192 232 280 348
#     4  11  23  38  56  80 117 155 189 241 290 349
#     4   9  18  35  59  88 120 153 195 246 304 359
#
# _framework density 27.197137999999999
#
# number of rings (size 3 to 8) (size 9 to 14) (size 15 to 20)
#    0.000    1.846    3.077    0.923    4.308    0.000 
#    1.385    0.769    0.000    0.000    0.000    0.000 
#    0.000    0.000    0.000    0.000    0.000    0.000 
#
# Total GULP energy -289641.598220 kJ/mol
# GULP energy per Si atom -5570.030735 kJ/mol
# Density = 2.713524 g / cm^3
# Si number density = 27.197138 Si / 1000 Ang^3
#
#
#
# Elastic Constant Matrix: (Units=GPa)
#
#
# Indices 1 2 3 4 5 6 
#
# 1 92.3470 4.9837 24.0225 0.0000 0.0000 0.0000
# 2 4.9837 62.2546 27.6174 0.0000 0.0000 0.0000
# 3 24.0225 27.6174 184.5731 0.0000 0.0000 0.0000
# 4 0.0000 0.0000 0.0000 41.3727 0.0000 0.0000
# 5 0.0000 0.0000 0.0000 0.0000 12.4387 0.0000
# 6 0.0000 0.0000 0.0000 0.0000 0.0000 37.9888
#
#
#
# Elastic Compliance Matrix: (Units=1/GPa)
#
#
# Indices 1 2 3 4 5 6 
#
# 1 0.011212 -0.000268 -0.001419 0.000000 0.000000 0.000000
# 2 -0.000268 0.017212 -0.002540 0.000000 0.000000 0.000000
# 3 -0.001419 -0.002540 0.005983 0.000000 0.000000 0.000000
# 4 0.000000 0.000000 0.000000 0.024171 0.000000 0.000000
# 5 0.000000 0.000000 0.000000 0.000000 0.080394 0.000000
# 6 0.000000 0.000000 0.000000 0.000000 0.000000 0.026324
#
#
# Mechanical properties :
#
#
# Convention : Reuss Voigt Hill
#
# Bulk Modulus (GPa) = 38.53370 50.26910 44.40140
# Shear Modulus (GPa) = 27.41219 37.19678 32.30449
#
# Velocity S-wave (km/s) = 3.17820 3.70222 3.45017
# Velocity P-wave (km/s) = 5.25994 6.06618 5.67739
#
# Compressibility (1/GPa) = 0.02595131
#
# Stress axis : x y z
#
# Youngs Moduli (GPa) = 89.18722 58.10059 167.14732
#
# Poissons Ratio (x) = 0.01557 0.23722
# Poissons Ratio (y) = 0.02390 0.42463
# Poissons Ratio (z) = 0.12658 0.14760
#
# Static dielectric constant tensor:
#      x y z
#    x 2.484880 0.000000 0.000000 
#    y 0.000000 2.202330 0.000000 
#    z 0.000000 0.000000 2.379840 
# 
# From -- ./inp_files/12145.got.cif
#   From: 2010.05.17/outbox.cif.g08.bks.cpg/sg57_7_cif.got.tgz:12145.got - 2010.06.03 13:58:18.
