data_PCOD9439455
_publ_section_title
;
Structure prediction by ZEFSAII (Michael W. Deem and Ramdas Pophale) SiO2 
 PCOD9439455
Probable space group: P B C M
;
_chemical_formula_sum "Si O2"
_cell_formula_units_Z 40
_cell_length_a 8.758116
_cell_length_b 10.502851
_cell_length_c 21.708016
_cell_angle_alpha 90.000000
_cell_angle_beta 90.000000
_cell_angle_gamma 90.000000
_cell_volume 1996.815920
_symmetry_space_group_name_H-M "P B C M"
_symmetry_group_IT_number 57
_symmetry_cell_setting 'orthorhombic'
loop_
_space_group_symop_operation_xyz
x,y,z
-x,-y,1/2+z
x,1/2-y,-z
-x,1/2+y,1/2-z
-x,-y,-z
x,y,1/2-z
-x,1/2+y,z
x,1/2-y,1/2+z
loop_
_atom_site_type_symbol
_atom_site_label
_atom_site_fract_x
_atom_site_fract_y
_atom_site_fract_z
Si Si1 0.135115 0.896541 0.500008
Si Si2 0.810469 0.121390 0.864192
Si Si3 0.151618 0.360777 0.177868
Si Si4 0.357147 0.379535 0.821223
Si Si5 0.314658 0.895339 0.872270
O O1 0.075059 0.750000 0.500000
O O2 0.224365 0.908385 0.435686
O O3 0.244894 0.910271 0.559082
O O4 0.000000 0.000000 0.500000
O O5 0.745173 0.259377 0.848140
O O6 0.992664 0.127625 0.857550
O O7 0.740158 0.008459 0.824734
O O8 0.115626 0.346653 0.250000
O O9 0.250379 0.238097 0.159198
O O10 0.248477 0.487471 0.166400
O O11 0.405436 0.357337 0.750000
O O12 0.504021 0.392902 0.864440
#
# Coordination Sequence:
#
# PCOD9439455 Si02
#       5
#     8   8   8   8   8
#     4  10  22  40  66  94 125 164 214 265 323 381
#     4  11  23  41  66  92 127 167 220 270 321 386
#     4  11  23  39  64  95 126 171 219 266 324 384
#     4  11  25  42  63  96 133 171 216 268 328 386
#     4  11  23  41  63  91 131 170 211 267 323 385
#
# _framework density 20.031891000000002
#
# number of rings (size 3 to 8) (size 9 to 14) (size 15 to 20)
#    0.000    1.200    2.000    3.600    2.800    7.200 
#    0.000    2.000    0.000    0.000    0.000    0.000 
#    0.000    0.000    0.000    0.000    0.000    0.000 
#
# Total GULP energy -223554.843862 kJ/mol
# GULP energy per Si atom -5588.871097 kJ/mol
# Density = 1.998630 g / cm^3
# Si number density = 20.031891 Si / 1000 Ang^3
#
#
#
# Elastic Constant Matrix: (Units=GPa)
#
#
# Indices 1 2 3 4 5 6 
#
# 1 131.6398 61.1192 29.4721 0.0000 0.0000 0.0000
# 2 61.1192 134.4119 19.6530 0.0000 0.0000 0.0000
# 3 29.4721 19.6530 51.0563 0.0000 0.0000 0.0000
# 4 0.0000 0.0000 0.0000 -5.7910 0.0000 0.0000
# 5 0.0000 0.0000 0.0000 0.0000 25.9906 0.0000
# 6 0.0000 0.0000 0.0000 0.0000 0.0000 26.7953
#
#
#
# Elastic Compliance Matrix: (Units=1/GPa)
#
#
# Indices 1 2 3 4 5 6 
#
# 1 0.010516 -0.004126 -0.004482 0.000000 0.000000 0.000000
# 2 -0.004126 0.009503 -0.001276 0.000000 0.000000 0.000000
# 3 -0.004482 -0.001276 0.022664 0.000000 0.000000 0.000000
# 4 0.000000 0.000000 0.000000 -0.172682 0.000000 0.000000
# 5 0.000000 0.000000 0.000000 0.000000 0.038475 0.000000
# 6 0.000000 0.000000 0.000000 0.000000 0.000000 0.037320
#
#
# Mechanical properties :
#
#
# Convention : Reuss Voigt Hill
#
# Bulk Modulus (GPa) = 43.64013 59.73295 51.68654
# Shear Modulus (GPa) = -186.58735 23.18990 -81.69872
#
# Velocity S-wave (km/s) = -9.66164 3.40612 -6.39319
# Velocity P-wave (km/s) = 10.13067 6.73443 5.35154
#
# Compressibility (1/GPa) = 0.02291469
#
# Stress axis : x y z
#
# Youngs Moduli (GPa) = 95.09569 105.23331 44.12192
#
# Poissons Ratio (x) = 0.43423 0.19775
# Poissons Ratio (y) = 0.39240 0.05630
# Poissons Ratio (z) = 0.42620 0.13427
#
# Static dielectric constant tensor:
#      x y z
#    x 1.704260 0.000000 0.000000 
#    y 0.000000 1.701990 0.000000 
#    z 0.000000 0.000000 1.731450 
# 
# From -- ./inp_files/26494.got.cif
#   From: 2010.05.17/outbox.cif.g08.bks.cpg/sg57_14_cif.got.tgz:26494.got - 2010.06.03 13:58:18.
