data_PCOD9439775
_publ_section_title
;
Structure prediction by ZEFSAII (Michael W. Deem and Ramdas Pophale) SiO2 
 PCOD9439775
Probable space group: P B C M
;
_chemical_formula_sum "Si O2"
_cell_formula_units_Z 36
_cell_length_a 11.480293
_cell_length_b 10.507322
_cell_length_c 12.386730
_cell_angle_alpha 90.000000
_cell_angle_beta 90.000000
_cell_angle_gamma 90.000000
_cell_volume 1494.175754
_symmetry_space_group_name_H-M "P B C M"
_symmetry_group_IT_number 57
_symmetry_cell_setting 'orthorhombic'
loop_
_space_group_symop_operation_xyz
x,y,z
-x,-y,1/2+z
x,1/2-y,-z
-x,1/2+y,1/2-z
-x,-y,-z
x,y,1/2-z
-x,1/2+y,z
x,1/2-y,1/2+z
loop_
_atom_site_type_symbol
_atom_site_label
_atom_site_fract_x
_atom_site_fract_y
_atom_site_fract_z
Si Si1 0.022115 0.299118 0.126796
Si Si2 0.604878 0.750000 0.500000
Si Si3 0.764495 0.412000 0.370124
Si Si4 0.597157 0.176510 0.370790
Si Si5 0.237611 0.445900 0.417193
O O1 0.039190 0.236465 0.250000
O O2 0.111276 0.417936 0.128947
O O3 0.887504 0.338746 0.125909
O O4 0.042767 0.250000 0.000000
O O5 0.515099 0.847005 0.555953
O O6 0.683589 0.679511 0.587613
O O7 0.744650 0.459905 0.250000
O O8 0.664676 0.308657 0.396038
O O9 0.771527 0.522794 0.456134
O O10 0.552782 0.190085 0.250000
O O11 0.692640 0.065633 0.372682
#
# Coordination Sequence:
#
# PCOD9439775 Si02
#       5
#     8   4   8   8   8
#     4  11  24  44  71 106 143 183 231 290 356 425
#     4  12  26  44  64  98 136 178 232 286 344 410
#     4  10  23  43  72 104 136 179 227 283 354 422
#     4  11  24  43  68  94 132 180 229 285 347 421
#     4  12  23  45  67  98 139 178 231 291 347 416
#
# _framework density 24.093548999999999
#
# number of rings (size 3 to 8) (size 9 to 14) (size 15 to 20)
#    0.000    0.889    3.333    3.333    0.000    3.556 
#    0.000    5.556    0.000    0.000    0.000    0.000 
#    0.000    0.000    0.000    0.000    0.000    0.000 
#
# Total GULP energy -200861.786918 kJ/mol
# GULP energy per Si atom -5579.494081 kJ/mol
# Density = 2.403871 g / cm^3
# Si number density = 24.093549 Si / 1000 Ang^3
#
#
#
# Elastic Constant Matrix: (Units=GPa)
#
#
# Indices 1 2 3 4 5 6 
#
# 1 38.4304 -0.0407 8.7913 0.0000 0.0000 0.0000
# 2 -0.0407 42.7339 10.8241 0.0000 0.0000 0.0000
# 3 8.7913 10.8241 158.9251 0.0000 0.0000 0.0000
# 4 0.0000 0.0000 0.0000 24.9900 0.0000 0.0000
# 5 0.0000 0.0000 0.0000 0.0000 -20.8219 0.0000
# 6 0.0000 0.0000 0.0000 0.0000 0.0000 12.2747
#
#
#
# Elastic Compliance Matrix: (Units=1/GPa)
#
#
# Indices 1 2 3 4 5 6 
#
# 1 0.026361 0.000401 -0.001486 0.000000 0.000000 0.000000
# 2 0.000401 0.023818 -0.001644 0.000000 0.000000 0.000000
# 3 -0.001486 -0.001644 0.006486 0.000000 0.000000 0.000000
# 4 0.000000 0.000000 0.000000 0.040016 0.000000 0.000000
# 5 0.000000 0.000000 0.000000 0.000000 -0.048026 0.000000
# 6 0.000000 0.000000 0.000000 0.000000 0.000000 0.081469
#
#
# Mechanical properties :
#
#
# Convention : Reuss Voigt Hill
#
# Bulk Modulus (GPa) = 19.52814 31.02654 25.27734
# Shear Modulus (GPa) = 32.75468 17.98954 25.37211
#
# Velocity S-wave (km/s) = 3.69111 2.73546 3.24862
# Velocity P-wave (km/s) = 5.12723 4.78356 4.95837
#
# Compressibility (1/GPa) = 0.05120817
#
# Stress axis : x y z
#
# Youngs Moduli (GPa) = 37.93431 41.98593 154.16759
#
# Poissons Ratio (x) = -0.01685 0.22903
# Poissons Ratio (y) = -0.01523 0.25351
# Poissons Ratio (z) = 0.05635 0.06904
#
# Static dielectric constant tensor:
#      x y z
#    x 1.843570 0.000000 0.000000 
#    y 0.000000 1.903910 0.000000 
#    z 0.000000 0.000000 2.060740 
# 
# From -- ./inp_files/12541.got.cif
#   From: 2010.05.17/outbox.cif.g08.bks.cpg/sg57_7_cif.got.tgz:12541.got - 2010.06.03 13:58:18.
