data_PCOD9439445
_publ_section_title
;
Structure prediction by ZEFSAII (Michael W. Deem and Ramdas Pophale) SiO2 
 PCOD9439445
Probable space group: P B C M
;
_chemical_formula_sum "Si O2"
_cell_formula_units_Z 64
_cell_length_a 10.168625
_cell_length_b 21.420177
_cell_length_c 14.524349
_cell_angle_alpha 90.000000
_cell_angle_beta 90.000000
_cell_angle_gamma 90.000000
_cell_volume 3163.602883
_symmetry_space_group_name_H-M "P B C M"
_symmetry_group_IT_number 57
_symmetry_cell_setting 'orthorhombic'
loop_
_space_group_symop_operation_xyz
x,y,z
-x,-y,1/2+z
x,1/2-y,-z
-x,1/2+y,1/2-z
-x,-y,-z
x,y,1/2-z
-x,1/2+y,z
x,1/2-y,1/2+z
loop_
_atom_site_type_symbol
_atom_site_label
_atom_site_fract_x
_atom_site_fract_y
_atom_site_fract_z
Si Si1 0.711316 0.195300 0.929511
Si Si2 0.447100 0.513942 0.359604
Si Si3 0.784890 0.061898 0.012357
Si Si4 0.035445 0.763822 0.647320
Si Si5 0.740946 0.540370 0.358181
Si Si6 0.955291 0.886320 0.954858
Si Si7 0.455835 0.129010 0.640881
Si Si8 0.156567 0.148697 0.855964
O O1 0.831168 0.224311 0.870263
O O2 0.575614 0.173593 0.884039
O O3 0.679576 0.250000 0.000000
O O4 0.760782 0.132111 0.977562
O O5 0.417639 0.513462 0.250000
O O6 0.327537 0.541659 0.416836
O O7 0.584754 0.549883 0.372005
O O8 0.471023 0.442467 0.393024
O O9 0.927503 0.064505 0.059334
O O10 0.780725 0.016718 0.924419
O O11 0.043143 0.791613 0.750000
O O12 0.008334 0.818065 0.574019
O O13 0.915434 0.715228 0.644239
O O14 0.760499 0.526662 0.250000
O O15 0.830569 0.597072 0.392224
O O16 0.913615 0.888943 0.062118
O O17 0.459319 0.123465 0.750000
O O18 0.309914 0.152417 0.617330
O O19 0.146706 0.123996 0.750000
#
# Coordination Sequence:
#
# PCOD9439445 Si02
#       8
#     8   8   8   8   8   8   8   8
#     4  12  23  41  65 100 130 172 226 272 330 396
#     4  10  23  44  67  97 134 174 221 278 341 405
#     4  12  24  42  69  97 136 175 221 276 344 399
#     4  11  23  43  66  92 134 178 221 276 331 399
#     4  11  25  43  68  98 130 177 226 275 338 406
#     4  12  24  43  67  98 137 176 222 281 343 402
#     4  10  22  42  67  94 127 171 221 272 336 400
#     4  10  22  40  65  96 130 175 225 273 332 403
#
# _framework density 20.2301
#
# number of rings (size 3 to 8) (size 9 to 14) (size 15 to 20)
#    0.000    1.000    3.750    2.625    1.750    3.000 
#    0.000    1.250    0.000    0.000    0.000    0.000 
#    0.000    0.000    0.000    0.000    0.000    0.000 
#
# Total GULP energy -357487.400127 kJ/mol
# GULP energy per Si atom -5585.740627 kJ/mol
# Density = 2.018406 g / cm^3
# Si number density = 20.230100 Si / 1000 Ang^3
#
#
#
# Elastic Constant Matrix: (Units=GPa)
#
#
# Indices 1 2 3 4 5 6 
#
# 1 152.7430 35.5572 45.7754 0.0000 0.0000 0.0000
# 2 35.5572 54.8350 14.5793 0.0000 0.0000 0.0000
# 3 45.7754 14.5793 81.0022 0.0000 0.0000 0.0000
# 4 0.0000 0.0000 0.0000 26.6612 0.0000 0.0000
# 5 0.0000 0.0000 0.0000 0.0000 33.0104 0.0000
# 6 0.0000 0.0000 0.0000 0.0000 0.0000 21.9066
#
#
#
# Elastic Compliance Matrix: (Units=1/GPa)
#
#
# Indices 1 2 3 4 5 6 
#
# 1 0.008882 -0.004648 -0.004183 0.000000 0.000000 0.000000
# 2 -0.004648 0.021585 -0.001259 0.000000 0.000000 0.000000
# 3 -0.004183 -0.001259 0.014936 0.000000 0.000000 0.000000
# 4 0.000000 0.000000 0.000000 0.037508 0.000000 0.000000
# 5 0.000000 0.000000 0.000000 0.000000 0.030293 0.000000
# 6 0.000000 0.000000 0.000000 0.000000 0.000000 0.045648
#
#
# Mechanical properties :
#
#
# Convention : Reuss Voigt Hill
#
# Bulk Modulus (GPa) = 39.64384 53.37822 46.51103
# Shear Modulus (GPa) = 26.67530 29.16020 27.91775
#
# Velocity S-wave (km/s) = 3.63519 3.80073 3.71888
# Velocity P-wave (km/s) = 6.10397 6.76044 6.44057
#
# Compressibility (1/GPa) = 0.02522460
#
# Stress axis : x y z
#
# Youngs Moduli (GPa) = 112.58100 46.32880 66.95322
#
# Poissons Ratio (x) = 0.21532 0.28007
# Poissons Ratio (y) = 0.52323 0.08427
# Poissons Ratio (z) = 0.47094 0.05831
#
# Static dielectric constant tensor:
#      x y z
#    x 1.767700 0.000000 0.000000 
#    y 0.000000 1.699430 0.000000 
#    z 0.000000 0.000000 1.756890 
# 
# From -- ./inp_files/16974.got.cif
#   From: 2010.05.17/outbox.cif.g08.bks.cpg/sg57_9_cif.got.tgz:16974.got - 2010.06.03 13:58:18.
