data_PCOD9439562
_publ_section_title
;
Structure prediction by ZEFSAII (Michael W. Deem and Ramdas Pophale) SiO2 
 PCOD9439562
Probable space group: P B C M
;
_chemical_formula_sum "Si O2"
_cell_formula_units_Z 40
_cell_length_a 12.296621
_cell_length_b 10.512633
_cell_length_c 14.322537
_cell_angle_alpha 90.000000
_cell_angle_beta 90.000000
_cell_angle_gamma 90.000000
_cell_volume 1851.472406
_symmetry_space_group_name_H-M "P B C M"
_symmetry_group_IT_number 57
_symmetry_cell_setting 'orthorhombic'
loop_
_space_group_symop_operation_xyz
x,y,z
-x,-y,1/2+z
x,1/2-y,-z
-x,1/2+y,1/2-z
-x,-y,-z
x,y,1/2-z
-x,1/2+y,z
x,1/2-y,1/2+z
loop_
_atom_site_type_symbol
_atom_site_label
_atom_site_fract_x
_atom_site_fract_y
_atom_site_fract_z
Si Si1 0.117089 0.428231 0.094847
Si Si2 0.873587 0.125756 0.929356
Si Si3 0.464918 0.373654 0.550511
Si Si4 0.502311 0.524728 0.250000
Si Si5 0.716740 0.347127 0.250000
Si Si6 0.254515 0.250000 0.500000
Si Si7 0.736183 0.047703 0.250000
O O1 0.181420 0.297323 0.083449
O O2 0.185780 0.514050 0.164515
O O3 0.993835 0.389335 0.116084
O O4 0.127159 0.502786 0.996823
O O5 0.785350 0.125441 0.845818
O O6 0.867593 0.250000 0.000000
O O7 0.515838 0.250000 0.500000
O O8 0.500000 0.500000 0.500000
O O9 0.488514 0.389440 0.658198
O O10 0.337214 0.357452 0.533432
O O11 0.601831 0.423415 0.250000
O O12 0.378328 0.470740 0.250000
O O13 0.703675 0.194811 0.250000
#
# Coordination Sequence:
#
# PCOD9439562 Si02
#       7
#     8   8   8   4   4   4   4
#     4  11  23  45  73 110 147 187 242 305 382 447
#     4  11  23  47  78 105 149 190 240 313 377 450
#     4  10  25  46  71 102 146 197 263 304 372 454
#     4  12  28  48  70 105 153 206 242 323 378 438
#     4  12  27  47  75 112 143 196 258 306 379 458
#     4  10  22  42  68 102 142 188 244 310 374 444
#     4  12  27  43  73 111 148 194 254 303 371 466
#
# _framework density 21.604427999999999
#
# number of rings (size 3 to 8) (size 9 to 14) (size 15 to 20)
#    0.600    0.400    3.000    3.000    2.800    0.800 
#    0.000    1.000    2.200    0.000    0.000    0.000 
#    0.000    0.000    0.000    0.000    0.000    0.000 
#
# Total GULP energy -223217.532230 kJ/mol
# GULP energy per Si atom -5580.438306 kJ/mol
# Density = 2.155525 g / cm^3
# Si number density = 21.604428 Si / 1000 Ang^3
#
#
#
# Elastic Constant Matrix: (Units=GPa)
#
#
# Indices 1 2 3 4 5 6 
#
# 1 141.2841 32.8155 61.1114 0.0000 0.0000 0.0000
# 2 32.8155 110.8770 42.6968 0.0000 0.0000 0.0000
# 3 61.1114 42.6968 136.7989 0.0000 0.0000 0.0000
# 4 0.0000 0.0000 0.0000 27.7604 0.0000 0.0000
# 5 0.0000 0.0000 0.0000 0.0000 -5.2424 0.0000
# 6 0.0000 0.0000 0.0000 0.0000 0.0000 24.0748
#
#
#
# Elastic Compliance Matrix: (Units=1/GPa)
#
#
# Indices 1 2 3 4 5 6 
#
# 1 0.008925 -0.001257 -0.003594 0.000000 0.000000 0.000000
# 2 -0.001257 0.010428 -0.002693 0.000000 0.000000 0.000000
# 3 -0.003594 -0.002693 0.009756 0.000000 0.000000 0.000000
# 4 0.000000 0.000000 0.000000 0.036022 0.000000 0.000000
# 5 0.000000 0.000000 0.000000 0.000000 -0.190751 0.000000
# 6 0.000000 0.000000 0.000000 0.000000 0.000000 0.041537
#
#
# Mechanical properties :
#
#
# Convention : Reuss Voigt Hill
#
# Bulk Modulus (GPa) = 71.32922 73.57861 72.45392
# Shear Modulus (GPa) = -77.73736 26.14097 -25.79819
#
# Velocity S-wave (km/s) = -6.00502 3.48225 -3.45935
# Velocity P-wave (km/s) = 3.87203 7.09220 4.20158
#
# Compressibility (1/GPa) = 0.01401950
#
# Stress axis : x y z
#
# Youngs Moduli (GPa) = 112.04837 95.89400 102.49765
#
# Poissons Ratio (x) = 0.12056 0.36843
# Poissons Ratio (y) = 0.14087 0.27604
# Poissons Ratio (z) = 0.40276 0.25826
#
# Static dielectric constant tensor:
#      x y z
#    x 1.815380 0.000000 0.000000 
#    y 0.000000 1.821340 0.000000 
#    z 0.000000 0.000000 1.771260 
# 
# From -- ./inp_files/17479.got.cif
#   From: 2010.05.17/outbox.cif.g08.bks.cpg/sg57_9_cif.got.tgz:17479.got - 2010.06.03 13:58:18.
