data_PCOD9439671
_publ_section_title
;
Structure prediction by ZEFSAII (Michael W. Deem and Ramdas Pophale) SiO2 
 PCOD9439671
Probable space group: P B C M
;
_chemical_formula_sum "Si O2"
_cell_formula_units_Z 52
_cell_length_a 25.090066
_cell_length_b 5.323228
_cell_length_c 24.008689
_cell_angle_alpha 90.000000
_cell_angle_beta 90.000000
_cell_angle_gamma 90.000000
_cell_volume 3206.603909
_symmetry_space_group_name_H-M "P B C M"
_symmetry_group_IT_number 57
_symmetry_cell_setting 'orthorhombic'
loop_
_space_group_symop_operation_xyz
x,y,z
-x,-y,1/2+z
x,1/2-y,-z
-x,1/2+y,1/2-z
-x,-y,-z
x,y,1/2-z
-x,1/2+y,z
x,1/2-y,1/2+z
loop_
_atom_site_type_symbol
_atom_site_label
_atom_site_fract_x
_atom_site_fract_y
_atom_site_fract_z
Si Si1 0.715245 0.077589 0.682471
Si Si2 0.345861 0.077174 0.681994
Si Si3 0.973034 0.665409 0.750000
Si Si4 0.099866 0.012688 0.851913
Si Si5 0.839297 0.003649 0.817833
Si Si6 0.531091 0.536646 0.682133
Si Si7 0.939005 0.000054 0.475869
O O1 0.712866 0.079878 0.750000
O O2 0.688419 0.336796 0.663640
O O3 0.777329 0.050709 0.668655
O O4 0.681533 0.836026 0.663794
O O5 0.345587 0.078031 0.750000
O O6 0.407374 0.054485 0.664679
O O7 0.941894 0.578067 0.695853
O O8 0.022145 0.467412 0.750000
O O9 0.140604 0.247487 0.846977
O O10 0.068039 0.001118 0.909934
O O11 0.127609 0.747080 0.837983
O O12 0.844229 0.976997 0.750000
O O13 0.531161 0.536018 0.750000
O O14 0.502500 0.279970 0.664436
O O15 0.913381 0.750000 0.500000
O O16 0.913317 0.250000 0.500000
O O17 0.000000 0.000000 0.500000
#
# Coordination Sequence:
#
# PCOD9439671 Si02
#       7
#     8   8   4   8   8   8   8
#     4   9  17  26  42  58  84 113 144 186 234 299
#     4   9  15  24  34  53  75 109 151 190 239 288
#     4  12  26  36  56  80 106 132 154 190 240 298
#     4  12  23  39  57  77 105 128 160 198 243 298
#     4  11  20  36  52  78 102 127 155 193 255 308
#     4   9  15  21  30  44  68 102 145 197 244 279
#     4  10  23  40  58  76  97 129 164 196 232 280
#
# _framework density 16.216532999999998
#
# number of rings (size 3 to 8) (size 9 to 14) (size 15 to 20)
#    0.000    1.846    1.538    3.692    4.308    6.154 
#    0.000    0.000    0.000    0.000    0.000    0.000 
#    0.000    0.000    0.000    0.000    0.000    0.000 
#
# Total GULP energy -289807.680072 kJ/mol
# GULP energy per Si atom -5573.224617 kJ/mol
# Density = 1.617962 g / cm^3
# Si number density = 16.216533 Si / 1000 Ang^3
#
#
#
# Elastic Constant Matrix: (Units=GPa)
#
#
# Indices 1 2 3 4 5 6 
#
# 1 58.0837 -1.0588 10.7537 0.0000 0.0000 0.0000
# 2 -1.0588 87.5762 0.0007 0.0000 0.0000 0.0000
# 3 10.7537 0.0007 59.3892 0.0000 0.0000 0.0000
# 4 0.0000 0.0000 0.0000 17.0434 0.0000 0.0000
# 5 0.0000 0.0000 0.0000 0.0000 6.5290 0.0000
# 6 0.0000 0.0000 0.0000 0.0000 0.0000 22.9692
#
#
#
# Elastic Compliance Matrix: (Units=1/GPa)
#
#
# Indices 1 2 3 4 5 6 
#
# 1 0.017818 0.000215 -0.003226 0.000000 0.000000 0.000000
# 2 0.000215 0.011421 -0.000039 0.000000 0.000000 0.000000
# 3 -0.003226 -0.000039 0.017422 0.000000 0.000000 0.000000
# 4 0.000000 0.000000 0.000000 0.058674 0.000000 0.000000
# 5 0.000000 0.000000 0.000000 0.000000 0.153163 0.000000
# 6 0.000000 0.000000 0.000000 0.000000 0.000000 0.043537
#
#
# Mechanical properties :
#
#
# Convention : Reuss Voigt Hill
#
# Bulk Modulus (GPa) = 24.65405 24.93781 24.79593
# Shear Modulus (GPa) = 15.54459 22.33187 18.93823
#
# Velocity S-wave (km/s) = 3.09943 3.71496 3.42107
# Velocity P-wave (km/s) = 5.29572 5.81487 5.56135
#
# Compressibility (1/GPa) = 0.04056128
#
# Stress axis : x y z
#
# Youngs Moduli (GPa) = 56.12372 87.55624 57.39776
#
# Poissons Ratio (x) = -0.01886 0.18518
# Poissons Ratio (y) = -0.01209 0.00225
# Poissons Ratio (z) = 0.18107 0.00343
#
# Static dielectric constant tensor:
#      x y z
#    x 1.555220 0.000000 0.000000 
#    y 0.000000 1.598890 0.000000 
#    z 0.000000 0.000000 1.527810 
# 
# From -- ./inp_files/25739.got.cif
#   From: 2010.05.17/outbox.cif.g08.bks.cpg/sg57_13_cif.got.tgz:25739.got - 2010.06.03 13:58:18.
