data_PCOD9439748
_publ_section_title
;
Structure prediction by ZEFSAII (Michael W. Deem and Ramdas Pophale) SiO2 
 PCOD9439748
Probable space group: P B C M
;
_chemical_formula_sum "Si O2"
_cell_formula_units_Z 48
_cell_length_a 5.135821
_cell_length_b 16.953288
_cell_length_c 28.066675
_cell_angle_alpha 90.000000
_cell_angle_beta 90.000000
_cell_angle_gamma 90.000000
_cell_volume 2443.738800
_symmetry_space_group_name_H-M "P B C M"
_symmetry_group_IT_number 57
_symmetry_cell_setting 'orthorhombic'
loop_
_space_group_symop_operation_xyz
x,y,z
-x,-y,1/2+z
x,1/2-y,-z
-x,1/2+y,1/2-z
-x,-y,-z
x,y,1/2-z
-x,1/2+y,z
x,1/2-y,1/2+z
loop_
_atom_site_type_symbol
_atom_site_label
_atom_site_fract_x
_atom_site_fract_y
_atom_site_fract_z
Si Si1 0.430632 0.333885 0.024506
Si Si2 0.929248 0.088275 0.014064
Si Si3 0.985759 0.652496 0.120078
Si Si4 0.515121 0.236013 0.624881
Si Si5 0.443408 0.406151 0.193287
Si Si6 0.942665 0.509669 0.307296
O O1 0.497816 0.321524 0.079396
O O2 0.477753 0.250000 0.000000
O O3 0.633242 0.393354 0.000315
O O4 0.133074 0.357751 0.015293
O O5 0.974258 0.108596 0.069507
O O6 0.000000 0.000000 0.000000
O O7 0.217832 0.715419 0.126009
O O8 0.982073 0.588553 0.162326
O O9 0.717083 0.700916 0.120002
O O10 0.479217 0.178343 0.669360
O O11 0.454987 0.396688 0.250000
O O12 0.171382 0.447762 0.181210
O O13 0.672658 0.466930 0.179910
O O14 0.947546 0.524940 0.250000
#
# Coordination Sequence:
#
# PCOD9439748 Si02
#       6
#     8   8   8   8   8   8
#     4  12  23  44  62  87 130 165 201 248 311 357
#     4  12  26  41  62  92 125 165 207 255 298 367
#     4  12  24  41  61  95 124 160 209 250 306 362
#     4  12  25  39  66  92 123 166 203 255 305 364
#     4  10  23  43  65  92 121 159 206 251 308 371
#     4  10  23  43  66  90 125 162 200 256 312 363
#
# _framework density 19.642032
#
# number of rings (size 3 to 8) (size 9 to 14) (size 15 to 20)
#    0.000    0.667    3.333    4.000    4.667    1.333 
#    0.000    0.000    0.000    0.000    0.000    0.000 
#    0.000    0.000    0.000    0.000    0.000    0.000 
#
# Total GULP energy -268535.959241 kJ/mol
# GULP energy per Si atom -5594.499151 kJ/mol
# Density = 1.959733 g / cm^3
# Si number density = 19.642032 Si / 1000 Ang^3
#
#
#
# Elastic Constant Matrix: (Units=GPa)
#
#
# Indices 1 2 3 4 5 6 
#
# 1 51.9724 -22.8922 -7.6065 0.0000 0.0000 0.0000
# 2 -22.8922 56.0500 24.3051 0.0000 0.0000 0.0000
# 3 -7.6065 24.3051 39.8574 0.0000 0.0000 0.0000
# 4 0.0000 0.0000 0.0000 41.2297 0.0000 0.0000
# 5 0.0000 0.0000 0.0000 0.0000 17.1660 0.0000
# 6 0.0000 0.0000 0.0000 0.0000 0.0000 9.3728
#
#
#
# Elastic Compliance Matrix: (Units=1/GPa)
#
#
# Indices 1 2 3 4 5 6 
#
# 1 0.023563 0.010432 -0.001865 0.000000 0.000000 0.000000
# 2 0.010432 0.028874 -0.015616 0.000000 0.000000 0.000000
# 3 -0.001865 -0.015616 0.034256 0.000000 0.000000 0.000000
# 4 0.000000 0.000000 0.000000 0.024254 0.000000 0.000000
# 5 0.000000 0.000000 0.000000 0.000000 0.058255 0.000000
# 6 0.000000 0.000000 0.000000 0.000000 0.000000 0.106691
#
#
# Mechanical properties :
#
#
# Convention : Reuss Voigt Hill
#
# Bulk Modulus (GPa) = 13.77487 15.05474 14.41480
# Shear Modulus (GPa) = 15.91393 23.82526 19.86960
#
# Velocity S-wave (km/s) = 2.84949 3.48656 3.18399
# Velocity P-wave (km/s) = 4.22543 4.88767 4.56856
#
# Compressibility (1/GPa) = 0.07259599
#
# Stress axis : x y z
#
# Youngs Moduli (GPa) = 42.43899 34.63343 29.19165
#
# Poissons Ratio (x) = -0.36131 0.05444
# Poissons Ratio (y) = -0.44274 0.45587
# Poissons Ratio (z) = 0.07914 0.54085
#
# Static dielectric constant tensor:
#      x y z
#    x 1.685050 0.000000 0.000000 
#    y 0.000000 1.649010 0.000000 
#    z 0.000000 0.000000 1.680750 
# 
# From -- ./inp_files/27940.got.cif
#   From: 2010.05.17/outbox.cif.g08.bks.cpg/sg57_14_cif.got.tgz:27940.got - 2010.06.03 13:58:18.
