data_PCOD9439197
_publ_section_title
;
Structure prediction by ZEFSAII (Michael W. Deem and Ramdas Pophale) SiO2 
 PCOD9439197
Probable space group: P B C M
;
_chemical_formula_sum "Si O2"
_cell_formula_units_Z 64
_cell_length_a 16.110381
_cell_length_b 10.621138
_cell_length_c 16.494589
_cell_angle_alpha 90.000000
_cell_angle_beta 90.000000
_cell_angle_gamma 90.000000
_cell_volume 2822.398688
_symmetry_space_group_name_H-M "P B C M"
_symmetry_group_IT_number 57
_symmetry_cell_setting 'orthorhombic'
loop_
_space_group_symop_operation_xyz
x,y,z
-x,-y,1/2+z
x,1/2-y,-z
-x,1/2+y,1/2-z
-x,-y,-z
x,y,1/2-z
-x,1/2+y,z
x,1/2-y,1/2+z
loop_
_atom_site_type_symbol
_atom_site_label
_atom_site_fract_x
_atom_site_fract_y
_atom_site_fract_z
Si Si1 0.339765 0.683605 0.837709
Si Si2 0.455455 0.924688 0.839801
Si Si3 0.072336 0.289434 0.153725
Si Si4 0.604573 0.704861 0.080861
Si Si5 0.969208 0.444044 0.915299
Si Si6 0.638242 0.460856 0.494757
Si Si7 0.780764 0.131410 0.103111
Si Si8 0.748238 0.856064 0.158070
O O1 0.341725 0.617572 0.750000
O O2 0.390937 0.811725 0.830759
O O3 0.383867 0.614118 0.912696
O O4 0.247473 0.737160 0.857009
O O5 0.455055 0.992539 0.750000
O O6 0.543734 0.859167 0.855481
O O7 0.427044 0.974584 0.930213
O O8 0.073881 0.267905 0.250000
O O9 0.034218 0.429271 0.139670
O O10 0.166960 0.301344 0.121217
O O11 0.026203 0.171626 0.113612
O O12 0.661190 0.595803 0.041949
O O13 0.664300 0.807710 0.118522
O O14 0.555778 0.750000 0.000000
O O15 0.876494 0.385200 0.918297
O O16 0.000000 0.500000 0.000000
O O17 0.719131 0.390833 0.528079
O O18 0.757637 0.007119 0.155806
O O19 0.745001 0.813469 0.250000
#
# Coordination Sequence:
#
# PCOD9439197 Si02
#       8
#     8   8   8   8   8   8   8   8
#     4  10  22  41  65  92 127 167 216 274 331 390
#     4  10  22  41  64  93 126 168 218 269 326 395
#     4  10  23  43  65  95 135 174 218 280 342 405
#     4  12  23  39  61  93 129 170 214 268 328 391
#     4  11  24  40  69  98 133 174 227 276 343 413
#     4  11  23  41  65  91 133 167 214 272 335 382
#     4  10  21  42  65  92 125 170 218 270 325 403
#     4  10  22  40  64  91 125 168 217 267 326 398
#
# _framework density 22.675747000000001
#
# number of rings (size 3 to 8) (size 9 to 14) (size 15 to 20)
#    0.000    1.500    1.250    4.125    1.750    5.000 
#    0.000    1.250    0.000    0.000    0.000    0.000 
#    0.000    0.000    0.000    0.000    0.000    0.000 
#
# Total GULP energy -356794.364507 kJ/mol
# GULP energy per Si atom -5574.911945 kJ/mol
# Density = 2.262414 g / cm^3
# Si number density = 22.675747 Si / 1000 Ang^3
#
#
#
# Elastic Constant Matrix: (Units=GPa)
#
#
# Indices 1 2 3 4 5 6 
#
# 1 109.7043 39.6888 45.1299 0.0000 0.0000 0.0000
# 2 39.6888 64.9510 25.1020 0.0000 0.0000 0.0000
# 3 45.1299 25.1020 131.6090 0.0000 0.0000 0.0000
# 4 0.0000 0.0000 0.0000 29.2051 0.0000 0.0000
# 5 0.0000 0.0000 0.0000 0.0000 7.2158 0.0000
# 6 0.0000 0.0000 0.0000 0.0000 0.0000 22.9619
#
#
#
# Elastic Compliance Matrix: (Units=1/GPa)
#
#
# Indices 1 2 3 4 5 6 
#
# 1 0.012792 -0.006609 -0.003126 0.000000 0.000000 0.000000
# 2 -0.006609 0.020036 -0.001555 0.000000 0.000000 0.000000
# 3 -0.003126 -0.001555 0.008967 0.000000 0.000000 0.000000
# 4 0.000000 0.000000 0.000000 0.034241 0.000000 0.000000
# 5 0.000000 0.000000 0.000000 0.000000 0.138584 0.000000
# 6 0.000000 0.000000 0.000000 0.000000 0.000000 0.043550
#
#
# Mechanical properties :
#
#
# Convention : Reuss Voigt Hill
#
# Bulk Modulus (GPa) = 52.04351 58.45619 55.24985
# Shear Modulus (GPa) = 17.41219 24.96613 21.18916
#
# Velocity S-wave (km/s) = 2.77407 3.32174 3.06018
# Velocity P-wave (km/s) = 5.76729 6.36766 6.07489
#
# Compressibility (1/GPa) = 0.01921469
#
# Stress axis : x y z
#
# Youngs Moduli (GPa) = 78.17201 49.91125 111.52157
#
# Poissons Ratio (x) = 0.32985 0.34863
# Poissons Ratio (y) = 0.51661 0.17344
# Poissons Ratio (z) = 0.24437 0.07762
#
# Static dielectric constant tensor:
#      x y z
#    x 1.869990 0.000000 0.000000 
#    y 0.000000 1.877410 0.000000 
#    z 0.000000 0.000000 1.944910 
# 
# From -- ./inp_files/19128.got.cif
#   From: 2010.05.17/outbox.cif.g08.bks.cpg/sg57_10_cif.got.tgz:19128.got - 2010.06.03 13:58:18.
