data_PCOD9439759
_publ_section_title
;
Structure prediction by ZEFSAII (Michael W. Deem and Ramdas Pophale) SiO2 
 PCOD9439759
Probable space group: P B C M
;
_chemical_formula_sum "Si O2"
_cell_formula_units_Z 40
_cell_length_a 8.500572
_cell_length_b 25.080724
_cell_length_c 8.134815
_cell_angle_alpha 90.000000
_cell_angle_beta 90.000000
_cell_angle_gamma 90.000000
_cell_volume 1734.346627
_symmetry_space_group_name_H-M "P B C M"
_symmetry_group_IT_number 57
_symmetry_cell_setting 'orthorhombic'
loop_
_space_group_symop_operation_xyz
x,y,z
-x,-y,1/2+z
x,1/2-y,-z
-x,1/2+y,1/2-z
-x,-y,-z
x,y,1/2-z
-x,1/2+y,z
x,1/2-y,1/2+z
loop_
_atom_site_type_symbol
_atom_site_label
_atom_site_fract_x
_atom_site_fract_y
_atom_site_fract_z
Si Si1 0.137594 0.809372 0.054442
Si Si2 0.825613 0.991095 0.446777
Si Si3 0.432392 0.944248 0.437719
Si Si4 0.507721 0.166455 0.432286
Si Si5 0.178931 0.366938 0.053080
O O1 0.136129 0.814614 0.250000
O O2 0.993204 0.847037 0.990539
O O3 0.093394 0.750000 0.000000
O O4 0.322839 0.816282 0.006494
O O5 0.798307 0.997243 0.250000
O O6 0.787627 0.929209 0.492235
O O7 0.746609 0.039315 0.547263
O O8 0.000000 0.000000 0.500000
O O9 0.476049 0.930745 0.250000
O O10 0.469513 0.897091 0.559009
O O11 0.500000 0.000000 0.500000
O O12 0.501702 0.189100 0.250000
O O13 0.330381 0.170023 0.506293
O O14 0.170912 0.366599 0.250000
#
# Coordination Sequence:
#
# PCOD9439759 Si02
#       5
#     8   8   8   8   8
#     4  11  25  47  72  99 132 171 220 280 341 401
#     4  11  22  37  60  91 129 174 220 267 323 387
#     4  12  23  38  60  91 131 172 216 266 321 387
#     4  12  25  42  69 101 135 178 225 275 335 403
#     4  10  23  43  67  94 130 175 221 273 331 392
#
# _framework density 23.06344
#
# number of rings (size 3 to 8) (size 9 to 14) (size 15 to 20)
#    0.000    0.800    2.000    6.000    0.000    4.800 
#    0.000    2.000    0.000    0.000    0.000    0.000 
#    0.000    0.000    0.000    0.000    0.000    0.000 
#
# Total GULP energy -222884.098156 kJ/mol
# GULP energy per Si atom -5572.102454 kJ/mol
# Density = 2.301095 g / cm^3
# Si number density = 23.063440 Si / 1000 Ang^3
#
#
#
# Elastic Constant Matrix: (Units=GPa)
#
#
# Indices 1 2 3 4 5 6 
#
# 1 140.5377 10.2459 10.8777 0.0000 0.0000 0.0000
# 2 10.2459 56.0074 1.2967 0.0000 0.0000 0.0000
# 3 10.8777 1.2967 65.3321 0.0000 0.0000 0.0000
# 4 0.0000 0.0000 0.0000 21.0522 0.0000 0.0000
# 5 0.0000 0.0000 0.0000 0.0000 36.9195 0.0000
# 6 0.0000 0.0000 0.0000 0.0000 0.0000 46.2494
#
#
#
# Elastic Compliance Matrix: (Units=1/GPa)
#
#
# Indices 1 2 3 4 5 6 
#
# 1 0.007303 -0.001308 -0.001190 0.000000 0.000000 0.000000
# 2 -0.001308 0.018097 -0.000141 0.000000 0.000000 0.000000
# 3 -0.001190 -0.000141 0.015507 0.000000 0.000000 0.000000
# 4 0.000000 0.000000 0.000000 0.047501 0.000000 0.000000
# 5 0.000000 0.000000 0.000000 0.000000 0.027086 0.000000
# 6 0.000000 0.000000 0.000000 0.000000 0.000000 0.021622
#
#
# Mechanical properties :
#
#
# Convention : Reuss Voigt Hill
#
# Bulk Modulus (GPa) = 28.06762 34.07977 31.07369
# Shear Modulus (GPa) = 32.41021 36.80800 34.60911
#
# Velocity S-wave (km/s) = 3.75275 3.99926 3.87797
# Velocity P-wave (km/s) = 5.56540 6.01116 5.79257
#
# Compressibility (1/GPa) = 0.03562825
#
# Stress axis : x y z
#
# Youngs Moduli (GPa) = 136.92955 55.25648 64.48556
#
# Poissons Ratio (x) = 0.07230 0.07674
# Poissons Ratio (y) = 0.17917 0.00912
# Poissons Ratio (z) = 0.16294 0.00781
#
# Static dielectric constant tensor:
#      x y z
#    x 1.596120 0.000000 0.000000 
#    y 0.000000 1.842270 0.000000 
#    z 0.000000 0.000000 1.949590 
# 
# From -- ./inp_files/1714.got.cif
#   From: 2010.05.17/outbox.cif.g08.bks.cpg/sg57_1_cif.got.tgz:1714.got - 2010.06.03 13:58:18.
