data_PCOD9439429
_publ_section_title
;
Structure prediction by ZEFSAII (Michael W. Deem and Ramdas Pophale) SiO2 
 PCOD9439429
Probable space group: P B C M
;
_chemical_formula_sum "Si O2"
_cell_formula_units_Z 64
_cell_length_a 20.723547
_cell_length_b 10.163150
_cell_length_c 15.050230
_cell_angle_alpha 90.000000
_cell_angle_beta 90.000000
_cell_angle_gamma 90.000000
_cell_volume 3169.827018
_symmetry_space_group_name_H-M "P B C M"
_symmetry_group_IT_number 57
_symmetry_cell_setting 'orthorhombic'
loop_
_space_group_symop_operation_xyz
x,y,z
-x,-y,1/2+z
x,1/2-y,-z
-x,1/2+y,1/2-z
-x,-y,-z
x,y,1/2-z
-x,1/2+y,z
x,1/2-y,1/2+z
loop_
_atom_site_type_symbol
_atom_site_label
_atom_site_fract_x
_atom_site_fract_y
_atom_site_fract_z
Si Si1 0.163305 0.884422 0.044366
Si Si2 0.954913 0.520152 0.358212
Si Si3 0.192134 0.365614 0.071295
Si Si4 0.565287 0.387809 0.358578
Si Si5 0.542504 0.814141 0.641335
Si Si6 0.709943 0.070619 0.643198
Si Si7 0.058546 0.185463 0.646903
Si Si8 0.686142 0.734197 0.143528
O O1 0.228855 0.861383 0.099624
O O2 0.108976 0.948854 0.106306
O O3 0.140491 0.750000 0.000000
O O4 0.181856 0.992868 0.971205
O O5 0.952480 0.524203 0.250000
O O6 0.956333 0.670507 0.391773
O O7 0.016250 0.434871 0.389332
O O8 0.134369 0.342715 0.140168
O O9 0.263698 0.339377 0.107053
O O10 0.181317 0.250000 0.000000
O O11 0.565207 0.387207 0.250000
O O12 0.541204 0.533159 0.385737
O O13 0.517057 0.274227 0.388742
O O14 0.640066 0.374789 0.385230
O O15 0.542232 0.813746 0.750000
O O16 0.611937 0.755088 0.613866
O O17 0.713920 0.079222 0.750000
O O18 0.709911 0.914030 0.620464
O O19 0.040206 0.193592 0.750000
O O20 0.686513 0.741650 0.250000
#
# Coordination Sequence:
#
# PCOD9439429 Si02
#       8
#     8   8   8   8   8   8   8   8
#     4  12  26  40  55  84 117 151 185 232 280 328
#     4  10  22  42  65  87 113 147 185 226 275 330
#     4  12  22  38  59  83 110 147 189 227 274 325
#     4   8  14  26  49  78 105 135 177 229 275 323
#     4   8  14  26  47  77 107 136 177 227 277 323
#     4   9  17  35  60  80 106 149 192 226 275 339
#     4  10  22  40  64  90 114 145 185 228 274 329
#     4   9  17  33  59  84 107 143 191 236 274 327
#
# _framework density 20.190376000000001
#
# number of rings (size 3 to 8) (size 9 to 14) (size 15 to 20)
#    0.000    2.250    2.500    2.250    1.750    3.000 
#    2.250    1.875    0.000    1.500    0.000    0.000 
#    0.000    0.000    0.000    0.000    0.000    0.000 
#
# Total GULP energy -357266.243870 kJ/mol
# GULP energy per Si atom -5582.285060 kJ/mol
# Density = 2.014442 g / cm^3
# Si number density = 20.190376 Si / 1000 Ang^3
#
#
#
# Elastic Constant Matrix: (Units=GPa)
#
#
# Indices 1 2 3 4 5 6 
#
# 1 53.0300 -3.6064 -1.7478 0.0000 0.0000 0.0000
# 2 -3.6064 45.0461 8.7102 0.0000 0.0000 0.0000
# 3 -1.7478 8.7102 24.1633 0.0000 0.0000 0.0000
# 4 0.0000 0.0000 0.0000 19.3900 0.0000 0.0000
# 5 0.0000 0.0000 0.0000 0.0000 -36.0191 0.0000
# 6 0.0000 0.0000 0.0000 0.0000 0.0000 33.1717
#
#
#
# Elastic Compliance Matrix: (Units=1/GPa)
#
#
# Indices 1 2 3 4 5 6 
#
# 1 0.018978 0.001348 0.000887 0.000000 0.000000 0.000000
# 2 0.001348 0.023959 -0.008539 0.000000 0.000000 0.000000
# 3 0.000887 -0.008539 0.044527 0.000000 0.000000 0.000000
# 4 0.000000 0.000000 0.000000 0.051573 0.000000 0.000000
# 5 0.000000 0.000000 0.000000 0.000000 -0.027763 0.000000
# 6 0.000000 0.000000 0.000000 0.000000 0.000000 0.030146
#
#
# Mechanical properties :
#
#
# Convention : Reuss Voigt Hill
#
# Bulk Modulus (GPa) = 13.35907 14.32795 13.84351
# Shear Modulus (GPa) = 27.93605 11.23408 19.58506
#
# Velocity S-wave (km/s) = 3.72376 2.36139 3.11789
# Velocity P-wave (km/s) = 5.01193 3.81401 4.45343
#
# Compressibility (1/GPa) = 0.07485552
#
# Stress axis : x y z
#
# Youngs Moduli (GPa) = 52.69222 41.73881 22.45817
#
# Poissons Ratio (x) = -0.05626 -0.01992
# Poissons Ratio (y) = -0.07102 0.19177
# Poissons Ratio (z) = -0.04673 0.35640
#
# Static dielectric constant tensor:
#      x y z
#    x 1.710230 0.000000 0.000000 
#    y 0.000000 1.692910 0.000000 
#    z 0.000000 0.000000 1.747130 
# 
# From -- ./inp_files/23074.got.cif
#   From: 2010.05.17/outbox.cif.g08.bks.cpg/sg57_12_cif.got.tgz:23074.got - 2010.06.03 13:58:18.
