data_PCOD9439437
_publ_section_title
;
Structure prediction by ZEFSAII (Michael W. Deem and Ramdas Pophale) SiO2 
 PCOD9439437
Probable space group: P B C M
;
_chemical_formula_sum "Si O2"
_cell_formula_units_Z 48
_cell_length_a 5.172792
_cell_length_b 14.200837
_cell_length_c 28.462113
_cell_angle_alpha 90.000000
_cell_angle_beta 90.000000
_cell_angle_gamma 90.000000
_cell_volume 2090.769214
_symmetry_space_group_name_H-M "P B C M"
_symmetry_group_IT_number 57
_symmetry_cell_setting 'orthorhombic'
loop_
_space_group_symop_operation_xyz
x,y,z
-x,-y,1/2+z
x,1/2-y,-z
-x,1/2+y,1/2-z
-x,-y,-z
x,y,1/2-z
-x,1/2+y,z
x,1/2-y,1/2+z
loop_
_atom_site_type_symbol
_atom_site_label
_atom_site_fract_x
_atom_site_fract_y
_atom_site_fract_z
Si Si1 0.247698 0.484958 0.468056
Si Si2 0.172093 0.056970 0.302173
Si Si3 0.439247 0.889294 0.341786
Si Si4 0.142661 0.627639 0.385216
Si Si5 0.063639 0.331941 0.398420
Si Si6 0.554750 0.295645 0.799553
O O1 0.500000 0.500000 0.500000
O O2 0.187653 0.384166 0.443548
O O3 0.000000 0.500000 0.500000
O O4 0.248368 0.564013 0.427096
O O5 0.087847 0.025979 0.250000
O O6 0.996707 0.058834 0.348045
O O7 0.264386 0.165323 0.298527
O O8 0.409050 0.990903 0.318489
O O9 0.720852 0.859786 0.359964
O O10 0.386844 0.813514 0.301445
O O11 0.216979 0.873546 0.381970
O O12 0.977112 0.718732 0.402530
O O13 0.351833 0.672225 0.350518
O O14 0.666238 0.334241 0.750000
#
# Coordination Sequence:
#
# PCOD9439437 Si02
#       6
#     8   8   8   8   8   8
#     4  12  28  48  77 107 140 183 248 312 371 439
#     4  11  22  39  67 103 145 195 244 288 350 431
#     4  11  22  41  68 103 143 190 230 290 346 427
#     4  11  24  45  72 100 147 191 236 300 367 438
#     4  11  24  45  75 100 141 187 236 290 375 428
#     4  10  22  40  65 102 143 188 239 288 344 426
#
# _framework density 22.958055999999999
#
# number of rings (size 3 to 8) (size 9 to 14) (size 15 to 20)
#    0.000    1.000    3.333    3.000    2.333    0.667 
#    0.000    3.333    0.000    0.000    0.000    0.000 
#    0.000    0.000    0.000    0.000    0.000    0.000 
#
# Total GULP energy -267485.413814 kJ/mol
# GULP energy per Si atom -5572.612788 kJ/mol
# Density = 2.290580 g / cm^3
# Si number density = 22.958056 Si / 1000 Ang^3
#
#
#
# Elastic Constant Matrix: (Units=GPa)
#
#
# Indices 1 2 3 4 5 6 
#
# 1 97.7569 30.1177 53.5447 0.0000 0.0000 0.0000
# 2 30.1177 107.2365 55.4679 0.0000 0.0000 0.0000
# 3 53.5447 55.4679 179.6441 0.0000 0.0000 0.0000
# 4 0.0000 0.0000 0.0000 39.9849 0.0000 0.0000
# 5 0.0000 0.0000 0.0000 0.0000 -0.9852 0.0000
# 6 0.0000 0.0000 0.0000 0.0000 0.0000 31.7623
#
#
#
# Elastic Compliance Matrix: (Units=1/GPa)
#
#
# Indices 1 2 3 4 5 6 
#
# 1 0.012539 -0.001890 -0.003154 0.000000 0.000000 0.000000
# 2 -0.001890 0.011383 -0.002951 0.000000 0.000000 0.000000
# 3 -0.003154 -0.002951 0.007418 0.000000 0.000000 0.000000
# 4 0.000000 0.000000 0.000000 0.025009 0.000000 0.000000
# 5 0.000000 0.000000 0.000000 0.000000 -1.014990 0.000000
# 6 0.000000 0.000000 0.000000 0.000000 0.000000 0.031484
#
#
# Mechanical properties :
#
#
# Convention : Reuss Voigt Hill
#
# Bulk Modulus (GPa) = 65.15047 73.65534 69.40290
# Shear Modulus (GPa) = -5.51846 30.51956 12.50055
#
# Velocity S-wave (km/s) = -1.55207 3.65000 2.33597
# Velocity P-wave (km/s) = 5.02272 7.06509 6.12957
#
# Compressibility (1/GPa) = 0.01534908
#
# Stress axis : x y z
#
# Youngs Moduli (GPa) = 79.74931 87.85376 134.81148
#
# Poissons Ratio (x) = 0.16608 0.42516
# Poissons Ratio (y) = 0.15076 0.39784
# Poissons Ratio (z) = 0.25151 0.25926
#
# Static dielectric constant tensor:
#      x y z
#    x 1.945570 0.000000 0.000000 
#    y 0.000000 1.943930 0.000000 
#    z 0.000000 0.000000 1.871680 
# 
# From -- ./inp_files/27959.got.cif
#   From: 2010.05.17/outbox.cif.g08.bks.cpg/sg57_14_cif.got.tgz:27959.got - 2010.06.03 13:58:18.
