data_PCOD9439626
_publ_section_title
;
Structure prediction by ZEFSAII (Michael W. Deem and Ramdas Pophale) SiO2 
 PCOD9439626
Probable space group: P B C M
;
_chemical_formula_sum "Si O2"
_cell_formula_units_Z 40
_cell_length_a 9.503050
_cell_length_b 10.266009
_cell_length_c 18.917173
_cell_angle_alpha 90.000000
_cell_angle_beta 90.000000
_cell_angle_gamma 90.000000
_cell_volume 1845.529070
_symmetry_space_group_name_H-M "P B C M"
_symmetry_group_IT_number 57
_symmetry_cell_setting 'orthorhombic'
loop_
_space_group_symop_operation_xyz
x,y,z
-x,-y,1/2+z
x,1/2-y,-z
-x,1/2+y,1/2-z
-x,-y,-z
x,y,1/2-z
-x,1/2+y,z
x,1/2-y,1/2+z
loop_
_atom_site_type_symbol
_atom_site_label
_atom_site_fract_x
_atom_site_fract_y
_atom_site_fract_z
Si Si1 0.363531 0.228629 0.375672
Si Si2 0.454198 0.496156 0.418349
Si Si3 0.961398 0.936994 0.750000
Si Si4 0.181091 0.881623 0.968641
Si Si5 0.112232 0.080427 0.091420
Si Si6 0.833280 0.828249 0.250000
O O1 0.463365 0.345865 0.397732
O O2 0.455964 0.096670 0.370951
O O3 0.236975 0.180693 0.425665
O O4 0.269815 0.291044 0.313791
O O5 0.500000 0.500000 0.500000
O O6 0.292407 0.541995 0.421044
O O7 0.885033 0.963289 0.674077
O O8 0.961152 0.778187 0.750000
O O9 0.099486 0.028338 0.750000
O O10 0.039533 0.858041 0.924187
O O11 0.244524 0.750000 0.000000
O O12 0.135918 0.963605 0.037367
#
# Coordination Sequence:
#
# PCOD9439626 Si02
#       6
#     8   8   4   8   8   4
#     4  11  25  45  67  97 134 184 227 285 342 407
#     4  12  24  42  68  93 139 180 228 280 348 407
#     4  10  22  44  68  98 138 180 218 280 352 408
#     4  11  24  37  65 101 133 176 232 288 349 413
#     4  10  24  41  67  96 138 176 231 290 347 411
#     4  10  24  46  72 100 142 178 232 282 346 418
#
# _framework density 21.674002000000002
#
# number of rings (size 3 to 8) (size 9 to 14) (size 15 to 20)
#    0.000    1.200    2.000    3.000   11.200    0.800 
#    0.000    1.000    0.000    0.000    0.000    0.000 
#    0.000    0.000    0.000    0.000    0.000    0.000 
#
# Total GULP energy -222960.669893 kJ/mol
# GULP energy per Si atom -5574.016747 kJ/mol
# Density = 2.162467 g / cm^3
# Si number density = 21.674002 Si / 1000 Ang^3
#
#
#
# Elastic Constant Matrix: (Units=GPa)
#
#
# Indices 1 2 3 4 5 6 
#
# 1 91.1624 32.2043 12.2784 0.0000 0.0000 0.0000
# 2 32.2043 111.3013 34.6383 0.0000 0.0000 0.0000
# 3 12.2784 34.6383 81.9187 0.0000 0.0000 0.0000
# 4 0.0000 0.0000 0.0000 16.3387 0.0000 0.0000
# 5 0.0000 0.0000 0.0000 0.0000 27.9184 0.0000
# 6 0.0000 0.0000 0.0000 0.0000 0.0000 44.9153
#
#
#
# Elastic Compliance Matrix: (Units=1/GPa)
#
#
# Indices 1 2 3 4 5 6 
#
# 1 0.012229 -0.003418 -0.000388 0.000000 0.000000 0.000000
# 2 -0.003418 0.011301 -0.004266 0.000000 0.000000 0.000000
# 3 -0.000388 -0.004266 0.014069 0.000000 0.000000 0.000000
# 4 0.000000 0.000000 0.000000 0.061205 0.000000 0.000000
# 5 0.000000 0.000000 0.000000 0.000000 0.035819 0.000000
# 6 0.000000 0.000000 0.000000 0.000000 0.000000 0.022264
#
#
# Mechanical properties :
#
#
# Convention : Reuss Voigt Hill
#
# Bulk Modulus (GPa) = 46.60723 49.18048 47.89385
# Shear Modulus (GPa) = 27.74963 31.51855 29.63409
#
# Velocity S-wave (km/s) = 3.58204 3.81755 3.70167
# Velocity P-wave (km/s) = 6.21759 6.49398 6.35729
#
# Compressibility (1/GPa) = 0.02145590
#
# Stress axis : x y z
#
# Youngs Moduli (GPa) = 81.77272 88.48592 71.07664
#
# Poissons Ratio (x) = 0.30242 0.02757
# Poissons Ratio (y) = 0.27947 0.30324
# Poissons Ratio (z) = 0.03171 0.37751
#
# Static dielectric constant tensor:
#      x y z
#    x 1.837850 0.000000 0.000000 
#    y 0.000000 1.930600 0.000000 
#    z 0.000000 0.000000 1.990340 
# 
# From -- ./inp_files/20581.got.cif
#   From: 2010.05.17/outbox.cif.g08.bks.cpg/sg57_11_cif.got.tgz:20581.got - 2010.06.03 13:58:18.
