data_PCOD9439673
_publ_section_title
;
Structure prediction by ZEFSAII (Michael W. Deem and Ramdas Pophale) SiO2 
 PCOD9439673
Probable space group: P B C M
;
_chemical_formula_sum "Si O2"
_cell_formula_units_Z 64
_cell_length_a 11.971847
_cell_length_b 9.313630
_cell_length_c 27.943739
_cell_angle_alpha 90.000000
_cell_angle_beta 90.000000
_cell_angle_gamma 90.000000
_cell_volume 3115.764717
_symmetry_space_group_name_H-M "P B C M"
_symmetry_group_IT_number 57
_symmetry_cell_setting 'orthorhombic'
loop_
_space_group_symop_operation_xyz
x,y,z
-x,-y,1/2+z
x,1/2-y,-z
-x,1/2+y,1/2-z
-x,-y,-z
x,y,1/2-z
-x,1/2+y,z
x,1/2-y,1/2+z
loop_
_atom_site_type_symbol
_atom_site_label
_atom_site_fract_x
_atom_site_fract_y
_atom_site_fract_z
Si Si1 0.700172 0.986884 0.804737
Si Si2 0.946209 0.046211 0.191284
Si Si3 0.552054 0.222752 0.396847
Si Si4 0.129446 0.654131 0.645267
Si Si5 0.598181 0.904809 0.974750
Si Si6 0.455317 0.472174 0.333072
Si Si7 0.239703 0.657027 0.954503
Si Si8 0.239491 0.179879 0.695862
O O1 0.737205 0.003071 0.750000
O O2 0.744560 0.836661 0.826399
O O3 0.747507 0.118956 0.834390
O O4 0.566771 0.983590 0.805642
O O5 0.952670 0.058122 0.250000
O O6 0.918809 0.199136 0.167395
O O7 0.848291 0.934279 0.176798
O O8 0.054952 0.973194 0.168123
O O9 0.453504 0.137974 0.423823
O O10 0.496853 0.361109 0.373305
O O11 0.650234 0.263225 0.433072
O O12 0.595228 0.113280 0.357018
O O13 0.148309 0.651428 0.588078
O O14 0.708815 0.002371 0.969874
O O15 0.615341 0.750000 0.000000
O O16 0.500000 0.000000 0.000000
O O17 0.360336 0.392695 0.303915
O O18 0.201558 0.750000 0.000000
O O19 0.201519 0.207611 0.750000
#
# Coordination Sequence:
#
# PCOD9439673 Si02
#       8
#     8   8   8   8   8   8   8   8
#     4  11  22  38  60  91 134 177 216 273 341 415
#     4  11  24  46  76 101 128 173 230 292 349 423
#     4  12  20  35  58  89 135 178 223 270 322 394
#     4  12  25  47  71 102 131 171 229 291 351 417
#     4  12  20  37  62  92 136 180 230 273 326 399
#     4  12  22  36  56  94 139 178 217 267 335 411
#     4  12  25  43  66 101 135 181 231 289 344 406
#     4  10  23  40  59  91 133 179 225 269 334 410
#
# _framework density 20.540704000000002
#
# number of rings (size 3 to 8) (size 9 to 14) (size 15 to 20)
#    0.000    0.500    6.250    3.000    0.000    1.000 
#    0.000    0.625    0.000    0.000    0.000    0.000 
#    0.000    0.000    0.000    0.000    0.000    0.000 
#
# Total GULP energy -357422.880394 kJ/mol
# GULP energy per Si atom -5584.732506 kJ/mol
# Density = 2.049395 g / cm^3
# Si number density = 20.540704 Si / 1000 Ang^3
#
#
#
# Elastic Constant Matrix: (Units=GPa)
#
#
# Indices 1 2 3 4 5 6 
#
# 1 74.7657 39.6281 23.1016 0.0000 0.0000 0.0000
# 2 39.6281 154.2576 55.3076 0.0000 0.0000 0.0000
# 3 23.1016 55.3076 103.3352 0.0000 0.0000 0.0000
# 4 0.0000 0.0000 0.0000 29.9631 0.0000 0.0000
# 5 0.0000 0.0000 0.0000 0.0000 33.8632 0.0000
# 6 0.0000 0.0000 0.0000 0.0000 0.0000 34.0280
#
#
#
# Elastic Compliance Matrix: (Units=1/GPa)
#
#
# Indices 1 2 3 4 5 6 
#
# 1 0.015714 -0.003437 -0.001674 0.000000 0.000000 0.000000
# 2 -0.003437 0.008774 -0.003928 0.000000 0.000000 0.000000
# 3 -0.001674 -0.003928 0.012154 0.000000 0.000000 0.000000
# 4 0.000000 0.000000 0.000000 0.033374 0.000000 0.000000
# 5 0.000000 0.000000 0.000000 0.000000 0.029531 0.000000
# 6 0.000000 0.000000 0.000000 0.000000 0.000000 0.029388
#
#
# Mechanical properties :
#
#
# Convention : Reuss Voigt Hill
#
# Bulk Modulus (GPa) = 53.86402 63.15925 58.51163
# Shear Modulus (GPa) = 32.63751 33.85893 33.24822
#
# Velocity S-wave (km/s) = 3.99045 4.06443 4.02761
# Velocity P-wave (km/s) = 6.89286 7.26920 7.08353
#
# Compressibility (1/GPa) = 0.01856527
#
# Stress axis : x y z
#
# Youngs Moduli (GPa) = 63.63823 113.97612 82.28061
#
# Poissons Ratio (x) = 0.39171 0.13770
# Poissons Ratio (y) = 0.21871 0.32317
# Poissons Ratio (z) = 0.10650 0.44765
#
# Static dielectric constant tensor:
#      x y z
#    x 1.748700 0.000000 0.000000 
#    y 0.000000 1.780580 0.000000 
#    z 0.000000 0.000000 1.771950 
# 
# From -- ./inp_files/29762.got.cif
#   From: 2010.05.17/outbox.cif.g08.bks.cpg/sg57_15_cif.got.tgz:29762.got - 2010.06.03 13:58:18.
