data_PCOD9439018
_publ_section_title
;
Structure prediction by ZEFSAII (Michael W. Deem and Ramdas Pophale) SiO2 
 PCOD9439018
Probable space group: P B C M
;
_chemical_formula_sum "Si O2"
_cell_formula_units_Z 56
_cell_length_a 11.111948
_cell_length_b 15.898882
_cell_length_c 14.831459
_cell_angle_alpha 90.000000
_cell_angle_beta 90.000000
_cell_angle_gamma 90.000000
_cell_volume 2620.237525
_symmetry_space_group_name_H-M "P B C M"
_symmetry_group_IT_number 57
_symmetry_cell_setting 'orthorhombic'
loop_
_space_group_symop_operation_xyz
x,y,z
-x,-y,1/2+z
x,1/2-y,-z
-x,1/2+y,1/2-z
-x,-y,-z
x,y,1/2-z
-x,1/2+y,z
x,1/2-y,1/2+z
loop_
_atom_site_type_symbol
_atom_site_label
_atom_site_fract_x
_atom_site_fract_y
_atom_site_fract_z
Si Si1 0.222578 0.058353 0.438509
Si Si2 0.220830 0.682289 0.422512
Si Si3 0.227272 0.413455 0.350195
Si Si4 0.310530 0.267045 0.606475
Si Si5 0.562047 0.283797 0.347165
Si Si6 0.975038 0.050576 0.352349
Si Si7 0.600521 0.434808 0.468407
O O1 0.262475 0.065920 0.544689
O O2 0.245008 0.144779 0.386996
O O3 0.083553 0.039773 0.422199
O O4 0.308347 0.984723 0.403453
O O5 0.182362 0.750000 0.500000
O O6 0.311506 0.737056 0.361136
O O7 0.111739 0.629077 0.380149
O O8 0.311461 0.611137 0.460819
O O9 0.282520 0.438454 0.250000
O O10 0.240413 0.312374 0.351606
O O11 0.102265 0.464482 0.349255
O O12 0.318911 0.250000 0.500000
O O13 0.445715 0.274906 0.643684
O O14 0.560185 0.324219 0.250000
O O15 0.540832 0.355898 0.419781
O O16 0.018944 0.065268 0.250000
O O17 0.500000 0.500000 0.500000
#
# Coordination Sequence:
#
# PCOD9439018 Si02
#       7
#     8   8   8   8   8   8   8
#     4  11  23  42  67  94 134 170 216 273 333 395
#     4  10  22  41  64  91 127 172 219 268 335 396
#     4  10  21  39  65  95 126 165 215 265 322 392
#     4  10  21  40  64  92 123 166 212 266 330 393
#     4  11  23  40  62  93 131 166 218 278 333 397
#     4  11  24  42  65  96 131 173 223 270 329 403
#     4  11  22  40  67  94 126 169 216 268 334 398
#
# _framework density 21.372108000000001
#
# number of rings (size 3 to 8) (size 9 to 14) (size 15 to 20)
#    0.000    1.429    1.429    5.143    0.000    3.429 
#    2.571    2.143    0.000    0.000    0.000    0.000 
#    0.000    0.000    0.000    0.000    0.000    0.000 
#
# Total GULP energy -311813.902629 kJ/mol
# GULP energy per Si atom -5568.105404 kJ/mol
# Density = 2.132346 g / cm^3
# Si number density = 21.372108 Si / 1000 Ang^3
#
#
#
# Elastic Constant Matrix: (Units=GPa)
#
#
# Indices 1 2 3 4 5 6 
#
# 1 102.8148 37.7032 22.6825 0.0000 0.0000 0.0000
# 2 37.7032 69.9074 15.0691 0.0000 0.0000 0.0000
# 3 22.6825 15.0691 69.4508 0.0000 0.0000 0.0000
# 4 0.0000 0.0000 0.0000 19.1612 0.0000 0.0000
# 5 0.0000 0.0000 0.0000 0.0000 5.1505 0.0000
# 6 0.0000 0.0000 0.0000 0.0000 0.0000 27.9606
#
#
#
# Elastic Compliance Matrix: (Units=1/GPa)
#
#
# Indices 1 2 3 4 5 6 
#
# 1 0.012613 -0.006205 -0.002773 0.000000 0.000000 0.000000
# 2 -0.006205 0.018059 -0.001892 0.000000 0.000000 0.000000
# 3 -0.002773 -0.001892 0.015715 0.000000 0.000000 0.000000
# 4 0.000000 0.000000 0.000000 0.052189 0.000000 0.000000
# 5 0.000000 0.000000 0.000000 0.000000 0.194158 0.000000
# 6 0.000000 0.000000 0.000000 0.000000 0.000000 0.035765
#
#
# Mechanical properties :
#
#
# Convention : Reuss Voigt Hill
#
# Bulk Modulus (GPa) = 40.57245 43.67584 42.12414
# Shear Modulus (GPa) = 13.94879 21.56900 17.75889
#
# Velocity S-wave (km/s) = 2.55750 3.18026 2.88573
# Velocity P-wave (km/s) = 5.26746 5.82801 5.55481
#
# Compressibility (1/GPa) = 0.02464727
#
# Stress axis : x y z
#
# Youngs Moduli (GPa) = 79.28017 55.37401 63.63397
#
# Poissons Ratio (x) = 0.34360 0.17647
# Poissons Ratio (y) = 0.49194 0.12038
# Poissons Ratio (z) = 0.21986 0.10476
#
# Static dielectric constant tensor:
#      x y z
#    x 1.770950 0.000000 0.000000 
#    y 0.000000 1.793060 0.000000 
#    z 0.000000 0.000000 1.813360 
# 
# From -- ./inp_files/17743.got.cif
#   From: 2010.05.17/outbox.cif.g08.bks.cpg/sg57_9_cif.got.tgz:17743.got - 2010.06.03 13:58:18.
