data_PCOD9439717
_publ_section_title
;
Structure prediction by ZEFSAII (Michael W. Deem and Ramdas Pophale) SiO2 
 PCOD9439717
Probable space group: P B C M
;
_chemical_formula_sum "Si O2"
_cell_formula_units_Z 40
_cell_length_a 24.158559
_cell_length_b 8.613872
_cell_length_c 9.790980
_cell_angle_alpha 90.000000
_cell_angle_beta 90.000000
_cell_angle_gamma 90.000000
_cell_volume 2037.490552
_symmetry_space_group_name_H-M "P B C M"
_symmetry_group_IT_number 57
_symmetry_cell_setting 'orthorhombic'
loop_
_space_group_symop_operation_xyz
x,y,z
-x,-y,1/2+z
x,1/2-y,-z
-x,1/2+y,1/2-z
-x,-y,-z
x,y,1/2-z
-x,1/2+y,z
x,1/2-y,1/2+z
loop_
_atom_site_type_symbol
_atom_site_label
_atom_site_fract_x
_atom_site_fract_y
_atom_site_fract_z
Si Si1 0.953871 0.907159 0.913464
Si Si2 0.839824 0.097858 0.908711
Si Si3 0.456462 0.068987 0.250000
Si Si4 0.621388 0.065894 0.978427
Si Si5 0.423473 0.069805 0.750000
Si Si6 0.267203 0.100220 0.092366
O O1 0.967778 0.883832 0.750000
O O2 0.896854 0.003152 0.917264
O O3 0.946216 0.750000 0.000000
O O4 0.000000 0.000000 0.000000
O O5 0.830936 0.141011 0.750000
O O6 0.788166 0.990545 0.950562
O O7 0.842720 0.250000 0.000000
O O8 0.427757 0.988512 0.379435
O O9 0.521425 0.035999 0.250000
O O10 0.441961 0.251101 0.250000
O O11 0.611731 0.974431 0.118409
O O12 0.619632 0.250000 0.000000
O O13 0.680021 0.012390 0.918651
O O14 0.260598 0.147903 0.250000
O O15 0.276223 0.250000 0.000000
#
# Coordination Sequence:
#
# PCOD9439717 Si02
#       6
#     8   8   4   8   4   8
#     4  11  23  40  64  94 132 173 221 273 331 393
#     4  10  23  42  64  94 130 170 217 269 322 384
#     4  12  24  46  64  98 126 166 213 260 315 388
#     4  12  25  43  66  94 129 166 211 263 320 381
#     4  12  26  42  70  92 130 168 209 260 321 378
#     4  11  24  43  66  94 128 165 213 263 319 384
#
# _framework density 19.631993999999999
#
# number of rings (size 3 to 8) (size 9 to 14) (size 15 to 20)
#    0.000    0.800    1.000    6.600    1.400    4.000 
#    0.000    0.000    0.000    0.000    0.000    0.000 
#    0.000    0.000    0.000    0.000    0.000    0.000 
#
# Total GULP energy -223767.125020 kJ/mol
# GULP energy per Si atom -5594.178126 kJ/mol
# Density = 1.958731 g / cm^3
# Si number density = 19.631994 Si / 1000 Ang^3
#
#
#
# Elastic Constant Matrix: (Units=GPa)
#
#
# Indices 1 2 3 4 5 6 
#
# 1 85.4297 8.5153 12.9243 0.0000 0.0000 0.0000
# 2 8.5153 140.5812 41.3890 0.0000 0.0000 0.0000
# 3 12.9243 41.3890 103.9020 0.0000 0.0000 0.0000
# 4 0.0000 0.0000 0.0000 28.0864 0.0000 0.0000
# 5 0.0000 0.0000 0.0000 0.0000 42.4758 0.0000
# 6 0.0000 0.0000 0.0000 0.0000 0.0000 31.6012
#
#
#
# Elastic Compliance Matrix: (Units=1/GPa)
#
#
# Indices 1 2 3 4 5 6 
#
# 1 0.011943 -0.000324 -0.001357 0.000000 0.000000 0.000000
# 2 -0.000324 0.008067 -0.003173 0.000000 0.000000 0.000000
# 3 -0.001357 -0.003173 0.011057 0.000000 0.000000 0.000000
# 4 0.000000 0.000000 0.000000 0.035604 0.000000 0.000000
# 5 0.000000 0.000000 0.000000 0.000000 0.023543 0.000000
# 6 0.000000 0.000000 0.000000 0.000000 0.000000 0.031644
#
#
# Mechanical properties :
#
#
# Convention : Reuss Voigt Hill
#
# Bulk Modulus (GPa) = 46.81667 50.61891 48.71779
# Shear Modulus (GPa) = 36.05248 38.23829 37.14538
#
# Velocity S-wave (km/s) = 4.28999 4.41812 4.35453
# Velocity P-wave (km/s) = 6.95971 7.20183 7.08180
#
# Compressibility (1/GPa) = 0.02135992
#
# Stress axis : x y z
#
# Youngs Moduli (GPa) = 83.73070 123.95878 90.43847
#
# Poissons Ratio (x) = 0.04017 0.12268
# Poissons Ratio (y) = 0.02713 0.28698
# Poissons Ratio (z) = 0.11358 0.39335
#
# Static dielectric constant tensor:
#      x y z
#    x 1.668000 0.000000 0.000000 
#    y 0.000000 1.639230 0.000000 
#    z 0.000000 0.000000 1.545230 
# 
# From -- ./inp_files/8962.got.cif
#   From: 2010.05.17/outbox.cif.g08.bks.cpg/sg57_5_cif.got.tgz:8962.got - 2010.06.03 13:58:18.
