data_PCOD9439109
_publ_section_title
;
Structure prediction by ZEFSAII (Michael W. Deem and Ramdas Pophale) SiO2 
 PCOD9439109
Probable space group: P B C M
;
_chemical_formula_sum "Si O2"
_cell_formula_units_Z 40
_cell_length_a 7.330970
_cell_length_b 23.841345
_cell_length_c 10.312820
_cell_angle_alpha 90.000000
_cell_angle_beta 90.000000
_cell_angle_gamma 90.000000
_cell_volume 1802.476587
_symmetry_space_group_name_H-M "P B C M"
_symmetry_group_IT_number 57
_symmetry_cell_setting 'orthorhombic'
loop_
_space_group_symop_operation_xyz
x,y,z
-x,-y,1/2+z
x,1/2-y,-z
-x,1/2+y,1/2-z
-x,-y,-z
x,y,1/2-z
-x,1/2+y,z
x,1/2-y,1/2+z
loop_
_atom_site_type_symbol
_atom_site_label
_atom_site_fract_x
_atom_site_fract_y
_atom_site_fract_z
Si Si1 0.906837 0.085171 0.027774
Si Si2 0.566183 0.107311 0.892863
Si Si3 0.545821 0.800297 0.597182
Si Si4 0.236353 0.030063 0.607869
Si Si5 0.013868 0.206900 0.109146
O O1 0.779575 0.094819 0.903097
O O2 0.104577 0.059974 0.994889
O O3 0.931871 0.145075 0.093723
O O4 0.797321 0.036145 0.100628
O O5 0.523327 0.132536 0.750000
O O6 0.442083 0.051718 0.904484
O O7 0.515949 0.145338 0.016298
O O8 0.488129 0.750000 0.500000
O O9 0.487596 0.797634 0.750000
O O10 0.766813 0.799260 0.599694
O O11 0.174611 0.049483 0.750000
O O12 0.968642 0.230292 0.250000
O O13 0.952442 0.250000 0.000000
#
# Coordination Sequence:
#
# PCOD9439109 Si02
#       5
#     8   8   8   8   8
#     4  11  22  40  64  94 126 167 213 258 313 377
#     4  11  23  40  63  95 128 168 213 260 315 378
#     4  10  21  40  64  93 126 169 211 263 321 379
#     4  10  22  40  62  90 129 169 208 260 315 372
#     4  10  22  40  65  94 126 164 210 259 317 377
#
# _framework density 22.191689
#
# number of rings (size 3 to 8) (size 9 to 14) (size 15 to 20)
#    0.000    1.600    2.000    2.400    0.000    4.800 
#    0.000    1.000    0.000    0.000    0.000    0.000 
#    0.000    0.000    0.000    0.000    0.000    0.000 
#
# Total GULP energy -223231.992793 kJ/mol
# GULP energy per Si atom -5580.799820 kJ/mol
# Density = 2.214118 g / cm^3
# Si number density = 22.191689 Si / 1000 Ang^3
#
#
#
# Elastic Constant Matrix: (Units=GPa)
#
#
# Indices 1 2 3 4 5 6 
#
# 1 67.0405 3.0928 21.3171 0.0000 0.0000 0.0000
# 2 3.0928 102.2391 53.2060 0.0000 0.0000 0.0000
# 3 21.3171 53.2060 163.3847 0.0000 0.0000 0.0000
# 4 0.0000 0.0000 0.0000 23.5444 0.0000 0.0000
# 5 0.0000 0.0000 0.0000 0.0000 17.7265 0.0000
# 6 0.0000 0.0000 0.0000 0.0000 0.0000 4.0995
#
#
#
# Elastic Compliance Matrix: (Units=1/GPa)
#
#
# Indices 1 2 3 4 5 6 
#
# 1 0.015604 0.000707 -0.002266 0.000000 0.000000 0.000000
# 2 0.000707 0.011809 -0.003938 0.000000 0.000000 0.000000
# 3 -0.002266 -0.003938 0.007699 0.000000 0.000000 0.000000
# 4 0.000000 0.000000 0.000000 0.042473 0.000000 0.000000
# 5 0.000000 0.000000 0.000000 0.000000 0.056413 0.000000
# 6 0.000000 0.000000 0.000000 0.000000 0.000000 0.243934
#
#
# Mechanical properties :
#
#
# Convention : Reuss Voigt Hill
#
# Bulk Modulus (GPa) = 41.46240 54.21070 47.83655
# Shear Modulus (GPa) = 12.59558 26.07729 19.33644
#
# Velocity S-wave (km/s) = 2.38498 3.43168 2.95504
# Velocity P-wave (km/s) = 5.12918 6.33903 5.76593
#
# Compressibility (1/GPa) = 0.02411824
#
# Stress axis : x y z
#
# Youngs Moduli (GPa) = 64.08476 84.68201 129.89439
#
# Poissons Ratio (x) = -0.05990 0.29438
# Poissons Ratio (y) = -0.04533 0.51150
# Poissons Ratio (z) = 0.14523 0.33346
#
# Static dielectric constant tensor:
#      x y z
#    x 1.814810 0.000000 0.000000 
#    y 0.000000 1.800570 0.000000 
#    z 0.000000 0.000000 1.856260 
# 
# From -- ./inp_files/1548.got.cif
#   From: 2010.05.17/outbox.cif.g08.bks.cpg/sg57_1_cif.got.tgz:1548.got - 2010.06.03 13:58:18.
