data_PCOD9439531
_publ_section_title
;
Structure prediction by ZEFSAII (Michael W. Deem and Ramdas Pophale) SiO2 
 PCOD9439531
Probable space group: P B C M
;
_chemical_formula_sum "Si O2"
_cell_formula_units_Z 52
_cell_length_a 7.327346
_cell_length_b 12.219319
_cell_length_c 26.716430
_cell_angle_alpha 90.000000
_cell_angle_beta 90.000000
_cell_angle_gamma 90.000000
_cell_volume 2392.060321
_symmetry_space_group_name_H-M "P B C M"
_symmetry_group_IT_number 57
_symmetry_cell_setting 'orthorhombic'
loop_
_space_group_symop_operation_xyz
x,y,z
-x,-y,1/2+z
x,1/2-y,-z
-x,1/2+y,1/2-z
-x,-y,-z
x,y,1/2-z
-x,1/2+y,z
x,1/2-y,1/2+z
loop_
_atom_site_type_symbol
_atom_site_label
_atom_site_fract_x
_atom_site_fract_y
_atom_site_fract_z
Si Si1 0.982482 0.250000 0.500000
Si Si2 0.422980 0.858131 0.250000
Si Si3 0.774228 0.553935 0.964409
Si Si4 0.111046 0.863050 0.901492
Si Si5 0.292707 0.342762 0.860648
Si Si6 0.400441 0.107590 0.250000
Si Si7 0.639738 0.466560 0.435720
Si Si8 0.364054 0.706774 0.855204
O O1 0.116759 0.337167 0.474654
O O2 0.868919 0.196958 0.455184
O O3 0.515236 0.733414 0.250000
O O4 0.321326 0.848473 0.197469
O O5 0.500703 0.985554 0.250000
O O6 0.858608 0.487618 0.918100
O O7 0.559122 0.568857 0.954928
O O8 0.772016 0.490028 0.017863
O O9 0.261043 0.820773 0.862855
O O10 0.914762 0.833978 0.878890
O O11 0.300133 0.389374 0.803963
O O12 0.377898 0.424695 0.902033
O O13 0.420086 0.234429 0.860277
O O14 0.703333 0.373552 0.398173
#
# Coordination Sequence:
#
# PCOD9439531 Si02
#       8
#     4   4   8   8   8   4   8   8
#     4  12  24  38  60  92 132 176 216 268 324 394
#     4  10  22  41  74  96 137 171 230 283 349 402
#     4  11  25  40  62  97 131 176 222 266 329 406
#     4  12  25  41  65  93 134 175 217 270 334 401
#     4  11  23  44  66  97 132 168 223 274 332 397
#     4  10  22  43  72 104 131 179 226 287 345 408
#     4  11  22  41  67  91 134 168 221 268 326 395
#     4  11  24  44  67  97 127 176 221 276 341 400
#
# _framework density 21.738582999999998
#
# number of rings (size 3 to 8) (size 9 to 14) (size 15 to 20)
#    0.000    0.923    4.615    2.308    2.154    0.615 
#    0.000    0.000    0.000    1.846    0.000    0.000 
#    0.000    0.000    0.000    0.000    0.000    0.000 
#
# Total GULP energy -289978.822723 kJ/mol
# GULP energy per Si atom -5576.515822 kJ/mol
# Density = 2.168910 g / cm^3
# Si number density = 21.738583 Si / 1000 Ang^3
#
#
#
# Elastic Constant Matrix: (Units=GPa)
#
#
# Indices 1 2 3 4 5 6 
#
# 1 29.4337 2.0661 -17.2657 0.0000 0.0000 0.0000
# 2 2.0661 88.4393 30.1429 0.0000 0.0000 0.0000
# 3 -17.2657 30.1429 96.0887 0.0000 0.0000 0.0000
# 4 0.0000 0.0000 0.0000 31.3794 0.0000 0.0000
# 5 0.0000 0.0000 0.0000 0.0000 12.7093 0.0000
# 6 0.0000 0.0000 0.0000 0.0000 0.0000 21.2880
#
#
#
# Elastic Compliance Matrix: (Units=1/GPa)
#
#
# Indices 1 2 3 4 5 6 
#
# 1 0.039028 -0.003697 0.008173 0.000000 0.000000 0.000000
# 2 -0.003697 0.013011 -0.004746 0.000000 0.000000 0.000000
# 3 0.008173 -0.004746 0.013364 0.000000 0.000000 0.000000
# 4 0.000000 0.000000 0.000000 0.031868 0.000000 0.000000
# 5 0.000000 0.000000 0.000000 0.000000 0.078682 0.000000
# 6 0.000000 0.000000 0.000000 0.000000 0.000000 0.046975
#
#
# Mechanical properties :
#
#
# Convention : Reuss Voigt Hill
#
# Bulk Modulus (GPa) = 15.41718 27.09424 21.25571
# Shear Modulus (GPa) = 20.40058 26.34324 23.37191
#
# Velocity S-wave (km/s) = 3.06674 3.48490 3.28248
# Velocity P-wave (km/s) = 4.43253 5.35569 4.91583
#
# Compressibility (1/GPa) = 0.06486269
#
# Stress axis : x y z
#
# Youngs Moduli (GPa) = 25.62244 76.85738 74.82604
#
# Poissons Ratio (x) = 0.28416 -0.61153
# Poissons Ratio (y) = 0.09473 0.35512
# Poissons Ratio (z) = -0.20940 0.36476
#
# Static dielectric constant tensor:
#      x y z
#    x 1.788770 0.000000 0.000000 
#    y 0.000000 1.904930 0.000000 
#    z 0.000000 0.000000 1.806340 
# 
# From -- ./inp_files/28359.got.cif
#   From: 2010.05.17/outbox.cif.g08.bks.cpg/sg57_15_cif.got.tgz:28359.got - 2010.06.03 13:58:18.
