data_PCOD9439560
_publ_section_title
;
Structure prediction by ZEFSAII (Michael W. Deem and Ramdas Pophale) SiO2 
 PCOD9439560
Probable space group: P B C M
;
_chemical_formula_sum "Si O2"
_cell_formula_units_Z 40
_cell_length_a 11.045476
_cell_length_b 12.044923
_cell_length_c 13.944249
_cell_angle_alpha 90.000000
_cell_angle_beta 90.000000
_cell_angle_gamma 90.000000
_cell_volume 1855.169491
_symmetry_space_group_name_H-M "P B C M"
_symmetry_group_IT_number 57
_symmetry_cell_setting 'orthorhombic'
loop_
_space_group_symop_operation_xyz
x,y,z
-x,-y,1/2+z
x,1/2-y,-z
-x,1/2+y,1/2-z
-x,-y,-z
x,y,1/2-z
-x,1/2+y,z
x,1/2-y,1/2+z
loop_
_atom_site_type_symbol
_atom_site_label
_atom_site_fract_x
_atom_site_fract_y
_atom_site_fract_z
Si Si1 0.863347 0.509728 0.466076
Si Si2 0.721905 0.322871 0.585350
Si Si3 0.647251 0.873509 0.017471
Si Si4 0.907217 0.236975 0.250000
Si Si5 0.489934 0.975287 0.854742
Si Si6 0.064761 0.502215 0.750000
O O1 0.794470 0.413551 0.523458
O O2 0.791093 0.615379 0.506705
O O3 0.864504 0.507156 0.350769
O O4 0.000000 0.500000 0.500000
O O5 0.669033 0.250000 0.500000
O O6 0.818127 0.267693 0.657436
O O7 0.610985 0.378698 0.640601
O O8 0.590792 0.950541 0.933808
O O9 0.610072 0.750000 0.000000
O O10 0.588227 0.918044 0.114488
O O11 0.972793 0.361435 0.250000
O O12 0.979017 0.113987 0.250000
O O13 0.543182 0.985881 0.750000
#
# Coordination Sequence:
#
# PCOD9439560 Si02
#       6
#     8   8   8   4   8   4
#     4  11  24  42  65  93 138 175 229 284 351 415
#     4  11  21  40  67  93 134 182 230 288 342 426
#     4  10  24  44  66 102 140 182 228 291 358 419
#     4  12  24  42  67 100 138 184 243 287 373 424
#     4  10  22  42  68 100 138 181 233 284 351 424
#     4  12  26  42  65 106 134 186 239 295 357 438
#
# _framework density 21.561374000000001
#
# number of rings (size 3 to 8) (size 9 to 14) (size 15 to 20)
#    0.000    1.200    5.000    0.600    1.400    3.200 
#    0.000    0.000    0.000    0.000    0.000    0.000 
#    0.000    0.000    0.000    0.000    0.000    0.000 
#
# Total GULP energy -222840.951502 kJ/mol
# GULP energy per Si atom -5571.023788 kJ/mol
# Density = 2.151230 g / cm^3
# Si number density = 21.561374 Si / 1000 Ang^3
#
#
#
# Elastic Constant Matrix: (Units=GPa)
#
#
# Indices 1 2 3 4 5 6 
#
# 1 83.9417 10.6335 -11.5609 0.0000 0.0000 0.0000
# 2 10.6335 100.6339 -5.3262 0.0000 0.0000 0.0000
# 3 -11.5609 -5.3262 82.1945 0.0000 0.0000 0.0000
# 4 0.0000 0.0000 0.0000 8.1077 0.0000 0.0000
# 5 0.0000 0.0000 0.0000 0.0000 21.9632 0.0000
# 6 0.0000 0.0000 0.0000 0.0000 0.0000 17.1901
#
#
#
# Elastic Compliance Matrix: (Units=1/GPa)
#
#
# Indices 1 2 3 4 5 6 
#
# 1 0.012294 -0.001212 0.001651 0.000000 0.000000 0.000000
# 2 -0.001212 0.010091 0.000483 0.000000 0.000000 0.000000
# 3 0.001651 0.000483 0.012430 0.000000 0.000000 0.000000
# 4 0.000000 0.000000 0.000000 0.123339 0.000000 0.000000
# 5 0.000000 0.000000 0.000000 0.000000 0.045531 0.000000
# 6 0.000000 0.000000 0.000000 0.000000 0.000000 0.058173
#
#
# Mechanical properties :
#
#
# Convention : Reuss Voigt Hill
#
# Bulk Modulus (GPa) = 27.27835 28.25143 27.76489
# Shear Modulus (GPa) = 18.36671 27.65380 23.01026
#
# Velocity S-wave (km/s) = 2.92179 3.58517 3.27034
# Velocity P-wave (km/s) = 4.90524 5.50174 5.21203
#
# Compressibility (1/GPa) = 0.03665911
#
# Stress axis : x y z
#
# Youngs Moduli (GPa) = 81.34146 99.10184 80.45205
#
# Poissons Ratio (x) = 0.12008 -0.13280
# Poissons Ratio (y) = 0.09856 -0.03889
# Poissons Ratio (z) = -0.13427 -0.04791
#
# Static dielectric constant tensor:
#      x y z
#    x 1.804950 0.000000 0.000000 
#    y 0.000000 1.982150 0.000000 
#    z 0.000000 0.000000 1.740070 
# 
# From -- ./inp_files/17454.got.cif
#   From: 2010.05.17/outbox.cif.g08.bks.cpg/sg57_9_cif.got.tgz:17454.got - 2010.06.03 13:58:18.
