data_PCOD9439705
_publ_section_title
;
Structure prediction by ZEFSAII (Michael W. Deem and Ramdas Pophale) SiO2 
 PCOD9439705
Probable space group: P B C M
;
_chemical_formula_sum "Si O2"
_cell_formula_units_Z 32
_cell_length_a 5.076827
_cell_length_b 9.047628
_cell_length_c 23.838530
_cell_angle_alpha 90.000000
_cell_angle_beta 90.000000
_cell_angle_gamma 90.000000
_cell_volume 1094.980970
_symmetry_space_group_name_H-M "P B C M"
_symmetry_group_IT_number 57
_symmetry_cell_setting 'orthorhombic'
loop_
_space_group_symop_operation_xyz
x,y,z
-x,-y,1/2+z
x,1/2-y,-z
-x,1/2+y,1/2-z
-x,-y,-z
x,y,1/2-z
-x,1/2+y,z
x,1/2-y,1/2+z
loop_
_atom_site_type_symbol
_atom_site_label
_atom_site_fract_x
_atom_site_fract_y
_atom_site_fract_z
Si Si1 0.443652 0.554012 0.435923
Si Si2 0.875824 0.704787 0.560451
Si Si3 0.127901 0.420713 0.250000
Si Si4 0.238684 0.861292 0.152939
Si Si5 0.514957 0.679624 0.250000
O O1 0.500000 0.500000 0.500000
O O2 0.595453 0.711459 0.435176
O O3 0.159326 0.471844 0.433064
O O4 0.589457 0.471883 0.384157
O O5 0.990294 0.750000 0.500000
O O6 0.073771 0.740210 0.610169
O O7 0.395857 0.515802 0.250000
O O8 0.189833 0.243962 0.250000
O O9 0.958766 0.446866 0.305458
O O10 0.402602 0.755595 0.193764
#
# Coordination Sequence:
#
# PCOD9439705 Si02
#       5
#     8   8   4   8   4
#     4  10  23  42  65  97 136 176 222 278 336 402
#     4  10  23  41  65  97 135 177 221 271 333 399
#     4  11  26  46  69  99 135 179 231 285 340 398
#     4  11  24  42  70  99 132 177 227 277 336 403
#     4  11  26  46  69  97 133 173 223 283 336 396
#
# _framework density 29.224254999999999
#
# number of rings (size 3 to 8) (size 9 to 14) (size 15 to 20)
#    0.000    1.500    0.000    3.000    0.000   21.000 
#    0.000    0.000    0.000    0.000    0.000    0.000 
#    0.000    0.000    0.000    0.000    0.000    0.000 
#
# Total GULP energy -179222.392668 kJ/mol
# GULP energy per Si atom -5600.699771 kJ/mol
# Density = 2.915774 g / cm^3
# Si number density = 29.224255 Si / 1000 Ang^3
#
#
#
# Elastic Constant Matrix: (Units=GPa)
#
#
# Indices 1 2 3 4 5 6 
#
# 1 52.8789 -11.0598 36.3798 0.0000 0.0000 0.0000
# 2 -11.0598 154.9266 53.0191 0.0000 0.0000 0.0000
# 3 36.3798 53.0191 228.2084 0.0000 0.0000 0.0000
# 4 0.0000 0.0000 0.0000 53.1213 0.0000 0.0000
# 5 0.0000 0.0000 0.0000 0.0000 53.4296 0.0000
# 6 0.0000 0.0000 0.0000 0.0000 0.0000 25.4687
#
#
#
# Elastic Compliance Matrix: (Units=1/GPa)
#
#
# Indices 1 2 3 4 5 6 
#
# 1 0.022518 0.003081 -0.004305 0.000000 0.000000 0.000000
# 2 0.003081 0.007434 -0.002218 0.000000 0.000000 0.000000
# 3 -0.004305 -0.002218 0.005584 0.000000 0.000000 0.000000
# 4 0.000000 0.000000 0.000000 0.018825 0.000000 0.000000
# 5 0.000000 0.000000 0.000000 0.000000 0.018716 0.000000
# 6 0.000000 0.000000 0.000000 0.000000 0.000000 0.039264
#
#
# Mechanical properties :
#
#
# Convention : Reuss Voigt Hill
#
# Bulk Modulus (GPa) = 34.90465 65.85466 50.37965
# Shear Modulus (GPa) = 38.82736 50.24890 44.53813
#
# Velocity S-wave (km/s) = 3.64895 4.15109 3.90810
# Velocity P-wave (km/s) = 5.45186 6.74971 6.13520
#
# Compressibility (1/GPa) = 0.02864948
#
# Stress axis : x y z
#
# Youngs Moduli (GPa) = 44.40979 134.52222 179.09435
#
# Poissons Ratio (x) = -0.41445 0.77107
# Poissons Ratio (y) = -0.13682 0.39727
# Poissons Ratio (z) = 0.19120 0.29840
#
# Static dielectric constant tensor:
#      x y z
#    x 2.339120 0.000000 0.000000 
#    y 0.000000 2.972600 0.000000 
#    z 0.000000 0.000000 2.224470 
# 
# From -- ./inp_files/23357.got.cif
#   From: 2010.05.17/outbox.cif.g08.bks.cpg/sg57_12_cif.got.tgz:23357.got - 2010.06.03 13:58:18.
