data_PCOD9439152
_publ_section_title
;
Structure prediction by ZEFSAII (Michael W. Deem and Ramdas Pophale) SiO2 
 PCOD9439152
Probable space group: P B C M
;
_chemical_formula_sum "Si O2"
_cell_formula_units_Z 32
_cell_length_a 7.107062
_cell_length_b 11.634838
_cell_length_c 18.301289
_cell_angle_alpha 90.000000
_cell_angle_beta 90.000000
_cell_angle_gamma 90.000000
_cell_volume 1513.324712
_symmetry_space_group_name_H-M "P B C M"
_symmetry_group_IT_number 57
_symmetry_cell_setting 'orthorhombic'
loop_
_space_group_symop_operation_xyz
x,y,z
-x,-y,1/2+z
x,1/2-y,-z
-x,1/2+y,1/2-z
-x,-y,-z
x,y,1/2-z
-x,1/2+y,z
x,1/2-y,1/2+z
loop_
_atom_site_type_symbol
_atom_site_label
_atom_site_fract_x
_atom_site_fract_y
_atom_site_fract_z
Si Si1 0.089900 0.193075 0.421708
Si Si2 0.410952 0.022573 0.079255
Si Si3 0.353565 0.364044 0.166651
Si Si4 0.268081 0.879118 0.833760
O O1 0.055617 0.250000 0.500000
O O2 0.201934 0.071631 0.428066
O O3 0.230606 0.276270 0.378453
O O4 0.899067 0.178844 0.377120
O O5 0.537011 0.119490 0.121122
O O6 0.454220 0.908484 0.127290
O O7 0.500000 0.000000 0.000000
O O8 0.385532 0.328112 0.250000
O O9 0.234335 0.483116 0.168439
O O10 0.284139 0.840202 0.750000
#
# Coordination Sequence:
#
# PCOD9439152 Si02
#       4
#     8   8   8   8
#     4  12  22  38  67  93 125 171 207 260 318 375
#     4  10  21  41  63  89 128 162 209 261 314 367
#     4   9  21  41  60  88 125 160 211 259 306 378
#     4   9  22  42  61  89 129 162 208 260 313 381
#
# _framework density 21.145496000000001
#
# number of rings (size 3 to 8) (size 9 to 14) (size 15 to 20)
#    1.500    0.500    2.500    0.750    0.000    9.000 
#    4.500    0.000    0.000    0.000    0.000    0.000 
#    0.000    0.000    0.000    0.000    0.000    0.000 
#
# Total GULP energy -178370.830267 kJ/mol
# GULP energy per Si atom -5574.088446 kJ/mol
# Density = 2.109737 g / cm^3
# Si number density = 21.145496 Si / 1000 Ang^3
#
#
#
# Elastic Constant Matrix: (Units=GPa)
#
#
# Indices 1 2 3 4 5 6 
#
# 1 88.4117 21.4943 44.2114 0.0000 0.0000 0.0000
# 2 21.4943 40.9046 16.0746 0.0000 0.0000 0.0000
# 3 44.2114 16.0746 179.9414 0.0000 0.0000 0.0000
# 4 0.0000 0.0000 0.0000 1.7634 0.0000 0.0000
# 5 0.0000 0.0000 0.0000 0.0000 19.0106 0.0000
# 6 0.0000 0.0000 0.0000 0.0000 0.0000 22.4147
#
#
#
# Elastic Compliance Matrix: (Units=1/GPa)
#
#
# Indices 1 2 3 4 5 6 
#
# 1 0.014337 -0.006373 -0.002953 0.000000 0.000000 0.000000
# 2 -0.006373 0.028170 -0.000951 0.000000 0.000000 0.000000
# 3 -0.002953 -0.000951 0.006368 0.000000 0.000000 0.000000
# 4 0.000000 0.000000 0.000000 0.567089 0.000000 0.000000
# 5 0.000000 0.000000 0.000000 0.000000 0.052602 0.000000
# 6 0.000000 0.000000 0.000000 0.000000 0.000000 0.044614
#
#
# Mechanical properties :
#
#
# Convention : Reuss Voigt Hill
#
# Bulk Modulus (GPa) = 35.31009 52.53536 43.92273
# Shear Modulus (GPa) = 6.72790 23.80288 15.26539
#
# Velocity S-wave (km/s) = 1.78567 3.35874 2.68978
# Velocity P-wave (km/s) = 4.58109 6.31982 5.51936
#
# Compressibility (1/GPa) = 0.02832051
#
# Stress axis : x y z
#
# Youngs Moduli (GPa) = 69.74987 35.49923 157.03790
#
# Poissons Ratio (x) = 0.22624 0.46377
# Poissons Ratio (y) = 0.44453 0.14928
# Poissons Ratio (z) = 0.20599 0.03374
#
# Static dielectric constant tensor:
#      x y z
#    x 1.726250 0.000000 0.000000 
#    y 0.000000 1.866900 0.000000 
#    z 0.000000 0.000000 1.739950 
# 
# From -- ./inp_files/15683.got.cif
#   From: 2010.05.17/outbox.cif.g08.bks.cpg/sg57_8_cif.got.tgz:15683.got - 2010.06.03 13:58:18.
