data_PCOD9439201
_publ_section_title
;
Structure prediction by ZEFSAII (Michael W. Deem and Ramdas Pophale) SiO2 
 PCOD9439201
Probable space group: P B C M
;
_chemical_formula_sum "Si O2"
_cell_formula_units_Z 60
_cell_length_a 23.380076
_cell_length_b 9.020966
_cell_length_c 14.796448
_cell_angle_alpha 90.000000
_cell_angle_beta 90.000000
_cell_angle_gamma 90.000000
_cell_volume 3120.731731
_symmetry_space_group_name_H-M "P B C M"
_symmetry_group_IT_number 57
_symmetry_cell_setting 'orthorhombic'
loop_
_space_group_symop_operation_xyz
x,y,z
-x,-y,1/2+z
x,1/2-y,-z
-x,1/2+y,1/2-z
-x,-y,-z
x,y,1/2-z
-x,1/2+y,z
x,1/2-y,1/2+z
loop_
_atom_site_type_symbol
_atom_site_label
_atom_site_fract_x
_atom_site_fract_y
_atom_site_fract_z
Si Si1 0.530379 0.750000 0.500000
Si Si2 0.238951 0.633371 0.147678
Si Si3 0.037792 0.777862 0.606749
Si Si4 0.849242 0.403630 0.349491
Si Si5 0.373358 0.694652 0.143557
Si Si6 0.425449 0.553022 0.537829
Si Si7 0.075187 0.111127 0.850859
Si Si8 0.180297 0.097594 0.981310
O O1 0.486239 0.639768 0.552062
O O2 0.567574 0.623398 0.450628
O O3 0.229187 0.577635 0.250000
O O4 0.199906 0.779533 0.138355
O O5 0.305795 0.665918 0.137607
O O6 0.217615 0.517581 0.074537
O O7 0.037876 0.750000 0.500000
O O8 0.090118 0.680286 0.644220
O O9 0.976651 0.725820 0.642115
O O10 0.049658 0.948290 0.628861
O O11 0.843651 0.470665 0.250000
O O12 0.841824 0.520455 0.428258
O O13 0.390492 0.674021 0.250000
O O14 0.404507 0.594283 0.065233
O O15 0.385107 0.861931 0.108389
O O16 0.098827 0.111362 0.750000
O O17 0.125084 0.137420 0.921500
O O18 0.212594 0.250000 0.000000
#
# Coordination Sequence:
#
# PCOD9439201 Si02
#       8
#     4   8   8   8   8   8   8   8
#     4   8  16  36  56  88 130 174 208 246 300 342
#     4  10  21  42  67  85 114 154 201 249 296 360
#     4  12  23  42  61  83 113 143 186 233 289 357
#     4  11  23  41  64  86 110 148 196 239 286 357
#     4   9  19  35  59  90 117 157 207 255 301 350
#     4   9  18  34  59  87 130 168 207 253 293 352
#     4  12  25  41  61  87 114 147 185 235 297 358
#     4  12  26  41  59  87 119 153 189 241 301 364
#
# _framework density 19.22626
#
# number of rings (size 3 to 8) (size 9 to 14) (size 15 to 20)
#    0.000    1.600    2.667    2.800    5.600    1.067 
#    1.200   11.333    0.000    3.200    0.000    0.000 
#    0.000    0.000    0.000    0.000    0.000    0.000 
#
# Total GULP energy -334886.551441 kJ/mol
# GULP energy per Si atom -5581.442524 kJ/mol
# Density = 1.918250 g / cm^3
# Si number density = 19.226260 Si / 1000 Ang^3
#
#
#
# Elastic Constant Matrix: (Units=GPa)
#
#
# Indices 1 2 3 4 5 6 
#
# 1 68.7256 16.4422 31.9002 0.0000 0.0000 0.0000
# 2 16.4422 84.2242 35.8638 0.0000 0.0000 0.0000
# 3 31.9002 35.8638 138.6996 0.0000 0.0000 0.0000
# 4 0.0000 0.0000 0.0000 -312.3085 0.0000 0.0000
# 5 0.0000 0.0000 0.0000 0.0000 20.9279 0.0000
# 6 0.0000 0.0000 0.0000 0.0000 0.0000 18.9276
#
#
#
# Elastic Compliance Matrix: (Units=1/GPa)
#
#
# Indices 1 2 3 4 5 6 
#
# 1 0.016531 -0.001807 -0.003335 0.000000 0.000000 0.000000
# 2 -0.001807 0.013540 -0.003085 0.000000 0.000000 0.000000
# 3 -0.003335 -0.003085 0.008775 0.000000 0.000000 0.000000
# 4 0.000000 0.000000 0.000000 -0.003202 0.000000 0.000000
# 5 0.000000 0.000000 0.000000 0.000000 0.047783 0.000000
# 6 0.000000 0.000000 0.000000 0.000000 0.000000 0.052833
#
#
# Mechanical properties :
#
#
# Convention : Reuss Voigt Hill
#
# Bulk Modulus (GPa) = 44.66158 51.11797 47.88977
# Shear Modulus (GPa) = 31.21546 -40.66104 -4.72279
#
# Velocity S-wave (km/s) = 4.03374 -4.60376 -1.56900
# Velocity P-wave (km/s) = 6.70632 1.27051 4.65621
#
# Compressibility (1/GPa) = 0.02239061
#
# Stress axis : x y z
#
# Youngs Moduli (GPa) = 60.49304 73.85722 113.96564
#
# Poissons Ratio (x) = 0.13347 0.38004
# Poissons Ratio (y) = 0.10932 0.35162
# Poissons Ratio (z) = 0.20173 0.22787
#
# Static dielectric constant tensor:
#      x y z
#    x 1.676840 0.000000 0.000000 
#    y 0.000000 1.645450 0.000000 
#    z 0.000000 0.000000 1.691860 
# 
# From -- ./inp_files/19461.got.cif
#   From: 2010.05.17/outbox.cif.g08.bks.cpg/sg57_10_cif.got.tgz:19461.got - 2010.06.03 13:58:18.
