data_PCOD9439999
_publ_section_title
;
Structure prediction by ZEFSAII (Michael W. Deem and Ramdas Pophale) SiO2 
 PCOD9439999
Probable space group: P B C M
;
_chemical_formula_sum "Si O2"
_cell_formula_units_Z 48
_cell_length_a 5.563331
_cell_length_b 22.689580
_cell_length_c 17.623384
_cell_angle_alpha 90.000000
_cell_angle_beta 90.000000
_cell_angle_gamma 90.000000
_cell_volume 2224.593485
_symmetry_space_group_name_H-M "P B C M"
_symmetry_group_IT_number 57
_symmetry_cell_setting 'orthorhombic'
loop_
_space_group_symop_operation_xyz
x,y,z
-x,-y,1/2+z
x,1/2-y,-z
-x,1/2+y,1/2-z
-x,-y,-z
x,y,1/2-z
-x,1/2+y,z
x,1/2-y,1/2+z
loop_
_atom_site_type_symbol
_atom_site_label
_atom_site_fract_x
_atom_site_fract_y
_atom_site_fract_z
Si Si1 0.717652 0.614352 0.418901
Si Si2 0.866828 0.042306 0.058053
Si Si3 0.508822 0.501581 0.838621
Si Si4 0.578762 0.107555 0.557513
Si Si5 0.128351 0.779524 0.416855
Si Si6 0.369817 0.264302 0.659515
O O1 0.640331 0.551631 0.378975
O O2 0.636462 0.633546 0.505220
O O3 0.649357 0.667322 0.364400
O O4 0.000213 0.602735 0.424097
O O5 0.780545 0.011588 0.133882
O O6 0.646931 0.059896 0.005722
O O7 0.000000 0.000000 0.000000
O O8 0.474184 0.498020 0.750000
O O9 0.465798 0.567520 0.869555
O O10 0.792663 0.152475 0.573132
O O11 0.117311 0.750000 0.500000
O O12 0.370608 0.756157 0.373478
O O13 0.872552 0.766712 0.375424
O O14 0.367405 0.256424 0.750000
#
# Coordination Sequence:
#
# PCOD9439999 Si02
#       6
#     8   8   8   8   8   8
#     4  11  22  44  69  96 131 181 235 287 343 428
#     4  11  20  40  68  95 129 175 230 274 338 421
#     4  11  24  39  62 103 143 173 220 289 360 415
#     4  11  23  42  70  99 132 183 235 285 344 430
#     4  12  26  48  75 103 140 191 247 293 354 432
#     4  12  28  47  71 106 144 185 240 306 363 413
#
# _framework density 21.576978
#
# number of rings (size 3 to 8) (size 9 to 14) (size 15 to 20)
#    0.000    0.667    5.000    3.500    4.667    2.667 
#    0.000    0.000    0.000    0.000    0.000    0.000 
#    0.000    0.000    0.000    0.000    0.000    0.000 
#
# Total GULP energy -267255.308591 kJ/mol
# GULP energy per Si atom -5567.818929 kJ/mol
# Density = 2.152787 g / cm^3
# Si number density = 21.576978 Si / 1000 Ang^3
#
#
#
# Elastic Constant Matrix: (Units=GPa)
#
#
# Indices 1 2 3 4 5 6 
#
# 1 70.2540 2.4566 44.2762 0.0000 0.0000 0.0000
# 2 2.4566 49.3455 41.5025 0.0000 0.0000 0.0000
# 3 44.2762 41.5025 144.9570 0.0000 0.0000 0.0000
# 4 0.0000 0.0000 0.0000 29.8231 0.0000 0.0000
# 5 0.0000 0.0000 0.0000 0.0000 32.2952 0.0000
# 6 0.0000 0.0000 0.0000 0.0000 0.0000 15.0141
#
#
#
# Elastic Compliance Matrix: (Units=1/GPa)
#
#
# Indices 1 2 3 4 5 6 
#
# 1 0.018538 0.005057 -0.007110 0.000000 0.000000 0.000000
# 2 0.005057 0.028073 -0.009582 0.000000 0.000000 0.000000
# 3 -0.007110 -0.009582 0.011814 0.000000 0.000000 0.000000
# 4 0.000000 0.000000 0.000000 0.033531 0.000000 0.000000
# 5 0.000000 0.000000 0.000000 0.000000 0.030964 0.000000
# 6 0.000000 0.000000 0.000000 0.000000 0.000000 0.066604
#
#
# Mechanical properties :
#
#
# Convention : Reuss Voigt Hill
#
# Bulk Modulus (GPa) = 28.44586 49.00300 38.72443
# Shear Modulus (GPa) = 22.27040 27.18122 24.72581
#
# Velocity S-wave (km/s) = 3.21617 3.55312 3.38884
# Velocity P-wave (km/s) = 5.19651 6.29230 5.77047
#
# Compressibility (1/GPa) = 0.03515450
#
# Stress axis : x y z
#
# Youngs Moduli (GPa) = 53.94204 35.62181 84.64610
#
# Poissons Ratio (x) = -0.18015 0.60187
# Poissons Ratio (y) = -0.27280 0.81110
# Poissons Ratio (z) = 0.38355 0.34134
#
# Static dielectric constant tensor:
#      x y z
#    x 1.549000 0.000000 0.000000 
#    y 0.000000 1.646240 0.000000 
#    z 0.000000 0.000000 1.563540 
# 
# From -- ./inp_files/20179.got.cif
#   From: 2010.05.17/outbox.cif.g08.bks.cpg/sg57_11_cif.got.tgz:20179.got - 2010.06.03 13:58:18.
