data_PCOD9439185
_publ_section_title
;
Structure prediction by ZEFSAII (Michael W. Deem and Ramdas Pophale) SiO2 
 PCOD9439185
Probable space group: P B C M
;
_chemical_formula_sum "Si O2"
_cell_formula_units_Z 56
_cell_length_a 5.104578
_cell_length_b 15.164166
_cell_length_c 30.253624
_cell_angle_alpha 90.000000
_cell_angle_beta 90.000000
_cell_angle_gamma 90.000000
_cell_volume 2341.832233
_symmetry_space_group_name_H-M "P B C M"
_symmetry_group_IT_number 57
_symmetry_cell_setting 'orthorhombic'
loop_
_space_group_symop_operation_xyz
x,y,z
-x,-y,1/2+z
x,1/2-y,-z
-x,1/2+y,1/2-z
-x,-y,-z
x,y,1/2-z
-x,1/2+y,z
x,1/2-y,1/2+z
loop_
_atom_site_type_symbol
_atom_site_label
_atom_site_fract_x
_atom_site_fract_y
_atom_site_fract_z
Si Si1 0.054954 0.350855 0.201325
Si Si2 0.858828 0.957334 0.698912
Si Si3 0.455567 0.703404 0.651687
Si Si4 0.349554 0.063639 0.033046
Si Si5 0.501036 0.479845 0.119869
Si Si6 0.134690 0.828623 0.534104
Si Si7 0.162486 0.638768 0.371271
O O1 0.967548 0.323889 0.250000
O O2 0.336353 0.311843 0.190240
O O3 0.052660 0.457519 0.200446
O O4 0.839331 0.319557 0.166676
O O5 0.785505 0.938200 0.750000
O O6 0.627598 0.992767 0.667021
O O7 0.994033 0.876719 0.672844
O O8 0.534050 0.625272 0.617983
O O9 0.424123 0.804243 0.638040
O O10 0.322863 0.013608 0.079666
O O11 0.562079 0.142612 0.037575
O O12 0.069115 0.097664 0.017643
O O13 0.500000 0.000000 0.000000
O O14 0.243503 0.539499 0.115148
O O15 0.113210 0.750000 0.500000
O O16 0.043947 0.814557 0.585307
#
# Coordination Sequence:
#
# PCOD9439185 Si02
#       7
#     8   8   8   8   8   8   8
#     4  10  22  42  63  92 132 173 231 291 340 404
#     4  10  21  41  68  94 134 190 232 285 359 415
#     4  11  24  39  68  95 131 184 225 283 355 409
#     4  11  24  44  73 103 139 183 234 287 354 433
#     4  10  23  45  65  99 144 176 232 295 345 415
#     4  11  25  46  70 104 145 178 228 294 360 422
#     4  11  24  43  67 100 140 181 235 289 351 418
#
# _framework density 23.912898999999999
#
# number of rings (size 3 to 8) (size 9 to 14) (size 15 to 20)
#    0.000    1.429    2.857    1.286    4.000    2.286 
#    2.571    0.000    0.000    0.000    0.000    0.000 
#    0.000    0.000    0.000    0.000    0.000    0.000 
#
# Total GULP energy -312805.801664 kJ/mol
# GULP energy per Si atom -5585.817887 kJ/mol
# Density = 2.385847 g / cm^3
# Si number density = 23.912899 Si / 1000 Ang^3
#
#
#
# Elastic Constant Matrix: (Units=GPa)
#
#
# Indices 1 2 3 4 5 6 
#
# 1 80.9382 18.7358 19.5004 0.0000 0.0000 0.0000
# 2 18.7358 69.6739 24.7879 0.0000 0.0000 0.0000
# 3 19.5004 24.7879 112.3634 0.0000 0.0000 0.0000
# 4 0.0000 0.0000 0.0000 24.9366 0.0000 0.0000
# 5 0.0000 0.0000 0.0000 0.0000 28.4223 0.0000
# 6 0.0000 0.0000 0.0000 0.0000 0.0000 36.5809
#
#
#
# Elastic Compliance Matrix: (Units=1/GPa)
#
#
# Indices 1 2 3 4 5 6 
#
# 1 0.013457 -0.003025 -0.001668 0.000000 0.000000 0.000000
# 2 -0.003025 0.016255 -0.003061 0.000000 0.000000 0.000000
# 3 -0.001668 -0.003061 0.009864 0.000000 0.000000 0.000000
# 4 0.000000 0.000000 0.000000 0.040102 0.000000 0.000000
# 5 0.000000 0.000000 0.000000 0.000000 0.035184 0.000000
# 6 0.000000 0.000000 0.000000 0.000000 0.000000 0.027337
#
#
# Mechanical properties :
#
#
# Convention : Reuss Voigt Hill
#
# Bulk Modulus (GPa) = 41.54855 43.22483 42.38669
# Shear Modulus (GPa) = 30.16954 31.31807 30.74380
#
# Velocity S-wave (km/s) = 3.55581 3.62287 3.58950
# Velocity P-wave (km/s) = 5.85415 5.96786 5.91128
#
# Compressibility (1/GPa) = 0.02406823
#
# Stress axis : x y z
#
# Youngs Moduli (GPa) = 74.30908 61.51918 101.37421
#
# Poissons Ratio (x) = 0.18611 0.16910
# Poissons Ratio (y) = 0.22481 0.31030
# Poissons Ratio (z) = 0.12395 0.18831
#
# Static dielectric constant tensor:
#      x y z
#    x 1.910730 0.000000 0.000000 
#    y 0.000000 1.979580 0.000000 
#    z 0.000000 0.000000 1.956100 
# 
# From -- ./inp_files/29175.got.cif
#   From: 2010.05.17/outbox.cif.g08.bks.cpg/sg57_15_cif.got.tgz:29175.got - 2010.06.03 13:58:18.
