data_PCOD9439311
_publ_section_title
;
Structure prediction by ZEFSAII (Michael W. Deem and Ramdas Pophale) SiO2 
 PCOD9439311
Probable space group: P B C M
;
_chemical_formula_sum "Si O2"
_cell_formula_units_Z 48
_cell_length_a 6.137248
_cell_length_b 18.763585
_cell_length_c 22.292868
_cell_angle_alpha 90.000000
_cell_angle_beta 90.000000
_cell_angle_gamma 90.000000
_cell_volume 2567.174774
_symmetry_space_group_name_H-M "P B C M"
_symmetry_group_IT_number 57
_symmetry_cell_setting 'orthorhombic'
loop_
_space_group_symop_operation_xyz
x,y,z
-x,-y,1/2+z
x,1/2-y,-z
-x,1/2+y,1/2-z
-x,-y,-z
x,y,1/2-z
-x,1/2+y,z
x,1/2-y,1/2+z
loop_
_atom_site_type_symbol
_atom_site_label
_atom_site_fract_x
_atom_site_fract_y
_atom_site_fract_z
Si Si1 0.712897 0.101041 0.607176
Si Si2 0.320282 0.674263 0.404512
Si Si3 0.061273 0.775462 0.321025
Si Si4 0.672647 0.709478 0.909239
Si Si5 0.026493 0.135699 0.002392
Si Si6 0.401497 0.039964 0.059373
O O1 0.842021 0.148354 0.655878
O O2 0.484293 0.142183 0.602148
O O3 0.855161 0.105082 0.546047
O O4 0.661275 0.017696 0.610158
O O5 0.220584 0.712009 0.345079
O O6 0.513014 0.726326 0.424409
O O7 0.426139 0.595943 0.411955
O O8 0.118186 0.676032 0.449392
O O9 0.044822 0.773556 0.250000
O O10 0.826607 0.770181 0.353410
O O11 0.824049 0.686023 0.962968
O O12 0.185126 0.080179 0.035697
O O13 0.500000 0.000000 0.000000
#
# Coordination Sequence:
#
# PCOD9439311 Si02
#       6
#     8   8   8   8   8   8
#     4  10  22  38  62  91 124 161 203 243 306 367
#     4  11  24  36  60  91 125 161 201 247 305 367
#     4  10  24  44  63  82 112 160 217 266 303 346
#     4  10  22  39  58  89 120 159 203 252 302 357
#     4  11  21  36  59  92 133 161 191 239 302 378
#     4  12  22  37  58  95 137 163 187 234 305 378
#
# _framework density 18.697596999999998
#
# number of rings (size 3 to 8) (size 9 to 14) (size 15 to 20)
#    0.000    1.333    3.333    1.500    0.000   18.667 
#    0.000    0.833    0.000    5.000    0.000    0.000 
#    0.000    0.000    0.000    0.000    0.000    0.000 
#
# Total GULP energy -267849.749928 kJ/mol
# GULP energy per Si atom -5580.203123 kJ/mol
# Density = 1.865504 g / cm^3
# Si number density = 18.697597 Si / 1000 Ang^3
#
#
#
# Elastic Constant Matrix: (Units=GPa)
#
#
# Indices 1 2 3 4 5 6 
#
# 1 124.8246 56.4116 51.6501 0.0000 0.0000 0.0000
# 2 56.4116 110.4489 55.5928 0.0000 0.0000 0.0000
# 3 51.6501 55.5928 92.0812 0.0000 0.0000 0.0000
# 4 0.0000 0.0000 0.0000 16.9915 0.0000 0.0000
# 5 0.0000 0.0000 0.0000 0.0000 14.9448 0.0000
# 6 0.0000 0.0000 0.0000 0.0000 0.0000 36.7419
#
#
#
# Elastic Compliance Matrix: (Units=1/GPa)
#
#
# Indices 1 2 3 4 5 6 
#
# 1 0.011419 -0.003747 -0.004143 0.000000 0.000000 0.000000
# 2 -0.003747 0.014236 -0.006493 0.000000 0.000000 0.000000
# 3 -0.004143 -0.006493 0.017104 0.000000 0.000000 0.000000
# 4 0.000000 0.000000 0.000000 0.058853 0.000000 0.000000
# 5 0.000000 0.000000 0.000000 0.000000 0.066913 0.000000
# 6 0.000000 0.000000 0.000000 0.000000 0.000000 0.027217
#
#
# Mechanical properties :
#
#
# Convention : Reuss Voigt Hill
#
# Bulk Modulus (GPa) = 71.46447 72.74038 72.10243
# Shear Modulus (GPa) = 21.81776 24.64899 23.23337
#
# Velocity S-wave (km/s) = 3.41966 3.63477 3.52886
# Velocity P-wave (km/s) = 7.34141 7.52353 7.43303
#
# Compressibility (1/GPa) = 0.01399297
#
# Stress axis : x y z
#
# Youngs Moduli (GPa) = 87.57480 70.24530 58.46627
#
# Poissons Ratio (x) = 0.26320 0.24222
# Poissons Ratio (y) = 0.32813 0.37962
# Poissons Ratio (z) = 0.36281 0.45610
#
# Static dielectric constant tensor:
#      x y z
#    x 1.702370 0.000000 0.000000 
#    y 0.000000 1.708390 0.000000 
#    z 0.000000 0.000000 1.617340 
# 
# From -- ./inp_files/26214.got.cif
#   From: 2010.05.17/outbox.cif.g08.bks.cpg/sg57_14_cif.got.tgz:26214.got - 2010.06.03 13:58:18.
