data_PCOD9439761
_publ_section_title
;
Structure prediction by ZEFSAII (Michael W. Deem and Ramdas Pophale) SiO2 
 PCOD9439761
Probable space group: P B C M
;
_chemical_formula_sum "Si O2"
_cell_formula_units_Z 36
_cell_length_a 11.721997
_cell_length_b 5.373837
_cell_length_c 22.263523
_cell_angle_alpha 90.000000
_cell_angle_beta 90.000000
_cell_angle_gamma 90.000000
_cell_volume 1402.426094
_symmetry_space_group_name_H-M "P B C M"
_symmetry_group_IT_number 57
_symmetry_cell_setting 'orthorhombic'
loop_
_space_group_symop_operation_xyz
x,y,z
-x,-y,1/2+z
x,1/2-y,-z
-x,1/2+y,1/2-z
-x,-y,-z
x,y,1/2-z
-x,1/2+y,z
x,1/2-y,1/2+z
loop_
_atom_site_type_symbol
_atom_site_label
_atom_site_fract_x
_atom_site_fract_y
_atom_site_fract_z
Si Si1 0.958775 0.148528 0.182561
Si Si2 0.131684 0.005225 0.027339
Si Si3 0.257341 0.916907 0.350209
Si Si4 0.563440 0.169569 0.067081
Si Si5 0.418955 0.125443 0.250000
O O1 0.006475 0.111242 0.250000
O O2 0.830379 0.241117 0.185154
O O3 0.971879 0.878032 0.153693
O O4 0.174588 0.015109 0.096176
O O5 0.185827 0.250000 0.000000
O O6 0.174599 0.750000 0.000000
O O7 0.000000 0.000000 0.000000
O O8 0.346549 0.744234 0.383689
O O9 0.331912 0.094503 0.307014
O O10 0.463390 0.378299 0.074738
O O11 0.597382 0.250000 0.000000
O O12 0.505857 0.881810 0.250000
#
# Coordination Sequence:
#
# PCOD9439761 Si02
#       5
#     8   8   8   8   4
#     4  10  24  43  65 101 142 185 241 290 355 459
#     4  10  25  44  68 105 148 195 250 308 368 451
#     4  12  25  47  77 106 150 202 238 317 389 425
#     4  10  23  43  67  98 133 180 244 298 356 435
#     4  12  30  52  76 118 152 196 264 314 374 464
#
# _framework density 25.669803999999999
#
# number of rings (size 3 to 8) (size 9 to 14) (size 15 to 20)
#    0.000    1.333    1.111    2.000    6.222    9.778 
#    0.000    0.000    0.000    0.000    0.000    0.000 
#    0.000    0.000    0.000    0.000    0.000    0.000 
#
# Total GULP energy -200733.041524 kJ/mol
# GULP energy per Si atom -5575.917820 kJ/mol
# Density = 2.561138 g / cm^3
# Si number density = 25.669804 Si / 1000 Ang^3
#
#
#
# Elastic Constant Matrix: (Units=GPa)
#
#
# Indices 1 2 3 4 5 6 
#
# 1 108.0308 16.5792 52.7039 0.0000 0.0000 0.0000
# 2 16.5792 159.3426 38.4979 0.0000 0.0000 0.0000
# 3 52.7039 38.4979 137.4673 0.0000 0.0000 0.0000
# 4 0.0000 0.0000 0.0000 19.5976 0.0000 0.0000
# 5 0.0000 0.0000 0.0000 0.0000 -69.3728 0.0000
# 6 0.0000 0.0000 0.0000 0.0000 0.0000 -21.8494
#
#
#
# Elastic Compliance Matrix: (Units=1/GPa)
#
#
# Indices 1 2 3 4 5 6 
#
# 1 0.011389 -0.000139 -0.004327 0.000000 0.000000 0.000000
# 2 -0.000139 0.006733 -0.001832 0.000000 0.000000 0.000000
# 3 -0.004327 -0.001832 0.009447 0.000000 0.000000 0.000000
# 4 0.000000 0.000000 0.000000 0.051027 0.000000 0.000000
# 5 0.000000 0.000000 0.000000 0.000000 -0.014415 0.000000
# 6 0.000000 0.000000 0.000000 0.000000 0.000000 -0.045768
#
#
# Mechanical properties :
#
#
# Convention : Reuss Voigt Hill
#
# Bulk Modulus (GPa) = 66.79707 68.93364 67.86535
# Shear Modulus (GPa) = 138.88464 5.47906 72.18185
#
# Velocity S-wave (km/s) = 7.36354 1.46256 5.30852
# Velocity P-wave (km/s) = 9.91836 5.45567 8.00432
#
# Compressibility (1/GPa) = 0.01497072
#
# Stress axis : x y z
#
# Youngs Moduli (GPa) = 87.80226 148.52357 105.85750
#
# Poissons Ratio (x) = 0.02072 0.45810
# Poissons Ratio (y) = 0.01225 0.19394
# Poissons Ratio (z) = 0.37996 0.27211
#
# Static dielectric constant tensor:
#      x y z
#    x 2.266920 0.000000 0.000000 
#    y 0.000000 2.054890 0.000000 
#    z 0.000000 0.000000 1.905500 
# 
# From -- ./inp_files/27013.got.cif
#   From: 2010.05.17/outbox.cif.g08.bks.cpg/sg57_14_cif.got.tgz:27013.got - 2010.06.03 13:58:18.
