data_PCOD9439975
_publ_section_title
;
Structure prediction by ZEFSAII (Michael W. Deem and Ramdas Pophale) SiO2 
 PCOD9439975
Probable space group: P B C M
;
_chemical_formula_sum "Si O2"
_cell_formula_units_Z 48
_cell_length_a 12.412687
_cell_length_b 26.915803
_cell_length_c 8.009363
_cell_angle_alpha 90.000000
_cell_angle_beta 90.000000
_cell_angle_gamma 90.000000
_cell_volume 2675.907658
_symmetry_space_group_name_H-M "P B C M"
_symmetry_group_IT_number 57
_symmetry_cell_setting 'orthorhombic'
loop_
_space_group_symop_operation_xyz
x,y,z
-x,-y,1/2+z
x,1/2-y,-z
-x,1/2+y,1/2-z
-x,-y,-z
x,y,1/2-z
-x,1/2+y,z
x,1/2-y,1/2+z
loop_
_atom_site_type_symbol
_atom_site_label
_atom_site_fract_x
_atom_site_fract_y
_atom_site_fract_z
Si Si1 0.140964 0.034347 0.947535
Si Si2 0.768624 0.431420 0.948834
Si Si3 0.673220 0.617019 0.947609
Si Si4 0.154047 0.192889 0.951679
Si Si5 0.474643 0.556710 0.552002
Si Si6 0.023620 0.614332 0.548016
O O1 0.119815 0.026801 0.750000
O O2 0.241483 0.071896 0.959433
O O3 0.039311 0.064842 0.016421
O O4 0.177978 0.982111 0.021067
O O5 0.761813 0.436366 0.750000
O O6 0.647062 0.428119 0.011385
O O7 0.853280 0.388372 0.991965
O O8 0.655750 0.626996 0.750000
O O9 0.738364 0.664522 0.015612
O O10 0.562181 0.595689 0.020029
O O11 0.155869 0.189463 0.750000
O O12 0.049520 0.160920 0.006555
O O13 0.149317 0.250000 0.000000
O O14 0.500000 0.500000 0.500000
O O15 0.488551 0.557092 0.750000
O O16 0.021020 0.613342 0.750000
#
# Coordination Sequence:
#
# PCOD9439975 Si02
#       6
#     8   8   8   8   8   8
#     4   8  14  27  46  67  96 131 165 199 236 286
#     4  11  20  30  46  70 103 137 170 205 242 286
#     4   8  15  30  50  71  98 133 165 199 247 298
#     4   9  18  34  57  78  98 124 159 207 260 307
#     4  11  20  32  50  71 101 139 177 207 244 299
#     4   9  18  32  49  70  97 131 167 201 247 303
#
# _framework density 17.937839
#
# number of rings (size 3 to 8) (size 9 to 14) (size 15 to 20)
#    0.000    2.667    1.667    3.500    0.000    0.667 
#    0.000    2.500    0.000    1.000    0.000    2.333 
#    0.000    0.000    0.000    0.000    0.000    0.000 
#
# Total GULP energy -267427.402918 kJ/mol
# GULP energy per Si atom -5571.404227 kJ/mol
# Density = 1.789701 g / cm^3
# Si number density = 17.937839 Si / 1000 Ang^3
#
#
#
# Elastic Constant Matrix: (Units=GPa)
#
#
# Indices 1 2 3 4 5 6 
#
# 1 131.7548 44.1771 2.0428 0.0000 0.0000 0.0000
# 2 44.1771 79.1944 1.3959 0.0000 0.0000 0.0000
# 3 2.0428 1.3959 21.2051 0.0000 0.0000 0.0000
# 4 0.0000 0.0000 0.0000 19.5788 0.0000 0.0000
# 5 0.0000 0.0000 0.0000 0.0000 18.6262 0.0000
# 6 0.0000 0.0000 0.0000 0.0000 0.0000 6.5008
#
#
#
# Elastic Compliance Matrix: (Units=1/GPa)
#
#
# Indices 1 2 3 4 5 6 
#
# 1 0.009343 -0.005202 -0.000558 0.000000 0.000000 0.000000
# 2 -0.005202 0.015538 -0.000522 0.000000 0.000000 0.000000
# 3 -0.000558 -0.000522 0.047247 0.000000 0.000000 0.000000
# 4 0.000000 0.000000 0.000000 0.051076 0.000000 0.000000
# 5 0.000000 0.000000 0.000000 0.000000 0.053688 0.000000
# 6 0.000000 0.000000 0.000000 0.000000 0.000000 0.153826
#
#
# Mechanical properties :
#
#
# Convention : Reuss Voigt Hill
#
# Bulk Modulus (GPa) = 16.78840 36.37622 26.58231
# Shear Modulus (GPa) = 13.76902 21.24375 17.50638
#
# Velocity S-wave (km/s) = 2.77356 3.44510 3.12740
# Velocity P-wave (km/s) = 4.43129 6.01232 5.28130
#
# Compressibility (1/GPa) = 0.05956494
#
# Stress axis : x y z
#
# Youngs Moduli (GPa) = 107.03610 64.35810 21.16558
#
# Poissons Ratio (x) = 0.33478 0.01180
# Poissons Ratio (y) = 0.55678 0.01104
# Poissons Ratio (z) = 0.05968 0.03358
#
# Static dielectric constant tensor:
#      x y z
#    x 1.653430 0.000000 0.000000 
#    y 0.000000 1.612930 0.000000 
#    z 0.000000 0.000000 1.654220 
# 
# From -- ./inp_files/3285.got.cif
#   From: 2010.05.17/outbox.cif.g08.bks.cpg/sg57_2_cif.got.tgz:3285.got - 2010.06.03 13:58:18.
