data_PCOD9439003
_publ_section_title
;
Structure prediction by ZEFSAII (Michael W. Deem and Ramdas Pophale) SiO2 
 PCOD9439003
Probable space group: P B C M
;
_chemical_formula_sum "Si O2"
_cell_formula_units_Z 40
_cell_length_a 10.621741
_cell_length_b 8.827959
_cell_length_c 18.971309
_cell_angle_alpha 90.000000
_cell_angle_beta 90.000000
_cell_angle_gamma 90.000000
_cell_volume 1778.907281
_symmetry_space_group_name_H-M "P B C M"
_symmetry_group_IT_number 57
_symmetry_cell_setting 'orthorhombic'
loop_
_space_group_symop_operation_xyz
x,y,z
-x,-y,1/2+z
x,1/2-y,-z
-x,1/2+y,1/2-z
-x,-y,-z
x,y,1/2-z
-x,1/2+y,z
x,1/2-y,1/2+z
loop_
_atom_site_type_symbol
_atom_site_label
_atom_site_fract_x
_atom_site_fract_y
_atom_site_fract_z
Si Si1 0.876515 0.919136 0.527133
Si Si2 0.330971 0.881482 0.549571
Si Si3 0.690833 0.306541 0.173181
Si Si4 0.202257 0.138279 0.326872
Si Si5 0.588162 0.607193 0.668292
O O1 0.859913 0.750000 0.500000
O O2 0.890549 0.895293 0.610359
O O3 0.756782 0.016951 0.500641
O O4 0.000000 0.000000 0.500000
O O5 0.392606 0.750000 0.500000
O O6 0.252408 0.785110 0.608089
O O7 0.408746 0.992654 0.601766
O O8 0.733220 0.251458 0.250000
O O9 0.714690 0.485549 0.172482
O O10 0.539910 0.296761 0.166040
O O11 0.143578 0.155066 0.250000
O O12 0.292706 0.281284 0.339563
O O13 0.592025 0.545548 0.750000
#
# Coordination Sequence:
#
# PCOD9439003 Si02
#       5
#     8   8   8   8   8
#     4  12  26  48  70  92 126 167 216 280 347 393
#     4  12  23  39  63  97 132 172 221 268 328 385
#     4  10  21  39  64  96 135 176 218 260 318 395
#     4  10  21  42  66  95 132 172 221 267 319 396
#     4  10  21  40  64  94 136 183 219 261 323 391
#
# _framework density 22.485713000000001
#
# number of rings (size 3 to 8) (size 9 to 14) (size 15 to 20)
#    0.000    1.200    4.000    2.400    0.000    4.000 
#    3.600    3.000    0.000    0.000    0.000    0.000 
#    0.000    0.000    0.000    0.000    0.000    0.000 
#
# Total GULP energy -223147.393225 kJ/mol
# GULP energy per Si atom -5578.684831 kJ/mol
# Density = 2.243453 g / cm^3
# Si number density = 22.485713 Si / 1000 Ang^3
#
#
#
# Elastic Constant Matrix: (Units=GPa)
#
#
# Indices 1 2 3 4 5 6 
#
# 1 23.8145 2.5427 17.6693 0.0000 0.0000 0.0000
# 2 2.5427 102.9822 40.3374 0.0000 0.0000 0.0000
# 3 17.6693 40.3374 183.1196 0.0000 0.0000 0.0000
# 4 0.0000 0.0000 0.0000 43.4602 0.0000 0.0000
# 5 0.0000 0.0000 0.0000 0.0000 22.9927 0.0000
# 6 0.0000 0.0000 0.0000 0.0000 0.0000 15.6146
#
#
#
# Elastic Compliance Matrix: (Units=1/GPa)
#
#
# Indices 1 2 3 4 5 6 
#
# 1 0.045269 0.000649 -0.004511 0.000000 0.000000 0.000000
# 2 0.000649 0.010637 -0.002406 0.000000 0.000000 0.000000
# 3 -0.004511 -0.002406 0.006426 0.000000 0.000000 0.000000
# 4 0.000000 0.000000 0.000000 0.023010 0.000000 0.000000
# 5 0.000000 0.000000 0.000000 0.000000 0.043492 0.000000
# 6 0.000000 0.000000 0.000000 0.000000 0.000000 0.064043
#
#
# Mechanical properties :
#
#
# Convention : Reuss Voigt Hill
#
# Bulk Modulus (GPa) = 20.08161 47.89055 33.98608
# Shear Modulus (GPa) = 22.52151 33.03795 27.77973
#
# Velocity S-wave (km/s) = 3.16823 3.83729 3.51869
# Velocity P-wave (km/s) = 4.72586 6.40136 5.62633
#
# Compressibility (1/GPa) = 0.04979680
#
# Stress axis : x y z
#
# Youngs Moduli (GPa) = 22.09017 94.01438 155.61520
#
# Poissons Ratio (x) = -0.06104 0.70199
# Poissons Ratio (y) = -0.01434 0.37436
# Poissons Ratio (z) = 0.09965 0.22617
#
# Static dielectric constant tensor:
#      x y z
#    x 1.780860 0.000000 0.000000 
#    y 0.000000 1.825980 0.000000 
#    z 0.000000 0.000000 1.762820 
# 
# From -- ./inp_files/21575.got.cif
#   From: 2010.05.17/outbox.cif.g08.bks.cpg/sg57_11_cif.got.tgz:21575.got - 2010.06.03 13:58:18.
