data_PCOD9439350
_publ_section_title
;
Structure prediction by ZEFSAII (Michael W. Deem and Ramdas Pophale) SiO2 
 PCOD9439350
Probable space group: P B C M
;
_chemical_formula_sum "Si O2"
_cell_formula_units_Z 64
_cell_length_a 16.789834
_cell_length_b 12.500982
_cell_length_c 14.161026
_cell_angle_alpha 90.000000
_cell_angle_beta 90.000000
_cell_angle_gamma 90.000000
_cell_volume 2972.249429
_symmetry_space_group_name_H-M "P B C M"
_symmetry_group_IT_number 57
_symmetry_cell_setting 'orthorhombic'
loop_
_space_group_symop_operation_xyz
x,y,z
-x,-y,1/2+z
x,1/2-y,-z
-x,1/2+y,1/2-z
-x,-y,-z
x,y,1/2-z
-x,1/2+y,z
x,1/2-y,1/2+z
loop_
_atom_site_type_symbol
_atom_site_label
_atom_site_fract_x
_atom_site_fract_y
_atom_site_fract_z
Si Si1 0.243228 0.906045 0.633912
Si Si2 0.141853 0.706920 0.854557
Si Si3 0.405741 0.623664 0.022001
Si Si4 0.025290 0.276696 0.601862
Si Si5 0.180683 0.132138 0.637284
Si Si6 0.284110 0.177395 0.364737
Si Si7 0.135927 0.030880 0.135540
Si Si8 0.439409 0.451420 0.635258
O O1 0.253746 0.906438 0.750000
O O2 0.197562 0.798376 0.604889
O O3 0.325802 0.908701 0.577897
O O4 0.190943 0.010307 0.607787
O O5 0.176643 0.685562 0.750000
O O6 0.135074 0.590069 0.899707
O O7 0.053932 0.754867 0.841550
O O8 0.478425 0.590756 0.091046
O O9 0.405860 0.750000 0.000000
O O10 0.415965 0.557760 0.923901
O O11 0.994260 0.250000 0.500000
O O12 0.098621 0.194645 0.617849
O O13 0.062072 0.394425 0.607387
O O14 0.186109 0.130421 0.750000
O O15 0.253207 0.206969 0.601916
O O16 0.282094 0.180159 0.250000
O O17 0.216164 0.092517 0.393333
O O18 0.370922 0.135558 0.388835
O O19 0.132834 0.031010 0.250000
O O20 0.442367 0.466127 0.750000
#
# Coordination Sequence:
#
# PCOD9439350 Si02
#       8
#     8   8   8   8   8   8   8   8
#     4  10  23  42  65  96 133 175 222 276 348 415
#     4  10  22  39  61  85 119 172 223 269 329 403
#     4  11  26  44  66 103 140 177 218 277 340 400
#     4  11  23  37  55  88 124 163 213 278 341 393
#     4   9  19  39  64  88 121 162 215 275 329 394
#     4   8  16  34  63  93 116 156 213 267 321 383
#     4   9  19  37  61  86 116 158 215 269 321 398
#     4  10  23  44  70  99 134 178 228 272 328 403
#
# _framework density 21.532513999999999
#
# number of rings (size 3 to 8) (size 9 to 14) (size 15 to 20)
#    0.000    2.250    0.000    2.250    3.500    6.000 
#    0.000    1.875    0.000    0.000    0.000    0.000 
#    0.000    0.000    0.000    0.000    0.000    0.000 
#
# Total GULP energy -357259.171614 kJ/mol
# GULP energy per Si atom -5582.174556 kJ/mol
# Density = 2.148351 g / cm^3
# Si number density = 21.532514 Si / 1000 Ang^3
#
#
#
# Elastic Constant Matrix: (Units=GPa)
#
#
# Indices 1 2 3 4 5 6 
#
# 1 88.9059 25.6861 10.3906 0.0000 0.0000 0.0000
# 2 25.6861 107.4684 17.5746 0.0000 0.0000 0.0000
# 3 10.3906 17.5746 101.1119 0.0000 0.0000 0.0000
# 4 0.0000 0.0000 0.0000 21.6602 0.0000 0.0000
# 5 0.0000 0.0000 0.0000 0.0000 124.5431 0.0000
# 6 0.0000 0.0000 0.0000 0.0000 0.0000 30.8969
#
#
#
# Elastic Compliance Matrix: (Units=1/GPa)
#
#
# Indices 1 2 3 4 5 6 
#
# 1 0.012139 -0.002776 -0.000765 0.000000 0.000000 0.000000
# 2 -0.002776 0.010212 -0.001490 0.000000 0.000000 0.000000
# 3 -0.000765 -0.001490 0.010228 0.000000 0.000000 0.000000
# 4 0.000000 0.000000 0.000000 0.046168 0.000000 0.000000
# 5 0.000000 0.000000 0.000000 0.000000 0.008029 0.000000
# 6 0.000000 0.000000 0.000000 0.000000 0.000000 0.032366
#
#
# Mechanical properties :
#
#
# Convention : Reuss Voigt Hill
#
# Bulk Modulus (GPa) = 44.41046 44.97654 44.69350
# Shear Modulus (GPa) = 36.57387 51.67571 44.12479
#
# Velocity S-wave (km/s) = 4.12581 4.90418 4.53174
# Velocity P-wave (km/s) = 6.58529 7.28019 6.94144
#
# Compressibility (1/GPa) = 0.02251722
#
# Stress axis : x y z
#
# Youngs Moduli (GPa) = 82.37660 97.92152 97.77496
#
# Poissons Ratio (x) = 0.27186 0.07479
# Poissons Ratio (y) = 0.22871 0.14566
# Poissons Ratio (z) = 0.06301 0.14587
#
# Static dielectric constant tensor:
#      x y z
#    x 1.773330 0.000000 0.000000 
#    y 0.000000 1.785460 0.000000 
#    z 0.000000 0.000000 1.810110 
# 
# From -- ./inp_files/19160.got.cif
#   From: 2010.05.17/outbox.cif.g08.bks.cpg/sg57_10_cif.got.tgz:19160.got - 2010.06.03 13:58:18.
