data_PCOD9439011
_publ_section_title
;
Structure prediction by ZEFSAII (Michael W. Deem and Ramdas Pophale) SiO2 
 PCOD9439011
Probable space group: P B C M
;
_chemical_formula_sum "Si O2"
_cell_formula_units_Z 48
_cell_length_a 8.994753
_cell_length_b 16.191842
_cell_length_c 14.741838
_cell_angle_alpha 90.000000
_cell_angle_beta 90.000000
_cell_angle_gamma 90.000000
_cell_volume 2147.025159
_symmetry_space_group_name_H-M "P B C M"
_symmetry_group_IT_number 57
_symmetry_cell_setting 'orthorhombic'
loop_
_space_group_symop_operation_xyz
x,y,z
-x,-y,1/2+z
x,1/2-y,-z
-x,1/2+y,1/2-z
-x,-y,-z
x,y,1/2-z
-x,1/2+y,z
x,1/2-y,1/2+z
loop_
_atom_site_type_symbol
_atom_site_label
_atom_site_fract_x
_atom_site_fract_y
_atom_site_fract_z
Si Si1 0.179488 0.305610 0.585099
Si Si2 0.042879 0.680634 0.857595
Si Si3 0.369117 0.874491 0.360916
Si Si4 0.512355 0.707641 0.351131
Si Si5 0.420351 0.973682 0.638370
Si Si6 0.141145 0.450950 0.463681
O O1 0.225695 0.250000 0.500000
O O2 0.309914 0.291515 0.655128
O O3 0.188342 0.398807 0.551786
O O4 0.016922 0.270834 0.611294
O O5 0.048807 0.682175 0.750000
O O6 0.200859 0.645555 0.891421
O O7 0.919033 0.617367 0.892757
O O8 0.367172 0.877668 0.250000
O O9 0.460636 0.794007 0.392685
O O10 0.452547 0.958919 0.386989
O O11 0.445891 0.708232 0.250000
O O12 0.462572 0.619602 0.390008
O O13 0.404274 0.976658 0.750000
O O14 0.270071 0.999546 0.586747
O O15 0.000000 0.500000 0.500000
#
# Coordination Sequence:
#
# PCOD9439011 Si02
#       6
#     8   8   8   8   8   8
#     4  10  22  40  58  90 125 164 209 254 326 386
#     4  10  21  41  67  89 121 170 217 265 318 380
#     4   9  19  37  63  94 120 155 214 272 316 371
#     4  10  21  39  65  93 120 161 216 266 314 381
#     4  10  22  42  67  92 124 170 222 268 322 394
#     4  11  25  41  57  91 131 168 204 261 332 393
#
# _framework density 22.356514000000001
#
# number of rings (size 3 to 8) (size 9 to 14) (size 15 to 20)
#    0.000    2.000    0.000    3.000    4.667    2.000 
#    3.000    1.667    0.000    0.000    0.000    0.000 
#    0.000    0.000    0.000    0.000    0.000    0.000 
#
# Total GULP energy -267822.354134 kJ/mol
# GULP energy per Si atom -5579.632378 kJ/mol
# Density = 2.230563 g / cm^3
# Si number density = 22.356514 Si / 1000 Ang^3
#
#
#
# Elastic Constant Matrix: (Units=GPa)
#
#
# Indices 1 2 3 4 5 6 
#
# 1 101.5943 35.4280 17.9750 0.0000 0.0000 0.0000
# 2 35.4280 126.5480 17.2037 0.0000 0.0000 0.0000
# 3 17.9750 17.2037 56.1259 0.0000 0.0000 0.0000
# 4 0.0000 0.0000 0.0000 16.5881 0.0000 0.0000
# 5 0.0000 0.0000 0.0000 0.0000 36.3093 0.0000
# 6 0.0000 0.0000 0.0000 0.0000 0.0000 41.9476
#
#
#
# Elastic Compliance Matrix: (Units=1/GPa)
#
#
# Indices 1 2 3 4 5 6 
#
# 1 0.011305 -0.002789 -0.002766 0.000000 0.000000 0.000000
# 2 -0.002789 0.008934 -0.001845 0.000000 0.000000 0.000000
# 3 -0.002766 -0.001845 0.019268 0.000000 0.000000 0.000000
# 4 0.000000 0.000000 0.000000 0.060284 0.000000 0.000000
# 5 0.000000 0.000000 0.000000 0.000000 0.027541 0.000000
# 6 0.000000 0.000000 0.000000 0.000000 0.000000 0.023839
#
#
# Mechanical properties :
#
#
# Convention : Reuss Voigt Hill
#
# Bulk Modulus (GPa) = 40.47347 47.27574 43.87461
# Shear Modulus (GPa) = 28.70147 33.21310 30.95728
#
# Velocity S-wave (km/s) = 3.58691 3.85855 3.72521
# Velocity P-wave (km/s) = 5.94117 6.40651 6.17822
#
# Compressibility (1/GPa) = 0.02470754
#
# Stress axis : x y z
#
# Youngs Moduli (GPa) = 88.45676 111.93494 51.89837
#
# Poissons Ratio (x) = 0.31218 0.14354
# Poissons Ratio (y) = 0.24670 0.09576
# Poissons Ratio (z) = 0.24464 0.20654
#
# Static dielectric constant tensor:
#      x y z
#    x 1.831100 0.000000 0.000000 
#    y 0.000000 1.866650 0.000000 
#    z 0.000000 0.000000 1.896910 
# 
# From -- ./inp_files/16388.got.cif
#   From: 2010.05.17/outbox.cif.g08.bks.cpg/sg57_9_cif.got.tgz:16388.got - 2010.06.03 13:58:18.
