data_PCOD9439607
_publ_section_title
;
Structure prediction by ZEFSAII (Michael W. Deem and Ramdas Pophale) SiO2 
 PCOD9439607
Probable space group: P B C M
;
_chemical_formula_sum "Si O2"
_cell_formula_units_Z 48
_cell_length_a 28.388133
_cell_length_b 5.067493
_cell_length_c 14.397895
_cell_angle_alpha 90.000000
_cell_angle_beta 90.000000
_cell_angle_gamma 90.000000
_cell_volume 2071.233161
_symmetry_space_group_name_H-M "P B C M"
_symmetry_group_IT_number 57
_symmetry_cell_setting 'orthorhombic'
loop_
_space_group_symop_operation_xyz
x,y,z
-x,-y,1/2+z
x,1/2-y,-z
-x,1/2+y,1/2-z
-x,-y,-z
x,y,1/2-z
-x,1/2+y,z
x,1/2-y,1/2+z
loop_
_atom_site_type_symbol
_atom_site_label
_atom_site_fract_x
_atom_site_fract_y
_atom_site_fract_z
Si Si1 0.621623 0.856293 0.399550
Si Si2 0.659558 0.952853 0.750000
Si Si3 0.471575 0.839996 0.862210
Si Si4 0.908560 0.506416 0.933696
Si Si5 0.969374 0.408300 0.750000
Si Si6 0.198296 0.005606 0.934934
Si Si7 0.708647 0.290777 0.611297
O O1 0.633055 0.750000 0.500000
O O2 0.619569 0.613396 0.329964
O O3 0.576514 0.041947 0.401391
O O4 0.665240 0.024300 0.358354
O O5 0.698350 0.029298 0.668459
O O6 0.467273 0.851011 0.750000
O O7 0.512449 0.048658 0.889461
O O8 0.940241 0.468062 0.843366
O O9 0.854470 0.557959 0.900037
O O10 0.922545 0.750000 0.000000
O O11 0.910384 0.250000 0.000000
O O12 0.986259 0.106283 0.750000
O O13 0.241408 0.927662 0.869017
O O14 0.212817 0.250000 0.000000
O O15 0.193077 0.750000 0.000000
O O16 0.705469 0.250000 0.500000
#
# Coordination Sequence:
#
# PCOD9439607 Si02
#       7
#     8   4   8   8   4   8   8
#     4  12  25  43  70  97 137 173 221 281 340 409
#     4  12  26  43  65 100 132 178 220 267 342 404
#     4  10  24  42  67  94 127 170 219 275 337 405
#     4  10  22  43  69  98 140 190 236 295 361 418
#     4  12  26  41  67 104 142 184 246 305 352 426
#     4   9  20  40  69  98 136 183 231 281 339 416
#     4  11  24  42  70  98 139 178 226 280 343 408
#
# _framework density 23.174602
#
# number of rings (size 3 to 8) (size 9 to 14) (size 15 to 20)
#    0.000    1.333    2.500    2.000    4.667    3.333 
#    0.000    0.000    3.667    0.000    0.000    0.000 
#    0.000    0.000    0.000    0.000    0.000    0.000 
#
# Total GULP energy -267575.757333 kJ/mol
# GULP energy per Si atom -5574.494944 kJ/mol
# Density = 2.312186 g / cm^3
# Si number density = 23.174602 Si / 1000 Ang^3
#
#
#
# Elastic Constant Matrix: (Units=GPa)
#
#
# Indices 1 2 3 4 5 6 
#
# 1 82.3607 -12.2279 31.6278 0.0000 0.0000 0.0000
# 2 -12.2279 76.0887 12.0804 0.0000 0.0000 0.0000
# 3 31.6278 12.0804 140.7738 0.0000 0.0000 0.0000
# 4 0.0000 0.0000 0.0000 -143.1213 0.0000 0.0000
# 5 0.0000 0.0000 0.0000 0.0000 8.1192 0.0000
# 6 0.0000 0.0000 0.0000 0.0000 0.0000 35.6648
#
#
#
# Elastic Compliance Matrix: (Units=1/GPa)
#
#
# Indices 1 2 3 4 5 6 
#
# 1 0.013835 0.002754 -0.003345 0.000000 0.000000 0.000000
# 2 0.002754 0.013872 -0.001809 0.000000 0.000000 0.000000
# 3 -0.003345 -0.001809 0.008010 0.000000 0.000000 0.000000
# 4 0.000000 0.000000 0.000000 -0.006987 0.000000 0.000000
# 5 0.000000 0.000000 0.000000 0.000000 0.123164 0.000000
# 6 0.000000 0.000000 0.000000 0.000000 0.000000 0.028039
#
#
# Mechanical properties :
#
#
# Convention : Reuss Voigt Hill
#
# Bulk Modulus (GPa) = 32.34291 40.24265 36.29278
# Shear Modulus (GPa) = 25.63588 -2.01793 11.80897
#
# Velocity S-wave (km/s) = 3.32958 -0.93415 2.25980
# Velocity P-wave (km/s) = 5.36357 4.02978 4.74379
#
# Compressibility (1/GPa) = 0.03091868
#
# Stress axis : x y z
#
# Youngs Moduli (GPa) = 72.28001 72.08522 124.83898
#
# Poissons Ratio (x) = -0.19855 0.41755
# Poissons Ratio (y) = -0.19909 0.22587
# Poissons Ratio (z) = 0.24176 0.13042
#
# Static dielectric constant tensor:
#      x y z
#    x 1.896440 0.000000 0.000000 
#    y 0.000000 2.021960 0.000000 
#    z 0.000000 0.000000 1.794140 
# 
# From -- ./inp_files/19603.got.cif
#   From: 2010.05.17/outbox.cif.g08.bks.cpg/sg57_10_cif.got.tgz:19603.got - 2010.06.03 13:58:18.
