data_PCOD9439595
_publ_section_title
;
Structure prediction by ZEFSAII (Michael W. Deem and Ramdas Pophale) SiO2 
 PCOD9439595
Probable space group: P B C M
;
_chemical_formula_sum "Si O2"
_cell_formula_units_Z 60
_cell_length_a 18.229634
_cell_length_b 8.750137
_cell_length_c 17.282492
_cell_angle_alpha 90.000000
_cell_angle_beta 90.000000
_cell_angle_gamma 90.000000
_cell_volume 2756.761320
_symmetry_space_group_name_H-M "P B C M"
_symmetry_group_IT_number 57
_symmetry_cell_setting 'orthorhombic'
loop_
_space_group_symop_operation_xyz
x,y,z
-x,-y,1/2+z
x,1/2-y,-z
-x,1/2+y,1/2-z
-x,-y,-z
x,y,1/2-z
-x,1/2+y,z
x,1/2-y,1/2+z
loop_
_atom_site_type_symbol
_atom_site_label
_atom_site_fract_x
_atom_site_fract_y
_atom_site_fract_z
Si Si1 0.138350 0.112090 0.250000
Si Si2 0.006172 0.223899 0.831731
Si Si3 0.403327 0.277483 0.908372
Si Si4 0.679882 0.308197 0.837451
Si Si5 0.528594 0.031550 0.159023
Si Si6 0.217925 0.576285 0.470377
Si Si7 0.945040 0.040624 0.069004
Si Si8 0.730636 0.536787 0.130669
O O1 0.077337 0.172379 0.184484
O O2 0.198232 0.066483 0.317619
O O3 0.963801 0.211292 0.750000
O O4 0.957486 0.288345 0.900705
O O5 0.034730 0.060126 0.856563
O O6 0.460814 0.414176 0.892498
O O7 0.328885 0.328660 0.865576
O O8 0.438059 0.127947 0.869343
O O9 0.393344 0.250000 0.000000
O O10 0.699311 0.353720 0.750000
O O11 0.594550 0.345765 0.849250
O O12 0.727908 0.404829 0.898055
O O13 0.696646 0.128563 0.847041
O O14 0.508091 0.023306 0.250000
O O15 0.206840 0.750000 0.500000
O O16 0.138623 0.511861 0.450396
O O17 0.250646 0.480510 0.540237
O O18 0.000000 0.000000 0.000000
#
# Coordination Sequence:
#
# PCOD9439595 Si02
#       8
#     4   8   8   8   8   8   8   8
#     4  10  24  40  66  96 138 176 230 280 350 414
#     4  10  25  43  64 100 131 176 220 285 339 407
#     4  12  26  43  69 100 137 185 228 290 347 412
#     4  10  22  43  67  99 136 180 231 284 342 411
#     4  11  25  43  68 102 137 178 234 284 343 415
#     4  10  23  41  66 103 134 179 228 286 346 418
#     4  12  23  44  70  97 135 178 229 282 345 414
#     4  11  23  43  68  97 137 184 230 285 351 415
#
# _framework density 21.764669999999999
#
# number of rings (size 3 to 8) (size 9 to 14) (size 15 to 20)
#    0.400    0.800    0.667    4.800    1.867    6.933 
#    2.400    0.000    0.000    0.000    0.000    0.000 
#    0.000    0.000    0.000    0.000    0.000    0.000 
#
# Total GULP energy -334495.359071 kJ/mol
# GULP energy per Si atom -5574.922651 kJ/mol
# Density = 2.171513 g / cm^3
# Si number density = 21.764670 Si / 1000 Ang^3
#
#
#
# Elastic Constant Matrix: (Units=GPa)
#
#
# Indices 1 2 3 4 5 6 
#
# 1 50.4763 10.5662 20.6561 0.0000 0.0000 0.0000
# 2 10.5662 44.1360 -5.4439 0.0000 0.0000 0.0000
# 3 20.6561 -5.4439 110.1752 0.0000 0.0000 0.0000
# 4 0.0000 0.0000 0.0000 22.7777 0.0000 0.0000
# 5 0.0000 0.0000 0.0000 0.0000 50.2599 0.0000
# 6 0.0000 0.0000 0.0000 0.0000 0.0000 18.4456
#
#
#
# Elastic Compliance Matrix: (Units=1/GPa)
#
#
# Indices 1 2 3 4 5 6 
#
# 1 0.022966 -0.006066 -0.004605 0.000000 0.000000 0.000000
# 2 -0.006066 0.024398 0.002343 0.000000 0.000000 0.000000
# 3 -0.004605 0.002343 0.010056 0.000000 0.000000 0.000000
# 4 0.000000 0.000000 0.000000 0.043903 0.000000 0.000000
# 5 0.000000 0.000000 0.000000 0.000000 0.019897 0.000000
# 6 0.000000 0.000000 0.000000 0.000000 0.000000 0.054214
#
#
# Mechanical properties :
#
#
# Convention : Reuss Voigt Hill
#
# Bulk Modulus (GPa) = 24.53235 28.48272 26.50753
# Shear Modulus (GPa) = 24.30990 30.23057 27.27024
#
# Velocity S-wave (km/s) = 3.34570 3.73094 3.54356
# Velocity P-wave (km/s) = 5.12065 5.62805 5.38033
#
# Compressibility (1/GPa) = 0.04076250
#
# Stress axis : x y z
#
# Youngs Moduli (GPa) = 43.54309 40.98617 99.44646
#
# Poissons Ratio (x) = 0.24863 0.45800
# Poissons Ratio (y) = 0.26414 -0.23299
# Poissons Ratio (z) = 0.20054 -0.09602
#
# Static dielectric constant tensor:
#      x y z
#    x 1.779060 0.000000 0.000000 
#    y 0.000000 1.838880 0.000000 
#    z 0.000000 0.000000 1.792380 
# 
# From -- ./inp_files/22919.got.cif
#   From: 2010.05.17/outbox.cif.g08.bks.cpg/sg57_12_cif.got.tgz:22919.got - 2010.06.03 13:58:18.
