data_PCOD9439127
_publ_section_title
;
Structure prediction by ZEFSAII (Michael W. Deem and Ramdas Pophale) SiO2 
 PCOD9439127
Probable space group: P B C M
;
_chemical_formula_sum "Si O2"
_cell_formula_units_Z 32
_cell_length_a 12.113445
_cell_length_b 7.926764
_cell_length_c 13.979941
_cell_angle_alpha 90.000000
_cell_angle_beta 90.000000
_cell_angle_gamma 90.000000
_cell_volume 1342.359803
_symmetry_space_group_name_H-M "P B C M"
_symmetry_group_IT_number 57
_symmetry_cell_setting 'orthorhombic'
loop_
_space_group_symop_operation_xyz
x,y,z
-x,-y,1/2+z
x,1/2-y,-z
-x,1/2+y,1/2-z
-x,-y,-z
x,y,1/2-z
-x,1/2+y,z
x,1/2-y,1/2+z
loop_
_atom_site_type_symbol
_atom_site_label
_atom_site_fract_x
_atom_site_fract_y
_atom_site_fract_z
Si Si1 0.615904 0.135771 0.750000
Si Si2 0.175368 0.111372 0.893424
Si Si3 0.967151 0.279135 0.613960
Si Si4 0.235550 0.910965 0.073924
Si Si5 0.361534 0.040161 0.750000
O O1 0.669423 0.065067 0.651829
O O2 0.639493 0.336597 0.750000
O O3 0.485880 0.102988 0.750000
O O4 0.092271 0.254854 0.855754
O O5 0.095064 0.952119 0.867414
O O6 0.289919 0.104365 0.839001
O O7 0.207333 0.065944 0.003458
O O8 0.981012 0.250000 0.500000
O O9 0.872965 0.141711 0.634267
O O10 0.258441 0.750000 0.000000
#
# Coordination Sequence:
#
# PCOD9439127 Si02
#       5
#     4   8   8   8   4
#     4  12  24  47  63  85 127 170 217 272 290 366
#     4  10  21  40  65  97 127 165 196 260 316 387
#     4   9  17  36  66  93 131 154 196 250 320 388
#     4   9  18  38  69  87 123 168 194 249 330 357
#     4  12  26  45  61  87 127 168 227 254 308 356
#
# _framework density 23.838616999999999
#
# number of rings (size 3 to 8) (size 9 to 14) (size 15 to 20)
#    0.000    2.500    5.000    3.000    0.000    3.000 
#    9.000    0.000    0.000    0.000    0.000    0.000 
#    0.000    0.000    0.000    0.000    0.000    0.000 
#
# Total GULP energy -178545.045722 kJ/mol
# GULP energy per Si atom -5579.532679 kJ/mol
# Density = 2.378436 g / cm^3
# Si number density = 23.838617 Si / 1000 Ang^3
#
#
#
# Elastic Constant Matrix: (Units=GPa)
#
#
# Indices 1 2 3 4 5 6 
#
# 1 236.6714 26.4172 79.7865 0.0000 0.0000 0.0000
# 2 26.4172 54.6166 4.7732 0.0000 0.0000 0.0000
# 3 79.7865 4.7732 139.5461 0.0000 0.0000 0.0000
# 4 0.0000 0.0000 0.0000 3.4499 0.0000 0.0000
# 5 0.0000 0.0000 0.0000 0.0000 52.2350 0.0000
# 6 0.0000 0.0000 0.0000 0.0000 0.0000 37.9994
#
#
#
# Elastic Compliance Matrix: (Units=1/GPa)
#
#
# Indices 1 2 3 4 5 6 
#
# 1 0.005533 -0.002407 -0.003081 0.000000 0.000000 0.000000
# 2 -0.002407 0.019411 0.000712 0.000000 0.000000 0.000000
# 3 -0.003081 0.000712 0.008903 0.000000 0.000000 0.000000
# 4 0.000000 0.000000 0.000000 0.289866 0.000000 0.000000
# 5 0.000000 0.000000 0.000000 0.000000 0.019144 0.000000
# 6 0.000000 0.000000 0.000000 0.000000 0.000000 0.026316
#
#
# Mechanical properties :
#
#
# Convention : Reuss Voigt Hill
#
# Bulk Modulus (GPa) = 41.15909 72.53198 56.84553
# Shear Modulus (GPa) = 12.92578 40.06067 26.49323
#
# Velocity S-wave (km/s) = 2.33109 4.10383 3.33732
# Velocity P-wave (km/s) = 4.95464 7.27651 6.22479
#
# Compressibility (1/GPa) = 0.02429597
#
# Stress axis : x y z
#
# Youngs Moduli (GPa) = 180.74826 51.51636 112.31802
#
# Poissons Ratio (x) = 0.12399 0.34605
# Poissons Ratio (y) = 0.43502 -0.07998
# Poissons Ratio (z) = 0.55688 -0.03669
#
# Static dielectric constant tensor:
#      x y z
#    x 1.862860 0.000000 0.000000 
#    y 0.000000 2.162860 0.000000 
#    z 0.000000 0.000000 2.081450 
# 
# From -- ./inp_files/17195.got.cif
#   From: 2010.05.17/outbox.cif.g08.bks.cpg/sg57_9_cif.got.tgz:17195.got - 2010.06.03 13:58:18.
