data_PCOD9439156
_publ_section_title
;
Structure prediction by ZEFSAII (Michael W. Deem and Ramdas Pophale) SiO2 
 PCOD9439156
Probable space group: P B C M
;
_chemical_formula_sum "Si O2"
_cell_formula_units_Z 60
_cell_length_a 19.090136
_cell_length_b 16.947864
_cell_length_c 9.669348
_cell_angle_alpha 90.000000
_cell_angle_beta 90.000000
_cell_angle_gamma 90.000000
_cell_volume 3128.392121
_symmetry_space_group_name_H-M "P B C M"
_symmetry_group_IT_number 57
_symmetry_cell_setting 'orthorhombic'
loop_
_space_group_symop_operation_xyz
x,y,z
-x,-y,1/2+z
x,1/2-y,-z
-x,1/2+y,1/2-z
-x,-y,-z
x,y,1/2-z
-x,1/2+y,z
x,1/2-y,1/2+z
loop_
_atom_site_type_symbol
_atom_site_label
_atom_site_fract_x
_atom_site_fract_y
_atom_site_fract_z
Si Si1 0.028744 0.575156 0.413808
Si Si2 0.889321 0.673030 0.411049
Si Si3 0.162653 0.886099 0.092666
Si Si4 0.384372 0.862008 0.906621
Si Si5 0.482079 0.324753 0.084731
Si Si6 0.768036 0.552558 0.087047
Si Si7 0.261351 0.750000 0.500000
Si Si8 0.635523 0.549511 0.589800
O O1 0.038549 0.556660 0.250000
O O2 0.099148 0.607879 0.484710
O O3 0.000000 0.500000 0.500000
O O4 0.967610 0.639903 0.424405
O O5 0.878528 0.750000 0.500000
O O6 0.877012 0.690577 0.250000
O O7 0.835141 0.604538 0.452309
O O8 0.135353 0.895252 0.250000
O O9 0.212150 0.961309 0.063786
O O10 0.209341 0.807653 0.083014
O O11 0.412000 0.850039 0.750000
O O12 0.314244 0.809775 0.921847
O O13 0.372200 0.955323 0.925284
O O14 0.440813 0.837707 0.021534
O O15 0.484230 0.311598 0.250000
O O16 0.434697 0.401854 0.057337
O O17 0.452458 0.250000 0.000000
O O18 0.755601 0.562311 0.250000
O O19 0.699666 0.575989 0.003952
O O20 0.652064 0.565296 0.750000
#
# Coordination Sequence:
#
# PCOD9439156 Si02
#       8
#     8   8   8   8   8   8   4   8
#     4  11  23  42  67  94 128 171 217 267 322 384
#     4  10  23  42  62  90 124 163 214 265 314 372
#     4  11  24  42  63  94 133 171 212 262 321 387
#     4  11  23  41  65  94 129 166 212 261 315 387
#     4  11  24  41  64  92 127 167 212 263 321 380
#     4  10  21  41  64  88 122 165 208 257 316 379
#     4  12  24  40  68 100 132 166 216 260 328 384
#     4  10  23  42  63  93 128 165 210 262 318 384
#
# _framework density 19.179181
#
# number of rings (size 3 to 8) (size 9 to 14) (size 15 to 20)
#    0.000    1.333    3.333    1.600    0.933    5.867 
#    0.000    2.667    0.000    0.000    0.000    0.000 
#    0.000    0.000    0.000    0.000    0.000    0.000 
#
# Total GULP energy -335028.404618 kJ/mol
# GULP energy per Si atom -5583.806744 kJ/mol
# Density = 1.913553 g / cm^3
# Si number density = 19.179181 Si / 1000 Ang^3
#
#
#
# Elastic Constant Matrix: (Units=GPa)
#
#
# Indices 1 2 3 4 5 6 
#
# 1 110.0850 37.0848 60.3743 0.0000 0.0000 0.0000
# 2 37.0848 103.3122 47.1339 0.0000 0.0000 0.0000
# 3 60.3743 47.1339 88.6391 0.0000 0.0000 0.0000
# 4 0.0000 0.0000 0.0000 28.7512 0.0000 0.0000
# 5 0.0000 0.0000 0.0000 0.0000 30.7759 0.0000
# 6 0.0000 0.0000 0.0000 0.0000 0.0000 29.1634
#
#
#
# Elastic Compliance Matrix: (Units=1/GPa)
#
#
# Indices 1 2 3 4 5 6 
#
# 1 0.014568 -0.000927 -0.009429 0.000000 0.000000 0.000000
# 2 -0.000927 0.012839 -0.006195 0.000000 0.000000 0.000000
# 3 -0.009429 -0.006195 0.020999 0.000000 0.000000 0.000000
# 4 0.000000 0.000000 0.000000 0.034781 0.000000 0.000000
# 5 0.000000 0.000000 0.000000 0.000000 0.032493 0.000000
# 6 0.000000 0.000000 0.000000 0.000000 0.000000 0.034290
#
#
# Mechanical properties :
#
#
# Convention : Reuss Voigt Hill
#
# Bulk Modulus (GPa) = 65.35500 65.69137 65.52318
# Shear Modulus (GPa) = 26.57128 28.23431 27.40279
#
# Velocity S-wave (km/s) = 3.72617 3.84100 3.78402
# Velocity P-wave (km/s) = 7.25689 7.34825 7.30271
#
# Compressibility (1/GPa) = 0.01530105
#
# Stress axis : x y z
#
# Youngs Moduli (GPa) = 68.64557 77.88900 47.62207
#
# Poissons Ratio (x) = 0.07222 0.44904
# Poissons Ratio (y) = 0.06365 0.29504
# Poissons Ratio (z) = 0.64728 0.48256
#
# Static dielectric constant tensor:
#      x y z
#    x 1.655290 0.000000 0.000000 
#    y 0.000000 1.676070 0.000000 
#    z 0.000000 0.000000 1.664410 
# 
# From -- ./inp_files/6934.got.cif
#   From: 2010.05.17/outbox.cif.g08.bks.cpg/sg57_4_cif.got.tgz:6934.got - 2010.06.03 13:58:18.
