data_PCOD9439799
_publ_section_title
;
Structure prediction by ZEFSAII (Michael W. Deem and Ramdas Pophale) SiO2 
 PCOD9439799
Probable space group: P B C M
;
_chemical_formula_sum "Si O2"
_cell_formula_units_Z 40
_cell_length_a 5.297094
_cell_length_b 15.967809
_cell_length_c 20.946638
_cell_angle_alpha 90.000000
_cell_angle_beta 90.000000
_cell_angle_gamma 90.000000
_cell_volume 1771.729173
_symmetry_space_group_name_H-M "P B C M"
_symmetry_group_IT_number 57
_symmetry_cell_setting 'orthorhombic'
loop_
_space_group_symop_operation_xyz
x,y,z
-x,-y,1/2+z
x,1/2-y,-z
-x,1/2+y,1/2-z
-x,-y,-z
x,y,1/2-z
-x,1/2+y,z
x,1/2-y,1/2+z
loop_
_atom_site_type_symbol
_atom_site_label
_atom_site_fract_x
_atom_site_fract_y
_atom_site_fract_z
Si Si1 0.870282 0.780937 0.069076
Si Si2 0.993619 0.969335 0.072952
Si Si3 0.767354 0.433043 0.818008
Si Si4 0.374201 0.582326 0.818413
Si Si5 0.388162 0.761021 0.861630
O O1 0.837435 0.881904 0.071325
O O2 0.603305 0.738045 0.084535
O O3 0.099219 0.754636 0.115859
O O4 0.954796 0.750000 0.000000
O O5 0.232758 0.938792 0.115335
O O6 0.911094 0.048223 0.116332
O O7 0.000000 0.000000 0.000000
O O8 0.908310 0.424721 0.750000
O O9 0.595041 0.515246 0.814574
O O10 0.608917 0.348827 0.826062
O O11 0.228492 0.575577 0.750000
O O12 0.459772 0.678222 0.822317
#
# Coordination Sequence:
#
# PCOD9439799 Si02
#       5
#     8   8   8   8   8
#     4  11  24  44  66 100 141 185 228 290 349 424
#     4  11  24  42  69 101 139 185 234 292 355 416
#     4  11  24  43  69 101 135 182 234 289 348 420
#     4  10  23  45  67  98 136 181 229 287 349 413
#     4  11  24  44  68 101 136 183 234 285 349 414
#
# _framework density 22.576815
#
# number of rings (size 3 to 8) (size 9 to 14) (size 15 to 20)
#    0.000    1.200    2.000    3.000    5.600    2.400 
#    0.000    2.000    0.000    0.000    0.000    0.000 
#    0.000    0.000    0.000    0.000    0.000    0.000 
#
# Total GULP energy -222893.442553 kJ/mol
# GULP energy per Si atom -5572.336064 kJ/mol
# Density = 2.252543 g / cm^3
# Si number density = 22.576815 Si / 1000 Ang^3
#
#
#
# Elastic Constant Matrix: (Units=GPa)
#
#
# Indices 1 2 3 4 5 6 
#
# 1 30.9881 2.7772 5.4030 0.0000 0.0000 0.0000
# 2 2.7772 124.5932 13.7766 0.0000 0.0000 0.0000
# 3 5.4030 13.7766 161.4249 0.0000 0.0000 0.0000
# 4 0.0000 0.0000 0.0000 51.7136 0.0000 0.0000
# 5 0.0000 0.0000 0.0000 0.0000 64.8973 0.0000
# 6 0.0000 0.0000 0.0000 0.0000 0.0000 24.2159
#
#
#
# Elastic Compliance Matrix: (Units=1/GPa)
#
#
# Indices 1 2 3 4 5 6 
#
# 1 0.032506 -0.000610 -0.001036 0.000000 0.000000 0.000000
# 2 -0.000610 0.008114 -0.000672 0.000000 0.000000 0.000000
# 3 -0.001036 -0.000672 0.006287 0.000000 0.000000 0.000000
# 4 0.000000 0.000000 0.000000 0.019337 0.000000 0.000000
# 5 0.000000 0.000000 0.000000 0.000000 0.015409 0.000000
# 6 0.000000 0.000000 0.000000 0.000000 0.000000 0.041295
#
#
# Mechanical properties :
#
#
# Convention : Reuss Voigt Hill
#
# Bulk Modulus (GPa) = 23.65711 40.10221 31.87966
# Shear Modulus (GPa) = 35.29222 47.83532 41.56377
#
# Velocity S-wave (km/s) = 3.95803 4.60802 4.29533
# Velocity P-wave (km/s) = 5.60261 6.79065 6.22503
#
# Compressibility (1/GPa) = 0.04227060
#
# Stress axis : x y z
#
# Youngs Moduli (GPa) = 30.76380 123.24328 159.06185
#
# Poissons Ratio (x) = 0.07518 0.16478
# Poissons Ratio (y) = 0.01877 0.10690
# Poissons Ratio (z) = 0.03187 0.08283
#
# Static dielectric constant tensor:
#      x y z
#    x 1.880220 0.000000 0.000000 
#    y 0.000000 1.832860 0.000000 
#    z 0.000000 0.000000 1.888940 
# 
# From -- ./inp_files/20000.got.cif
#   From: 2010.05.17/outbox.cif.g08.bks.cpg/sg57_10_cif.got.tgz:20000.got - 2010.06.03 13:58:18.
