data_PCOD9439606
_publ_section_title
;
Structure prediction by ZEFSAII (Michael W. Deem and Ramdas Pophale) SiO2 
 PCOD9439606
Probable space group: P B C M
;
_chemical_formula_sum "Si O2"
_cell_formula_units_Z 56
_cell_length_a 6.167809
_cell_length_b 14.091268
_cell_length_c 29.992786
_cell_angle_alpha 90.000000
_cell_angle_beta 90.000000
_cell_angle_gamma 90.000000
_cell_volume 2606.740503
_symmetry_space_group_name_H-M "P B C M"
_symmetry_group_IT_number 57
_symmetry_cell_setting 'orthorhombic'
loop_
_space_group_symop_operation_xyz
x,y,z
-x,-y,1/2+z
x,1/2-y,-z
-x,1/2+y,1/2-z
-x,-y,-z
x,y,1/2-z
-x,1/2+y,z
x,1/2-y,1/2+z
loop_
_atom_site_type_symbol
_atom_site_label
_atom_site_fract_x
_atom_site_fract_y
_atom_site_fract_z
Si Si1 0.432886 0.615061 0.942199
Si Si2 0.641751 0.922027 0.697253
Si Si3 0.591869 0.682427 0.064949
Si Si4 0.901046 0.737737 0.354228
Si Si5 0.759727 0.536529 0.505521
Si Si6 0.737760 0.092758 0.370391
Si Si7 0.903523 0.438187 0.137058
O O1 0.448829 0.727093 0.948513
O O2 0.354043 0.558116 0.985670
O O3 0.276634 0.588769 0.900897
O O4 0.680656 0.575797 0.946427
O O5 0.623575 0.924872 0.750000
O O6 0.766195 0.824961 0.681673
O O7 0.409928 0.928466 0.672616
O O8 0.777991 0.010013 0.677316
O O9 0.760465 0.722744 0.101174
O O10 0.721418 0.625781 0.027561
O O11 0.433313 0.609652 0.090229
O O12 0.134295 0.689657 0.361007
O O13 0.955988 0.847759 0.347569
O O14 0.000000 0.500000 0.500000
O O15 0.928986 0.018571 0.379095
#
# Coordination Sequence:
#
# PCOD9439606 Si02
#       7
#     8   8   8   8   8   8   8
#     4  11  25  45  69  98 138 179 238 286 346 413
#     4  10  24  44  68 103 144 180 229 291 346 420
#     4  11  24  45  70  97 134 183 231 291 344 418
#     4  10  23  41  72 101 133 180 232 278 351 419
#     4  11  27  46  64 102 140 186 227 295 347 415
#     4  10  22  43  69  98 136 179 231 281 346 419
#     4  11  24  42  73 104 135 187 233 285 351 425
#
# _framework density 21.482766999999999
#
# number of rings (size 3 to 8) (size 9 to 14) (size 15 to 20)
#    0.000    1.429    1.429    3.000    6.000    7.429 
#    2.571    2.857    0.000    0.000    0.000    0.000 
#    0.000    0.000    0.000    0.000    0.000    0.000 
#
# Total GULP energy -312627.135791 kJ/mol
# GULP energy per Si atom -5582.627425 kJ/mol
# Density = 2.143387 g / cm^3
# Si number density = 21.482767 Si / 1000 Ang^3
#
#
#
# Elastic Constant Matrix: (Units=GPa)
#
#
# Indices 1 2 3 4 5 6 
#
# 1 81.7360 38.5859 41.5862 0.0000 0.0000 0.0000
# 2 38.5859 151.7458 48.7619 0.0000 0.0000 0.0000
# 3 41.5862 48.7619 122.9300 0.0000 0.0000 0.0000
# 4 0.0000 0.0000 0.0000 21.8735 0.0000 0.0000
# 5 0.0000 0.0000 0.0000 0.0000 14.5400 0.0000
# 6 0.0000 0.0000 0.0000 0.0000 0.0000 38.6077
#
#
#
# Elastic Compliance Matrix: (Units=1/GPa)
#
#
# Indices 1 2 3 4 5 6 
#
# 1 0.015629 -0.002608 -0.004253 0.000000 0.000000 0.000000
# 2 -0.002608 0.007988 -0.002286 0.000000 0.000000 0.000000
# 3 -0.004253 -0.002286 0.010480 0.000000 0.000000 0.000000
# 4 0.000000 0.000000 0.000000 0.045717 0.000000 0.000000
# 5 0.000000 0.000000 0.000000 0.000000 0.068776 0.000000
# 6 0.000000 0.000000 0.000000 0.000000 0.000000 0.025902
#
#
# Mechanical properties :
#
#
# Convention : Reuss Voigt Hill
#
# Bulk Modulus (GPa) = 63.27629 68.25331 65.76480
# Shear Modulus (GPa) = 25.24569 30.16944 27.70757
#
# Velocity S-wave (km/s) = 3.43178 3.75154 3.59522
# Velocity P-wave (km/s) = 6.72467 7.11376 6.92195
#
# Compressibility (1/GPa) = 0.01580371
#
# Stress axis : x y z
#
# Youngs Moduli (GPa) = 63.98226 125.19241 95.41679
#
# Poissons Ratio (x) = 0.32645 0.40580
# Poissons Ratio (y) = 0.16684 0.21815
# Poissons Ratio (z) = 0.27211 0.28623
#
# Static dielectric constant tensor:
#      x y z
#    x 2.256860 0.000000 0.000000 
#    y 0.000000 1.801870 0.000000 
#    z 0.000000 0.000000 1.771110 
# 
# From -- ./inp_files/29169.got.cif
#   From: 2010.05.17/outbox.cif.g08.bks.cpg/sg57_15_cif.got.tgz:29169.got - 2010.06.03 13:58:18.
