data_PCOD9439237
_publ_section_title
;
Structure prediction by ZEFSAII (Michael W. Deem and Ramdas Pophale) SiO2 
 PCOD9439237
Probable space group: P B C M
;
_chemical_formula_sum "Si O2"
_cell_formula_units_Z 40
_cell_length_a 4.862908
_cell_length_b 11.373499
_cell_length_c 28.608849
_cell_angle_alpha 90.000000
_cell_angle_beta 90.000000
_cell_angle_gamma 90.000000
_cell_volume 1582.306210
_symmetry_space_group_name_H-M "P B C M"
_symmetry_group_IT_number 57
_symmetry_cell_setting 'orthorhombic'
loop_
_space_group_symop_operation_xyz
x,y,z
-x,-y,1/2+z
x,1/2-y,-z
-x,1/2+y,1/2-z
-x,-y,-z
x,y,1/2-z
-x,1/2+y,z
x,1/2-y,1/2+z
loop_
_atom_site_type_symbol
_atom_site_label
_atom_site_fract_x
_atom_site_fract_y
_atom_site_fract_z
Si Si1 0.018362 0.609133 0.250000
Si Si2 0.766521 0.716596 0.674873
Si Si3 0.145069 0.125676 0.504409
Si Si4 0.181964 0.040802 0.605047
Si Si5 0.477799 0.939618 0.250000
Si Si6 0.670846 0.614653 0.094262
O O1 0.939223 0.691166 0.294255
O O2 0.824298 0.493607 0.250000
O O3 0.323361 0.555333 0.250000
O O4 0.934411 0.616009 0.647647
O O5 0.556249 0.644930 0.707090
O O6 0.626150 0.783681 0.631641
O O7 0.987569 0.250000 0.500000
O O8 0.219396 0.118837 0.558703
O O9 0.367689 0.130728 0.461981
O O10 0.000000 0.000000 0.500000
O O11 0.481344 0.989278 0.612920
O O12 0.985226 0.929329 0.596855
#
# Coordination Sequence:
#
# PCOD9439237 Si02
#       6
#     4   8   8   8   4   8
#     4  11  26  45  66  96 130 167 218 275 344 406
#     4  11  24  43  70  94 130 173 218 279 334 406
#     4  10  21  44  67 102 142 186 228 280 336 402
#     4  11  24  42  65  98 133 176 223 274 330 401
#     4  11  26  45  66  96 130 167 218 275 344 406
#     4  11  24  42  65  98 133 176 223 274 330 401
#
# _framework density 25.279558999999999
#
# number of rings (size 3 to 8) (size 9 to 14) (size 15 to 20)
#    0.000    1.200    2.000    3.000    0.000    8.000 
#    3.600    2.000    0.000    0.000    0.000    0.000 
#    0.000    0.000    0.000    0.000    0.000    0.000 
#
# Total GULP energy -223511.440300 kJ/mol
# GULP energy per Si atom -5587.786007 kJ/mol
# Density = 2.522202 g / cm^3
# Si number density = 25.279559 Si / 1000 Ang^3
#
#
#
# Elastic Constant Matrix: (Units=GPa)
#
#
# Indices 1 2 3 4 5 6 
#
# 1 46.3187 7.1011 13.9028 0.0000 0.0000 0.0000
# 2 7.1011 132.2116 63.5219 0.0000 0.0000 0.0000
# 3 13.9028 63.5219 188.4028 0.0000 0.0000 0.0000
# 4 0.0000 0.0000 0.0000 58.0667 0.0000 0.0000
# 5 0.0000 0.0000 0.0000 0.0000 7.7621 0.0000
# 6 0.0000 0.0000 0.0000 0.0000 0.0000 7.1778
#
#
#
# Elastic Compliance Matrix: (Units=1/GPa)
#
#
# Indices 1 2 3 4 5 6 
#
# 1 0.022104 -0.000482 -0.001469 0.000000 0.000000 0.000000
# 2 -0.000482 0.009036 -0.003011 0.000000 0.000000 0.000000
# 3 -0.001469 -0.003011 0.006431 0.000000 0.000000 0.000000
# 4 0.000000 0.000000 0.000000 0.017222 0.000000 0.000000
# 5 0.000000 0.000000 0.000000 0.000000 0.128831 0.000000
# 6 0.000000 0.000000 0.000000 0.000000 0.000000 0.139319
#
#
# Mechanical properties :
#
#
# Convention : Reuss Voigt Hill
#
# Bulk Modulus (GPa) = 36.16771 59.55385 47.86078
# Shear Modulus (GPa) = 14.61634 33.42846 24.02240
#
# Velocity S-wave (km/s) = 2.40716 3.64036 3.08599
# Velocity P-wave (km/s) = 4.69724 6.42486 5.62774
#
# Compressibility (1/GPa) = 0.02764897
#
# Stress axis : x y z
#
# Youngs Moduli (GPa) = 45.24018 110.66590 155.48736
#
# Poissons Ratio (x) = 0.05329 0.22838
# Poissons Ratio (y) = 0.02178 0.46819
# Poissons Ratio (z) = 0.06645 0.33323
#
# Static dielectric constant tensor:
#      x y z
#    x 1.922310 0.000000 0.000000 
#    y 0.000000 2.069240 0.000000 
#    z 0.000000 0.000000 2.064280 
# 
# From -- ./inp_files/29079.got.cif
#   From: 2010.05.17/outbox.cif.g08.bks.cpg/sg57_15_cif.got.tgz:29079.got - 2010.06.03 13:58:18.
