data_PCOD9439339
_publ_section_title
;
Structure prediction by ZEFSAII (Michael W. Deem and Ramdas Pophale) SiO2 
 PCOD9439339
Probable space group: P B C M
;
_chemical_formula_sum "Si O2"
_cell_formula_units_Z 40
_cell_length_a 11.948877
_cell_length_b 9.265933
_cell_length_c 15.264195
_cell_angle_alpha 90.000000
_cell_angle_beta 90.000000
_cell_angle_gamma 90.000000
_cell_volume 1690.013414
_symmetry_space_group_name_H-M "P B C M"
_symmetry_group_IT_number 57
_symmetry_cell_setting 'orthorhombic'
loop_
_space_group_symop_operation_xyz
x,y,z
-x,-y,1/2+z
x,1/2-y,-z
-x,1/2+y,1/2-z
-x,-y,-z
x,y,1/2-z
-x,1/2+y,z
x,1/2-y,1/2+z
loop_
_atom_site_type_symbol
_atom_site_label
_atom_site_fract_x
_atom_site_fract_y
_atom_site_fract_z
Si Si1 0.990839 0.791596 0.849186
Si Si2 0.403940 0.924119 0.605730
Si Si3 0.619898 0.404507 0.392173
Si Si4 0.131269 0.945205 0.412522
Si Si5 0.784323 0.869871 0.069003
O O1 0.024098 0.767518 0.750000
O O2 0.873882 0.714690 0.873667
O O3 0.085931 0.716621 0.907281
O O4 0.960887 0.957580 0.864504
O O5 0.391184 0.760905 0.637538
O O6 0.394559 0.910116 0.498870
O O7 0.520514 0.991597 0.637029
O O8 0.306531 0.040709 0.622941
O O9 0.745307 0.453705 0.370960
O O10 0.149202 0.017852 0.506946
O O11 0.734014 0.750000 0.000000
#
# Coordination Sequence:
#
# PCOD9439339 Si02
#       5
#     8   8   8   8   8
#     4  11  23  39  60  82 116 161 202 243 297 359
#     4   9  18  31  56  87 123 149 189 242 305 352
#     4   9  19  32  55  88 121 150 190 244 298 357
#     4  10  22  39  58  89 119 156 198 251 298 356
#     4   9  20  36  60  89 122 155 200 250 299 354
#
# _framework density 23.668454000000001
#
# number of rings (size 3 to 8) (size 9 to 14) (size 15 to 20)
#    0.000    2.400    0.000    1.200   14.000    0.000 
#    7.200    0.000    0.000    2.400    0.000    0.000 
#    0.000    0.000    0.000    0.000    0.000    0.000 
#
# Total GULP energy -223567.163397 kJ/mol
# GULP energy per Si atom -5589.179085 kJ/mol
# Density = 2.361458 g / cm^3
# Si number density = 23.668454 Si / 1000 Ang^3
#
#
#
# Elastic Constant Matrix: (Units=GPa)
#
#
# Indices 1 2 3 4 5 6 
#
# 1 90.8008 37.7837 11.4336 0.0000 0.0000 0.0000
# 2 37.7837 123.8762 16.2979 0.0000 0.0000 0.0000
# 3 11.4336 16.2979 55.8769 0.0000 0.0000 0.0000
# 4 0.0000 0.0000 0.0000 8.8429 0.0000 0.0000
# 5 0.0000 0.0000 0.0000 0.0000 -11.8205 0.0000
# 6 0.0000 0.0000 0.0000 0.0000 0.0000 44.6034
#
#
#
# Elastic Compliance Matrix: (Units=1/GPa)
#
#
# Indices 1 2 3 4 5 6 
#
# 1 0.012739 -0.003684 -0.001532 0.000000 0.000000 0.000000
# 2 -0.003684 0.009460 -0.002005 0.000000 0.000000 0.000000
# 3 -0.001532 -0.002005 0.018795 0.000000 0.000000 0.000000
# 4 0.000000 0.000000 0.000000 0.113086 0.000000 0.000000
# 5 0.000000 0.000000 0.000000 0.000000 -0.084598 0.000000
# 6 0.000000 0.000000 0.000000 0.000000 0.000000 0.022420
#
#
# Mechanical properties :
#
#
# Convention : Reuss Voigt Hill
#
# Bulk Modulus (GPa) = 37.66353 44.62047 41.14200
# Shear Modulus (GPa) = 43.40490 21.99439 32.69964
#
# Velocity S-wave (km/s) = 4.28702 3.05170 3.72098
# Velocity P-wave (km/s) = 6.36021 5.59557 5.99010
#
# Compressibility (1/GPa) = 0.02655088
#
# Stress axis : x y z
#
# Youngs Moduli (GPa) = 78.49910 105.70735 53.20586
#
# Poissons Ratio (x) = 0.38942 0.08152
# Poissons Ratio (y) = 0.28919 0.10670
# Poissons Ratio (z) = 0.12027 0.21199
#
# Static dielectric constant tensor:
#      x y z
#    x 1.879080 0.000000 0.000000 
#    y 0.000000 1.903960 0.000000 
#    z 0.000000 0.000000 2.073700 
# 
# From -- ./inp_files/21617.got.cif
#   From: 2010.05.17/outbox.cif.g08.bks.cpg/sg57_11_cif.got.tgz:21617.got - 2010.06.03 13:58:18.
