data_PCOD9439486
_publ_section_title
;
Structure prediction by ZEFSAII (Michael W. Deem and Ramdas Pophale) SiO2 
 PCOD9439486
Probable space group: P B C M
;
_chemical_formula_sum "Si O2"
_cell_formula_units_Z 36
_cell_length_a 8.449775
_cell_length_b 21.350194
_cell_length_c 9.877135
_cell_angle_alpha 90.000000
_cell_angle_beta 90.000000
_cell_angle_gamma 90.000000
_cell_volume 1781.877976
_symmetry_space_group_name_H-M "P B C M"
_symmetry_group_IT_number 57
_symmetry_cell_setting 'orthorhombic'
loop_
_space_group_symop_operation_xyz
x,y,z
-x,-y,1/2+z
x,1/2-y,-z
-x,1/2+y,1/2-z
-x,-y,-z
x,y,1/2-z
-x,1/2+y,z
x,1/2-y,1/2+z
loop_
_atom_site_type_symbol
_atom_site_label
_atom_site_fract_x
_atom_site_fract_y
_atom_site_fract_z
Si Si1 0.839851 0.886801 0.750000
Si Si2 0.218977 0.121864 0.750000
Si Si3 0.527679 0.401286 0.750000
Si Si4 0.743477 0.411552 0.509337
Si Si5 0.917294 0.486115 0.750000
Si Si6 0.973130 0.823113 0.016288
Si Si7 0.546357 0.452338 0.250000
O O1 0.653193 0.882123 0.750000
O O2 0.913624 0.852630 0.877467
O O3 0.905841 0.958163 0.750000
O O4 0.165334 0.162277 0.622280
O O5 0.397641 0.095883 0.750000
O O6 0.108866 0.059560 0.750000
O O7 0.620004 0.380836 0.615282
O O8 0.522667 0.477434 0.750000
O O9 0.837301 0.458866 0.611613
O O10 0.648328 0.442688 0.386428
O O11 0.867324 0.361537 0.450799
O O12 0.003990 0.750000 0.000000
#
# Coordination Sequence:
#
# PCOD9439486 Si02
#       7
#     4   4   4   8   4   8   4
#     4  10  23  39  68  92 128 162 208 255 323 363
#     4  12  24  40  66  96 129 156 217 258 315 370
#     4  11  22  39  61  94 134 158 195 261 327 386
#     4  10  22  41  63  91 130 165 207 247 323 374
#     4   9  22  39  60 101 123 166 198 258 313 385
#     4  11  25  45  64  87 124 173 219 257 293 369
#     4  12  23  37  63 101 132 160 192 264 326 382
#
# _framework density 20.203405
#
# number of rings (size 3 to 8) (size 9 to 14) (size 15 to 20)
#    0.000    1.333    2.222    4.000    6.222    1.778 
#    0.000    6.667    0.000    0.000    0.000    0.000 
#    0.000    0.000    0.000    0.000    0.000    0.000 
#
# Total GULP energy -201176.272840 kJ/mol
# GULP energy per Si atom -5588.229801 kJ/mol
# Density = 2.015742 g / cm^3
# Si number density = 20.203405 Si / 1000 Ang^3
#
#
#
# Elastic Constant Matrix: (Units=GPa)
#
#
# Indices 1 2 3 4 5 6 
#
# 1 98.0890 13.6280 19.8321 0.0000 0.0000 0.0000
# 2 13.6280 76.0696 4.8345 0.0000 0.0000 0.0000
# 3 19.8321 4.8345 115.0854 0.0000 0.0000 0.0000
# 4 0.0000 0.0000 0.0000 16.0920 0.0000 0.0000
# 5 0.0000 0.0000 0.0000 0.0000 -59.7030 0.0000
# 6 0.0000 0.0000 0.0000 0.0000 0.0000 21.9299
#
#
#
# Elastic Compliance Matrix: (Units=1/GPa)
#
#
# Indices 1 2 3 4 5 6 
#
# 1 0.010809 -0.001823 -0.001786 0.000000 0.000000 0.000000
# 2 -0.001823 0.013489 -0.000252 0.000000 0.000000 0.000000
# 3 -0.001786 -0.000252 0.009008 0.000000 0.000000 0.000000
# 4 0.000000 0.000000 0.000000 0.062143 0.000000 0.000000
# 5 0.000000 0.000000 0.000000 0.000000 -0.016750 0.000000
# 6 0.000000 0.000000 0.000000 0.000000 0.000000 0.045600
#
#
# Mechanical properties :
#
#
# Convention : Reuss Voigt Hill
#
# Bulk Modulus (GPa) = 39.08973 40.64813 39.86893
# Shear Modulus (GPa) = 35.57486 12.39374 23.98430
#
# Velocity S-wave (km/s) = 4.20078 2.47948 3.44923
# Velocity P-wave (km/s) = 6.55125 5.32543 5.96988
#
# Compressibility (1/GPa) = 0.02558216
#
# Stress axis : x y z
#
# Youngs Moduli (GPa) = 92.51352 74.13722 111.01735
#
# Poissons Ratio (x) = 0.13515 0.19829
# Poissons Ratio (y) = 0.16865 0.02803
# Poissons Ratio (z) = 0.16524 0.01872
#
# Static dielectric constant tensor:
#      x y z
#    x 1.740600 0.000000 0.000000 
#    y 0.000000 1.691680 0.000000 
#    z 0.000000 0.000000 1.698510 
# 
# From -- ./inp_files/1379.got.cif
#   From: 2010.05.17/outbox.cif.g08.bks.cpg/sg57_1_cif.got.tgz:1379.got - 2010.06.03 13:58:18.
