data_PCOD9439957
_publ_section_title
;
Structure prediction by ZEFSAII (Michael W. Deem and Ramdas Pophale) SiO2 
 PCOD9439957
Probable space group: P B C M
;
_chemical_formula_sum "Si O2"
_cell_formula_units_Z 24
_cell_length_a 5.446599
_cell_length_b 16.646159
_cell_length_c 12.925906
_cell_angle_alpha 90.000000
_cell_angle_beta 90.000000
_cell_angle_gamma 90.000000
_cell_volume 1171.926659
_symmetry_space_group_name_H-M "P B C M"
_symmetry_group_IT_number 57
_symmetry_cell_setting 'orthorhombic'
loop_
_space_group_symop_operation_xyz
x,y,z
-x,-y,1/2+z
x,1/2-y,-z
-x,1/2+y,1/2-z
-x,-y,-z
x,y,1/2-z
-x,1/2+y,z
x,1/2-y,1/2+z
loop_
_atom_site_type_symbol
_atom_site_label
_atom_site_fract_x
_atom_site_fract_y
_atom_site_fract_z
Si Si1 0.151731 0.831961 0.250000
Si Si2 0.801764 0.446112 0.440812
Si Si3 0.663458 0.769058 0.750000
Si Si4 0.529963 0.408492 0.636016
O O1 0.926293 0.770893 0.250000
O O2 0.117073 0.887623 0.149542
O O3 0.423114 0.789685 0.250000
O O4 0.687682 0.395436 0.534563
O O5 0.614212 0.509387 0.388051
O O6 0.000000 0.500000 0.500000
O O7 0.638848 0.830962 0.845893
O O8 0.656470 0.416984 0.750000
#
# Coordination Sequence:
#
# PCOD9439957 Si02
#       4
#     4   8   4   8
#     4  12  27  47  72 110 138 186 236 290 361 416
#     4  11  25  42  77  98 138 191 245 291 337 435
#     4  10  27  47  70 104 154 174 228 298 357 424
#     4   9  23  47  68 100 140 188 233 293 353 416
#
# _framework density 20.479096999999999
#
# number of rings (size 3 to 8) (size 9 to 14) (size 15 to 20)
#    1.000    0.667    1.667    0.000   16.333    1.333 
#    0.000    0.000    0.000    0.000    0.000    0.000 
#    0.000    0.000    0.000    0.000    0.000    0.000 
#
# Total GULP energy -133725.137367 kJ/mol
# GULP energy per Si atom -5571.880724 kJ/mol
# Density = 2.043249 g / cm^3
# Si number density = 20.479097 Si / 1000 Ang^3
#
#
#
# Elastic Constant Matrix: (Units=GPa)
#
#
# Indices 1 2 3 4 5 6 
#
# 1 39.7244 8.1059 31.6720 0.0000 0.0000 0.0000
# 2 8.1059 61.1640 51.9565 0.0000 0.0000 0.0000
# 3 31.6720 51.9565 183.4425 0.0000 0.0000 0.0000
# 4 0.0000 0.0000 0.0000 20.5399 0.0000 0.0000
# 5 0.0000 0.0000 0.0000 0.0000 4.0258 0.0000
# 6 0.0000 0.0000 0.0000 0.0000 0.0000 42.0872
#
#
#
# Elastic Compliance Matrix: (Units=1/GPa)
#
#
# Indices 1 2 3 4 5 6 
#
# 1 0.029206 0.000544 -0.005196 0.000000 0.000000 0.000000
# 2 0.000544 0.021539 -0.006194 0.000000 0.000000 0.000000
# 3 -0.005196 -0.006194 0.008103 0.000000 0.000000 0.000000
# 4 0.000000 0.000000 0.000000 0.048686 0.000000 0.000000
# 5 0.000000 0.000000 0.000000 0.000000 0.248399 0.000000
# 6 0.000000 0.000000 0.000000 0.000000 0.000000 0.023760
#
#
# Mechanical properties :
#
#
# Convention : Reuss Voigt Hill
#
# Bulk Modulus (GPa) = 26.91545 51.97774 39.44660
# Shear Modulus (GPa) = 12.08396 26.17033 19.12714
#
# Velocity S-wave (km/s) = 2.43176 3.57866 3.05943
# Velocity P-wave (km/s) = 4.58868 6.52010 5.63772
#
# Compressibility (1/GPa) = 0.03715338
#
# Stress axis : x y z
#
# Youngs Moduli (GPa) = 34.24000 46.42655 123.41207
#
# Poissons Ratio (x) = -0.02524 0.64130
# Poissons Ratio (y) = -0.01861 0.76447
# Poissons Ratio (z) = 0.17793 0.28759
#
# Static dielectric constant tensor:
#      x y z
#    x 1.777800 0.000000 0.000000 
#    y 0.000000 1.733820 0.000000 
#    z 0.000000 0.000000 1.769250 
# 
# From -- ./inp_files/10530.got.cif
#   From: 2010.05.17/outbox.cif.g08.bks.cpg/sg57_6_cif.got.tgz:10530.got - 2010.06.03 13:58:18.
