data_PCOD9439359
_publ_section_title
;
Structure prediction by ZEFSAII (Michael W. Deem and Ramdas Pophale) SiO2 
 PCOD9439359
Probable space group: P B C M
;
_chemical_formula_sum "Si O2"
_cell_formula_units_Z 60
_cell_length_a 9.292882
_cell_length_b 12.722116
_cell_length_c 23.555129
_cell_angle_alpha 90.000000
_cell_angle_beta 90.000000
_cell_angle_gamma 90.000000
_cell_volume 2784.808018
_symmetry_space_group_name_H-M "P B C M"
_symmetry_group_IT_number 57
_symmetry_cell_setting 'orthorhombic'
loop_
_space_group_symop_operation_xyz
x,y,z
-x,-y,1/2+z
x,1/2-y,-z
-x,1/2+y,1/2-z
-x,-y,-z
x,y,1/2-z
-x,1/2+y,z
x,1/2-y,1/2+z
loop_
_atom_site_type_symbol
_atom_site_label
_atom_site_fract_x
_atom_site_fract_y
_atom_site_fract_z
Si Si1 0.395393 0.683413 0.681863
Si Si2 0.206870 0.250000 0.000000
Si Si3 0.102567 0.311381 0.681239
Si Si4 0.339929 0.465969 0.988400
Si Si5 0.191401 0.521832 0.874626
Si Si6 0.218082 0.625384 0.180989
Si Si7 0.708042 0.612353 0.818690
Si Si8 0.077069 0.441015 0.446790
O O1 0.407703 0.687544 0.750000
O O2 0.266032 0.605122 0.666242
O O3 0.345964 0.798168 0.661363
O O4 0.549179 0.643270 0.659648
O O5 0.307997 0.342210 0.975791
O O6 0.102229 0.182543 0.959573
O O7 0.106250 0.319107 0.750000
O O8 0.190132 0.408257 0.654772
O O9 0.178158 0.202227 0.665308
O O10 0.936610 0.327908 0.662952
O O11 0.280651 0.523755 0.932939
O O12 0.238796 0.485048 0.043647
O O13 0.500000 0.500000 0.000000
O O14 0.027930 0.543645 0.894171
O O15 0.216540 0.628637 0.250000
O O16 0.245550 0.504903 0.165669
O O17 0.702283 0.613258 0.750000
O O18 0.000000 0.500000 0.500000
#
# Coordination Sequence:
#
# PCOD9439359 Si02
#       8
#     8   4   8   8   8   8   8   8
#     4  10  22  39  61  93 137 176 217 270 323 393
#     4   8  18  40  74  84 128 166 200 278 332 386
#     4  10  22  39  63  93 131 176 221 269 317 383
#     4   9  20  44  67  90 123 163 213 271 330 393
#     4  11  22  39  65  99 128 169 219 263 336 400
#     4   9  20  39  60  86 124 174 225 267 315 371
#     4   9  20  40  62  84 129 184 223 268 321 375
#     4   8  18  40  67  92 120 159 208 265 324 390
#
# _framework density 21.545472
#
# number of rings (size 3 to 8) (size 9 to 14) (size 15 to 20)
#    0.800    1.867    0.000    0.400    3.733    1.067 
#    4.800    2.667    0.000    0.000    0.000    0.000 
#    0.000    0.000    0.000    0.000    0.000    0.000 
#
# Total GULP energy -334523.968841 kJ/mol
# GULP energy per Si atom -5575.399481 kJ/mol
# Density = 2.149643 g / cm^3
# Si number density = 21.545472 Si / 1000 Ang^3
#
#
#
# Elastic Constant Matrix: (Units=GPa)
#
#
# Indices 1 2 3 4 5 6 
#
# 1 169.0861 80.7338 21.5611 0.0000 0.0000 0.0000
# 2 80.7338 150.2609 3.2799 0.0000 0.0000 0.0000
# 3 21.5611 3.2799 32.5234 0.0000 0.0000 0.0000
# 4 0.0000 0.0000 0.0000 6.7770 0.0000 0.0000
# 5 0.0000 0.0000 0.0000 0.0000 29.2973 0.0000
# 6 0.0000 0.0000 0.0000 0.0000 0.0000 32.5930
#
#
#
# Elastic Compliance Matrix: (Units=1/GPa)
#
#
# Indices 1 2 3 4 5 6 
#
# 1 0.008801 -0.004611 -0.005369 0.000000 0.000000 0.000000
# 2 -0.004611 0.009086 0.002141 0.000000 0.000000 0.000000
# 3 -0.005369 0.002141 0.034091 0.000000 0.000000 0.000000
# 4 0.000000 0.000000 0.000000 0.147557 0.000000 0.000000
# 5 0.000000 0.000000 0.000000 0.000000 0.034133 0.000000
# 6 0.000000 0.000000 0.000000 0.000000 0.000000 0.030681
#
#
# Mechanical properties :
#
#
# Convention : Reuss Voigt Hill
#
# Bulk Modulus (GPa) = 27.55001 62.55778 45.05389
# Shear Modulus (GPa) = 17.11583 30.15319 23.63451
#
# Velocity S-wave (km/s) = 2.82158 3.74507 3.31563
# Velocity P-wave (km/s) = 4.84043 6.91368 5.96778
#
# Compressibility (1/GPa) = 0.03629763
#
# Stress axis : x y z
#
# Youngs Moduli (GPa) = 113.62934 110.06008 29.33355
#
# Poissons Ratio (x) = 0.50751 0.15750
# Poissons Ratio (y) = 0.52397 -0.06279
# Poissons Ratio (z) = 0.61010 -0.23561
#
# Static dielectric constant tensor:
#      x y z
#    x 1.783680 0.000000 0.000000 
#    y 0.000000 1.813650 0.000000 
#    z 0.000000 0.000000 1.835820 
# 
# From -- ./inp_files/29592.got.cif
#   From: 2010.05.17/outbox.cif.g08.bks.cpg/sg57_15_cif.got.tgz:29592.got - 2010.06.03 13:58:18.
