data_PCOD9439468
_publ_section_title
;
Structure prediction by ZEFSAII (Michael W. Deem and Ramdas Pophale) SiO2 
 PCOD9439468
Probable space group: P B C M
;
_chemical_formula_sum "Si O2"
_cell_formula_units_Z 40
_cell_length_a 6.282072
_cell_length_b 14.796406
_cell_length_c 19.756057
_cell_angle_alpha 90.000000
_cell_angle_beta 90.000000
_cell_angle_gamma 90.000000
_cell_volume 1836.366746
_symmetry_space_group_name_H-M "P B C M"
_symmetry_group_IT_number 57
_symmetry_cell_setting 'orthorhombic'
loop_
_space_group_symop_operation_xyz
x,y,z
-x,-y,1/2+z
x,1/2-y,-z
-x,1/2+y,1/2-z
-x,-y,-z
x,y,1/2-z
-x,1/2+y,z
x,1/2-y,1/2+z
loop_
_atom_site_type_symbol
_atom_site_label
_atom_site_fract_x
_atom_site_fract_y
_atom_site_fract_z
Si Si1 0.008007 0.657042 0.883848
Si Si2 0.674006 0.292337 0.929734
Si Si3 0.552939 0.528462 0.750000
Si Si4 0.263218 0.250000 0.000000
Si Si5 0.739273 0.705959 0.750000
Si Si6 0.120828 0.959093 0.862764
Si Si7 0.818057 0.897931 0.750000
O O1 0.879843 0.684348 0.816143
O O2 0.008433 0.547750 0.886465
O O3 0.229475 0.714103 0.881195
O O4 0.871187 0.687209 0.949761
O O5 0.422383 0.299662 0.945817
O O6 0.778274 0.388664 0.915042
O O7 0.747759 0.250000 0.000000
O O8 0.548766 0.635716 0.750000
O O9 0.687834 0.494880 0.685148
O O10 0.323413 0.486287 0.750000
O O11 0.673501 0.809662 0.750000
O O12 0.966404 0.900730 0.815269
#
# Coordination Sequence:
#
# PCOD9439468 Si02
#       7
#     8   8   4   4   4   8   4
#     4  11  22  45  64  95 135 167 222 275 326 392
#     4  10  23  41  62  95 124 175 222 254 332 395
#     4   9  23  41  59 106 128 166 224 265 334 395
#     4  10  24  42  62  92 138 170 218 268 324 388
#     4  10  22  40  72  92 131 173 207 281 326 375
#     4  10  23  41  66  95 129 172 223 267 330 392
#     4  11  21  41  67  94 135 171 211 278 328 380
#
# _framework density 21.782143000000001
#
# number of rings (size 3 to 8) (size 9 to 14) (size 15 to 20)
#    0.600    1.200    3.000    0.600    2.800    4.800 
#    0.000    1.000    0.000    0.000    0.000    0.000 
#    0.000    0.000    0.000    0.000    0.000    0.000 
#
# Total GULP energy -222881.373218 kJ/mol
# GULP energy per Si atom -5572.034330 kJ/mol
# Density = 2.173257 g / cm^3
# Si number density = 21.782143 Si / 1000 Ang^3
#
#
#
# Elastic Constant Matrix: (Units=GPa)
#
#
# Indices 1 2 3 4 5 6 
#
# 1 44.0156 6.7269 13.0788 0.0000 0.0000 0.0000
# 2 6.7269 136.6747 38.5202 0.0000 0.0000 0.0000
# 3 13.0788 38.5202 77.8888 0.0000 0.0000 0.0000
# 4 0.0000 0.0000 0.0000 10.5965 0.0000 0.0000
# 5 0.0000 0.0000 0.0000 0.0000 -20.6797 0.0000
# 6 0.0000 0.0000 0.0000 0.0000 0.0000 29.5929
#
#
#
# Elastic Compliance Matrix: (Units=1/GPa)
#
#
# Indices 1 2 3 4 5 6 
#
# 1 0.023913 -0.000053 -0.003989 0.000000 0.000000 0.000000
# 2 -0.000053 0.008502 -0.004196 0.000000 0.000000 0.000000
# 3 -0.003989 -0.004196 0.015584 0.000000 0.000000 0.000000
# 4 0.000000 0.000000 0.000000 0.094371 0.000000 0.000000
# 5 0.000000 0.000000 0.000000 0.000000 -0.048357 0.000000
# 6 0.000000 0.000000 0.000000 0.000000 0.000000 0.033792
#
#
# Mechanical properties :
#
#
# Convention : Reuss Voigt Hill
#
# Bulk Modulus (GPa) = 31.72307 41.69231 36.70769
# Shear Modulus (GPa) = 32.30238 17.25215 24.77727
#
# Velocity S-wave (km/s) = 3.85512 2.81736 3.37635
# Velocity P-wave (km/s) = 5.86612 5.45578 5.66466
#
# Compressibility (1/GPa) = 0.03152280
#
# Stress axis : x y z
#
# Youngs Moduli (GPa) = 41.81887 117.62279 64.16959
#
# Poissons Ratio (x) = 0.00619 0.25599
# Poissons Ratio (y) = 0.00220 0.26924
# Poissons Ratio (z) = 0.16683 0.49351
#
# Static dielectric constant tensor:
#      x y z
#    x 1.826630 0.000000 0.000000 
#    y 0.000000 1.795730 0.000000 
#    z 0.000000 0.000000 1.736460 
# 
# From -- ./inp_files/26164.got.cif
#   From: 2010.05.17/outbox.cif.g08.bks.cpg/sg57_14_cif.got.tgz:26164.got - 2010.06.03 13:58:18.
