data_PCOD9439101
_publ_section_title
;
Structure prediction by ZEFSAII (Michael W. Deem and Ramdas Pophale) SiO2 
 PCOD9439101
Probable space group: P B C M
;
_chemical_formula_sum "Si O2"
_cell_formula_units_Z 64
_cell_length_a 18.138920
_cell_length_b 20.626383
_cell_length_c 7.974964
_cell_angle_alpha 90.000000
_cell_angle_beta 90.000000
_cell_angle_gamma 90.000000
_cell_volume 2983.755512
_symmetry_space_group_name_H-M "P B C M"
_symmetry_group_IT_number 57
_symmetry_cell_setting 'orthorhombic'
loop_
_space_group_symop_operation_xyz
x,y,z
-x,-y,1/2+z
x,1/2-y,-z
-x,1/2+y,1/2-z
-x,-y,-z
x,y,1/2-z
-x,1/2+y,z
x,1/2-y,1/2+z
loop_
_atom_site_type_symbol
_atom_site_label
_atom_site_fract_x
_atom_site_fract_y
_atom_site_fract_z
Si Si1 0.435128 0.590753 0.047891
Si Si2 0.329132 0.496137 0.936298
Si Si3 0.874128 0.677775 0.951525
Si Si4 0.710949 0.641338 0.556238
Si Si5 0.439340 0.183572 0.450654
Si Si6 0.195075 0.933586 0.560923
Si Si7 0.292505 0.675417 0.452020
Si Si8 0.075671 0.464675 0.452822
O O1 0.436172 0.586981 0.250000
O O2 0.511172 0.623036 0.993541
O O3 0.368233 0.639512 0.995821
O O4 0.410499 0.521859 0.974688
O O5 0.308803 0.517708 0.750000
O O6 0.314340 0.420840 0.952376
O O7 0.273128 0.529350 0.064352
O O8 0.876478 0.676647 0.750000
O O9 0.788060 0.670685 0.005145
O O10 0.913296 0.610387 0.010757
O O11 0.901239 0.750000 0.000000
O O12 0.722885 0.622355 0.750000
O O13 0.638876 0.684878 0.542892
O O14 0.479805 0.250000 0.500000
O O15 0.429788 0.180647 0.250000
O O16 0.167790 0.921069 0.750000
O O17 0.221018 0.865225 0.483709
O O18 0.139328 0.985926 0.483300
O O19 0.291646 0.750000 0.500000
O O20 0.290242 0.670908 0.250000
O O21 0.081637 0.461745 0.250000
O O22 0.000000 0.500000 0.500000
#
# Coordination Sequence:
#
# PCOD9439101 Si02
#       8
#     8   8   8   8   8   8   8   8
#     4   9  20  37  54  73 108 155 196 239 299 362
#     4  11  21  33  56  87 112 141 191 247 294 348
#     4  10  22  40  64  91 121 159 199 241 291 350
#     4  11  22  39  60  81 114 157 195 242 300 356
#     4  11  23  38  55  79 110 149 198 250 304 362
#     4   9  18  37  58  78 114 156 191 229 287 354
#     4   9  17  30  52  78 105 146 191 237 289 342
#     4  10  21  40  64  91 121 157 195 234 287 348
#
# _framework density 21.449477000000002
#
# number of rings (size 3 to 8) (size 9 to 14) (size 15 to 20)
#    0.000    2.000    1.250    3.375    0.000    6.500 
#    0.000    0.625    0.000    3.000    0.000    0.000 
#    0.000    0.000    0.000    0.000    0.000    0.000 
#
# Total GULP energy -356861.297097 kJ/mol
# GULP energy per Si atom -5575.957767 kJ/mol
# Density = 2.140066 g / cm^3
# Si number density = 21.449477 Si / 1000 Ang^3
#
#
#
# Elastic Constant Matrix: (Units=GPa)
#
#
# Indices 1 2 3 4 5 6 
#
# 1 83.6504 41.7863 3.7428 0.0000 0.0000 0.0000
# 2 41.7863 139.9880 8.2775 0.0000 0.0000 0.0000
# 3 3.7428 8.2775 41.9779 0.0000 0.0000 0.0000
# 4 0.0000 0.0000 0.0000 28.0127 0.0000 0.0000
# 5 0.0000 0.0000 0.0000 0.0000 11.5142 0.0000
# 6 0.0000 0.0000 0.0000 0.0000 0.0000 17.0535
#
#
#
# Elastic Compliance Matrix: (Units=1/GPa)
#
#
# Indices 1 2 3 4 5 6 
#
# 1 0.014057 -0.004171 -0.000431 0.000000 0.000000 0.000000
# 2 -0.004171 0.008465 -0.001297 0.000000 0.000000 0.000000
# 3 -0.000431 -0.001297 0.024116 0.000000 0.000000 0.000000
# 4 0.000000 0.000000 0.000000 0.035698 0.000000 0.000000
# 5 0.000000 0.000000 0.000000 0.000000 0.086849 0.000000
# 6 0.000000 0.000000 0.000000 0.000000 0.000000 0.058639
#
#
# Mechanical properties :
#
#
# Convention : Reuss Voigt Hill
#
# Bulk Modulus (GPa) = 28.70202 41.46994 35.08598
# Shear Modulus (GPa) = 19.90156 25.43670 22.66913
#
# Velocity S-wave (km/s) = 3.04934 3.44741 3.25447
# Velocity P-wave (km/s) = 5.08018 5.93481 5.52405
#
# Compressibility (1/GPa) = 0.03484075
#
# Stress axis : x y z
#
# Youngs Moduli (GPa) = 71.13818 118.13219 41.46571
#
# Poissons Ratio (x) = 0.49268 0.01787
# Poissons Ratio (y) = 0.29669 0.05380
# Poissons Ratio (z) = 0.03066 0.15326
#
# Static dielectric constant tensor:
#      x y z
#    x 1.786410 0.000000 0.000000 
#    y 0.000000 1.855080 0.000000 
#    z 0.000000 0.000000 1.874850 
# 
# From -- ./inp_files/7232.got.cif
#   From: 2010.05.17/outbox.cif.g08.bks.cpg/sg57_4_cif.got.tgz:7232.got - 2010.06.03 13:58:18.
