data_PCOD9439697
_publ_section_title
;
Structure prediction by ZEFSAII (Michael W. Deem and Ramdas Pophale) SiO2 
 PCOD9439697
Probable space group: P B C M
;
_chemical_formula_sum "Si O2"
_cell_formula_units_Z 64
_cell_length_a 8.929469
_cell_length_b 13.884821
_cell_length_c 26.377258
_cell_angle_alpha 90.000000
_cell_angle_beta 90.000000
_cell_angle_gamma 90.000000
_cell_volume 3270.360031
_symmetry_space_group_name_H-M "P B C M"
_symmetry_group_IT_number 57
_symmetry_cell_setting 'orthorhombic'
loop_
_space_group_symop_operation_xyz
x,y,z
-x,-y,1/2+z
x,1/2-y,-z
-x,1/2+y,1/2-z
-x,-y,-z
x,y,1/2-z
-x,1/2+y,z
x,1/2-y,1/2+z
loop_
_atom_site_type_symbol
_atom_site_label
_atom_site_fract_x
_atom_site_fract_y
_atom_site_fract_z
Si Si1 0.673904 0.120064 0.368637
Si Si2 0.022068 0.122536 0.396993
Si Si3 0.155588 0.139606 0.497458
Si Si4 0.710585 0.927047 0.190764
Si Si5 0.076068 0.153629 0.893480
Si Si6 0.560454 0.945657 0.548974
Si Si7 0.218961 0.951371 0.374738
Si Si8 0.594817 0.186365 0.808950
O O1 0.848828 0.122519 0.383173
O O2 0.569677 0.100328 0.417257
O O3 0.626790 0.219515 0.342257
O O4 0.656688 0.030206 0.330311
O O5 0.047529 0.091509 0.455895
O O6 0.084899 0.230786 0.391233
O O7 0.121754 0.047796 0.364899
O O8 0.105468 0.250000 0.500000
O O9 0.153401 0.109976 0.556013
O O10 0.318491 0.130142 0.472443
O O11 0.749988 0.933485 0.250000
O O12 0.846324 0.891459 0.155646
O O13 0.574307 0.851836 0.184817
O O14 0.902785 0.123384 0.896370
O O15 0.500000 0.000000 0.500000
O O16 0.654570 0.018147 0.584923
O O17 0.298071 0.899813 0.327914
O O18 0.621314 0.207580 0.750000
#
# Coordination Sequence:
#
# PCOD9439697 Si02
#       8
#     8   8   8   8   8   8   8   8
#     4  12  23  44  68  96 135 172 225 273 326 399
#     4  10  23  41  63  99 130 178 212 268 329 391
#     4   9  22  39  60  91 130 173 210 261 318 389
#     4  11  25  44  69  95 128 172 218 275 338 389
#     4  11  22  43  68  93 137 171 219 267 328 397
#     4  11  25  38  64  97 135 177 220 267 328 398
#     4  11  23  42  66  95 133 171 215 275 328 389
#     4  11  26  46  68  96 130 172 222 280 335 392
#
# _framework density 19.569711999999999
#
# number of rings (size 3 to 8) (size 9 to 14) (size 15 to 20)
#    0.000    1.250    3.750    1.125    7.000    1.500 
#    0.000    0.625    0.000    0.000    0.000    0.000 
#    0.000    0.000    0.000    0.000    0.000    0.000 
#
# Total GULP energy -357341.090203 kJ/mol
# GULP energy per Si atom -5583.454534 kJ/mol
# Density = 1.952517 g / cm^3
# Si number density = 19.569712 Si / 1000 Ang^3
#
#
#
# Elastic Constant Matrix: (Units=GPa)
#
#
# Indices 1 2 3 4 5 6 
#
# 1 90.2601 30.9131 56.3462 0.0000 0.0000 0.0000
# 2 30.9131 102.9963 39.6619 0.0000 0.0000 0.0000
# 3 56.3462 39.6619 120.7585 0.0000 0.0000 0.0000
# 4 0.0000 0.0000 0.0000 28.6225 0.0000 0.0000
# 5 0.0000 0.0000 0.0000 0.0000 21.1510 0.0000
# 6 0.0000 0.0000 0.0000 0.0000 0.0000 31.4073
#
#
#
# Elastic Compliance Matrix: (Units=1/GPa)
#
#
# Indices 1 2 3 4 5 6 
#
# 1 0.016062 -0.002215 -0.006767 0.000000 0.000000 0.000000
# 2 -0.002215 0.011420 -0.002717 0.000000 0.000000 0.000000
# 3 -0.006767 -0.002717 0.012331 0.000000 0.000000 0.000000
# 4 0.000000 0.000000 0.000000 0.034938 0.000000 0.000000
# 5 0.000000 0.000000 0.000000 0.000000 0.047279 0.000000
# 6 0.000000 0.000000 0.000000 0.000000 0.000000 0.031840
#
#
# Mechanical properties :
#
#
# Convention : Reuss Voigt Hill
#
# Bulk Modulus (GPa) = 60.92164 63.09526 62.00845
# Shear Modulus (GPa) = 27.36121 28.70908 28.03514
#
# Velocity S-wave (km/s) = 3.74323 3.83432 3.78905
# Velocity P-wave (km/s) = 7.06261 7.20513 7.13423
#
# Compressibility (1/GPa) = 0.01641453
#
# Stress axis : x y z
#
# Youngs Moduli (GPa) = 62.25798 87.56339 81.09605
#
# Poissons Ratio (x) = 0.19395 0.54879
# Poissons Ratio (y) = 0.13790 0.22037
# Poissons Ratio (z) = 0.42131 0.23794
#
# Static dielectric constant tensor:
#      x y z
#    x 1.689690 0.000000 0.000000 
#    y 0.000000 1.701490 0.000000 
#    z 0.000000 0.000000 1.689110 
# 
# From -- ./inp_files/26888.got.cif
#   From: 2010.05.17/outbox.cif.g08.bks.cpg/sg57_14_cif.got.tgz:26888.got - 2010.06.03 13:58:18.
