data_PCOD9439449
_publ_section_title
;
Structure prediction by ZEFSAII (Michael W. Deem and Ramdas Pophale) SiO2 
 PCOD9439449
Probable space group: P B C M
;
_chemical_formula_sum "Si O2"
_cell_formula_units_Z 48
_cell_length_a 12.102288
_cell_length_b 8.716168
_cell_length_c 22.360067
_cell_angle_alpha 90.000000
_cell_angle_beta 90.000000
_cell_angle_gamma 90.000000
_cell_volume 2358.664533
_symmetry_space_group_name_H-M "P B C M"
_symmetry_group_IT_number 57
_symmetry_cell_setting 'orthorhombic'
loop_
_space_group_symop_operation_xyz
x,y,z
-x,-y,1/2+z
x,1/2-y,-z
-x,1/2+y,1/2-z
-x,-y,-z
x,y,1/2-z
-x,1/2+y,z
x,1/2-y,1/2+z
loop_
_atom_site_type_symbol
_atom_site_label
_atom_site_fract_x
_atom_site_fract_y
_atom_site_fract_z
Si Si1 0.341967 0.621360 0.376385
Si Si2 0.638019 0.895925 0.750000
Si Si3 0.394618 0.031684 0.750000
Si Si4 0.855742 0.539419 0.559556
Si Si5 0.440760 0.385097 0.544900
Si Si6 0.737187 0.033355 0.631587
Si Si7 0.923790 0.622633 0.075602
O O1 0.348881 0.538458 0.312085
O O2 0.263936 0.520432 0.420248
O O3 0.463202 0.650012 0.405917
O O4 0.288388 0.787533 0.367767
O O5 0.619104 0.714157 0.750000
O O6 0.522279 0.984638 0.750000
O O7 0.701252 0.950704 0.691719
O O8 0.876271 0.574733 0.489682
O O9 0.888134 0.703014 0.588774
O O10 0.945971 0.408891 0.575159
O O11 0.405722 0.250000 0.500000
O O12 0.500000 0.500000 0.500000
O O13 0.338507 0.457941 0.579574
O O14 0.863490 0.993590 0.619603
#
# Coordination Sequence:
#
# PCOD9439449 Si02
#       7
#     8   4   4   8   8   8   8
#     4  12  25  43  65  94 129 174 215 270 320 388
#     4  12  26  44  65  92 125 176 218 269 319 389
#     4  12  26  44  65  90 129 172 222 265 323 381
#     4  10  22  40  66  95 134 168 216 261 327 380
#     4  12  26  39  60  95 132 168 206 262 323 384
#     4  12  25  42  67  92 131 169 221 263 327 382
#     4  10  22  40  65  97 130 173 211 267 318 390
#
# _framework density 20.350498000000002
#
# number of rings (size 3 to 8) (size 9 to 14) (size 15 to 20)
#    0.000    0.667    3.333    4.500    7.000    1.333 
#    0.000    0.833    0.000    0.000    0.000    0.000 
#    0.000    0.000    0.000    0.000    0.000    0.000 
#
# Total GULP energy -268421.193409 kJ/mol
# GULP energy per Si atom -5592.108196 kJ/mol
# Density = 2.030418 g / cm^3
# Si number density = 20.350498 Si / 1000 Ang^3
#
#
#
# Elastic Constant Matrix: (Units=GPa)
#
#
# Indices 1 2 3 4 5 6 
#
# 1 69.8104 -9.3006 8.4492 0.0000 0.0000 0.0000
# 2 -9.3006 103.9608 17.9164 0.0000 0.0000 0.0000
# 3 8.4492 17.9164 83.5906 0.0000 0.0000 0.0000
# 4 0.0000 0.0000 0.0000 31.1800 0.0000 0.0000
# 5 0.0000 0.0000 0.0000 0.0000 21.3873 0.0000
# 6 0.0000 0.0000 0.0000 0.0000 0.0000 33.2182
#
#
#
# Elastic Compliance Matrix: (Units=1/GPa)
#
#
# Indices 1 2 3 4 5 6 
#
# 1 0.014766 0.001639 -0.001844 0.000000 0.000000 0.000000
# 2 0.001639 0.010170 -0.002345 0.000000 0.000000 0.000000
# 3 -0.001844 -0.002345 0.012652 0.000000 0.000000 0.000000
# 4 0.000000 0.000000 0.000000 0.032072 0.000000 0.000000
# 5 0.000000 0.000000 0.000000 0.000000 0.046757 0.000000
# 6 0.000000 0.000000 0.000000 0.000000 0.000000 0.030104
#
#
# Mechanical properties :
#
#
# Convention : Reuss Voigt Hill
#
# Bulk Modulus (GPa) = 30.78142 32.38799 31.58471
# Shear Modulus (GPa) = 30.77863 33.17688 31.97776
#
# Velocity S-wave (km/s) = 3.89321 4.04204 3.96833
# Velocity P-wave (km/s) = 5.94709 6.14278 6.04573
#
# Compressibility (1/GPa) = 0.03248713
#
# Stress axis : x y z
#
# Youngs Moduli (GPa) = 67.72315 98.33016 79.03805
#
# Poissons Ratio (x) = -0.16114 0.14573
# Poissons Ratio (y) = -0.11098 0.18538
# Poissons Ratio (z) = 0.12487 0.23062
#
# Static dielectric constant tensor:
#      x y z
#    x 1.715140 0.000000 0.000000 
#    y 0.000000 1.781090 0.000000 
#    z 0.000000 0.000000 1.799150 
# 
# From -- ./inp_files/27144.got.cif
#   From: 2010.05.17/outbox.cif.g08.bks.cpg/sg57_14_cif.got.tgz:27144.got - 2010.06.03 13:58:18.
