data_PCOD9439916
_publ_section_title
;
Structure prediction by ZEFSAII (Michael W. Deem and Ramdas Pophale) SiO2 
 PCOD9439916
Probable space group: P B C M
;
_chemical_formula_sum "Si O2"
_cell_formula_units_Z 32
_cell_length_a 15.798094
_cell_length_b 4.858600
_cell_length_c 15.633994
_cell_angle_alpha 90.000000
_cell_angle_beta 90.000000
_cell_angle_gamma 90.000000
_cell_volume 1200.012529
_symmetry_space_group_name_H-M "P B C M"
_symmetry_group_IT_number 57
_symmetry_cell_setting 'orthorhombic'
loop_
_space_group_symop_operation_xyz
x,y,z
-x,-y,1/2+z
x,1/2-y,-z
-x,1/2+y,1/2-z
-x,-y,-z
x,y,1/2-z
-x,1/2+y,z
x,1/2-y,1/2+z
loop_
_atom_site_type_symbol
_atom_site_label
_atom_site_fract_x
_atom_site_fract_y
_atom_site_fract_z
Si Si1 0.941639 0.107762 0.627579
Si Si2 0.147922 0.250000 0.000000
Si Si3 0.704940 0.066853 0.414896
Si Si4 0.218029 0.663023 0.750000
Si Si5 0.445531 0.205084 0.147686
O O1 0.911321 0.514569 0.462569
O O2 0.854612 0.083272 0.678693
O O3 0.020124 0.905132 0.647109
O O4 0.208937 0.104685 0.931673
O O5 0.692682 0.250000 0.500000
O O6 0.632489 0.840250 0.400301
O O7 0.717457 0.237105 0.327356
O O8 0.430050 0.225605 0.250000
O O9 0.472851 0.896106 0.127426
#
# Coordination Sequence:
#
# PCOD9439916 Si02
#       5
#     8   4   8   4   8
#     4  12  27  50  78 111 154 208 264 329 400 472
#     4  12  28  48  80 122 164 210 276 340 408 482
#     4  12  27  51  78 121 162 213 269 334 403 485
#     4  12  26  52  78 112 158 208 270 332 398 480
#     4  10  24  48  78 115 158 207 263 323 398 478
#
# _framework density 26.666388000000001
#
# number of rings (size 3 to 8) (size 9 to 14) (size 15 to 20)
#    0.000    0.500    3.750    3.000    3.500    4.000 
#    4.500    0.000    0.000    0.000    0.000    0.000 
#    0.000    0.000    0.000    0.000    0.000    0.000 
#
# Total GULP energy -178452.011602 kJ/mol
# GULP energy per Si atom -5576.625363 kJ/mol
# Density = 2.660569 g / cm^3
# Si number density = 26.666388 Si / 1000 Ang^3
#
#
#
# Elastic Constant Matrix: (Units=GPa)
#
#
# Indices 1 2 3 4 5 6 
#
# 1 107.2092 0.0467 43.9236 0.0000 0.0000 0.0000
# 2 0.0467 68.8644 29.5721 0.0000 0.0000 0.0000
# 3 43.9236 29.5721 146.3114 0.0000 0.0000 0.0000
# 4 0.0000 0.0000 0.0000 14.9016 0.0000 0.0000
# 5 0.0000 0.0000 0.0000 0.0000 49.1941 0.0000
# 6 0.0000 0.0000 0.0000 0.0000 0.0000 16.3728
#
#
#
# Elastic Compliance Matrix: (Units=1/GPa)
#
#
# Indices 1 2 3 4 5 6 
#
# 1 0.010778 0.001513 -0.003541 0.000000 0.000000 0.000000
# 2 0.001513 0.016114 -0.003711 0.000000 0.000000 0.000000
# 3 -0.003541 -0.003711 0.008648 0.000000 0.000000 0.000000
# 4 0.000000 0.000000 0.000000 0.067107 0.000000 0.000000
# 5 0.000000 0.000000 0.000000 0.000000 0.020328 0.000000
# 6 0.000000 0.000000 0.000000 0.000000 0.000000 0.061077
#
#
# Mechanical properties :
#
#
# Convention : Reuss Voigt Hill
#
# Bulk Modulus (GPa) = 41.56048 52.16331 46.86189
# Shear Modulus (GPa) = 24.56397 32.68320 28.62359
#
# Velocity S-wave (km/s) = 3.03835 3.50470 3.27983
# Velocity P-wave (km/s) = 5.28469 5.99843 5.65284
#
# Compressibility (1/GPa) = 0.02406132
#
# Stress axis : x y z
#
# Youngs Moduli (GPa) = 92.78292 62.05792 115.63327
#
# Poissons Ratio (x) = -0.09392 0.40951
# Poissons Ratio (y) = -0.14043 0.42915
# Poissons Ratio (z) = 0.32859 0.23031
#
# Static dielectric constant tensor:
#      x y z
#    x 2.039430 0.000000 0.000000 
#    y 0.000000 2.143490 0.000000 
#    z 0.000000 0.000000 2.268560 
# 
# From -- ./inp_files/22237.got.cif
#   From: 2010.05.17/outbox.cif.g08.bks.cpg/sg57_12_cif.got.tgz:22237.got - 2010.06.03 13:58:18.
