data_PCOD9439642
_publ_section_title
;
Structure prediction by ZEFSAII (Michael W. Deem and Ramdas Pophale) SiO2 
 PCOD9439642
Probable space group: P B C M
;
_chemical_formula_sum "Si O2"
_cell_formula_units_Z 48
_cell_length_a 11.010372
_cell_length_b 10.381246
_cell_length_c 20.769195
_cell_angle_alpha 90.000000
_cell_angle_beta 90.000000
_cell_angle_gamma 90.000000
_cell_volume 2373.947656
_symmetry_space_group_name_H-M "P B C M"
_symmetry_group_IT_number 57
_symmetry_cell_setting 'orthorhombic'
loop_
_space_group_symop_operation_xyz
x,y,z
-x,-y,1/2+z
x,1/2-y,-z
-x,1/2+y,1/2-z
-x,-y,-z
x,y,1/2-z
-x,1/2+y,z
x,1/2-y,1/2+z
loop_
_atom_site_type_symbol
_atom_site_label
_atom_site_fract_x
_atom_site_fract_y
_atom_site_fract_z
Si Si1 0.726861 0.742471 0.174106
Si Si2 0.251149 0.963895 0.370098
Si Si3 0.110683 0.601250 0.500279
Si Si4 0.240842 0.524310 0.129961
Si Si5 0.882298 0.131243 0.750000
Si Si6 0.927052 0.406166 0.750000
Si Si7 0.490037 0.069797 0.326184
O O1 0.751757 0.761110 0.250000
O O2 0.788038 0.611756 0.147527
O O3 0.758487 0.868815 0.134840
O O4 0.583645 0.704678 0.169663
O O5 0.194139 0.922575 0.437006
O O6 0.200738 0.875312 0.313084
O O7 0.396813 0.974155 0.363025
O O8 0.068494 0.750000 0.500000
O O9 0.190100 0.574482 0.436979
O O10 0.000000 0.500000 0.500000
O O11 0.154530 0.570371 0.187400
O O12 0.377422 0.569676 0.144587
O O13 0.963801 0.257621 0.750000
O O14 0.965547 0.006640 0.750000
O O15 0.495511 0.035846 0.250000
#
# Coordination Sequence:
#
# PCOD9439642 Si02
#       7
#     8   8   8   8   4   4   8
#     4   9  19  39  72 105 137 180 220 291 346 423
#     4  10  22  45  71  99 137 186 224 284 358 410
#     4  12  30  50  71  99 142 192 241 294 344 419
#     4  12  24  43  69 107 140 180 239 289 348 420
#     4  12  24  43  68  96 133 182 236 293 347 408
#     4  12  28  37  68  98 131 182 236 299 343 406
#     4   9  19  41  70 110 140 181 215 292 351 424
#
# _framework density 20.219484999999999
#
# number of rings (size 3 to 8) (size 9 to 14) (size 15 to 20)
#    1.000    0.333    3.333    2.000    4.667    3.333 
#    0.000    0.000    0.000    0.000    0.000    0.000 
#    0.000    0.000    0.000    0.000    0.000    0.000 
#
# Total GULP energy -268083.816585 kJ/mol
# GULP energy per Si atom -5585.079512 kJ/mol
# Density = 2.017346 g / cm^3
# Si number density = 20.219485 Si / 1000 Ang^3
#
#
#
# Elastic Constant Matrix: (Units=GPa)
#
#
# Indices 1 2 3 4 5 6 
#
# 1 90.1555 3.8740 46.1500 0.0000 0.0000 0.0000
# 2 3.8740 109.0854 10.7009 0.0000 0.0000 0.0000
# 3 46.1500 10.7009 145.2363 0.0000 0.0000 0.0000
# 4 0.0000 0.0000 0.0000 51.2045 0.0000 0.0000
# 5 0.0000 0.0000 0.0000 0.0000 49.1368 0.0000
# 6 0.0000 0.0000 0.0000 0.0000 0.0000 31.2146
#
#
#
# Elastic Compliance Matrix: (Units=1/GPa)
#
#
# Indices 1 2 3 4 5 6 
#
# 1 0.013247 -0.000058 -0.004205 0.000000 0.000000 0.000000
# 2 -0.000058 0.009234 -0.000662 0.000000 0.000000 0.000000
# 3 -0.004205 -0.000662 0.008270 0.000000 0.000000 0.000000
# 4 0.000000 0.000000 0.000000 0.019530 0.000000 0.000000
# 5 0.000000 0.000000 0.000000 0.000000 0.020351 0.000000
# 6 0.000000 0.000000 0.000000 0.000000 0.000000 0.032036
#
#
# Mechanical properties :
#
#
# Convention : Reuss Voigt Hill
#
# Bulk Modulus (GPa) = 47.84348 51.76965 49.80656
# Shear Modulus (GPa) = 41.84602 45.22800 43.53701
#
# Velocity S-wave (km/s) = 4.55421 4.73467 4.64531
# Velocity P-wave (km/s) = 7.16714 7.45311 7.31152
#
# Compressibility (1/GPa) = 0.02090149
#
# Stress axis : x y z
#
# Youngs Moduli (GPa) = 75.48888 108.29395 120.91468
#
# Poissons Ratio (x) = 0.00627 0.50845
# Poissons Ratio (y) = 0.00437 0.08004
# Poissons Ratio (z) = 0.31744 0.07169
#
# Static dielectric constant tensor:
#      x y z
#    x 1.716180 0.000000 0.000000 
#    y 0.000000 1.760230 0.000000 
#    z 0.000000 0.000000 1.660530 
# 
# From -- ./inp_files/21862.got.cif
#   From: 2010.05.17/outbox.cif.g08.bks.cpg/sg57_11_cif.got.tgz:21862.got - 2010.06.03 13:58:18.
