data_PCOD9439227
_publ_section_title
;
Structure prediction by ZEFSAII (Michael W. Deem and Ramdas Pophale) SiO2 
 PCOD9439227
Probable space group: P B C M
;
_chemical_formula_sum "Si O2"
_cell_formula_units_Z 44
_cell_length_a 5.228038
_cell_length_b 13.760451
_cell_length_c 24.471338
_cell_angle_alpha 90.000000
_cell_angle_beta 90.000000
_cell_angle_gamma 90.000000
_cell_volume 1760.471989
_symmetry_space_group_name_H-M "P B C M"
_symmetry_group_IT_number 57
_symmetry_cell_setting 'orthorhombic'
loop_
_space_group_symop_operation_xyz
x,y,z
-x,-y,1/2+z
x,1/2-y,-z
-x,1/2+y,1/2-z
-x,-y,-z
x,y,1/2-z
-x,1/2+y,z
x,1/2-y,1/2+z
loop_
_atom_site_type_symbol
_atom_site_label
_atom_site_fract_x
_atom_site_fract_y
_atom_site_fract_z
Si Si1 0.136678 0.138995 0.664516
Si Si2 0.798856 0.263639 0.250000
Si Si3 0.818913 0.387552 0.069019
Si Si4 0.464632 0.215951 0.103171
Si Si5 0.511151 0.981746 0.850549
Si Si6 0.285837 0.372889 0.750000
Si Si7 0.096258 0.250000 0.500000
O O1 0.887143 0.167267 0.699124
O O2 0.293504 0.236043 0.650938
O O3 0.328633 0.055117 0.682848
O O4 0.067585 0.096461 0.605261
O O5 0.018072 0.182123 0.250000
O O6 0.530362 0.204950 0.250000
O O7 0.687428 0.289329 0.089293
O O8 0.634086 0.468526 0.094877
O O9 0.925681 0.347567 0.011648
O O10 0.279366 0.218146 0.050251
O O11 0.593402 0.117809 0.123895
O O12 0.700263 0.940773 0.803919
#
# Coordination Sequence:
#
# PCOD9439227 Si02
#       7
#     8   4   8   8   8   4   4
#     4  10  23  40  65  98 137 189 231 294 361 422
#     4  12  25  45  70 103 142 198 232 294 351 432
#     4  10  23  42  68  95 140 179 238 302 364 438
#     4  10  21  43  65  96 138 180 238 292 371 430
#     4  11  24  42  69 105 140 187 240 301 353 441
#     4  12  27  43  74 105 148 192 240 282 365 424
#     4  10  22  42  68  98 132 192 230 304 372 442
#
# _framework density 24.993300000000001
#
# number of rings (size 3 to 8) (size 9 to 14) (size 15 to 20)
#    0.000    1.455    1.818    2.182    5.091    4.364 
#    0.000   12.727    0.000    0.000    0.000    0.000 
#    0.000    0.000    0.000    0.000    0.000    0.000 
#
# Total GULP energy -245121.402338 kJ/mol
# GULP energy per Si atom -5570.940962 kJ/mol
# Density = 2.493641 g / cm^3
# Si number density = 24.993300 Si / 1000 Ang^3
#
#
#
# Elastic Constant Matrix: (Units=GPa)
#
#
# Indices 1 2 3 4 5 6 
#
# 1 81.3351 10.6042 17.1815 0.0000 0.0000 0.0000
# 2 10.6042 104.2710 13.1860 0.0000 0.0000 0.0000
# 3 17.1815 13.1860 79.7677 0.0000 0.0000 0.0000
# 4 0.0000 0.0000 0.0000 20.2171 0.0000 0.0000
# 5 0.0000 0.0000 0.0000 0.0000 42.1166 0.0000
# 6 0.0000 0.0000 0.0000 0.0000 0.0000 19.5631
#
#
#
# Elastic Compliance Matrix: (Units=1/GPa)
#
#
# Indices 1 2 3 4 5 6 
#
# 1 0.012980 -0.000987 -0.002633 0.000000 0.000000 0.000000
# 2 -0.000987 0.009870 -0.001419 0.000000 0.000000 0.000000
# 3 -0.002633 -0.001419 0.013338 0.000000 0.000000 0.000000
# 4 0.000000 0.000000 0.000000 0.049463 0.000000 0.000000
# 5 0.000000 0.000000 0.000000 0.000000 0.023744 0.000000
# 6 0.000000 0.000000 0.000000 0.000000 0.000000 0.051117
#
#
# Mechanical properties :
#
#
# Convention : Reuss Voigt Hill
#
# Bulk Modulus (GPa) = 38.29868 38.59080 38.44474
# Shear Modulus (GPa) = 27.88747 31.33950 29.61348
#
# Velocity S-wave (km/s) = 3.34398 3.54491 3.44591
# Velocity P-wave (km/s) = 5.50149 5.67707 5.58997
#
# Compressibility (1/GPa) = 0.02611056
#
# Stress axis : x y z
#
# Youngs Moduli (GPa) = 77.04379 101.31478 74.97367
#
# Poissons Ratio (x) = 0.10001 0.19737
# Poissons Ratio (y) = 0.07605 0.10639
# Poissons Ratio (z) = 0.20282 0.14376
#
# Static dielectric constant tensor:
#      x y z
#    x 2.018220 0.000000 0.000000 
#    y 0.000000 2.038980 0.000000 
#    z 0.000000 0.000000 2.116160 
# 
# From -- ./inp_files/27923.got.cif
#   From: 2010.05.17/outbox.cif.g08.bks.cpg/sg57_14_cif.got.tgz:27923.got - 2010.06.03 13:58:18.
