data_PCOD9439098
_publ_section_title
;
Structure prediction by ZEFSAII (Michael W. Deem and Ramdas Pophale) SiO2 
 PCOD9439098
Probable space group: P B C M
;
_chemical_formula_sum "Si O2"
_cell_formula_units_Z 48
_cell_length_a 10.410886
_cell_length_b 10.416288
_cell_length_c 21.044775
_cell_angle_alpha 90.000000
_cell_angle_beta 90.000000
_cell_angle_gamma 90.000000
_cell_volume 2282.154051
_symmetry_space_group_name_H-M "P B C M"
_symmetry_group_IT_number 57
_symmetry_cell_setting 'orthorhombic'
loop_
_space_group_symop_operation_xyz
x,y,z
-x,-y,1/2+z
x,1/2-y,-z
-x,1/2+y,1/2-z
-x,-y,-z
x,y,1/2-z
-x,1/2+y,z
x,1/2-y,1/2+z
loop_
_atom_site_type_symbol
_atom_site_label
_atom_site_fract_x
_atom_site_fract_y
_atom_site_fract_z
Si Si1 0.493712 0.231928 0.075722
Si Si2 0.740524 0.577917 0.418096
Si Si3 0.065420 0.783680 0.322013
Si Si4 0.724968 0.108740 0.468466
Si Si5 0.979008 0.465503 0.893153
Si Si6 0.347541 0.878794 0.323479
O O1 0.604022 0.120809 0.079445
O O2 0.544026 0.331479 0.127818
O O3 0.344330 0.203871 0.084118
O O4 0.504031 0.250000 0.000000
O O5 0.688571 0.485782 0.474055
O O6 0.891770 0.579312 0.429257
O O7 0.708256 0.511336 0.350908
O O8 0.033755 0.820026 0.250000
O O9 0.220034 0.790793 0.329255
O O10 0.026261 0.638733 0.336715
O O11 0.003511 0.889732 0.368918
O O12 0.756487 0.250000 0.500000
O O13 0.851167 0.056131 0.433719
O O14 0.387010 0.884219 0.250000
#
# Coordination Sequence:
#
# PCOD9439098 Si02
#       6
#     8   8   8   8   8   8
#     4  11  22  39  64  87 122 164 212 254 317 384
#     4  11  23  38  61  93 124 162 203 271 319 373
#     4  10  21  40  64  90 125 172 214 258 321 385
#     4  11  20  39  63  90 124 166 209 253 320 389
#     4  11  22  39  64  96 128 163 213 268 316 375
#     4  10  21  41  63  85 121 171 213 255 321 391
#
# _framework density 21.032761000000001
#
# number of rings (size 3 to 8) (size 9 to 14) (size 15 to 20)
#    0.000    1.333    5.000    2.500    0.000    3.333 
#    0.000    0.000    0.000    0.000    0.000    0.000 
#    0.000    0.000    0.000    0.000    0.000    0.000 
#
# Total GULP energy -267481.283532 kJ/mol
# GULP energy per Si atom -5572.526740 kJ/mol
# Density = 2.098489 g / cm^3
# Si number density = 21.032761 Si / 1000 Ang^3
#
#
#
# Elastic Constant Matrix: (Units=GPa)
#
#
# Indices 1 2 3 4 5 6 
#
# 1 47.3670 -3.7922 9.6251 0.0000 0.0000 0.0000
# 2 -3.7922 31.9576 7.9280 0.0000 0.0000 0.0000
# 3 9.6251 7.9280 72.2377 0.0000 0.0000 0.0000
# 4 0.0000 0.0000 0.0000 19.7319 0.0000 0.0000
# 5 0.0000 0.0000 0.0000 0.0000 6.1054 0.0000
# 6 0.0000 0.0000 0.0000 0.0000 0.0000 25.1113
#
#
#
# Elastic Compliance Matrix: (Units=1/GPa)
#
#
# Indices 1 2 3 4 5 6 
#
# 1 0.022061 0.003441 -0.003317 0.000000 0.000000 0.000000
# 2 0.003441 0.032704 -0.004048 0.000000 0.000000 0.000000
# 3 -0.003317 -0.004048 0.014729 0.000000 0.000000 0.000000
# 4 0.000000 0.000000 0.000000 0.050679 0.000000 0.000000
# 5 0.000000 0.000000 0.000000 0.000000 0.163789 0.000000
# 6 0.000000 0.000000 0.000000 0.000000 0.000000 0.039823
#
#
# Mechanical properties :
#
#
# Convention : Reuss Voigt Hill
#
# Bulk Modulus (GPa) = 16.22152 19.89823 18.05987
# Shear Modulus (GPa) = 14.19720 19.37649 16.78685
#
# Velocity S-wave (km/s) = 2.60090 3.03851 2.82818
# Velocity P-wave (km/s) = 4.09253 4.66810 4.38976
#
# Compressibility (1/GPa) = 0.06164649
#
# Stress axis : x y z
#
# Youngs Moduli (GPa) = 45.32839 30.57741 67.89145
#
# Poissons Ratio (x) = -0.10521 0.22520
# Poissons Ratio (y) = -0.15596 0.27480
# Poissons Ratio (z) = 0.15036 0.12377
#
# Static dielectric constant tensor:
#      x y z
#    x 1.841810 0.000000 0.000000 
#    y 0.000000 1.835900 0.000000 
#    z 0.000000 0.000000 1.777720 
# 
# From -- ./inp_files/24965.got.cif
#   From: 2010.05.17/outbox.cif.g08.bks.cpg/sg57_13_cif.got.tgz:24965.got - 2010.06.03 13:58:18.
