data_PCOD9439057
_publ_section_title
;
Structure prediction by ZEFSAII (Michael W. Deem and Ramdas Pophale) SiO2 
 PCOD9439057
Probable space group: P B C M
;
_chemical_formula_sum "Si O2"
_cell_formula_units_Z 40
_cell_length_a 5.407035
_cell_length_b 10.428699
_cell_length_c 30.833473
_cell_angle_alpha 90.000000
_cell_angle_beta 90.000000
_cell_angle_gamma 90.000000
_cell_volume 1738.648374
_symmetry_space_group_name_H-M "P B C M"
_symmetry_group_IT_number 57
_symmetry_cell_setting 'orthorhombic'
loop_
_space_group_symop_operation_xyz
x,y,z
-x,-y,1/2+z
x,1/2-y,-z
-x,1/2+y,1/2-z
-x,-y,-z
x,y,1/2-z
-x,1/2+y,z
x,1/2-y,1/2+z
loop_
_atom_site_type_symbol
_atom_site_label
_atom_site_fract_x
_atom_site_fract_y
_atom_site_fract_z
Si Si1 0.492551 0.126722 0.969740
Si Si2 0.008671 0.537792 0.949103
Si Si3 0.720625 0.505039 0.298587
Si Si4 0.987223 0.852253 0.870800
Si Si5 0.497626 0.753052 0.834888
O O1 0.747051 0.122694 0.943523
O O2 0.246990 0.110733 0.941924
O O3 0.479748 0.250000 0.000000
O O4 0.500000 0.000000 0.000000
O O5 0.027162 0.416712 0.917833
O O6 0.000000 0.500000 0.000000
O O7 0.818297 0.487405 0.250000
O O8 0.929031 0.536652 0.334705
O O9 0.566305 0.381560 0.313328
O O10 0.548864 0.631658 0.300999
O O11 0.755259 0.758326 0.861460
O O12 0.255766 0.794964 0.861809
#
# Coordination Sequence:
#
# PCOD9439057 Si02
#       5
#     8   8   8   8   8
#     4  10  21  40  61  93 121 169 217 265 318 386
#     4  10  21  43  64  95 131 178 217 273 330 398
#     4  10  24  45  71  99 136 179 226 282 347 413
#     4  10  24  44  66 103 135 177 227 285 338 405
#     4  10  24  44  66 102 134 178 221 285 338 411
#
# _framework density 23.006374000000001
#
# number of rings (size 3 to 8) (size 9 to 14) (size 15 to 20)
#    1.200    0.800    0.000    2.400    2.800    1.600 
#   21.600    0.000    0.000    0.000    0.000    0.000 
#    0.000    0.000    0.000    0.000    0.000    0.000 
#
# Total GULP energy -223391.947257 kJ/mol
# GULP energy per Si atom -5584.798681 kJ/mol
# Density = 2.295401 g / cm^3
# Si number density = 23.006374 Si / 1000 Ang^3
#
#
#
# Elastic Constant Matrix: (Units=GPa)
#
#
# Indices 1 2 3 4 5 6 
#
# 1 147.8653 -20.2785 -8.2726 0.0000 0.0000 0.0000
# 2 -20.2785 87.2855 9.6975 0.0000 0.0000 0.0000
# 3 -8.2726 9.6975 119.4984 0.0000 0.0000 0.0000
# 4 0.0000 0.0000 0.0000 -101.4133 0.0000 0.0000
# 5 0.0000 0.0000 0.0000 0.0000 17.5899 0.0000
# 6 0.0000 0.0000 0.0000 0.0000 0.0000-5568.5639
#
#
#
# Elastic Compliance Matrix: (Units=1/GPa)
#
#
# Indices 1 2 3 4 5 6 
#
# 1 0.007000 0.001587 0.000356 0.000000 0.000000 0.000000
# 2 0.001587 0.011921 -0.000858 0.000000 0.000000 0.000000
# 3 0.000356 -0.000858 0.008463 0.000000 0.000000 0.000000
# 4 0.000000 0.000000 0.000000 -0.009861 0.000000 0.000000
# 5 0.000000 0.000000 0.000000 0.000000 0.056851 0.000000
# 6 0.000000 0.000000 0.000000 0.000000 0.000000 -0.000180
#
#
# Mechanical properties :
#
#
# Convention : Reuss Voigt Hill
#
# Bulk Modulus (GPa) = 33.83650 35.21578 34.52614
# Shear Modulus (GPa) = 61.06851 -1105.57728 -522.25439
#
# Velocity S-wave (km/s) = 5.15769 -21.94529 -15.08300
# Velocity P-wave (km/s) = 7.08579 25.03573 16.97909
#
# Compressibility (1/GPa) = 0.02955389
#
# Stress axis : x y z
#
# Youngs Moduli (GPa) = 142.84815 83.88847 118.16787
#
# Poissons Ratio (x) = -0.13312 -0.04205
# Poissons Ratio (y) = -0.22668 0.10133
# Poissons Ratio (z) = -0.05083 0.07194
#
# Static dielectric constant tensor:
#      x y z
#    x 1.875490 0.000000 0.000000 
#    y 0.000000 1.830030 0.000000 
#    z 0.000000 0.000000 1.846560 
# 
# From -- ./inp_files/29063.got.cif
#   From: 2010.05.17/outbox.cif.g08.bks.cpg/sg57_15_cif.got.tgz:29063.got - 2010.06.03 13:58:18.
