data_PCOD9439930
_publ_section_title
;
Structure prediction by ZEFSAII (Michael W. Deem and Ramdas Pophale) SiO2 
 PCOD9439930
Probable space group: P B C M
;
_chemical_formula_sum "Si O2"
_cell_formula_units_Z 48
_cell_length_a 14.542065
_cell_length_b 9.463937
_cell_length_c 16.376013
_cell_angle_alpha 90.000000
_cell_angle_beta 90.000000
_cell_angle_gamma 90.000000
_cell_volume 2253.751852
_symmetry_space_group_name_H-M "P B C M"
_symmetry_group_IT_number 57
_symmetry_cell_setting 'orthorhombic'
loop_
_space_group_symop_operation_xyz
x,y,z
-x,-y,1/2+z
x,1/2-y,-z
-x,1/2+y,1/2-z
-x,-y,-z
x,y,1/2-z
-x,1/2+y,z
x,1/2-y,1/2+z
loop_
_atom_site_type_symbol
_atom_site_label
_atom_site_fract_x
_atom_site_fract_y
_atom_site_fract_z
Si Si1 0.454183 0.620712 0.056466
Si Si2 0.133360 0.823320 0.653104
Si Si3 0.710003 0.519921 0.844630
Si Si4 0.953969 0.622765 0.445382
Si Si5 0.648117 0.693113 0.092894
Si Si6 0.788928 0.019290 0.652300
O O1 0.371495 0.553967 0.106022
O O2 0.539826 0.676908 0.110555
O O3 0.423079 0.750000 0.000000
O O4 0.500000 0.500000 0.000000
O O5 0.114849 0.831218 0.750000
O O6 0.191848 0.960174 0.626562
O O7 0.195596 0.685489 0.637873
O O8 0.038148 0.813070 0.606285
O O9 0.702487 0.479787 0.750000
O O10 0.697457 0.686667 0.854438
O O11 0.914544 0.750000 0.500000
O O12 0.876901 0.558548 0.386623
O O13 0.000000 0.500000 0.500000
O O14 0.700286 0.547044 0.108484
O O15 0.654413 0.750000 0.000000
O O16 0.783402 0.997164 0.750000
#
# Coordination Sequence:
#
# PCOD9439930 Si02
#       6
#     8   8   8   8   8   8
#     4  11  23  44  65  94 129 173 217 265 324 381
#     4  10  25  45  64  92 130 170 211 263 324 381
#     4  11  25  43  67  98 131 171 217 268 326 384
#     4  12  25  43  66  97 126 165 217 264 320 383
#     4  11  24  42  67  97 132 170 219 264 321 383
#     4  11  25  44  65  94 131 172 214 265 323 382
#
# _framework density 21.297820000000002
#
# number of rings (size 3 to 8) (size 9 to 14) (size 15 to 20)
#    0.000    1.000    5.000    1.500    7.000    2.000 
#    0.000    0.000    0.000    0.000    0.000    0.000 
#    0.000    0.000    0.000    0.000    0.000    0.000 
#
# Total GULP energy -268589.706300 kJ/mol
# GULP energy per Si atom -5595.618881 kJ/mol
# Density = 2.124934 g / cm^3
# Si number density = 21.297820 Si / 1000 Ang^3
#
#
#
# Elastic Constant Matrix: (Units=GPa)
#
#
# Indices 1 2 3 4 5 6 
#
# 1 46.7784 -17.5440 4.3505 0.0000 0.0000 0.0000
# 2 -17.5440 66.6370 -0.2910 0.0000 0.0000 0.0000
# 3 4.3505 -0.2910 39.5634 0.0000 0.0000 0.0000
# 4 0.0000 0.0000 0.0000 36.0989 0.0000 0.0000
# 5 0.0000 0.0000 0.0000 0.0000 26.8168 0.0000
# 6 0.0000 0.0000 0.0000 0.0000 0.0000 41.3128
#
#
#
# Elastic Compliance Matrix: (Units=1/GPa)
#
#
# Indices 1 2 3 4 5 6 
#
# 1 0.023982 0.006303 -0.002591 0.000000 0.000000 0.000000
# 2 0.006303 0.016664 -0.000570 0.000000 0.000000 0.000000
# 3 -0.002591 -0.000570 0.025557 0.000000 0.000000 0.000000
# 4 0.000000 0.000000 0.000000 0.027702 0.000000 0.000000
# 5 0.000000 0.000000 0.000000 0.000000 0.037290 0.000000
# 6 0.000000 0.000000 0.000000 0.000000 0.000000 0.024206
#
#
# Mechanical properties :
#
#
# Convention : Reuss Voigt Hill
#
# Bulk Modulus (GPa) = 13.79597 14.00108 13.89852
# Shear Modulus (GPa) = 28.85531 31.94327 30.39929
#
# Velocity S-wave (km/s) = 3.68482 3.87698 3.78212
# Velocity P-wave (km/s) = 4.95939 5.16038 5.06088
#
# Compressibility (1/GPa) = 0.07248496
#
# Stress axis : x y z
#
# Youngs Moduli (GPa) = 41.69778 60.01135 39.12886
#
# Poissons Ratio (x) = -0.37823 0.10137
# Poissons Ratio (y) = -0.26281 0.02232
# Poissons Ratio (z) = 0.10803 0.03424
#
# Static dielectric constant tensor:
#      x y z
#    x 1.735550 0.000000 0.000000 
#    y 0.000000 1.787830 0.000000 
#    z 0.000000 0.000000 1.759710 
# 
# From -- ./inp_files/22491.got.cif
#   From: 2010.05.17/outbox.cif.g08.bks.cpg/sg57_12_cif.got.tgz:22491.got - 2010.06.03 13:58:18.
