data_PCOD9439271
_publ_section_title
;
Structure prediction by ZEFSAII (Michael W. Deem and Ramdas Pophale) SiO2 
 PCOD9439271
Probable space group: P B C M
;
_chemical_formula_sum "Si O2"
_cell_formula_units_Z 48
_cell_length_a 19.289844
_cell_length_b 7.645519
_cell_length_c 14.515381
_cell_angle_alpha 90.000000
_cell_angle_beta 90.000000
_cell_angle_gamma 90.000000
_cell_volume 2140.741001
_symmetry_space_group_name_H-M "P B C M"
_symmetry_group_IT_number 57
_symmetry_cell_setting 'orthorhombic'
loop_
_space_group_symop_operation_xyz
x,y,z
-x,-y,1/2+z
x,1/2-y,-z
-x,1/2+y,1/2-z
-x,-y,-z
x,y,1/2-z
-x,1/2+y,z
x,1/2-y,1/2+z
loop_
_atom_site_type_symbol
_atom_site_label
_atom_site_fract_x
_atom_site_fract_y
_atom_site_fract_z
Si Si1 0.433896 0.362526 0.637473
Si Si2 0.412145 0.527578 0.362670
Si Si3 0.323446 0.844356 0.136785
Si Si4 0.910358 0.717034 0.854964
Si Si5 0.173989 0.957004 0.142006
Si Si6 0.940352 0.328409 0.599423
O O1 0.434966 0.362554 0.750000
O O2 0.512945 0.397088 0.608702
O O3 0.381921 0.515537 0.609915
O O4 0.408317 0.172483 0.607292
O O5 0.412118 0.527995 0.250000
O O6 0.350624 0.654504 0.392625
O O7 0.321303 0.842446 0.250000
O O8 0.247783 0.899101 0.102568
O O9 0.889233 0.675012 0.750000
O O10 0.859344 0.863789 0.895638
O O11 0.917643 0.529585 0.902892
O O12 0.986102 0.807563 0.850823
O O13 0.184808 0.993396 0.250000
O O14 0.119707 0.797641 0.136808
O O15 0.954972 0.250000 0.500000
#
# Coordination Sequence:
#
# PCOD9439271 Si02
#       6
#     8   8   8   8   8   8
#     4   9  14  21  36  59  87 129 175 215 267 329
#     4   9  14  21  37  59  90 131 175 218 265 327
#     4   9  17  28  41  64  99 137 180 226 273 331
#     4  11  22  38  62  86 114 152 190 231 282 345
#     4  10  22  37  54  79 114 153 192 237 287 341
#     4  12  24  38  61  88 114 146 193 241 285 338
#
# _framework density 22.422141
#
# number of rings (size 3 to 8) (size 9 to 14) (size 15 to 20)
#    0.000    2.000    3.333    2.000    0.000    1.333 
#    0.000    5.000    0.000    0.000    0.000    0.000 
#    0.000    1.333    0.000    0.167    0.000    0.000 
#
# Total GULP energy -268325.514233 kJ/mol
# GULP energy per Si atom -5590.114880 kJ/mol
# Density = 2.237111 g / cm^3
# Si number density = 22.422141 Si / 1000 Ang^3
#
#
#
# Elastic Constant Matrix: (Units=GPa)
#
#
# Indices 1 2 3 4 5 6 
#
# 1 90.1378 50.3504 8.7859 0.0000 0.0000 0.0000
# 2 50.3504 169.7375 14.4750 0.0000 0.0000 0.0000
# 3 8.7859 14.4750 51.6391 0.0000 0.0000 0.0000
# 4 0.0000 0.0000 0.0000 3.1610 0.0000 0.0000
# 5 0.0000 0.0000 0.0000 0.0000 -30.8929 0.0000
# 6 0.0000 0.0000 0.0000 0.0000 0.0000 24.4579
#
#
#
# Elastic Compliance Matrix: (Units=1/GPa)
#
#
# Indices 1 2 3 4 5 6 
#
# 1 0.013369 -0.003864 -0.001191 0.000000 0.000000 0.000000
# 2 -0.003864 0.007153 -0.001348 0.000000 0.000000 0.000000
# 3 -0.001191 -0.001348 0.019946 0.000000 0.000000 0.000000
# 4 0.000000 0.000000 0.000000 0.316353 0.000000 0.000000
# 5 0.000000 0.000000 0.000000 0.000000 -0.032370 0.000000
# 6 0.000000 0.000000 0.000000 0.000000 0.000000 0.040887
#
#
# Mechanical properties :
#
#
# Convention : Reuss Voigt Hill
#
# Bulk Modulus (GPa) = 36.15211 50.97078 43.56144
# Shear Modulus (GPa) = 12.90778 15.20540 14.05659
#
# Velocity S-wave (km/s) = 2.40192 2.60694 2.50653
# Velocity P-wave (km/s) = 4.88372 5.64298 5.27702
#
# Compressibility (1/GPa) = 0.02766090
#
# Stress axis : x y z
#
# Youngs Moduli (GPa) = 74.80163 139.80963 50.13641
#
# Poissons Ratio (x) = 0.54023 0.05973
# Poissons Ratio (y) = 0.28904 0.06756
# Poissons Ratio (z) = 0.08912 0.18840
#
# Static dielectric constant tensor:
#      x y z
#    x 1.801410 0.000000 0.000000 
#    y 0.000000 1.789870 0.000000 
#    z 0.000000 0.000000 1.913580 
# 
# From -- ./inp_files/18965.got.cif
#   From: 2010.05.17/outbox.cif.g08.bks.cpg/sg57_10_cif.got.tgz:18965.got - 2010.06.03 13:58:18.
