data_PCOD9439097
_publ_section_title
;
Structure prediction by ZEFSAII (Michael W. Deem and Ramdas Pophale) SiO2 
 PCOD9439097
Probable space group: P B C M
;
_chemical_formula_sum "Si O2"
_cell_formula_units_Z 40
_cell_length_a 13.032984
_cell_length_b 9.290084
_cell_length_c 12.992172
_cell_angle_alpha 90.000000
_cell_angle_beta 90.000000
_cell_angle_gamma 90.000000
_cell_volume 1573.059915
_symmetry_space_group_name_H-M "P B C M"
_symmetry_group_IT_number 57
_symmetry_cell_setting 'orthorhombic'
loop_
_space_group_symop_operation_xyz
x,y,z
-x,-y,1/2+z
x,1/2-y,-z
-x,1/2+y,1/2-z
-x,-y,-z
x,y,1/2-z
-x,1/2+y,z
x,1/2-y,1/2+z
loop_
_atom_site_type_symbol
_atom_site_label
_atom_site_fract_x
_atom_site_fract_y
_atom_site_fract_z
Si Si1 0.743640 0.089060 0.014952
Si Si2 0.381712 0.450099 0.630029
Si Si3 0.943240 0.040370 0.365222
Si Si4 0.862450 0.723632 0.376613
Si Si5 0.582568 0.617497 0.872689
O O1 0.856003 0.099966 0.060015
O O2 0.670701 0.989316 0.086405
O O3 0.703186 0.250000 0.000000
O O4 0.728095 0.004003 0.908433
O O5 0.385393 0.458009 0.750000
O O6 0.401977 0.285104 0.601590
O O7 0.471848 0.556994 0.594558
O O8 0.916424 0.090403 0.250000
O O9 0.056751 0.095036 0.386528
O O10 0.929194 0.869538 0.368217
O O11 0.818135 0.750000 0.500000
O O12 0.818134 0.718077 0.250000
O O13 0.587018 0.609351 0.750000
#
# Coordination Sequence:
#
# PCOD9439097 Si02
#       5
#     8   8   8   8   8
#     4  12  24  38  59  91 130 170 211 265 327 397
#     4  10  22  40  63  91 125 171 220 269 326 391
#     4  10  23  43  67  94 125 165 216 274 337 402
#     4  10  21  41  67  94 126 166 215 271 336 410
#     4  10  21  40  64  90 125 168 219 273 325 384
#
# _framework density 25.428148
#
# number of rings (size 3 to 8) (size 9 to 14) (size 15 to 20)
#    0.000    1.600    0.000    4.200    0.000    4.800 
#    0.000    4.000    0.000    0.000    0.000    0.000 
#    0.000    0.000    0.000    0.000    0.000    0.000 
#
# Total GULP energy -223182.162307 kJ/mol
# GULP energy per Si atom -5579.554058 kJ/mol
# Density = 2.537027 g / cm^3
# Si number density = 25.428148 Si / 1000 Ang^3
#
#
#
# Elastic Constant Matrix: (Units=GPa)
#
#
# Indices 1 2 3 4 5 6 
#
# 1 135.7177 57.4745 39.9224 0.0000 0.0000 0.0000
# 2 57.4745 129.2996 46.2991 0.0000 0.0000 0.0000
# 3 39.9224 46.2991 177.4622 0.0000 0.0000 0.0000
# 4 0.0000 0.0000 0.0000 32.1563 0.0000 0.0000
# 5 0.0000 0.0000 0.0000 0.0000 39.1717 0.0000
# 6 0.0000 0.0000 0.0000 0.0000 0.0000 11.2989
#
#
#
# Elastic Compliance Matrix: (Units=1/GPa)
#
#
# Indices 1 2 3 4 5 6 
#
# 1 0.009273 -0.003723 -0.001115 0.000000 0.000000 0.000000
# 2 -0.003723 0.010025 -0.001778 0.000000 0.000000 0.000000
# 3 -0.001115 -0.001778 0.006350 0.000000 0.000000 0.000000
# 4 0.000000 0.000000 0.000000 0.031098 0.000000 0.000000
# 5 0.000000 0.000000 0.000000 0.000000 0.025529 0.000000
# 6 0.000000 0.000000 0.000000 0.000000 0.000000 0.088504
#
#
# Mechanical properties :
#
#
# Convention : Reuss Voigt Hill
#
# Bulk Modulus (GPa) = 80.53661 81.09684 80.81673
# Shear Modulus (GPa) = 26.57470 36.44426 31.50948
#
# Velocity S-wave (km/s) = 3.23629 3.78990 3.52399
# Velocity P-wave (km/s) = 6.76060 7.14933 6.95768
#
# Compressibility (1/GPa) = 0.01241671
#
# Stress axis : x y z
#
# Youngs Moduli (GPa) = 107.84448 99.74679 157.48775
#
# Poissons Ratio (x) = 0.37131 0.17557
# Poissons Ratio (y) = 0.40146 0.28004
# Poissons Ratio (z) = 0.12022 0.17736
#
# Static dielectric constant tensor:
#      x y z
#    x 1.998880 0.000000 0.000000 
#    y 0.000000 2.107080 0.000000 
#    z 0.000000 0.000000 2.218520 
# 
# From -- ./inp_files/18220.got.cif
#   From: 2010.05.17/outbox.cif.g08.bks.cpg/sg57_10_cif.got.tgz:18220.got - 2010.06.03 13:58:18.
