data_PCOD9439801
_publ_section_title
;
Structure prediction by ZEFSAII (Michael W. Deem and Ramdas Pophale) SiO2 
 PCOD9439801
Probable space group: P B C M
;
_chemical_formula_sum "Si O2"
_cell_formula_units_Z 40
_cell_length_a 5.388573
_cell_length_b 17.434075
_cell_length_c 18.376669
_cell_angle_alpha 90.000000
_cell_angle_beta 90.000000
_cell_angle_gamma 90.000000
_cell_volume 1726.392233
_symmetry_space_group_name_H-M "P B C M"
_symmetry_group_IT_number 57
_symmetry_cell_setting 'orthorhombic'
loop_
_space_group_symop_operation_xyz
x,y,z
-x,-y,1/2+z
x,1/2-y,-z
-x,1/2+y,1/2-z
-x,-y,-z
x,y,1/2-z
-x,1/2+y,z
x,1/2-y,1/2+z
loop_
_atom_site_type_symbol
_atom_site_label
_atom_site_fract_x
_atom_site_fract_y
_atom_site_fract_z
Si Si1 0.741975 0.811986 0.115348
Si Si2 0.004804 0.946582 0.068576
Si Si3 0.759947 0.431038 0.833864
Si Si4 0.406874 0.567467 0.827532
Si Si5 0.230794 0.727999 0.084467
O O1 0.821789 0.875421 0.054963
O O2 0.635420 0.872391 0.173616
O O3 0.509918 0.757786 0.099802
O O4 0.997102 0.765901 0.128094
O O5 0.261279 0.913089 0.098601
O O6 0.941115 0.003813 0.135053
O O7 0.000000 0.000000 0.000000
O O8 0.810725 0.408426 0.750000
O O9 0.505465 0.480527 0.833694
O O10 0.765113 0.360255 0.889310
O O11 0.274183 0.577534 0.750000
O O12 0.182753 0.750000 0.000000
#
# Coordination Sequence:
#
# PCOD9439801 Si02
#       5
#     8   8   8   8   8
#     4  11  25  45  68 104 138 188 234 292 355 418
#     4  11  23  43  76 105 137 186 243 300 356 429
#     4  10  25  43  67 101 143 188 236 295 361 430
#     4  10  23  45  71 102 140 184 240 297 358 428
#     4  12  26  45  70 105 148 189 239 292 356 426
#
# _framework density 23.169705
#
# number of rings (size 3 to 8) (size 9 to 14) (size 15 to 20)
#    0.000    1.200    2.000    2.400    5.600    4.000 
#    0.000    0.000    0.000    0.000    0.000    0.000 
#    0.000    0.000    0.000    0.000    0.000    0.000 
#
# Total GULP energy -222809.046212 kJ/mol
# GULP energy per Si atom -5570.226155 kJ/mol
# Density = 2.311697 g / cm^3
# Si number density = 23.169705 Si / 1000 Ang^3
#
#
#
# Elastic Constant Matrix: (Units=GPa)
#
#
# Indices 1 2 3 4 5 6 
#
# 1 124.2398 37.8276 15.7420 0.0000 0.0000 0.0000
# 2 37.8276 120.2855 -0.3153 0.0000 0.0000 0.0000
# 3 15.7420 -0.3153 78.4611 0.0000 0.0000 0.0000
# 4 0.0000 0.0000 0.0000 15.3725 0.0000 0.0000
# 5 0.0000 0.0000 0.0000 0.0000 20.1058 0.0000
# 6 0.0000 0.0000 0.0000 0.0000 0.0000 41.5931
#
#
#
# Elastic Compliance Matrix: (Units=1/GPa)
#
#
# Indices 1 2 3 4 5 6 
#
# 1 0.009162 -0.002886 -0.001850 0.000000 0.000000 0.000000
# 2 -0.002886 0.009223 0.000616 0.000000 0.000000 0.000000
# 3 -0.001850 0.000616 0.013119 0.000000 0.000000 0.000000
# 4 0.000000 0.000000 0.000000 0.065051 0.000000 0.000000
# 5 0.000000 0.000000 0.000000 0.000000 0.049737 0.000000
# 6 0.000000 0.000000 0.000000 0.000000 0.000000 0.024042
#
#
# Mechanical properties :
#
#
# Convention : Reuss Voigt Hill
#
# Bulk Modulus (GPa) = 42.98494 47.72167 45.35330
# Shear Modulus (GPa) = 26.83433 33.39643 30.11538
#
# Velocity S-wave (km/s) = 3.40687 3.80067 3.60915
# Velocity P-wave (km/s) = 5.83680 6.31676 6.08152
#
# Compressibility (1/GPa) = 0.02326396
#
# Stress axis : x y z
#
# Youngs Moduli (GPa) = 109.14542 108.42683 76.22657
#
# Poissons Ratio (x) = 0.31294 0.14101
# Poissons Ratio (y) = 0.31501 -0.04697
# Poissons Ratio (z) = 0.20190 -0.06680
#
# Static dielectric constant tensor:
#      x y z
#    x 1.997180 0.000000 0.000000 
#    y 0.000000 1.854260 0.000000 
#    z 0.000000 0.000000 1.892530 
# 
# From -- ./inp_files/19985.got.cif
#   From: 2010.05.17/outbox.cif.g08.bks.cpg/sg57_10_cif.got.tgz:19985.got - 2010.06.03 13:58:18.
