data_PCOD9439477
_publ_section_title
;
Structure prediction by ZEFSAII (Michael W. Deem and Ramdas Pophale) SiO2 
 PCOD9439477
Probable space group: P B C M
;
_chemical_formula_sum "Si O2"
_cell_formula_units_Z 40
_cell_length_a 5.175751
_cell_length_b 22.214563
_cell_length_c 14.517780
_cell_angle_alpha 90.000000
_cell_angle_beta 90.000000
_cell_angle_gamma 90.000000
_cell_volume 1669.211468
_symmetry_space_group_name_H-M "P B C M"
_symmetry_group_IT_number 57
_symmetry_cell_setting 'orthorhombic'
loop_
_space_group_symop_operation_xyz
x,y,z
-x,-y,1/2+z
x,1/2-y,-z
-x,1/2+y,1/2-z
-x,-y,-z
x,y,1/2-z
-x,1/2+y,z
x,1/2-y,1/2+z
loop_
_atom_site_type_symbol
_atom_site_label
_atom_site_fract_x
_atom_site_fract_y
_atom_site_fract_z
Si Si1 0.774296 0.873437 0.517285
Si Si2 0.864944 0.206924 0.587694
Si Si3 0.539486 0.945150 0.150372
Si Si4 0.030343 0.015900 0.106997
Si Si5 0.370820 0.267299 0.649952
O O1 0.593213 0.907350 0.443056
O O2 0.875350 0.915502 0.600206
O O3 0.641421 0.816150 0.566936
O O4 0.020561 0.854005 0.454869
O O5 0.850948 0.250000 0.500000
O O6 0.591889 0.217106 0.635135
O O7 0.096476 0.234080 0.647831
O O8 0.567468 0.913178 0.250000
O O9 0.259596 0.975298 0.146064
O O10 0.756647 0.997825 0.148704
O O11 0.000000 0.000000 0.000000
O O12 0.414335 0.296069 0.750000
#
# Coordination Sequence:
#
# PCOD9439477 Si02
#       5
#     8   8   8   8   8
#     4  10  23  44  69  94 132 184 222 268 338 399
#     4  10  22  41  62  87 124 167 216 272 325 383
#     4  11  24  41  66 103 138 173 223 275 328 396
#     4  10  22  42  65  93 132 173 219 274 330 393
#     4  11  24  40  62  95 130 169 221 273 323 385
#
# _framework density 23.96341
#
# number of rings (size 3 to 8) (size 9 to 14) (size 15 to 20)
#    0.000    1.600    0.000    5.400    0.000   17.600 
#    0.000    0.000    0.000    1.200    0.000    0.000 
#    0.000    0.000    0.000    0.000    0.000    0.000 
#
# Total GULP energy -223472.015783 kJ/mol
# GULP energy per Si atom -5586.800395 kJ/mol
# Density = 2.390887 g / cm^3
# Si number density = 23.963410 Si / 1000 Ang^3
#
#
#
# Elastic Constant Matrix: (Units=GPa)
#
#
# Indices 1 2 3 4 5 6 
#
# 1 125.3304 20.5353 26.6564 0.0000 0.0000 0.0000
# 2 20.5353 81.4864 18.2258 0.0000 0.0000 0.0000
# 3 26.6564 18.2258 139.0246 0.0000 0.0000 0.0000
# 4 0.0000 0.0000 0.0000 16.5602 0.0000 0.0000
# 5 0.0000 0.0000 0.0000 0.0000 -29.4983 0.0000
# 6 0.0000 0.0000 0.0000 0.0000 0.0000 30.1990
#
#
#
# Elastic Compliance Matrix: (Units=1/GPa)
#
#
# Indices 1 2 3 4 5 6 
#
# 1 0.008580 -0.001849 -0.001403 0.000000 0.000000 0.000000
# 2 -0.001849 0.013041 -0.001355 0.000000 0.000000 0.000000
# 3 -0.001403 -0.001355 0.007640 0.000000 0.000000 0.000000
# 4 0.000000 0.000000 0.000000 0.060386 0.000000 0.000000
# 5 0.000000 0.000000 0.000000 0.000000 -0.033900 0.000000
# 6 0.000000 0.000000 0.000000 0.000000 0.000000 0.033114
#
#
# Mechanical properties :
#
#
# Convention : Reuss Voigt Hill
#
# Bulk Modulus (GPa) = 49.88119 52.96406 51.42263
# Shear Modulus (GPa) = 47.73027 22.14712 34.93870
#
# Velocity S-wave (km/s) = 4.46780 3.04337 3.82252
# Velocity P-wave (km/s) = 6.89026 5.87363 6.40216
#
# Compressibility (1/GPa) = 0.02004764
#
# Stress axis : x y z
#
# Youngs Moduli (GPa) = 116.54812 76.68161 130.89672
#
# Poissons Ratio (x) = 0.14175 0.18362
# Poissons Ratio (y) = 0.21544 0.17739
# Poissons Ratio (z) = 0.16350 0.10392
#
# Static dielectric constant tensor:
#      x y z
#    x 1.923450 0.000000 0.000000 
#    y 0.000000 2.038550 0.000000 
#    z 0.000000 0.000000 2.004900 
# 
# From -- ./inp_files/14958.got.cif
#   From: 2010.05.17/outbox.cif.g08.bks.cpg/sg57_8_cif.got.tgz:14958.got - 2010.06.03 13:58:18.
