data_PCOD9439210
_publ_section_title
;
Structure prediction by ZEFSAII (Michael W. Deem and Ramdas Pophale) SiO2 
 PCOD9439210
Probable space group: P B C M
;
_chemical_formula_sum "Si O2"
_cell_formula_units_Z 40
_cell_length_a 18.343411
_cell_length_b 9.043665
_cell_length_c 10.943457
_cell_angle_alpha 90.000000
_cell_angle_beta 90.000000
_cell_angle_gamma 90.000000
_cell_volume 1815.428292
_symmetry_space_group_name_H-M "P B C M"
_symmetry_group_IT_number 57
_symmetry_cell_setting 'orthorhombic'
loop_
_space_group_symop_operation_xyz
x,y,z
-x,-y,1/2+z
x,1/2-y,-z
-x,1/2+y,1/2-z
-x,-y,-z
x,y,1/2-z
-x,1/2+y,z
x,1/2-y,1/2+z
loop_
_atom_site_type_symbol
_atom_site_label
_atom_site_fract_x
_atom_site_fract_y
_atom_site_fract_z
Si Si1 0.561538 0.613405 0.051714
Si Si2 0.163660 0.427759 0.992843
Si Si3 0.071480 0.410336 0.750000
Si Si4 0.913521 0.556039 0.750000
Si Si5 0.517415 0.312451 0.250000
Si Si6 0.394384 0.557156 0.250000
Si Si7 0.680437 0.073505 0.994546
O O1 0.515237 0.726951 0.133119
O O2 0.610829 0.750000 0.000000
O O3 0.500000 0.500000 0.000000
O O4 0.621057 0.496703 0.098160
O O5 0.129545 0.476114 0.123630
O O6 0.240155 0.509317 0.974524
O O7 0.173969 0.250000 0.000000
O O8 0.112622 0.457994 0.874919
O O9 0.071496 0.232038 0.750000
O O10 0.989895 0.471372 0.750000
O O11 0.471877 0.465712 0.250000
O O12 0.595844 0.234251 0.250000
O O13 0.352293 0.519768 0.373932
O O14 0.680642 0.250000 0.000000
#
# Coordination Sequence:
#
# PCOD9439210 Si02
#       7
#     8   8   4   4   4   4   8
#     4  12  23  41  63  92 121 166 221 274 335 401
#     4  10  23  43  66  98 140 183 226 271 338 411
#     4  10  22  40  72 102 136 177 227 270 330 404
#     4  10  21  42  69 105 137 175 221 280 327 402
#     4  12  24  41  67  87 126 162 221 280 340 397
#     4  12  27  43  66  94 121 178 225 284 359 405
#     4  12  27  43  64  93 135 171 225 283 341 406
#
# _framework density 22.033367999999999
#
# number of rings (size 3 to 8) (size 9 to 14) (size 15 to 20)
#    0.000    0.800    4.000    2.400    2.800    3.200 
#    0.000    0.000    0.000    0.000    0.000    0.000 
#    0.000    0.000    0.000    0.000    0.000    0.000 
#
# Total GULP energy -222685.660994 kJ/mol
# GULP energy per Si atom -5567.141525 kJ/mol
# Density = 2.198322 g / cm^3
# Si number density = 22.033368 Si / 1000 Ang^3
#
#
#
# Elastic Constant Matrix: (Units=GPa)
#
#
# Indices 1 2 3 4 5 6 
#
# 1 118.1778 37.6285 6.1915 0.0000 0.0000 0.0000
# 2 37.6285 138.3203 14.7395 0.0000 0.0000 0.0000
# 3 6.1915 14.7395 78.3769 0.0000 0.0000 0.0000
# 4 0.0000 0.0000 0.0000 18.3045 0.0000 0.0000
# 5 0.0000 0.0000 0.0000 0.0000 27.1145 0.0000
# 6 0.0000 0.0000 0.0000 0.0000 0.0000 42.4912
#
#
#
# Elastic Compliance Matrix: (Units=1/GPa)
#
#
# Indices 1 2 3 4 5 6 
#
# 1 0.009270 -0.002494 -0.000263 0.000000 0.000000 0.000000
# 2 -0.002494 0.008048 -0.001317 0.000000 0.000000 0.000000
# 3 -0.000263 -0.001317 0.013027 0.000000 0.000000 0.000000
# 4 0.000000 0.000000 0.000000 0.054631 0.000000 0.000000
# 5 0.000000 0.000000 0.000000 0.000000 0.036881 0.000000
# 6 0.000000 0.000000 0.000000 0.000000 0.000000 0.023534
#
#
# Mechanical properties :
#
#
# Convention : Reuss Voigt Hill
#
# Bulk Modulus (GPa) = 45.04892 50.22156 47.63524
# Shear Modulus (GPa) = 31.06792 36.00307 33.53549
#
# Velocity S-wave (km/s) = 3.75912 4.04669 3.90556
# Velocity P-wave (km/s) = 6.27148 6.68410 6.48108
#
# Compressibility (1/GPa) = 0.02219809
#
# Stress axis : x y z
#
# Youngs Moduli (GPa) = 107.87939 124.25051 76.76218
#
# Poissons Ratio (x) = 0.30984 0.02021
# Poissons Ratio (y) = 0.26901 0.10106
# Poissons Ratio (z) = 0.02841 0.16358
#
# Static dielectric constant tensor:
#      x y z
#    x 1.779570 0.000000 0.000000 
#    y 0.000000 1.506340 0.000000 
#    z 0.000000 0.000000 2.188220 
# 
# From -- ./inp_files/14065.got.cif
#   From: 2010.05.17/outbox.cif.g08.bks.cpg/sg57_8_cif.got.tgz:14065.got - 2010.06.03 13:58:18.
