data_PCOD9439257
_publ_section_title
;
Structure prediction by ZEFSAII (Michael W. Deem and Ramdas Pophale) SiO2 
 PCOD9439257
Probable space group: P B C M
;
_chemical_formula_sum "Si O2"
_cell_formula_units_Z 36
_cell_length_a 8.666761
_cell_length_b 20.269288
_cell_length_c 9.150422
_cell_angle_alpha 90.000000
_cell_angle_beta 90.000000
_cell_angle_gamma 90.000000
_cell_volume 1607.446166
_symmetry_space_group_name_H-M "P B C M"
_symmetry_group_IT_number 57
_symmetry_cell_setting 'orthorhombic'
loop_
_space_group_symop_operation_xyz
x,y,z
-x,-y,1/2+z
x,1/2-y,-z
-x,1/2+y,1/2-z
-x,-y,-z
x,y,1/2-z
-x,1/2+y,z
x,1/2-y,1/2+z
loop_
_atom_site_type_symbol
_atom_site_label
_atom_site_fract_x
_atom_site_fract_y
_atom_site_fract_z
Si Si1 0.253976 0.250000 0.000000
Si Si2 0.045539 0.949593 0.750000
Si Si3 0.310021 0.013813 0.250000
Si Si4 0.462439 0.867045 0.750000
Si Si5 0.033752 0.202257 0.250000
Si Si6 0.459088 0.286255 0.250000
Si Si7 0.812933 0.170830 0.750000
Si Si8 0.749208 0.423082 0.000276
O O1 0.143188 0.288904 0.890128
O O2 0.359564 0.203179 0.897042
O O3 0.874336 0.976796 0.750000
O O4 0.037820 0.869768 0.750000
O O5 0.141151 0.965968 0.604778
O O6 0.396168 0.082501 0.250000
O O7 0.345646 0.970263 0.392091
O O8 0.514262 0.792333 0.750000
O O9 0.360399 0.882491 0.607559
O O10 0.907312 0.261152 0.250000
O O11 0.627872 0.317433 0.250000
O O12 0.842609 0.127070 0.605617
#
# Coordination Sequence:
#
# PCOD9439257 Si02
#       8
#     4   4   4   4   4   4   4   8
#     4  10  22  36  52  84 122 156 190 228 290 344
#     4  11  22  38  60  85 114 152 195 240 294 345
#     4  11  22  40  60  82 114 153 196 242 292 345
#     4  11  22  38  60  85 114 152 195 240 294 345
#     4  11  22  38  60  87 122 158 193 240 290 355
#     4  11  22  38  60  87 122 158 193 240 290 355
#     4  11  22  38  62  90 120 153 196 238 288 349
#     4  10  23  39  59  87 116 150 195 246 287 340
#
# _framework density 22.395775
#
# number of rings (size 3 to 8) (size 9 to 14) (size 15 to 20)
#    0.000    1.333    0.000    6.667    0.000    2.667 
#    0.000    0.000    0.000   16.000    0.000    0.000 
#    0.000    0.000    0.000    0.000    0.000    0.000 
#
# Total GULP energy -201484.978892 kJ/mol
# GULP energy per Si atom -5596.804969 kJ/mol
# Density = 2.234480 g / cm^3
# Si number density = 22.395775 Si / 1000 Ang^3
#
#
#
# Elastic Constant Matrix: (Units=GPa)
#
#
# Indices 1 2 3 4 5 6 
#
# 1 74.0014 -6.1155 34.4951 0.0000 0.0000 0.0000
# 2 -6.1155 61.8477 12.1566 0.0000 0.0000 0.0000
# 3 34.4951 12.1566 158.3650 0.0000 0.0000 0.0000
# 4 0.0000 0.0000 0.0000 8.0496 0.0000 0.0000
# 5 0.0000 0.0000 0.0000 0.0000 28.5688 0.0000
# 6 0.0000 0.0000 0.0000 0.0000 0.0000 35.2367
#
#
#
# Elastic Compliance Matrix: (Units=1/GPa)
#
#
# Indices 1 2 3 4 5 6 
#
# 1 0.015331 0.002206 -0.003509 0.000000 0.000000 0.000000
# 2 0.002206 0.016734 -0.001765 0.000000 0.000000 0.000000
# 3 -0.003509 -0.001765 0.007214 0.000000 0.000000 0.000000
# 4 0.000000 0.000000 0.000000 0.124230 0.000000 0.000000
# 5 0.000000 0.000000 0.000000 0.000000 0.035003 0.000000
# 6 0.000000 0.000000 0.000000 0.000000 0.000000 0.028379
#
#
# Mechanical properties :
#
#
# Convention : Reuss Voigt Hill
#
# Bulk Modulus (GPa) = 30.17232 41.69851 35.93541
# Shear Modulus (GPa) = 20.48544 31.28288 25.88416
#
# Velocity S-wave (km/s) = 3.02768 3.74146 3.40334
# Velocity P-wave (km/s) = 5.07189 6.10934 5.61463
#
# Compressibility (1/GPa) = 0.03314296
#
# Stress axis : x y z
#
# Youngs Moduli (GPa) = 65.22687 59.75946 138.61386
#
# Poissons Ratio (x) = -0.13181 0.48636
# Poissons Ratio (y) = -0.14386 0.24465
# Poissons Ratio (z) = 0.22886 0.10547
#
# Static dielectric constant tensor:
#      x y z
#    x 1.828120 0.000000 0.000000 
#    y 0.000000 1.773210 0.000000 
#    z 0.000000 0.000000 1.847840 
# 
# From -- ./inp_files/1397.got.cif
#   From: 2010.05.17/outbox.cif.g08.bks.cpg/sg57_1_cif.got.tgz:1397.got - 2010.06.03 13:58:18.
