data_PCOD9439918
_publ_section_title
;
Structure prediction by ZEFSAII (Michael W. Deem and Ramdas Pophale) SiO2 
 PCOD9439918
Probable space group: P B C M
;
_chemical_formula_sum "Si O2"
_cell_formula_units_Z 56
_cell_length_a 16.152093
_cell_length_b 4.924587
_cell_length_c 30.198775
_cell_angle_alpha 90.000000
_cell_angle_beta 90.000000
_cell_angle_gamma 90.000000
_cell_volume 2402.082654
_symmetry_space_group_name_H-M "P B C M"
_symmetry_group_IT_number 57
_symmetry_cell_setting 'orthorhombic'
loop_
_space_group_symop_operation_xyz
x,y,z
-x,-y,1/2+z
x,1/2-y,-z
-x,1/2+y,1/2-z
-x,-y,-z
x,y,1/2-z
-x,1/2+y,z
x,1/2-y,1/2+z
loop_
_atom_site_type_symbol
_atom_site_label
_atom_site_fract_x
_atom_site_fract_y
_atom_site_fract_z
Si Si1 0.782821 0.319876 0.101939
Si Si2 0.339247 0.498110 0.527397
Si Si3 0.941060 0.629698 0.114691
Si Si4 0.836856 0.577088 0.824680
Si Si5 0.446314 0.192311 0.394984
Si Si6 0.440101 0.596965 0.750000
Si Si7 0.321868 0.132867 0.324513
Si Si8 0.059128 0.697455 0.250000
O O1 0.723455 0.339440 0.059806
O O2 0.862055 0.504400 0.089978
O O3 0.814944 0.048757 0.126608
O O4 0.729099 0.444444 0.141996
O O5 0.297969 0.250000 0.500000
O O6 0.403256 0.324638 0.557393
O O7 0.377978 0.750000 0.500000
O O8 0.013021 0.412179 0.107572
O O9 0.900603 0.680922 0.163337
O O10 0.750511 0.681379 0.804416
O O11 0.883842 0.373656 0.792425
O O12 0.524837 0.383168 0.389507
O O13 0.382509 0.290407 0.357815
O O14 0.480604 0.893796 0.750000
O O15 0.380718 0.527432 0.708774
O O16 0.982011 0.489597 0.250000
#
# Coordination Sequence:
#
# PCOD9439918 Si02
#       8
#     8   8   8   8   8   4   8   4
#     4  10  25  42  73  98 134 180 227 270 345 402
#     4  11  26  44  70 101 136 175 225 281 344 416
#     4  11  21  38  66  97 129 167 219 262 317 390
#     4  11  24  43  68  98 136 183 224 270 335 401
#     4  11  24  42  68  99 137 175 221 279 345 406
#     4  12  27  45  66  94 130 180 234 286 339 380
#     4  10  25  41  68  96 135 179 235 280 328 400
#     4  12  29  43  64 102 146 174 222 282 335 386
#
# _framework density 23.313101
#
# number of rings (size 3 to 8) (size 9 to 14) (size 15 to 20)
#    0.000    1.143    1.429    3.000   16.000    2.286 
#    0.000    0.000    0.000    2.571    0.000    0.000 
#    0.000    0.000    0.000    0.000    0.000    0.000 
#
# Total GULP energy -312557.269418 kJ/mol
# GULP energy per Si atom -5581.379811 kJ/mol
# Density = 2.326004 g / cm^3
# Si number density = 23.313101 Si / 1000 Ang^3
#
#
#
# Elastic Constant Matrix: (Units=GPa)
#
#
# Indices 1 2 3 4 5 6 
#
# 1 66.8680 -20.1398 -1.2669 0.0000 0.0000 0.0000
# 2 -20.1398 58.4407 -1.9993 0.0000 0.0000 0.0000
# 3 -1.2669 -1.9993 47.9649 0.0000 0.0000 0.0000
# 4 0.0000 0.0000 0.0000 18.6520 0.0000 0.0000
# 5 0.0000 0.0000 0.0000 0.0000 4.0275 0.0000
# 6 0.0000 0.0000 0.0000 0.0000 0.0000 24.8121
#
#
#
# Elastic Compliance Matrix: (Units=1/GPa)
#
#
# Indices 1 2 3 4 5 6 
#
# 1 0.016709 0.005782 0.000682 0.000000 0.000000 0.000000
# 2 0.005782 0.019136 0.000950 0.000000 0.000000 0.000000
# 3 0.000682 0.000950 0.020906 0.000000 0.000000 0.000000
# 4 0.000000 0.000000 0.000000 0.053613 0.000000 0.000000
# 5 0.000000 0.000000 0.000000 0.000000 0.248291 0.000000
# 6 0.000000 0.000000 0.000000 0.000000 0.000000 0.040303
#
#
# Mechanical properties :
#
#
# Convention : Reuss Voigt Hill
#
# Bulk Modulus (GPa) = 13.97030 14.05127 14.01079
# Shear Modulus (GPa) = 12.25518 22.61030 17.43274
#
# Velocity S-wave (km/s) = 2.29525 3.11763 2.73750
# Velocity P-wave (km/s) = 3.60967 4.35887 4.00184
#
# Compressibility (1/GPa) = 0.07158041
#
# Stress axis : x y z
#
# Youngs Moduli (GPa) = 59.84750 52.25658 47.83271
#
# Poissons Ratio (x) = -0.30213 -0.03264
# Poissons Ratio (y) = -0.34602 -0.04546
# Poissons Ratio (z) = -0.04084 -0.04966
#
# Static dielectric constant tensor:
#      x y z
#    x 2.039640 0.000000 0.000000 
#    y 0.000000 1.936150 0.000000 
#    z 0.000000 0.000000 2.033980 
# 
# From -- ./inp_files/29880.got.cif
#   From: 2010.05.17/outbox.cif.g08.bks.cpg/sg57_15_cif.got.tgz:29880.got - 2010.06.03 13:58:18.
