data_PCOD9439192
_publ_section_title
;
Structure prediction by ZEFSAII (Michael W. Deem and Ramdas Pophale) SiO2 
 PCOD9439192
Probable space group: P B C M
;
_chemical_formula_sum "Si O2"
_cell_formula_units_Z 48
_cell_length_a 8.904202
_cell_length_b 9.087282
_cell_length_c 30.994939
_cell_angle_alpha 90.000000
_cell_angle_beta 90.000000
_cell_angle_gamma 90.000000
_cell_volume 2507.955321
_symmetry_space_group_name_H-M "P B C M"
_symmetry_group_IT_number 57
_symmetry_cell_setting 'orthorhombic'
loop_
_space_group_symop_operation_xyz
x,y,z
-x,-y,1/2+z
x,1/2-y,-z
-x,1/2+y,1/2-z
-x,-y,-z
x,y,1/2-z
-x,1/2+y,z
x,1/2-y,1/2+z
loop_
_atom_site_type_symbol
_atom_site_label
_atom_site_fract_x
_atom_site_fract_y
_atom_site_fract_z
Si Si1 0.635498 0.373506 0.464639
Si Si2 0.809503 0.214507 0.880382
Si Si3 0.852931 0.724020 0.798156
Si Si4 0.816932 0.075396 0.702859
Si Si5 0.702715 0.600964 0.527101
Si Si6 0.867656 0.938624 0.116808
O O1 0.612205 0.250000 0.500000
O O2 0.705619 0.311890 0.421413
O O3 0.744111 0.484140 0.490079
O O4 0.468380 0.437181 0.457827
O O5 0.733671 0.150239 0.837068
O O6 0.852832 0.385939 0.876674
O O7 0.960692 0.117465 0.885446
O O8 0.787807 0.691278 0.750000
O O9 0.794535 0.644024 0.841544
O O10 0.023884 0.662599 0.795850
O O11 0.847038 0.900995 0.803689
O O12 0.745482 0.092751 0.750000
O O13 0.708512 0.750000 0.500000
O O14 0.796577 0.601172 0.570692
#
# Coordination Sequence:
#
# PCOD9439192 Si02
#       6
#     8   8   8   8   8   8
#     4  10  21  42  56  77 105 140 183 222 261 314
#     4  11  22  34  55  81 114 139 175 222 264 316
#     4   9  17  30  49  74 107 140 175 214 259 315
#     4   9  17  30  49  75 105 141 175 212 262 314
#     4  10  23  38  60  76 102 143 184 221 264 318
#     4  11  22  35  52  85 110 141 177 217 270 311
#
# _framework density 19.139098000000001
#
# number of rings (size 3 to 8) (size 9 to 14) (size 15 to 20)
#    0.000    2.000    1.667    4.000    4.667    3.333 
#    0.000    0.000    0.000    1.000    0.000    0.000 
#    0.000    0.000    0.000    0.000    0.000    0.000 
#
# Total GULP energy -267238.865266 kJ/mol
# GULP energy per Si atom -5567.476360 kJ/mol
# Density = 1.909554 g / cm^3
# Si number density = 19.139098 Si / 1000 Ang^3
#
#
#
# Elastic Constant Matrix: (Units=GPa)
#
#
# Indices 1 2 3 4 5 6 
#
# 1 16.0303 0.9063 26.6399 0.0000 0.0000 0.0000
# 2 0.9063 101.2888 48.0397 0.0000 0.0000 0.0000
# 3 26.6399 48.0397 164.5196 0.0000 0.0000 0.0000
# 4 0.0000 0.0000 0.0000 15.0573 0.0000 0.0000
# 5 0.0000 0.0000 0.0000 0.0000 -15.7046 0.0000
# 6 0.0000 0.0000 0.0000 0.0000 0.0000 33.1590
#
#
#
# Elastic Compliance Matrix: (Units=1/GPa)
#
#
# Indices 1 2 3 4 5 6 
#
# 1 0.089483 0.007047 -0.016547 0.000000 0.000000 0.000000
# 2 0.007047 0.012015 -0.004650 0.000000 0.000000 0.000000
# 3 -0.016547 -0.004650 0.010115 0.000000 0.000000 0.000000
# 4 0.000000 0.000000 0.000000 0.066413 0.000000 0.000000
# 5 0.000000 0.000000 0.000000 0.000000 -0.063676 0.000000
# 6 0.000000 0.000000 0.000000 0.000000 0.000000 0.030158
#
#
# Mechanical properties :
#
#
# Convention : Reuss Voigt Hill
#
# Bulk Modulus (GPa) = 12.00278 48.11226 30.05752
# Shear Modulus (GPa) = 24.92799 20.25254 22.59026
#
# Velocity S-wave (km/s) = 3.61288 3.25649 3.43931
# Velocity P-wave (km/s) = 4.86712 6.27156 5.61343
#
# Compressibility (1/GPa) = 0.08331405
#
# Stress axis : x y z
#
# Youngs Moduli (GPa) = 11.17537 83.23006 98.85929
#
# Poissons Ratio (x) = -0.58656 1.63586
# Poissons Ratio (y) = -0.07876 0.45965
# Poissons Ratio (z) = 0.18492 0.38698
#
# Static dielectric constant tensor:
#      x y z
#    x 1.655280 0.000000 0.000000 
#    y 0.000000 1.318920 0.000000 
#    z 0.000000 0.000000 1.702090 
# 
# From -- ./inp_files/27120.got.cif
#   From: 2010.05.17/outbox.cif.g08.bks.cpg/sg57_14_cif.got.tgz:27120.got - 2010.06.03 13:58:18.
