data_PCOD9439698
_publ_section_title
;
Structure prediction by ZEFSAII (Michael W. Deem and Ramdas Pophale) SiO2 
 PCOD9439698
Probable space group: P B C M
;
_chemical_formula_sum "Si O2"
_cell_formula_units_Z 44
_cell_length_a 17.657052
_cell_length_b 9.122852
_cell_length_c 14.565041
_cell_angle_alpha 90.000000
_cell_angle_beta 90.000000
_cell_angle_gamma 90.000000
_cell_volume 2346.175724
_symmetry_space_group_name_H-M "P B C M"
_symmetry_group_IT_number 57
_symmetry_cell_setting 'orthorhombic'
loop_
_space_group_symop_operation_xyz
x,y,z
-x,-y,1/2+z
x,1/2-y,-z
-x,1/2+y,1/2-z
-x,-y,-z
x,y,1/2-z
-x,1/2+y,z
x,1/2-y,1/2+z
loop_
_atom_site_type_symbol
_atom_site_label
_atom_site_fract_x
_atom_site_fract_y
_atom_site_fract_z
Si Si1 0.186119 0.175886 0.599169
Si Si2 0.917882 0.316350 0.250000
Si Si3 0.618395 0.018307 0.750000
Si Si4 0.082778 0.169928 0.250000
Si Si5 0.686723 0.798820 0.250000
Si Si6 0.354697 0.765829 0.608380
Si Si7 0.559788 0.038955 0.250000
Si Si8 0.818286 0.335504 0.904631
O O1 0.196701 0.250000 0.500000
O O2 0.127983 0.269996 0.660975
O O3 0.262395 0.171316 0.660216
O O4 0.160152 0.006717 0.589133
O O5 0.920869 0.493191 0.250000
O O6 0.871383 0.252267 0.164356
O O7 0.000751 0.244750 0.250000
O O8 0.640225 0.111557 0.839595
O O9 0.663672 0.869230 0.750000
O O10 0.528603 0.992420 0.750000
O O11 0.611096 0.894544 0.250000
O O12 0.367673 0.750000 0.500000
O O13 0.414555 0.868068 0.660938
O O14 0.270008 0.826863 0.624614
O O15 0.822484 0.250000 0.000000
#
# Coordination Sequence:
#
# PCOD9439698 Si02
#       8
#     8   4   4   4   4   8   4   8
#     4  11  24  42  64  95 128 164 217 264 313 373
#     4  12  23  44  66  97 133 169 207 255 318 372
#     4  11  25  37  65  90 126 165 214 260 325 389
#     4  11  26  41  68  96 134 168 207 258 315 374
#     4  11  23  37  64  91 125 165 208 266 317 371
#     4  10  23  41  64  90 125 167 215 261 316 378
#     4  11  21  45  59  92 126 167 208 269 321 380
#     4  11  23  40  68  93 124 169 215 261 314 375
#
# _framework density 18.753924999999999
#
# number of rings (size 3 to 8) (size 9 to 14) (size 15 to 20)
#    0.000    1.091    1.818    5.455   10.182    1.455 
#    0.000    5.455    0.000    0.000    0.000    0.000 
#    0.000    0.000    0.000    0.000    0.000    0.000 
#
# Total GULP energy -245924.193671 kJ/mol
# GULP energy per Si atom -5589.186220 kJ/mol
# Density = 1.871124 g / cm^3
# Si number density = 18.753925 Si / 1000 Ang^3
#
#
#
# Elastic Constant Matrix: (Units=GPa)
#
#
# Indices 1 2 3 4 5 6 
#
# 1 76.1293 32.9710 42.9809 0.0000 0.0000 0.0000
# 2 32.9710 192.9111 59.8602 0.0000 0.0000 0.0000
# 3 42.9809 59.8602 129.4300 0.0000 0.0000 0.0000
# 4 0.0000 0.0000 0.0000 -16.1170 0.0000 0.0000
# 5 0.0000 0.0000 0.0000 0.0000 9.5497 0.0000
# 6 0.0000 0.0000 0.0000 0.0000 0.0000 40.1137
#
#
#
# Elastic Compliance Matrix: (Units=1/GPa)
#
#
# Indices 1 2 3 4 5 6 
#
# 1 0.016442 -0.001303 -0.004858 0.000000 0.000000 0.000000
# 2 -0.001303 0.006156 -0.002414 0.000000 0.000000 0.000000
# 3 -0.004858 -0.002414 0.010456 0.000000 0.000000 0.000000
# 4 0.000000 0.000000 0.000000 -0.062046 0.000000 0.000000
# 5 0.000000 0.000000 0.000000 0.000000 0.104715 0.000000
# 6 0.000000 0.000000 0.000000 0.000000 0.000000 0.024929
#
#
# Mechanical properties :
#
#
# Convention : Reuss Voigt Hill
#
# Bulk Modulus (GPa) = 62.87601 74.45496 68.66549
# Shear Modulus (GPa) = 40.61655 24.21983 32.41819
#
# Velocity S-wave (km/s) = 4.65882 3.59758 4.16216
# Velocity P-wave (km/s) = 7.90817 7.55275 7.73250
#
# Compressibility (1/GPa) = 0.01590432
#
# Stress axis : x y z
#
# Youngs Moduli (GPa) = 60.81877 162.45502 95.64040
#
# Poissons Ratio (x) = 0.21166 0.46458
# Poissons Ratio (y) = 0.07924 0.23090
# Poissons Ratio (z) = 0.29543 0.39220
#
# Static dielectric constant tensor:
#      x y z
#    x 1.627620 0.000000 0.000000 
#    y 0.000000 1.646910 0.000000 
#    z 0.000000 0.000000 1.589650 
# 
# From -- ./inp_files/18913.got.cif
#   From: 2010.05.17/outbox.cif.g08.bks.cpg/sg57_10_cif.got.tgz:18913.got - 2010.06.03 13:58:18.
