data_PCOD9439291
_publ_section_title
;
Structure prediction by ZEFSAII (Michael W. Deem and Ramdas Pophale) SiO2 
 PCOD9439291
Probable space group: P B C M
;
_chemical_formula_sum "Si O2"
_cell_formula_units_Z 48
_cell_length_a 15.418581
_cell_length_b 19.713807
_cell_length_c 8.626778
_cell_angle_alpha 90.000000
_cell_angle_beta 90.000000
_cell_angle_gamma 90.000000
_cell_volume 2622.186211
_symmetry_space_group_name_H-M "P B C M"
_symmetry_group_IT_number 57
_symmetry_cell_setting 'orthorhombic'
loop_
_space_group_symop_operation_xyz
x,y,z
-x,-y,1/2+z
x,1/2-y,-z
-x,1/2+y,1/2-z
-x,-y,-z
x,y,1/2-z
-x,1/2+y,z
x,1/2-y,1/2+z
loop_
_atom_site_type_symbol
_atom_site_label
_atom_site_fract_x
_atom_site_fract_y
_atom_site_fract_z
Si Si1 0.630658 0.324558 0.937220
Si Si2 0.765327 0.439591 0.562836
Si Si3 0.432752 0.324528 0.563194
Si Si4 0.965837 0.428129 0.936208
Si Si5 0.731239 0.588940 0.063799
Si Si6 0.106729 0.173975 0.935091
O O1 0.632328 0.322213 0.750000
O O2 0.698322 0.381627 0.988361
O O3 0.531453 0.340470 0.986077
O O4 0.652371 0.250000 0.000000
O O5 0.760816 0.444900 0.750000
O O6 0.864509 0.421613 0.522813
O O7 0.741909 0.512277 0.492757
O O8 0.410405 0.250000 0.500000
O O9 0.432042 0.321567 0.750000
O O10 0.360626 0.378598 0.514696
O O11 0.974095 0.427944 0.750000
O O12 0.000000 0.500000 0.000000
O O13 0.024152 0.368529 0.005708
O O14 0.736905 0.591124 0.250000
O O15 0.808527 0.634219 0.994972
O O16 0.107398 0.175373 0.750000
O O17 0.105998 0.250000 0.000000
#
# Coordination Sequence:
#
# PCOD9439291 Si02
#       6
#     8   8   8   8   8   8
#     4   9  19  38  59  82 114 150 191 238 286 342
#     4  10  22  38  59  85 116 153 190 234 290 348
#     4   9  19  35  56  82 113 151 191 235 287 341
#     4  11  22  39  61  86 116 155 196 238 291 349
#     4  11  22  36  57  86 118 152 193 239 287 348
#     4  12  25  41  61  87 118 154 195 244 295 348
#
# _framework density 18.305337000000002
#
# number of rings (size 3 to 8) (size 9 to 14) (size 15 to 20)
#    0.000    1.667    1.667    3.000    0.000    5.333 
#    0.000    1.667    0.000    0.000    0.000    0.000 
#    0.000    0.000    0.000    0.000    0.000    0.000 
#
# Total GULP energy -268191.213287 kJ/mol
# GULP energy per Si atom -5587.316943 kJ/mol
# Density = 1.826367 g / cm^3
# Si number density = 18.305337 Si / 1000 Ang^3
#
#
#
# Elastic Constant Matrix: (Units=GPa)
#
#
# Indices 1 2 3 4 5 6 
#
# 1 169.0227 132.2079 54.8631 0.0000 0.0000 0.0000
# 2 132.2079 190.6340 51.4582 0.0000 0.0000 0.0000
# 3 54.8631 51.4582 46.0441 0.0000 0.0000 0.0000
# 4 0.0000 0.0000 0.0000 36.8913 0.0000 0.0000
# 5 0.0000 0.0000 0.0000 0.0000 13.4656 0.0000
# 6 0.0000 0.0000 0.0000 0.0000 0.0000 39.3383
#
#
#
# Elastic Compliance Matrix: (Units=1/GPa)
#
#
# Indices 1 2 3 4 5 6 
#
# 1 0.015175 -0.008081 -0.009050 0.000000 0.000000 0.000000
# 2 -0.008081 0.011815 -0.003576 0.000000 0.000000 0.000000
# 3 -0.009050 -0.003576 0.036498 0.000000 0.000000 0.000000
# 4 0.000000 0.000000 0.000000 0.027107 0.000000 0.000000
# 5 0.000000 0.000000 0.000000 0.000000 0.074264 0.000000
# 6 0.000000 0.000000 0.000000 0.000000 0.000000 0.025421
#
#
# Mechanical properties :
#
#
# Convention : Reuss Voigt Hill
#
# Bulk Modulus (GPa) = 45.30137 98.08435 71.69286
# Shear Modulus (GPa) = 20.91609 29.08380 24.99995
#
# Velocity S-wave (km/s) = 3.38394 3.99032 3.69957
# Velocity P-wave (km/s) = 6.33004 8.65615 7.58282
#
# Compressibility (1/GPa) = 0.02207439
#
# Stress axis : x y z
#
# Youngs Moduli (GPa) = 65.89803 84.63643 27.39895
#
# Poissons Ratio (x) = 0.68396 0.24796
# Poissons Ratio (y) = 0.53253 0.09797
# Poissons Ratio (z) = 0.59638 0.30262
#
# Static dielectric constant tensor:
#      x y z
#    x 1.632520 0.000000 0.000000 
#    y 0.000000 1.580350 0.000000 
#    z 0.000000 0.000000 1.620460 
# 
# From -- ./inp_files/4556.got.cif
#   From: 2010.05.17/outbox.cif.g08.bks.cpg/sg57_3_cif.got.tgz:4556.got - 2010.06.03 13:58:18.
