data_PCOD9439512
_publ_section_title
;
Structure prediction by ZEFSAII (Michael W. Deem and Ramdas Pophale) SiO2 
 PCOD9439512
Probable space group: P B C M
;
_chemical_formula_sum "Si O2"
_cell_formula_units_Z 32
_cell_length_a 6.629300
_cell_length_b 8.009625
_cell_length_c 26.687070
_cell_angle_alpha 90.000000
_cell_angle_beta 90.000000
_cell_angle_gamma 90.000000
_cell_volume 1417.035567
_symmetry_space_group_name_H-M "P B C M"
_symmetry_group_IT_number 57
_symmetry_cell_setting 'orthorhombic'
loop_
_space_group_symop_operation_xyz
x,y,z
-x,-y,1/2+z
x,1/2-y,-z
-x,1/2+y,1/2-z
-x,-y,-z
x,y,1/2-z
-x,1/2+y,z
x,1/2-y,1/2+z
loop_
_atom_site_type_symbol
_atom_site_label
_atom_site_fract_x
_atom_site_fract_y
_atom_site_fract_z
Si Si1 0.272264 0.794808 0.888754
Si Si2 0.963225 0.508030 0.441391
Si Si3 0.740789 0.793234 0.864481
Si Si4 0.057332 0.607120 0.690720
O O1 0.185467 0.639866 0.922381
O O2 0.507446 0.788760 0.877737
O O3 0.170973 0.765001 0.834420
O O4 0.184310 0.957346 0.916799
O O5 0.849168 0.670010 0.417935
O O6 0.000000 0.500000 0.500000
O O7 0.834749 0.641075 0.832390
O O8 0.811412 0.953171 0.830841
O O9 0.053021 0.605138 0.750000
#
# Coordination Sequence:
#
# PCOD9439512 Si02
#       4
#     8   8   8   8
#     4  10  23  42  66  98 135 172 219 279 335 394
#     4  10  22  43  67  93 129 174 225 277 331 399
#     4  10  23  42  64  96 135 172 218 278 333 393
#     4  10  22  41  66  95 129 172 222 271 326 397
#
# _framework density 22.582353000000001
#
# number of rings (size 3 to 8) (size 9 to 14) (size 15 to 20)
#    0.000    2.000    0.000    1.500    0.000   19.000 
#    0.000    7.500    0.000    0.000    0.000    0.000 
#    0.000    0.000    0.000    0.000    0.000    0.000 
#
# Total GULP energy -178220.097800 kJ/mol
# GULP energy per Si atom -5569.378056 kJ/mol
# Density = 2.253095 g / cm^3
# Si number density = 22.582353 Si / 1000 Ang^3
#
#
#
# Elastic Constant Matrix: (Units=GPa)
#
#
# Indices 1 2 3 4 5 6 
#
# 1 231.3234 44.9593 103.1292 0.0000 0.0000 0.0000
# 2 44.9593 127.1988 68.1486 0.0000 0.0000 0.0000
# 3 103.1292 68.1486 248.2646 0.0000 0.0000 0.0000
# 4 0.0000 0.0000 0.0000 21.6809 0.0000 0.0000
# 5 0.0000 0.0000 0.0000 0.0000 5.5633 0.0000
# 6 0.0000 0.0000 0.0000 0.0000 0.0000 33.1020
#
#
#
# Elastic Compliance Matrix: (Units=1/GPa)
#
#
# Indices 1 2 3 4 5 6 
#
# 1 0.005378 -0.000825 -0.002008 0.000000 0.000000 0.000000
# 2 -0.000825 0.009344 -0.002222 0.000000 0.000000 0.000000
# 3 -0.002008 -0.002222 0.005472 0.000000 0.000000 0.000000
# 4 0.000000 0.000000 0.000000 0.046124 0.000000 0.000000
# 5 0.000000 0.000000 0.000000 0.000000 0.179750 0.000000
# 6 0.000000 0.000000 0.000000 0.000000 0.000000 0.030210
#
#
# Mechanical properties :
#
#
# Convention : Reuss Voigt Hill
#
# Bulk Modulus (GPa) = 99.16614 115.47346 107.31980
# Shear Modulus (GPa) = 17.25634 38.10587 27.68110
#
# Velocity S-wave (km/s) = 2.76733 4.11228 3.50492
# Velocity P-wave (km/s) = 7.36337 8.59029 8.00039
#
# Compressibility (1/GPa) = 0.01008409
#
# Stress axis : x y z
#
# Youngs Moduli (GPa) = 185.92815 107.02110 182.75283
#
# Poissons Ratio (x) = 0.08834 0.36690
# Poissons Ratio (y) = 0.15347 0.40608
# Poissons Ratio (z) = 0.37327 0.23780
#
# Static dielectric constant tensor:
#      x y z
#    x 1.890700 0.000000 0.000000 
#    y 0.000000 2.172970 0.000000 
#    z 0.000000 0.000000 1.803810 
# 
# From -- ./inp_files/28985.got.cif
#   From: 2010.05.17/outbox.cif.g08.bks.cpg/sg57_15_cif.got.tgz:28985.got - 2010.06.03 13:58:18.
