data_PCOD9439361
_publ_section_title
;
Structure prediction by ZEFSAII (Michael W. Deem and Ramdas Pophale) SiO2 
 PCOD9439361
Probable space group: P B C M
;
_chemical_formula_sum "Si O2"
_cell_formula_units_Z 40
_cell_length_a 6.048307
_cell_length_b 13.772530
_cell_length_c 21.470401
_cell_angle_alpha 90.000000
_cell_angle_beta 90.000000
_cell_angle_gamma 90.000000
_cell_volume 1788.494915
_symmetry_space_group_name_H-M "P B C M"
_symmetry_group_IT_number 57
_symmetry_cell_setting 'orthorhombic'
loop_
_space_group_symop_operation_xyz
x,y,z
-x,-y,1/2+z
x,1/2-y,-z
-x,1/2+y,1/2-z
-x,-y,-z
x,y,1/2-z
-x,1/2+y,z
x,1/2-y,1/2+z
loop_
_atom_site_type_symbol
_atom_site_label
_atom_site_fract_x
_atom_site_fract_y
_atom_site_fract_z
Si Si1 0.244881 0.821611 0.919429
Si Si2 0.068415 0.151035 0.608646
Si Si3 0.381978 0.212389 0.180514
Si Si4 0.629084 0.633980 0.000751
Si Si5 0.132184 0.046967 0.121083
O O1 0.433819 0.782600 0.873037
O O2 0.370908 0.866912 0.979282
O O3 0.107636 0.903726 0.884163
O O4 0.074417 0.733053 0.927358
O O5 0.195151 0.208846 0.662806
O O6 0.258081 0.105123 0.563913
O O7 0.904392 0.066313 0.629633
O O8 0.466453 0.226013 0.250000
O O9 0.271200 0.106291 0.171750
O O10 0.752105 0.575530 0.055359
O O11 0.669624 0.750000 0.000000
#
# Coordination Sequence:
#
# PCOD9439361 Si02
#       5
#     8   8   8   8   8
#     4  10  22  39  62  83 126 159 199 246 309 351
#     4  11  23  40  64  92 122 161 203 245 306 360
#     4  10  23  42  61  87 119 158 209 252 303 359
#     4  11  20  38  59  92 123 161 194 240 294 369
#     4  10  23  40  62  91 123 158 200 252 300 361
#
# _framework density 22.365172999999999
#
# number of rings (size 3 to 8) (size 9 to 14) (size 15 to 20)
#    0.000    1.600    6.000    0.600    2.800    8.000 
#    0.000    2.000    0.000    0.000    0.000    0.000 
#    0.000    0.000    0.000    0.000    0.000    0.000 
#
# Total GULP energy -223275.233248 kJ/mol
# GULP energy per Si atom -5581.880831 kJ/mol
# Density = 2.231427 g / cm^3
# Si number density = 22.365173 Si / 1000 Ang^3
#
#
#
# Elastic Constant Matrix: (Units=GPa)
#
#
# Indices 1 2 3 4 5 6 
#
# 1 77.3991 4.1594 7.8148 0.0000 0.0000 0.0000
# 2 4.1594 84.7559 -6.0115 0.0000 0.0000 0.0000
# 3 7.8148 -6.0115 79.8841 0.0000 0.0000 0.0000
# 4 0.0000 0.0000 0.0000 14.6628 0.0000 0.0000
# 5 0.0000 0.0000 0.0000 0.0000 15.1134 0.0000
# 6 0.0000 0.0000 0.0000 0.0000 0.0000 13.0334
#
#
#
# Elastic Compliance Matrix: (Units=1/GPa)
#
#
# Indices 1 2 3 4 5 6 
#
# 1 0.013095 -0.000737 -0.001337 0.000000 0.000000 0.000000
# 2 -0.000737 0.011903 0.000968 0.000000 0.000000 0.000000
# 3 -0.001337 0.000968 0.012722 0.000000 0.000000 0.000000
# 4 0.000000 0.000000 0.000000 0.068200 0.000000 0.000000
# 5 0.000000 0.000000 0.000000 0.000000 0.066166 0.000000
# 6 0.000000 0.000000 0.000000 0.000000 0.000000 0.076726
#
#
# Mechanical properties :
#
#
# Convention : Reuss Voigt Hill
#
# Bulk Modulus (GPa) = 28.16289 28.21830 28.19060
# Shear Modulus (GPa) = 19.02153 24.30034 21.66093
#
# Velocity S-wave (km/s) = 2.91949 3.29983 3.11547
# Velocity P-wave (km/s) = 4.89737 5.21181 5.05703
#
# Compressibility (1/GPa) = 0.03550772
#
# Stress axis : x y z
#
# Youngs Moduli (GPa) = 76.36728 84.00941 78.60577
#
# Poissons Ratio (x) = 0.06195 0.10506
# Poissons Ratio (y) = 0.05631 -0.07608
# Poissons Ratio (z) = 0.10207 -0.08131
#
# Static dielectric constant tensor:
#      x y z
#    x 1.857740 0.000000 0.000000 
#    y 0.000000 1.851280 0.000000 
#    z 0.000000 0.000000 1.808770 
# 
# From -- ./inp_files/26120.got.cif
#   From: 2010.05.17/outbox.cif.g08.bks.cpg/sg57_14_cif.got.tgz:26120.got - 2010.06.03 13:58:18.
