data_PCOD9439542
_publ_section_title
;
Structure prediction by ZEFSAII (Michael W. Deem and Ramdas Pophale) SiO2 
 PCOD9439542
Probable space group: P B C M
;
_chemical_formula_sum "Si O2"
_cell_formula_units_Z 44
_cell_length_a 7.644821
_cell_length_b 13.832430
_cell_length_c 19.491342
_cell_angle_alpha 90.000000
_cell_angle_beta 90.000000
_cell_angle_gamma 90.000000
_cell_volume 2061.140248
_symmetry_space_group_name_H-M "P B C M"
_symmetry_group_IT_number 57
_symmetry_cell_setting 'orthorhombic'
loop_
_space_group_symop_operation_xyz
x,y,z
-x,-y,1/2+z
x,1/2-y,-z
-x,1/2+y,1/2-z
-x,-y,-z
x,y,1/2-z
-x,1/2+y,z
x,1/2-y,1/2+z
loop_
_atom_site_type_symbol
_atom_site_label
_atom_site_fract_x
_atom_site_fract_y
_atom_site_fract_z
Si Si1 0.160289 0.925841 0.250000
Si Si2 0.820283 0.127374 0.383952
Si Si3 0.939555 0.860060 0.750000
Si Si4 0.053694 0.135896 0.511211
Si Si5 0.272395 0.845646 0.394095
Si Si6 0.637518 0.568763 0.605812
Si Si7 0.231524 0.152871 0.750000
O O1 0.243782 0.876896 0.316015
O O2 0.953527 0.903346 0.250000
O O3 0.172682 0.041598 0.250000
O O4 0.931794 0.141017 0.315132
O O5 0.967827 0.100187 0.440545
O O6 0.728917 0.229429 0.401817
O O7 0.677227 0.043355 0.379050
O O8 0.818028 0.765796 0.750000
O O9 0.081600 0.250000 0.500000
O O10 0.898711 0.121492 0.565569
O O11 0.227369 0.095866 0.545580
O O12 0.446311 0.899247 0.418091
O O13 0.676163 0.624003 0.678295
#
# Coordination Sequence:
#
# PCOD9439542 Si02
#       7
#     4   8   4   8   8   8   4
#     4  12  21  42  67  94 130 172 216 263 328 383
#     4  11  22  41  67  95 129 176 213 266 332 383
#     4  12  22  40  74  92 126 172 216 266 328 386
#     4  10  22  42  65  94 131 175 213 264 329 385
#     4  11  24  42  64  95 136 166 214 276 319 383
#     4  12  24  41  68  97 130 170 224 265 322 395
#     4  12  21  40  65  98 124 170 216 263 318 387
#
# _framework density 21.347405999999999
#
# number of rings (size 3 to 8) (size 9 to 14) (size 15 to 20)
#    0.000    0.727    5.455    2.182    0.000    4.364 
#    0.000    3.636    0.000    0.000    0.000    0.000 
#    0.000    0.000    0.000    0.000    0.000    0.000 
#
# Total GULP energy -246114.967901 kJ/mol
# GULP energy per Si atom -5593.521998 kJ/mol
# Density = 2.129882 g / cm^3
# Si number density = 21.347406 Si / 1000 Ang^3
#
#
#
# Elastic Constant Matrix: (Units=GPa)
#
#
# Indices 1 2 3 4 5 6 
#
# 1 50.9986 -16.8926 -16.9167 0.0000 0.0000 0.0000
# 2 -16.8926 95.4662 -21.1852 0.0000 0.0000 0.0000
# 3 -16.9167 -21.1852 75.9128 0.0000 0.0000 0.0000
# 4 0.0000 0.0000 0.0000 -35.0082 0.0000 0.0000
# 5 0.0000 0.0000 0.0000 0.0000 -8.6515 0.0000
# 6 0.0000 0.0000 0.0000 0.0000 0.0000 19.5737
#
#
#
# Elastic Compliance Matrix: (Units=1/GPa)
#
#
# Indices 1 2 3 4 5 6 
#
# 1 0.023802 0.005745 0.006907 0.000000 0.000000 0.000000
# 2 0.005745 0.012553 0.004783 0.000000 0.000000 0.000000
# 3 0.006907 0.004783 0.016047 0.000000 0.000000 0.000000
# 4 0.000000 0.000000 0.000000 -0.028565 0.000000 0.000000
# 5 0.000000 0.000000 0.000000 0.000000 -0.115587 0.000000
# 6 0.000000 0.000000 0.000000 0.000000 0.000000 0.051089
#
#
# Mechanical properties :
#
#
# Convention : Reuss Voigt Hill
#
# Bulk Modulus (GPa) = 11.45826 12.48764 11.97295
# Shear Modulus (GPa) = -107.66642 13.67427 -46.99608
#
# Velocity S-wave (km/s) = -7.10949 2.53367 -4.69709
# Velocity P-wave (km/s) = 7.87490 3.79760 4.87813
#
# Compressibility (1/GPa) = 0.08727330
#
# Stress axis : x y z
#
# Youngs Moduli (GPa) = 42.01242 79.66290 62.31628
#
# Poissons Ratio (x) = -0.45764 -0.43044
# Poissons Ratio (y) = -0.24135 -0.29808
# Poissons Ratio (z) = -0.29020 -0.38105
#
# Static dielectric constant tensor:
#      x y z
#    x 1.727000 0.000000 0.000000 
#    y 0.000000 1.802980 0.000000 
#    z 0.000000 0.000000 2.237510 
# 
# From -- ./inp_files/20865.got.cif
#   From: 2010.05.17/outbox.cif.g08.bks.cpg/sg57_11_cif.got.tgz:20865.got - 2010.06.03 13:58:18.
