data_PCOD9439897
_publ_section_title
;
Structure prediction by ZEFSAII (Michael W. Deem and Ramdas Pophale) SiO2 
 PCOD9439897
Probable space group: P B C M
;
_chemical_formula_sum "Si O2"
_cell_formula_units_Z 40
_cell_length_a 15.956753
_cell_length_b 5.128021
_cell_length_c 19.403535
_cell_angle_alpha 90.000000
_cell_angle_beta 90.000000
_cell_angle_gamma 90.000000
_cell_volume 1587.724608
_symmetry_space_group_name_H-M "P B C M"
_symmetry_group_IT_number 57
_symmetry_cell_setting 'orthorhombic'
loop_
_space_group_symop_operation_xyz
x,y,z
-x,-y,1/2+z
x,1/2-y,-z
-x,1/2+y,1/2-z
-x,-y,-z
x,y,1/2-z
-x,1/2+y,z
x,1/2-y,1/2+z
loop_
_atom_site_type_symbol
_atom_site_label
_atom_site_fract_x
_atom_site_fract_y
_atom_site_fract_z
Si Si1 0.820982 0.678979 0.927986
Si Si2 0.716052 0.475509 0.327691
Si Si3 0.944973 0.113355 0.169864
Si Si4 0.554127 0.724392 0.656802
Si Si5 0.354791 0.574528 0.437871
O O1 0.789329 0.909102 0.876468
O O2 0.873453 0.479528 0.881696
O O3 0.735891 0.541804 0.953597
O O4 0.866158 0.750000 0.000000
O O5 0.741972 0.396615 0.250000
O O6 0.647519 0.706016 0.319079
O O7 0.665483 0.256436 0.370851
O O8 0.918942 0.085174 0.250000
O O9 0.020068 0.903452 0.159402
O O10 0.503377 0.466508 0.675844
O O11 0.578616 0.649751 0.578649
O O12 0.383239 0.750000 0.500000
#
# Coordination Sequence:
#
# PCOD9439897 Si02
#       5
#     8   8   8   8   8
#     4  11  24  43  72 103 144 187 237 295 350 422
#     4  11  25  45  70 101 137 186 239 294 360 428
#     4  10  24  45  70 106 147 187 233 285 348 422
#     4  11  24  46  68 101 137 182 235 295 357 424
#     4  11  24  44  72 104 143 187 239 297 358 427
#
# _framework density 25.193284999999999
#
# number of rings (size 3 to 8) (size 9 to 14) (size 15 to 20)
#    0.000    1.200    4.000    0.600    2.800    6.400 
#    0.000    0.000    0.000    0.000    0.000    0.000 
#    0.000    0.000    0.000    0.000    0.000    0.000 
#
# Total GULP energy -223558.266542 kJ/mol
# GULP energy per Si atom -5588.956664 kJ/mol
# Density = 2.513594 g / cm^3
# Si number density = 25.193285 Si / 1000 Ang^3
#
#
#
# Elastic Constant Matrix: (Units=GPa)
#
#
# Indices 1 2 3 4 5 6 
#
# 1 86.7151 24.1275 25.2670 0.0000 0.0000 0.0000
# 2 24.1275 120.0755 23.8482 0.0000 0.0000 0.0000
# 3 25.2670 23.8482 132.5668 0.0000 0.0000 0.0000
# 4 0.0000 0.0000 0.0000 -15.2859 0.0000 0.0000
# 5 0.0000 0.0000 0.0000 0.0000 22.2926 0.0000
# 6 0.0000 0.0000 0.0000 0.0000 0.0000 38.3929
#
#
#
# Elastic Compliance Matrix: (Units=1/GPa)
#
#
# Indices 1 2 3 4 5 6 
#
# 1 0.012725 -0.002152 -0.002038 0.000000 0.000000 0.000000
# 2 -0.002152 0.009001 -0.001209 0.000000 0.000000 0.000000
# 3 -0.002038 -0.001209 0.008149 0.000000 0.000000 0.000000
# 4 0.000000 0.000000 0.000000 -0.065420 0.000000 0.000000
# 5 0.000000 0.000000 0.000000 0.000000 0.044858 0.000000
# 6 0.000000 0.000000 0.000000 0.000000 0.000000 0.026046
#
#
# Mechanical properties :
#
#
# Convention : Reuss Voigt Hill
#
# Bulk Modulus (GPa) = 52.42126 53.98255 53.20190
# Shear Modulus (GPa) = 95.20805 26.82089 61.01447
#
# Velocity S-wave (km/s) = 6.15411 3.26637 4.92657
# Velocity P-wave (km/s) = 8.44691 5.97490 7.31607
#
# Compressibility (1/GPa) = 0.01907623
#
# Stress axis : x y z
#
# Youngs Moduli (GPa) = 78.58745 111.10326 122.70942
#
# Poissons Ratio (x) = 0.23910 0.25010
# Poissons Ratio (y) = 0.16912 0.14836
# Poissons Ratio (z) = 0.16017 0.13432
#
# Static dielectric constant tensor:
#      x y z
#    x 1.975740 0.000000 0.000000 
#    y 0.000000 2.049210 0.000000 
#    z 0.000000 0.000000 1.885490 
# 
# From -- ./inp_files/22780.got.cif
#   From: 2010.05.17/outbox.cif.g08.bks.cpg/sg57_12_cif.got.tgz:22780.got - 2010.06.03 13:58:18.
