data_PCOD9439142
_publ_section_title
;
Structure prediction by ZEFSAII (Michael W. Deem and Ramdas Pophale) SiO2 
 PCOD9439142
Probable space group: P B C M
;
_chemical_formula_sum "Si O2"
_cell_formula_units_Z 64
_cell_length_a 14.651699
_cell_length_b 11.947062
_cell_length_c 18.139888
_cell_angle_alpha 90.000000
_cell_angle_beta 90.000000
_cell_angle_gamma 90.000000
_cell_volume 3175.292275
_symmetry_space_group_name_H-M "P B C M"
_symmetry_group_IT_number 57
_symmetry_cell_setting 'orthorhombic'
loop_
_space_group_symop_operation_xyz
x,y,z
-x,-y,1/2+z
x,1/2-y,-z
-x,1/2+y,1/2-z
-x,-y,-z
x,y,1/2-z
-x,1/2+y,z
x,1/2-y,1/2+z
loop_
_atom_site_type_symbol
_atom_site_label
_atom_site_fract_x
_atom_site_fract_y
_atom_site_fract_z
Si Si1 0.372476 0.841000 0.392065
Si Si2 0.363666 0.912420 0.555230
Si Si3 0.171491 0.602869 0.662883
Si Si4 0.831485 0.524815 0.575644
Si Si5 0.745779 0.714318 0.664807
Si Si6 0.439761 0.087669 0.666607
Si Si7 0.866956 0.623160 0.080511
Si Si8 0.936557 0.203537 0.416892
O O1 0.393478 0.897984 0.471017
O O2 0.359123 0.710051 0.408931
O O3 0.277913 0.886349 0.359417
O O4 0.460123 0.861633 0.341861
O O5 0.263092 0.965440 0.553072
O O6 0.424254 0.991424 0.606551
O O7 0.163313 0.588869 0.750000
O O8 0.130234 0.496674 0.620300
O O9 0.118618 0.713573 0.635858
O O10 0.805765 0.605183 0.643327
O O11 0.863529 0.599094 0.506515
O O12 0.900231 0.423426 0.589389
O O13 0.759625 0.745841 0.750000
O O14 0.640496 0.678751 0.654028
O O15 0.778851 0.811715 0.610734
O O16 0.426057 0.044649 0.750000
O O17 0.956087 0.695705 0.098843
O O18 0.921984 0.250000 0.500000
#
# Coordination Sequence:
#
# PCOD9439142 Si02
#       8
#     8   8   8   8   8   8   8   8
#     4  11  21  43  67  96 132 172 221 278 333 396
#     4  10  21  40  68  96 129 170 221 279 329 392
#     4  12  27  43  67 101 136 174 221 281 348 400
#     4  11  21  43  71  96 127 174 226 276 328 400
#     4  10  24  44  63  96 140 177 221 274 334 397
#     4  10  23  41  64  96 135 178 222 266 329 399
#     4  12  25  43  70  97 135 177 225 275 336 397
#     4  12  24  44  70  97 129 174 227 278 327 406
#
# _framework density 20.155624
#
# number of rings (size 3 to 8) (size 9 to 14) (size 15 to 20)
#    0.000    1.000    3.750    2.625    1.750    3.500 
#    9.000    1.250    0.000    0.000    0.000    0.000 
#    0.000    0.000    0.000    0.000    0.000    0.000 
#
# Total GULP energy -357866.245129 kJ/mol
# GULP energy per Si atom -5591.660080 kJ/mol
# Density = 2.010975 g / cm^3
# Si number density = 20.155624 Si / 1000 Ang^3
#
#
#
# Elastic Constant Matrix: (Units=GPa)
#
#
# Indices 1 2 3 4 5 6 
#
# 1 95.2671 27.7301 16.9577 0.0000 0.0000 0.0000
# 2 27.7301 64.7655 13.9422 0.0000 0.0000 0.0000
# 3 16.9577 13.9422 54.1558 0.0000 0.0000 0.0000
# 4 0.0000 0.0000 0.0000 14.8336 0.0000 0.0000
# 5 0.0000 0.0000 0.0000 0.0000 12.6984 0.0000
# 6 0.0000 0.0000 0.0000 0.0000 0.0000 17.1564
#
#
#
# Elastic Compliance Matrix: (Units=1/GPa)
#
#
# Indices 1 2 3 4 5 6 
#
# 1 0.012341 -0.004713 -0.002651 0.000000 0.000000 0.000000
# 2 -0.004713 0.018146 -0.003196 0.000000 0.000000 0.000000
# 3 -0.002651 -0.003196 0.020118 0.000000 0.000000 0.000000
# 4 0.000000 0.000000 0.000000 0.067415 0.000000 0.000000
# 5 0.000000 0.000000 0.000000 0.000000 0.078750 0.000000
# 6 0.000000 0.000000 0.000000 0.000000 0.000000 0.058287
#
#
# Mechanical properties :
#
#
# Convention : Reuss Voigt Hill
#
# Bulk Modulus (GPa) = 33.91521 36.82760 35.37140
# Shear Modulus (GPa) = 17.48222 19.30824 18.39523
#
# Velocity S-wave (km/s) = 2.94830 3.09845 3.02430
# Velocity P-wave (km/s) = 5.33415 5.57779 5.45733
#
# Compressibility (1/GPa) = 0.02948530
#
# Stress axis : x y z
#
# Youngs Moduli (GPa) = 81.03387 55.10776 49.70665
#
# Poissons Ratio (x) = 0.25973 0.13176
# Poissons Ratio (y) = 0.38192 0.15886
# Poissons Ratio (z) = 0.21480 0.17612
#
# Static dielectric constant tensor:
#      x y z
#    x 1.698930 0.000000 0.000000 
#    y 0.000000 1.701110 0.000000 
#    z 0.000000 0.000000 1.684390 
# 
# From -- ./inp_files/22697.got.cif
#   From: 2010.05.17/outbox.cif.g08.bks.cpg/sg57_12_cif.got.tgz:22697.got - 2010.06.03 13:58:18.
