data_PCOD9439687
_publ_section_title
;
Structure prediction by ZEFSAII (Michael W. Deem and Ramdas Pophale) SiO2 
 PCOD9439687
Probable space group: P B C M
;
_chemical_formula_sum "Si O2"
_cell_formula_units_Z 32
_cell_length_a 17.643906
_cell_length_b 5.276743
_cell_length_c 15.462981
_cell_angle_alpha 90.000000
_cell_angle_beta 90.000000
_cell_angle_gamma 90.000000
_cell_volume 1439.639985
_symmetry_space_group_name_H-M "P B C M"
_symmetry_group_IT_number 57
_symmetry_cell_setting 'orthorhombic'
loop_
_space_group_symop_operation_xyz
x,y,z
-x,-y,1/2+z
x,1/2-y,-z
-x,1/2+y,1/2-z
-x,-y,-z
x,y,1/2-z
-x,1/2+y,z
x,1/2-y,1/2+z
loop_
_atom_site_type_symbol
_atom_site_label
_atom_site_fract_x
_atom_site_fract_y
_atom_site_fract_z
Si Si1 0.030296 0.454931 0.402578
Si Si2 0.456973 0.739492 0.605607
Si Si3 0.807143 0.692879 0.651016
Si Si4 0.283367 0.698323 0.602498
O O1 0.116323 0.363468 0.401219
O O2 0.000000 0.500000 0.500000
O O3 0.980353 0.231301 0.361302
O O4 0.457917 0.750000 0.500000
O O5 0.511237 0.510833 0.634105
O O6 0.370728 0.684739 0.631600
O O7 0.829701 0.736234 0.750000
O O8 0.756461 0.441027 0.644494
O O9 0.761171 0.938322 0.619723
O O10 0.282939 0.750000 0.500000
#
# Coordination Sequence:
#
# PCOD9439687 Si02
#       4
#     8   8   8   8
#     4  10  23  40  65  92 123 166 211 275 317 389
#     4   9  17  33  59  93 129 162 216 279 324 368
#     4  12  26  43  65  96 138 175 216 275 338 396
#     4  11  24  40  69  99 129 178 225 272 327 398
#
# _framework density 22.227778000000001
#
# number of rings (size 3 to 8) (size 9 to 14) (size 15 to 20)
#    0.000    1.500    0.000    4.500   10.500    5.000 
#    0.000    0.000    0.000   15.000    0.000    0.000 
#    0.000    0.000    0.000    0.000    0.000    0.000 
#
# Total GULP energy -178960.360099 kJ/mol
# GULP energy per Si atom -5592.511253 kJ/mol
# Density = 2.217719 g / cm^3
# Si number density = 22.227778 Si / 1000 Ang^3
#
#
#
# Elastic Constant Matrix: (Units=GPa)
#
#
# Indices 1 2 3 4 5 6 
#
# 1 186.6747 92.7088 31.5611 0.0000 0.0000 0.0000
# 2 92.7088 215.8738 6.7598 0.0000 0.0000 0.0000
# 3 31.5611 6.7598 65.9172 0.0000 0.0000 0.0000
# 4 0.0000 0.0000 0.0000 49.6093 0.0000 0.0000
# 5 0.0000 0.0000 0.0000 0.0000 -41.4825 0.0000
# 6 0.0000 0.0000 0.0000 0.0000 0.0000 49.9001
#
#
#
# Elastic Compliance Matrix: (Units=1/GPa)
#
#
# Indices 1 2 3 4 5 6 
#
# 1 0.007443 -0.003095 -0.003246 0.000000 0.000000 0.000000
# 2 -0.003095 0.005934 0.000873 0.000000 0.000000 0.000000
# 3 -0.003246 0.000873 0.016635 0.000000 0.000000 0.000000
# 4 0.000000 0.000000 0.000000 0.020157 0.000000 0.000000
# 5 0.000000 0.000000 0.000000 0.000000 -0.024107 0.000000
# 6 0.000000 0.000000 0.000000 0.000000 0.000000 0.020040
#
#
# Mechanical properties :
#
#
# Convention : Reuss Voigt Hill
#
# Bulk Modulus (GPa) = 52.42011 81.16945 66.79478
# Shear Modulus (GPa) = 78.86796 34.10113 56.48455
#
# Velocity S-wave (km/s) = 5.96312 3.92109 5.04647
# Velocity P-wave (km/s) = 8.42888 7.55621 8.00445
#
# Compressibility (1/GPa) = 0.01907665
#
# Stress axis : x y z
#
# Youngs Moduli (GPa) = 134.36070 168.51979 60.11319
#
# Poissons Ratio (x) = 0.52151 0.19514
# Poissons Ratio (y) = 0.41580 -0.05249
# Poissons Ratio (z) = 0.43616 -0.14715
#
# Static dielectric constant tensor:
#      x y z
#    x 1.789170 0.000000 0.000000 
#    y 0.000000 1.853190 0.000000 
#    z 0.000000 0.000000 1.669200 
# 
# From -- ./inp_files/18822.got.cif
#   From: 2010.05.17/outbox.cif.g08.bks.cpg/sg57_10_cif.got.tgz:18822.got - 2010.06.03 13:58:18.
