data_PCOD9439913
_publ_section_title
;
Structure prediction by ZEFSAII (Michael W. Deem and Ramdas Pophale) SiO2 
 PCOD9439913
Probable space group: P B C M
;
_chemical_formula_sum "Si O2"
_cell_formula_units_Z 28
_cell_length_a 13.826105
_cell_length_b 4.937708
_cell_length_c 15.960097
_cell_angle_alpha 90.000000
_cell_angle_beta 90.000000
_cell_angle_gamma 90.000000
_cell_volume 1089.584160
_symmetry_space_group_name_H-M "P B C M"
_symmetry_group_IT_number 57
_symmetry_cell_setting 'orthorhombic'
loop_
_space_group_symop_operation_xyz
x,y,z
-x,-y,1/2+z
x,1/2-y,-z
-x,1/2+y,1/2-z
-x,-y,-z
x,y,1/2-z
-x,1/2+y,z
x,1/2-y,1/2+z
loop_
_atom_site_type_symbol
_atom_site_label
_atom_site_fract_x
_atom_site_fract_y
_atom_site_fract_z
Si Si1 0.437261 0.204951 0.098878
Si Si2 0.757336 0.550720 0.659955
Si Si3 0.168406 0.750000 0.000000
Si Si4 0.064164 0.070434 0.374958
O O1 0.528161 0.401957 0.115894
O O2 0.344039 0.298205 0.148550
O O3 0.415333 0.250000 0.000000
O O4 0.760678 0.407287 0.750000
O O5 0.772080 0.355282 0.579756
O O6 0.841810 0.776458 0.658748
O O7 0.100141 0.991086 0.031467
O O8 0.976884 0.273823 0.352394
#
# Coordination Sequence:
#
# PCOD9439913 Si02
#       4
#     8   8   4   8
#     4  10  24  47  80 111 145 197 256 320 392 466
#     4  12  30  49  76 118 163 209 266 331 396 469
#     4  12  26  50  82 112 160 212 266 328 388 474
#     4  12  26  49  79 110 150 205 260 321 392 465
#
# _framework density 25.697879
#
# number of rings (size 3 to 8) (size 9 to 14) (size 15 to 20)
#    0.000    0.571    2.857    3.429   10.000    3.429 
#    0.000    0.000    0.000    0.000    0.000    0.000 
#    0.000    0.000    0.000    0.000    0.000    0.000 
#
# Total GULP energy -156664.763010 kJ/mol
# GULP energy per Si atom -5595.170108 kJ/mol
# Density = 2.563939 g / cm^3
# Si number density = 25.697879 Si / 1000 Ang^3
#
#
#
# Elastic Constant Matrix: (Units=GPa)
#
#
# Indices 1 2 3 4 5 6 
#
# 1 111.0833 2.2264 49.5787 0.0000 0.0000 0.0000
# 2 2.2264 120.1769 45.1969 0.0000 0.0000 0.0000
# 3 49.5787 45.1969 171.8271 0.0000 0.0000 0.0000
# 4 0.0000 0.0000 0.0000 17.0207 0.0000 0.0000
# 5 0.0000 0.0000 0.0000 0.0000 -241.2020 0.0000
# 6 0.0000 0.0000 0.0000 0.0000 0.0000 25.5138
#
#
#
# Elastic Compliance Matrix: (Units=1/GPa)
#
#
# Indices 1 2 3 4 5 6 
#
# 1 0.010450 0.001044 -0.003290 0.000000 0.000000 0.000000
# 2 0.001044 0.009339 -0.002758 0.000000 0.000000 0.000000
# 3 -0.003290 -0.002758 0.007494 0.000000 0.000000 0.000000
# 4 0.000000 0.000000 0.000000 0.058752 0.000000 0.000000
# 5 0.000000 0.000000 0.000000 0.000000 -0.004146 0.000000
# 6 0.000000 0.000000 0.000000 0.000000 0.000000 0.039195
#
#
# Mechanical properties :
#
#
# Convention : Reuss Voigt Hill
#
# Bulk Modulus (GPa) = 57.88536 66.34346 62.11441
# Shear Modulus (GPa) = 36.53660 -19.32782 8.60439
#
# Velocity S-wave (km/s) = 3.77473 -2.74545 1.83182
# Velocity P-wave (km/s) = 6.44767 3.97778 5.35701
#
# Compressibility (1/GPa) = 0.01727553
#
# Stress axis : x y z
#
# Youngs Moduli (GPa) = 95.69796 107.07999 133.43437
#
# Poissons Ratio (x) = -0.11175 0.43894
# Poissons Ratio (y) = -0.09987 0.36795
# Poissons Ratio (z) = 0.31481 0.29528
#
# Static dielectric constant tensor:
#      x y z
#    x 1.979650 0.000000 0.000000 
#    y 0.000000 1.986890 0.000000 
#    z 0.000000 0.000000 2.105710 
# 
# From -- ./inp_files/22215.got.cif
#   From: 2010.05.17/outbox.cif.g08.bks.cpg/sg57_12_cif.got.tgz:22215.got - 2010.06.03 13:58:18.
