data_PCOD9439825
_publ_section_title
;
Structure prediction by ZEFSAII (Michael W. Deem and Ramdas Pophale) SiO2 
 PCOD9439825
Probable space group: P B C M
;
_chemical_formula_sum "Si O2"
_cell_formula_units_Z 52
_cell_length_a 12.231437
_cell_length_b 9.127075
_cell_length_c 25.750799
_cell_angle_alpha 90.000000
_cell_angle_beta 90.000000
_cell_angle_gamma 90.000000
_cell_volume 2874.748202
_symmetry_space_group_name_H-M "P B C M"
_symmetry_group_IT_number 57
_symmetry_cell_setting 'orthorhombic'
loop_
_space_group_symop_operation_xyz
x,y,z
-x,-y,1/2+z
x,1/2-y,-z
-x,1/2+y,1/2-z
-x,-y,-z
x,y,1/2-z
-x,1/2+y,z
x,1/2-y,1/2+z
loop_
_atom_site_type_symbol
_atom_site_label
_atom_site_fract_x
_atom_site_fract_y
_atom_site_fract_z
Si Si1 0.748834 0.016288 0.088770
Si Si2 0.453505 0.126376 0.964111
Si Si3 0.567179 0.297697 0.190220
Si Si4 0.849481 0.504178 0.476921
Si Si5 0.988959 0.750000 0.500000
Si Si6 0.346537 0.034837 0.810179
Si Si7 0.322843 0.843625 0.090070
O O1 0.743366 0.192297 0.088997
O O2 0.632108 0.947122 0.073511
O O3 0.753207 0.963354 0.148546
O O4 0.822111 0.979774 0.038567
O O5 0.560043 0.190439 0.936120
O O6 0.400171 0.250000 0.000000
O O7 0.500000 0.000000 0.000000
O O8 0.591435 0.335675 0.250000
O O9 0.441135 0.343421 0.181234
O O10 0.644413 0.380576 0.148950
O O11 0.592994 0.124440 0.183220
O O12 0.911839 0.652778 0.462812
O O13 0.743223 0.462618 0.443435
O O14 0.932791 0.368184 0.472686
O O15 0.311659 0.044309 0.750000
#
# Coordination Sequence:
#
# PCOD9439825 Si02
#       7
#     8   8   8   8   4   8   8
#     4  11  20  32  51  77 106 143 170 208 251 313
#     4  12  21  29  43  73 112 136 168 198 248 305
#     4   9  18  31  48  72 106 145 177 206 241 291
#     4  11  21  39  56  77  99 133 168 218 269 316
#     4  10  24  40  56  74 100 126 174 222 272 316
#     4   9  18  32  48  71 106 146 178 204 240 291
#     4  11  19  33  51  75 106 145 170 207 251 314
#
# _framework density 18.088542
#
# number of rings (size 3 to 8) (size 9 to 14) (size 15 to 20)
#    0.000    1.538    6.154    0.000    1.077    0.000 
#    2.769    0.000    0.000    0.000    0.000    6.462 
#    0.000    0.000    0.000    0.000    0.000    0.000 
#
# Total GULP energy -289632.660411 kJ/mol
# GULP energy per Si atom -5569.858854 kJ/mol
# Density = 1.804737 g / cm^3
# Si number density = 18.088542 Si / 1000 Ang^3
#
#
#
# Elastic Constant Matrix: (Units=GPa)
#
#
# Indices 1 2 3 4 5 6 
#
# 1 46.1660 5.9630 18.7875 0.0000 0.0000 0.0000
# 2 5.9630 49.9889 13.4241 0.0000 0.0000 0.0000
# 3 18.7875 13.4241 100.1475 0.0000 0.0000 0.0000
# 4 0.0000 0.0000 0.0000 13.1797 0.0000 0.0000
# 5 0.0000 0.0000 0.0000 0.0000 8.8073 0.0000
# 6 0.0000 0.0000 0.0000 0.0000 0.0000 24.8690
#
#
#
# Elastic Compliance Matrix: (Units=1/GPa)
#
#
# Indices 1 2 3 4 5 6 
#
# 1 0.023588 -0.001686 -0.004199 0.000000 0.000000 0.000000
# 2 -0.001686 0.020872 -0.002481 0.000000 0.000000 0.000000
# 3 -0.004199 -0.002481 0.011106 0.000000 0.000000 0.000000
# 4 0.000000 0.000000 0.000000 0.075874 0.000000 0.000000
# 5 0.000000 0.000000 0.000000 0.000000 0.113542 0.000000
# 6 0.000000 0.000000 0.000000 0.000000 0.000000 0.040211
#
#
# Mechanical properties :
#
#
# Convention : Reuss Voigt Hill
#
# Bulk Modulus (GPa) = 25.75189 30.29463 28.02326
# Shear Modulus (GPa) = 15.87962 19.91306 17.89634
#
# Velocity S-wave (km/s) = 2.96612 3.32153 3.14884
# Velocity P-wave (km/s) = 5.09882 5.61199 5.36155
#
# Compressibility (1/GPa) = 0.03883211
#
# Stress axis : x y z
#
# Youngs Moduli (GPa) = 42.39533 47.91122 90.04459
#
# Poissons Ratio (x) = 0.08078 0.37809
# Poissons Ratio (y) = 0.07148 0.22344
# Poissons Ratio (z) = 0.17802 0.11889
#
# Static dielectric constant tensor:
#      x y z
#    x 1.647760 0.000000 0.000000 
#    y 0.000000 1.653940 0.000000 
#    z 0.000000 0.000000 1.706790 
# 
# From -- ./inp_files/28573.got.cif
#   From: 2010.05.17/outbox.cif.g08.bks.cpg/sg57_15_cif.got.tgz:28573.got - 2010.06.03 13:58:18.
