data_PCOD9439882
_publ_section_title
;
Structure prediction by ZEFSAII (Michael W. Deem and Ramdas Pophale) SiO2 
 PCOD9439882
Probable space group: P B C M
;
_chemical_formula_sum "Si O2"
_cell_formula_units_Z 36
_cell_length_a 4.813697
_cell_length_b 9.971936
_cell_length_c 26.960810
_cell_angle_alpha 90.000000
_cell_angle_beta 90.000000
_cell_angle_gamma 90.000000
_cell_volume 1294.169523
_symmetry_space_group_name_H-M "P B C M"
_symmetry_group_IT_number 57
_symmetry_cell_setting 'orthorhombic'
loop_
_space_group_symop_operation_xyz
x,y,z
-x,-y,1/2+z
x,1/2-y,-z
-x,1/2+y,1/2-z
-x,-y,-z
x,y,1/2-z
-x,1/2+y,z
x,1/2-y,1/2+z
loop_
_atom_site_type_symbol
_atom_site_label
_atom_site_fract_x
_atom_site_fract_y
_atom_site_fract_z
Si Si1 0.556784 0.915433 0.080017
Si Si2 0.238147 0.750000 0.000000
Si Si3 0.653295 0.672748 0.250000
Si Si4 0.055574 0.411241 0.586154
Si Si5 0.012755 0.916241 0.250000
Si Si6 0.289625 0.756355 0.834977
O O1 0.438220 0.849280 0.030456
O O2 0.478057 0.821443 0.125635
O O3 0.879146 0.951074 0.081082
O O4 0.377230 0.051577 0.086276
O O5 0.044390 0.672193 0.038791
O O6 0.917841 0.574035 0.250000
O O7 0.471913 0.650073 0.200986
O O8 0.725109 0.832578 0.250000
O O9 0.940906 0.339043 0.634980
O O10 0.150861 0.853634 0.200737
#
# Coordination Sequence:
#
# PCOD9439882 Si02
#       6
#     8   4   4   8   4   8
#     4  11  25  43  72 101 145 187 245 302 367 441
#     4  10  24  44  68 106 138 192 238 302 370 440
#     4  11  26  48  71 112 144 200 248 312 374 445
#     4  11  25  43  71 102 144 189 243 303 367 441
#     4  11  26  44  77 102 150 194 252 310 374 445
#     4  10  26  44  69 103 146 191 251 303 377 437
#
# _framework density 27.817066000000001
#
# number of rings (size 3 to 8) (size 9 to 14) (size 15 to 20)
#    0.000    1.333    0.000    2.667    9.333   10.667 
#    0.000    0.000    0.000    0.000    0.000    0.000 
#    0.000    0.000    0.000    0.000    0.000    0.000 
#
# Total GULP energy -202490.130812 kJ/mol
# GULP energy per Si atom -5624.725856 kJ/mol
# Density = 2.775375 g / cm^3
# Si number density = 27.817066 Si / 1000 Ang^3
#
#
#
# Elastic Constant Matrix: (Units=GPa)
#
#
# Indices 1 2 3 4 5 6 
#
# 1 104.8513 16.1189 29.2785 0.0000 0.0000 0.0000
# 2 16.1189 95.1962 57.8421 0.0000 0.0000 0.0000
# 3 29.2785 57.8421 174.4734 0.0000 0.0000 0.0000
# 4 0.0000 0.0000 0.0000 33.8343 0.0000 0.0000
# 5 0.0000 0.0000 0.0000 0.0000 21.8445 0.0000
# 6 0.0000 0.0000 0.0000 0.0000 0.0000 59.0571
#
#
#
# Elastic Compliance Matrix: (Units=1/GPa)
#
#
# Indices 1 2 3 4 5 6 
#
# 1 0.010061 -0.000849 -0.001407 0.000000 0.000000 0.000000
# 2 -0.000849 0.013226 -0.004242 0.000000 0.000000 0.000000
# 3 -0.001407 -0.004242 0.007374 0.000000 0.000000 0.000000
# 4 0.000000 0.000000 0.000000 0.029556 0.000000 0.000000
# 5 0.000000 0.000000 0.000000 0.000000 0.045778 0.000000
# 6 0.000000 0.000000 0.000000 0.000000 0.000000 0.016933
#
#
# Mechanical properties :
#
#
# Convention : Reuss Voigt Hill
#
# Bulk Modulus (GPa) = 56.60937 64.55554 60.58245
# Shear Modulus (GPa) = 35.25805 41.03259 38.14532
#
# Velocity S-wave (km/s) = 3.56405 3.84485 3.70711
# Velocity P-wave (km/s) = 6.10994 6.55500 6.33638
#
# Compressibility (1/GPa) = 0.01766492
#
# Stress axis : x y z
#
# Youngs Moduli (GPa) = 99.39716 75.60867 135.61037
#
# Poissons Ratio (x) = 0.06416 0.19080
# Poissons Ratio (y) = 0.08435 0.57530
# Poissons Ratio (z) = 0.13985 0.32076
#
# Static dielectric constant tensor:
#      x y z
#    x 2.088320 0.000000 0.000000 
#    y 0.000000 2.180160 0.000000 
#    z 0.000000 0.000000 2.080620 
# 
# From -- ./inp_files/26050.got.cif
#   From: 2010.05.17/outbox.cif.g08.bks.cpg/sg57_14_cif.got.tgz:26050.got - 2010.06.03 13:58:18.
