data_PCOD9439568
_publ_section_title
;
Structure prediction by ZEFSAII (Michael W. Deem and Ramdas Pophale) SiO2 
 PCOD9439568
Probable space group: P B C M
;
_chemical_formula_sum "Si O2"
_cell_formula_units_Z 40
_cell_length_a 15.743739
_cell_length_b 11.766518
_cell_length_c 10.254105
_cell_angle_alpha 90.000000
_cell_angle_beta 90.000000
_cell_angle_gamma 90.000000
_cell_volume 1899.562577
_symmetry_space_group_name_H-M "P B C M"
_symmetry_group_IT_number 57
_symmetry_cell_setting 'orthorhombic'
loop_
_space_group_symop_operation_xyz
x,y,z
-x,-y,1/2+z
x,1/2-y,-z
-x,1/2+y,1/2-z
-x,-y,-z
x,y,1/2-z
-x,1/2+y,z
x,1/2-y,1/2+z
loop_
_atom_site_type_symbol
_atom_site_label
_atom_site_fract_x
_atom_site_fract_y
_atom_site_fract_z
Si Si1 0.326166 0.322095 0.613839
Si Si2 0.120662 0.480568 0.250000
Si Si3 0.077412 0.962567 0.250000
Si Si4 0.431002 0.547832 0.898664
Si Si5 0.809761 0.231015 0.250000
Si Si6 0.861676 0.628424 0.023264
Si Si7 0.686933 0.250000 0.500000
O O1 0.366105 0.250000 0.500000
O O2 0.341378 0.261921 0.750000
O O3 0.365195 0.445160 0.615481
O O4 0.226461 0.337186 0.591127
O O5 0.133059 0.616725 0.250000
O O6 0.157321 0.429264 0.383982
O O7 0.022741 0.441186 0.250000
O O8 0.134424 0.847753 0.250000
O O9 0.095571 0.039123 0.378674
O O10 0.462021 0.574258 0.750000
O O11 0.376465 0.649318 0.959270
O O12 0.500000 0.500000 0.000000
O O13 0.748773 0.227713 0.376852
O O14 0.908413 0.750000 0.000000
#
# Coordination Sequence:
#
# PCOD9439568 Si02
#       7
#     8   4   4   8   4   8   4
#     4  10  22  42  68  97 133 178 225 279 338 417
#     4  12  27  42  69 106 138 185 244 302 366 428
#     4  12  25  46  69 102 146 181 238 310 362 422
#     4  11  26  46  72 105 147 181 232 294 354 421
#     4  12  26  46  78 102 146 200 256 296 366 450
#     4  11  24  43  70  97 138 183 233 289 363 435
#     4  12  26  50  74 106 142 200 242 294 358 446
#
# _framework density 21.057480999999999
#
# number of rings (size 3 to 8) (size 9 to 14) (size 15 to 20)
#    0.000    0.800    2.000    4.800    9.800    0.800 
#    0.000    0.000    0.000    0.000    0.000    0.000 
#    0.000    0.000    0.000    0.000    0.000    0.000 
#
# Total GULP energy -223419.521586 kJ/mol
# GULP energy per Si atom -5585.488040 kJ/mol
# Density = 2.100955 g / cm^3
# Si number density = 21.057481 Si / 1000 Ang^3
#
#
#
# Elastic Constant Matrix: (Units=GPa)
#
#
# Indices 1 2 3 4 5 6 
#
# 1 63.8453 25.7415 34.1462 0.0000 0.0000 0.0000
# 2 25.7415 138.1274 71.6981 0.0000 0.0000 0.0000
# 3 34.1462 71.6981 203.0286 0.0000 0.0000 0.0000
# 4 0.0000 0.0000 0.0000 37.8174 0.0000 0.0000
# 5 0.0000 0.0000 0.0000 0.0000 24.7317 0.0000
# 6 0.0000 0.0000 0.0000 0.0000 0.0000 33.6789
#
#
#
# Elastic Compliance Matrix: (Units=1/GPa)
#
#
# Indices 1 2 3 4 5 6 
#
# 1 0.017717 -0.002149 -0.002221 0.000000 0.000000 0.000000
# 2 -0.002149 0.009125 -0.002861 0.000000 0.000000 0.000000
# 3 -0.002221 -0.002861 0.006309 0.000000 0.000000 0.000000
# 4 0.000000 0.000000 0.000000 0.026443 0.000000 0.000000
# 5 0.000000 0.000000 0.000000 0.000000 0.040434 0.000000
# 6 0.000000 0.000000 0.000000 0.000000 0.000000 0.029692
#
#
# Mechanical properties :
#
#
# Convention : Reuss Voigt Hill
#
# Bulk Modulus (GPa) = 53.50511 74.24145 63.87328
# Shear Modulus (GPa) = 33.24195 37.47331 35.35763
#
# Velocity S-wave (km/s) = 3.97751 4.22307 4.10213
# Velocity P-wave (km/s) = 6.82337 7.68845 7.26879
#
# Compressibility (1/GPa) = 0.01868980
#
# Stress axis : x y z
#
# Youngs Moduli (GPa) = 56.44277 109.58538 158.49606
#
# Poissons Ratio (x) = 0.23550 0.35199
# Poissons Ratio (y) = 0.12130 0.45347
# Poissons Ratio (z) = 0.12535 0.31354
#
# Static dielectric constant tensor:
#      x y z
#    x 1.711470 0.000000 0.000000 
#    y 0.000000 1.772190 0.000000 
#    z 0.000000 0.000000 1.827650 
# 
# From -- ./inp_files/6320.got.cif
#   From: 2010.05.17/outbox.cif.g08.bks.cpg/sg57_4_cif.got.tgz:6320.got - 2010.06.03 13:58:18.
