data_PCOD9439259
_publ_section_title
;
Structure prediction by ZEFSAII (Michael W. Deem and Ramdas Pophale) SiO2 
 PCOD9439259
Probable space group: P B C M
;
_chemical_formula_sum "Si O2"
_cell_formula_units_Z 48
_cell_length_a 11.154169
_cell_length_b 9.189195
_cell_length_c 24.587569
_cell_angle_alpha 90.000000
_cell_angle_beta 90.000000
_cell_angle_gamma 90.000000
_cell_volume 2520.172566
_symmetry_space_group_name_H-M "P B C M"
_symmetry_group_IT_number 57
_symmetry_cell_setting 'orthorhombic'
loop_
_space_group_symop_operation_xyz
x,y,z
-x,-y,1/2+z
x,1/2-y,-z
-x,1/2+y,1/2-z
-x,-y,-z
x,y,1/2-z
-x,1/2+y,z
x,1/2-y,1/2+z
loop_
_atom_site_type_symbol
_atom_site_label
_atom_site_fract_x
_atom_site_fract_y
_atom_site_fract_z
Si Si1 0.021036 0.507446 0.359706
Si Si2 0.839273 0.284506 0.187002
Si Si3 0.347600 0.842731 0.406074
Si Si4 0.212014 0.363080 0.427822
Si Si5 0.455415 0.538932 0.061055
Si Si6 0.164054 0.049891 0.045530
O O1 0.082514 0.646927 0.333070
O O2 0.127206 0.398545 0.377406
O O3 0.923492 0.425253 0.323098
O O4 0.949782 0.547432 0.415050
O O5 0.808434 0.270159 0.250000
O O6 0.723235 0.298777 0.148306
O O7 0.441489 0.974428 0.400228
O O8 0.420539 0.706686 0.430420
O O9 0.242796 0.905520 0.445482
O O10 0.334192 0.451271 0.426969
O O11 0.236581 0.192737 0.434767
O O12 0.143615 0.418081 0.482427
O O13 0.500000 0.500000 0.000000
#
# Coordination Sequence:
#
# PCOD9439259 Si02
#       6
#     8   8   8   8   8   8
#     4  11  21  41  63  94 127 158 209 264 319 375
#     4  11  24  44  68  90 120 166 217 269 318 361
#     4  11  24  41  61  91 128 164 213 260 302 368
#     4  11  21  37  59  93 129 170 202 247 309 386
#     4  12  23  37  62  91 127 171 206 244 308 381
#     4  10  22  36  58  93 134 164 201 245 316 387
#
# _framework density 19.046315
#
# number of rings (size 3 to 8) (size 9 to 14) (size 15 to 20)
#    0.000    1.000    5.000    2.500    2.333    0.000 
#    0.000    0.833    0.000    0.000    0.000    0.000 
#    0.000    0.000    0.000    0.000    0.000    0.000 
#
# Total GULP energy -268063.651695 kJ/mol
# GULP energy per Si atom -5584.659410 kJ/mol
# Density = 1.900297 g / cm^3
# Si number density = 19.046315 Si / 1000 Ang^3
#
#
#
# Elastic Constant Matrix: (Units=GPa)
#
#
# Indices 1 2 3 4 5 6 
#
# 1 60.8098 41.0305 49.6946 0.0000 0.0000 0.0000
# 2 41.0305 113.1826 38.3669 0.0000 0.0000 0.0000
# 3 49.6946 38.3669 87.0927 0.0000 0.0000 0.0000
# 4 0.0000 0.0000 0.0000 14.4621 0.0000 0.0000
# 5 0.0000 0.0000 0.0000 0.0000 16.0037 0.0000
# 6 0.0000 0.0000 0.0000 0.0000 0.0000 46.9094
#
#
#
# Elastic Compliance Matrix: (Units=1/GPa)
#
#
# Indices 1 2 3 4 5 6 
#
# 1 0.034904 -0.006938 -0.016860 0.000000 0.000000 0.000000
# 2 -0.006938 0.011765 -0.001224 0.000000 0.000000 0.000000
# 3 -0.016860 -0.001224 0.021641 0.000000 0.000000 0.000000
# 4 0.000000 0.000000 0.000000 0.069146 0.000000 0.000000
# 5 0.000000 0.000000 0.000000 0.000000 0.062486 0.000000
# 6 0.000000 0.000000 0.000000 0.000000 0.000000 0.021318
#
#
# Mechanical properties :
#
#
# Convention : Reuss Voigt Hill
#
# Bulk Modulus (GPa) = 54.74364 57.69657 56.22011
# Shear Modulus (GPa) = 18.02495 24.27457 21.14976
#
# Velocity S-wave (km/s) = 3.07966 3.57389 3.33594
# Velocity P-wave (km/s) = 6.43821 6.88395 6.66481
#
# Compressibility (1/GPa) = 0.01826696
#
# Stress axis : x y z
#
# Youngs Moduli (GPa) = 28.64998 84.99477 46.20799
#
# Poissons Ratio (x) = 0.58971 0.77905
# Poissons Ratio (y) = 0.19878 0.05657
# Poissons Ratio (z) = 0.48303 0.10405
#
# Static dielectric constant tensor:
#      x y z
#    x 1.679530 0.000000 0.000000 
#    y 0.000000 1.697930 0.000000 
#    z 0.000000 0.000000 1.642270 
# 
# From -- ./inp_files/27108.got.cif
#   From: 2010.05.17/outbox.cif.g08.bks.cpg/sg57_14_cif.got.tgz:27108.got - 2010.06.03 13:58:18.
