data_PCOD9439586
_publ_section_title
;
Structure prediction by ZEFSAII (Michael W. Deem and Ramdas Pophale) SiO2 
 PCOD9439586
Probable space group: P B C M
;
_chemical_formula_sum "Si O2"
_cell_formula_units_Z 36
_cell_length_a 5.169100
_cell_length_b 26.188479
_cell_length_c 9.749478
_cell_angle_alpha 90.000000
_cell_angle_beta 90.000000
_cell_angle_gamma 90.000000
_cell_volume 1319.795288
_symmetry_space_group_name_H-M "P B C M"
_symmetry_group_IT_number 57
_symmetry_cell_setting 'orthorhombic'
loop_
_space_group_symop_operation_xyz
x,y,z
-x,-y,1/2+z
x,1/2-y,-z
-x,1/2+y,1/2-z
-x,-y,-z
x,y,1/2-z
-x,1/2+y,z
x,1/2-y,1/2+z
loop_
_atom_site_type_symbol
_atom_site_label
_atom_site_fract_x
_atom_site_fract_y
_atom_site_fract_z
Si Si1 0.472071 0.112252 0.997447
Si Si2 0.817902 0.353377 0.250000
Si Si3 0.744475 0.439187 0.750000
Si Si4 0.531495 0.294971 0.512557
Si Si5 0.119769 0.662551 0.250000
Si Si6 0.811148 0.943362 0.250000
Si Si7 0.211956 0.238721 0.750000
O O1 0.642608 0.151726 0.886983
O O2 0.340950 0.075443 0.884567
O O3 0.581048 0.073882 0.112482
O O4 0.284807 0.160488 0.023951
O O5 0.926576 0.410416 0.250000
O O6 0.040880 0.311820 0.250000
O O7 0.971052 0.396302 0.750000
O O8 0.843658 0.496379 0.750000
O O9 0.765623 0.250000 0.500000
O O10 0.680955 0.332507 0.623353
O O11 0.401056 0.242332 0.617768
O O12 0.946494 0.710815 0.250000
#
# Coordination Sequence:
#
# PCOD9439586 Si02
#       7
#     8   4   4   8   4   4   4
#     4  10  22  43  66 101 135 177 232 294 347 415
#     4  11  22  39  71  99 130 176 242 281 338 422
#     4  10  23  42  68  93 144 183 220 293 362 402
#     4  11  22  42  68 100 139 180 228 286 354 426
#     4  10  25  44  65 107 148 181 230 296 358 421
#     4  11  21  43  70 100 127 186 242 278 339 429
#     4  12  23  44  74 101 139 192 232 288 355 432
#
# _framework density 27.276956999999999
#
# number of rings (size 3 to 8) (size 9 to 14) (size 15 to 20)
#    0.000    1.333    2.222    3.333    0.000    5.333 
#    0.000    3.333    9.778    0.000    0.000    0.000 
#    0.000    0.000    0.000    0.000    0.000    0.000 
#
# Total GULP energy -200402.547100 kJ/mol
# GULP energy per Si atom -5566.737419 kJ/mol
# Density = 2.721487 g / cm^3
# Si number density = 27.276957 Si / 1000 Ang^3
#
#
#
# Elastic Constant Matrix: (Units=GPa)
#
#
# Indices 1 2 3 4 5 6 
#
# 1 68.4031 25.9732 23.4086 0.0000 0.0000 0.0000
# 2 25.9732 297.7811 8.5594 0.0000 0.0000 0.0000
# 3 23.4086 8.5594 184.5306 0.0000 0.0000 0.0000
# 4 0.0000 0.0000 0.0000 524.0023 0.0000 0.0000
# 5 0.0000 0.0000 0.0000 0.0000 25.4644 0.0000
# 6 0.0000 0.0000 0.0000 0.0000 0.0000 38.3546
#
#
#
# Elastic Compliance Matrix: (Units=1/GPa)
#
#
# Indices 1 2 3 4 5 6 
#
# 1 0.015785 -0.001321 -0.001941 0.000000 0.000000 0.000000
# 2 -0.001321 0.003473 0.000006 0.000000 0.000000 0.000000
# 3 -0.001941 0.000006 0.005665 0.000000 0.000000 0.000000
# 4 0.000000 0.000000 0.000000 0.001908 0.000000 0.000000
# 5 0.000000 0.000000 0.000000 0.000000 0.039270 0.000000
# 6 0.000000 0.000000 0.000000 0.000000 0.000000 0.026072
#
#
# Mechanical properties :
#
#
# Convention : Reuss Voigt Hill
#
# Bulk Modulus (GPa) = 54.31230 74.06637 64.18934
# Shear Modulus (GPa) = 47.69925 150.41585 99.05755
#
# Velocity S-wave (km/s) = 4.18628 7.43395 6.03277
# Velocity P-wave (km/s) = 6.58189 10.04476 8.49172
#
# Compressibility (1/GPa) = 0.01841204
#
# Stress axis : x y z
#
# Youngs Moduli (GPa) = 63.35083 287.91827 176.51944
#
# Poissons Ratio (x) = 0.38035 0.34265
# Poissons Ratio (y) = 0.08369 -0.00114
# Poissons Ratio (z) = 0.12297 -0.00186
#
# Static dielectric constant tensor:
#      x y z
#    x 2.189240 0.000000 0.000000 
#    y 0.000000 2.464250 0.000000 
#    z 0.000000 0.000000 2.473540 
# 
# From -- ./inp_files/10888.got.cif
#   From: 2010.05.17/outbox.cif.g08.bks.cpg/sg57_6_cif.got.tgz:10888.got - 2010.06.03 13:58:18.
