data_PCOD9439136
_publ_section_title
;
Structure prediction by ZEFSAII (Michael W. Deem and Ramdas Pophale) SiO2 
 PCOD9439136
Probable space group: P B C M
;
_chemical_formula_sum "Si O2"
_cell_formula_units_Z 48
_cell_length_a 16.567416
_cell_length_b 7.903031
_cell_length_c 16.153793
_cell_angle_alpha 90.000000
_cell_angle_beta 90.000000
_cell_angle_gamma 90.000000
_cell_volume 2115.061384
_symmetry_space_group_name_H-M "P B C M"
_symmetry_group_IT_number 57
_symmetry_cell_setting 'orthorhombic'
loop_
_space_group_symop_operation_xyz
x,y,z
-x,-y,1/2+z
x,1/2-y,-z
-x,1/2+y,1/2-z
-x,-y,-z
x,y,1/2-z
-x,1/2+y,z
x,1/2-y,1/2+z
loop_
_atom_site_type_symbol
_atom_site_label
_atom_site_fract_x
_atom_site_fract_y
_atom_site_fract_z
Si Si1 0.846151 0.586250 0.446473
Si Si2 0.124734 0.917524 0.611419
Si Si3 0.406446 0.545557 0.000569
Si Si4 0.306862 0.924700 0.839969
Si Si5 0.693597 0.484379 0.156186
Si Si6 0.019676 0.240226 0.655320
O O1 0.817130 0.750000 0.500000
O O2 0.859172 0.441867 0.514473
O O3 0.781199 0.538842 0.377372
O O4 0.930381 0.642770 0.407319
O O5 0.211051 0.950563 0.651794
O O6 0.075452 0.750075 0.635469
O O7 0.063144 0.061546 0.642306
O O8 0.356214 0.498264 0.083287
O O9 0.399818 0.750000 0.000000
O O10 0.500000 0.500000 0.000000
O O11 0.366885 0.467412 0.917949
O O12 0.335393 0.985682 0.750000
O O13 0.312996 0.720091 0.841499
O O14 0.679037 0.546167 0.250000
O O15 0.031463 0.292386 0.750000
#
# Coordination Sequence:
#
# PCOD9439136 Si02
#       6
#     8   8   8   8   8   8
#     4  10  22  39  59  87 125 166 215 269 323 380
#     4  11  23  41  61  88 129 172 219 265 326 377
#     4  10  22  42  67  96 131 165 206 264 323 394
#     4  10  21  40  67  95 128 174 220 266 323 387
#     4  10  21  40  68  96 122 167 219 263 321 393
#     4  11  23  38  57  87 125 168 216 268 319 375
#
# _framework density 22.694376999999999
#
# number of rings (size 3 to 8) (size 9 to 14) (size 15 to 20)
#    0.000    1.667    1.667    2.500    2.333    1.333 
#    0.000    0.000    0.000    0.000    0.000    0.000 
#    0.000    0.000    0.000    0.000    0.000    0.000 
#
# Total GULP energy -268375.541011 kJ/mol
# GULP energy per Si atom -5591.157104 kJ/mol
# Density = 2.264272 g / cm^3
# Si number density = 22.694377 Si / 1000 Ang^3
#
#
#
# Elastic Constant Matrix: (Units=GPa)
#
#
# Indices 1 2 3 4 5 6 
#
# 1 145.0238 3.5665 77.6634 0.0000 0.0000 0.0000
# 2 3.5665 36.1980 18.8632 0.0000 0.0000 0.0000
# 3 77.6634 18.8632 213.7709 0.0000 0.0000 0.0000
# 4 0.0000 0.0000 0.0000 20.9386 0.0000 0.0000
# 5 0.0000 0.0000 0.0000 0.0000 6.1117 0.0000
# 6 0.0000 0.0000 0.0000 0.0000 0.0000 30.2758
#
#
#
# Elastic Compliance Matrix: (Units=1/GPa)
#
#
# Indices 1 2 3 4 5 6 
#
# 1 0.008584 0.000817 -0.003191 0.000000 0.000000 0.000000
# 2 0.000817 0.029035 -0.002859 0.000000 0.000000 0.000000
# 3 -0.003191 -0.002859 0.006089 0.000000 0.000000 0.000000
# 4 0.000000 0.000000 0.000000 0.047759 0.000000 0.000000
# 5 0.000000 0.000000 0.000000 0.000000 0.163621 0.000000
# 6 0.000000 0.000000 0.000000 0.000000 0.000000 0.033030
#
#
# Mechanical properties :
#
#
# Convention : Reuss Voigt Hill
#
# Bulk Modulus (GPa) = 30.08128 66.13098 48.10613
# Shear Modulus (GPa) = 16.14650 31.12519 23.63584
#
# Velocity S-wave (km/s) = 2.67024 3.70739 3.23071
# Velocity P-wave (km/s) = 4.77396 6.89415 5.92959
#
# Compressibility (1/GPa) = 0.03324327
#
# Stress axis : x y z
#
# Youngs Moduli (GPa) = 116.49582 34.44107 164.22124
#
# Poissons Ratio (x) = -0.02814 0.52398
# Poissons Ratio (y) = -0.09517 0.46948
# Poissons Ratio (z) = 0.37170 0.09846
#
# Static dielectric constant tensor:
#      x y z
#    x 1.796020 0.000000 0.000000 
#    y 0.000000 1.972160 0.000000 
#    z 0.000000 0.000000 1.853430 
# 
# From -- ./inp_files/18923.got.cif
#   From: 2010.05.17/outbox.cif.g08.bks.cpg/sg57_10_cif.got.tgz:18923.got - 2010.06.03 13:58:18.
