data_PCOD9439313
_publ_section_title
;
Structure prediction by ZEFSAII (Michael W. Deem and Ramdas Pophale) SiO2 
 PCOD9439313
Probable space group: P B C M
;
_chemical_formula_sum "Si O2"
_cell_formula_units_Z 60
_cell_length_a 22.786595
_cell_length_b 14.832035
_cell_length_c 9.170453
_cell_angle_alpha 90.000000
_cell_angle_beta 90.000000
_cell_angle_gamma 90.000000
_cell_volume 3099.352440
_symmetry_space_group_name_H-M "P B C M"
_symmetry_group_IT_number 57
_symmetry_cell_setting 'orthorhombic'
loop_
_space_group_symop_operation_xyz
x,y,z
-x,-y,1/2+z
x,1/2-y,-z
-x,1/2+y,1/2-z
-x,-y,-z
x,y,1/2-z
-x,1/2+y,z
x,1/2-y,1/2+z
loop_
_atom_site_type_symbol
_atom_site_label
_atom_site_fract_x
_atom_site_fract_y
_atom_site_fract_z
Si Si1 0.809539 0.242811 0.250000
Si Si2 0.396652 0.663241 0.075761
Si Si3 0.988117 0.651426 0.075549
Si Si4 0.912365 0.499759 0.576444
Si Si5 0.197207 0.609526 0.985015
Si Si6 0.355786 0.155089 0.922786
Si Si7 0.680879 0.482523 0.081580
Si Si8 0.491472 0.096177 0.923465
O O1 0.827434 0.317983 0.372937
O O2 0.790535 0.169071 0.373936
O O3 0.396592 0.669289 0.250000
O O4 0.367511 0.750000 0.000000
O O5 0.362999 0.576294 0.016956
O O6 0.461793 0.656076 0.009838
O O7 0.980533 0.662845 0.250000
O O8 0.045918 0.588561 0.053339
O O9 0.991767 0.750000 0.000000
O O10 0.937904 0.586801 0.006847
O O11 0.912286 0.517193 0.750000
O O12 0.849072 0.468400 0.522272
O O13 0.256662 0.566335 0.924232
O O14 0.343008 0.156925 0.750000
O O15 0.424761 0.129016 0.939132
O O16 0.346356 0.250000 0.000000
O O17 0.318778 0.079878 0.007597
O O18 0.660661 0.486620 0.250000
O O19 0.504902 0.092834 0.750000
O O20 0.500000 0.000000 0.000000
#
# Coordination Sequence:
#
# PCOD9439313 Si02
#       8
#     4   8   8   8   8   8   8   8
#     4  10  24  40  64  96 126 172 212 256 310 374
#     4  12  26  40  61  90 126 163 203 250 312 375
#     4  10  22  38  62  93 131 172 217 266 318 375
#     4  10  22  40  62  94 130 172 216 264 318 378
#     4  11  24  41  64  95 129 168 213 257 313 374
#     4  11  25  44  69  93 122 162 210 259 313 373
#     4  12  26  43  65  92 126 163 207 260 312 374
#     4  11  22  40  64  93 124 161 204 251 311 373
#
# _framework density 19.358882999999999
#
# number of rings (size 3 to 8) (size 9 to 14) (size 15 to 20)
#    0.000    1.067    2.667    3.200    6.533    3.200 
#    0.000    0.667    0.000    3.200    0.000    0.000 
#    0.000    0.000    0.000    0.000    0.000    0.000 
#
# Total GULP energy -334067.458847 kJ/mol
# GULP energy per Si atom -5567.790981 kJ/mol
# Density = 1.931482 g / cm^3
# Si number density = 19.358883 Si / 1000 Ang^3
#
#
#
# Elastic Constant Matrix: (Units=GPa)
#
#
# Indices 1 2 3 4 5 6 
#
# 1 32.5425 -5.0213 10.9787 0.0000 0.0000 0.0000
# 2 -5.0213 118.2530 52.0977 0.0000 0.0000 0.0000
# 3 10.9787 52.0977 175.3302 0.0000 0.0000 0.0000
# 4 0.0000 0.0000 0.0000 36.7131 0.0000 0.0000
# 5 0.0000 0.0000 0.0000 0.0000 48.7022 0.0000
# 6 0.0000 0.0000 0.0000 0.0000 0.0000 1.3148
#
#
#
# Elastic Compliance Matrix: (Units=1/GPa)
#
#
# Indices 1 2 3 4 5 6 
#
# 1 0.032064 0.002584 -0.002776 0.000000 0.000000 0.000000
# 2 0.002584 0.009939 -0.003115 0.000000 0.000000 0.000000
# 3 -0.002776 -0.003115 0.006803 0.000000 0.000000 0.000000
# 4 0.000000 0.000000 0.000000 0.027238 0.000000 0.000000
# 5 0.000000 0.000000 0.000000 0.000000 0.020533 0.000000
# 6 0.000000 0.000000 0.000000 0.000000 0.000000 0.760551
#
#
# Mechanical properties :
#
#
# Convention : Reuss Voigt Hill
#
# Bulk Modulus (GPa) = 23.70052 49.13731 36.41891
# Shear Modulus (GPa) = 5.69602 35.21741 20.45672
#
# Velocity S-wave (km/s) = 1.71718 4.26982 3.25423
# Velocity P-wave (km/s) = 4.02504 7.05308 5.74225
#
# Compressibility (1/GPa) = 0.04219318
#
# Stress axis : x y z
#
# Youngs Moduli (GPa) = 31.18735 100.61859 146.99587
#
# Poissons Ratio (x) = -0.26004 0.40802
# Poissons Ratio (y) = -0.08060 0.45789
# Poissons Ratio (z) = 0.08657 0.31342
#
# Static dielectric constant tensor:
#      x y z
#    x 2.441200 0.000000 0.000000 
#    y 0.000000 2.142200 0.000000 
#    z 0.000000 0.000000 1.652340 
# 
# From -- ./inp_files/9252.got.cif
#   From: 2010.05.17/outbox.cif.g08.bks.cpg/sg57_5_cif.got.tgz:9252.got - 2010.06.03 13:58:18.
