data_PCOD9439954
_publ_section_title
;
Structure prediction by ZEFSAII (Michael W. Deem and Ramdas Pophale) SiO2 
 PCOD9439954
Probable space group: P B C M
;
_chemical_formula_sum "Si O2"
_cell_formula_units_Z 36
_cell_length_a 5.393710
_cell_length_b 22.770371
_cell_length_c 12.767657
_cell_angle_alpha 90.000000
_cell_angle_beta 90.000000
_cell_angle_gamma 90.000000
_cell_volume 1568.082492
_symmetry_space_group_name_H-M "P B C M"
_symmetry_group_IT_number 57
_symmetry_cell_setting 'orthorhombic'
loop_
_space_group_symop_operation_xyz
x,y,z
-x,-y,1/2+z
x,1/2-y,-z
-x,1/2+y,1/2-z
-x,-y,-z
x,y,1/2-z
-x,1/2+y,z
x,1/2-y,1/2+z
loop_
_atom_site_type_symbol
_atom_site_label
_atom_site_fract_x
_atom_site_fract_y
_atom_site_fract_z
Si Si1 0.081921 0.750000 0.500000
Si Si2 0.412161 0.845589 0.873741
Si Si3 0.854002 0.506807 0.250000
Si Si4 0.632918 0.926383 0.250000
Si Si5 0.784107 0.849268 0.438131
Si Si6 0.952635 0.438888 0.557170
O O1 0.907323 0.786734 0.420546
O O2 0.239557 0.794872 0.571945
O O3 0.449593 0.834709 0.750000
O O4 0.287155 0.910186 0.888817
O O5 0.645008 0.844409 0.951204
O O6 0.113799 0.467413 0.250000
O O7 0.611641 0.466328 0.250000
O O8 0.860449 0.550773 0.152385
O O9 0.632749 0.882327 0.349245
O O10 0.003951 0.893872 0.463469
O O11 0.000000 0.500000 0.500000
#
# Coordination Sequence:
#
# PCOD9439954 Si02
#       6
#     4   8   4   4   8   8
#     4  10  26  50  68 102 136 190 256 314 388 436
#     4  11  25  46  73 105 142 191 249 315 380 452
#     4  12  26  44  69 112 150 207 234 309 364 451
#     4  12  28  46  75 108 158 193 254 301 382 445
#     4  11  26  46  72 107 141 199 249 317 377 456
#     4  11  23  42  70 103 152 188 248 293 376 452
#
# _framework density 22.957975999999999
#
# number of rings (size 3 to 8) (size 9 to 14) (size 15 to 20)
#    0.000    0.889    3.333    2.000    9.333    2.667 
#    6.000    0.000    0.000    0.000    0.000    0.000 
#    0.000    0.000    0.000    0.000    0.000    0.000 
#
# Total GULP energy -200567.403808 kJ/mol
# GULP energy per Si atom -5571.316772 kJ/mol
# Density = 2.290572 g / cm^3
# Si number density = 22.957976 Si / 1000 Ang^3
#
#
#
# Elastic Constant Matrix: (Units=GPa)
#
#
# Indices 1 2 3 4 5 6 
#
# 1 72.3971 22.5204 7.3713 0.0000 0.0000 0.0000
# 2 22.5204 106.5477 2.3004 0.0000 0.0000 0.0000
# 3 7.3713 2.3004 114.5012 0.0000 0.0000 0.0000
# 4 0.0000 0.0000 0.0000 12.9792 0.0000 0.0000
# 5 0.0000 0.0000 0.0000 0.0000 26.2868 0.0000
# 6 0.0000 0.0000 0.0000 0.0000 0.0000 43.6401
#
#
#
# Elastic Compliance Matrix: (Units=1/GPa)
#
#
# Indices 1 2 3 4 5 6 
#
# 1 0.014876 -0.003125 -0.000895 0.000000 0.000000 0.000000
# 2 -0.003125 0.010046 -0.000001 0.000000 0.000000 0.000000
# 3 -0.000895 -0.000001 0.008791 0.000000 0.000000 0.000000
# 4 0.000000 0.000000 0.000000 0.077046 0.000000 0.000000
# 5 0.000000 0.000000 0.000000 0.000000 0.038042 0.000000
# 6 0.000000 0.000000 0.000000 0.000000 0.000000 0.022915
#
#
# Mechanical properties :
#
#
# Convention : Reuss Voigt Hill
#
# Bulk Modulus (GPa) = 38.95280 39.75891 39.35585
# Shear Modulus (GPa) = 26.55138 33.99815 30.27477
#
# Velocity S-wave (km/s) = 3.40446 3.85240 3.63534
# Velocity P-wave (km/s) = 5.69716 6.09457 5.89921
#
# Compressibility (1/GPa) = 0.02567210
#
# Stress axis : x y z
#
# Youngs Moduli (GPa) = 67.22295 99.54239 113.75062
#
# Poissons Ratio (x) = 0.31106 0.10179
# Poissons Ratio (y) = 0.21007 0.00007
# Poissons Ratio (z) = 0.06016 0.00007
#
# Static dielectric constant tensor:
#      x y z
#    x 1.988170 0.000000 0.000000 
#    y 0.000000 1.880860 0.000000 
#    z 0.000000 0.000000 1.826270 
# 
# From -- ./inp_files/10849.got.cif
#   From: 2010.05.17/outbox.cif.g08.bks.cpg/sg57_6_cif.got.tgz:10849.got - 2010.06.03 13:58:18.
