data_PCOD9439643
_publ_section_title
;
Structure prediction by ZEFSAII (Michael W. Deem and Ramdas Pophale) SiO2 
 PCOD9439643
Probable space group: P B C M
;
_chemical_formula_sum "Si O2"
_cell_formula_units_Z 44
_cell_length_a 6.115447
_cell_length_b 9.956148
_cell_length_c 27.044696
_cell_angle_alpha 90.000000
_cell_angle_beta 90.000000
_cell_angle_gamma 90.000000
_cell_volume 1646.651350
_symmetry_space_group_name_H-M "P B C M"
_symmetry_group_IT_number 57
_symmetry_cell_setting 'orthorhombic'
loop_
_space_group_symop_operation_xyz
x,y,z
-x,-y,1/2+z
x,1/2-y,-z
-x,1/2+y,1/2-z
-x,-y,-z
x,y,1/2-z
-x,1/2+y,z
x,1/2-y,1/2+z
loop_
_atom_site_type_symbol
_atom_site_label
_atom_site_fract_x
_atom_site_fract_y
_atom_site_fract_z
Si Si1 0.533656 0.313332 0.833701
Si Si2 0.892770 0.008272 0.301740
Si Si3 0.196134 0.235048 0.250000
Si Si4 0.573094 0.936137 0.568280
Si Si5 0.897725 0.152017 0.890504
Si Si6 0.183707 0.085133 0.527987
O O1 0.384649 0.239377 0.794580
O O2 0.402945 0.347937 0.883115
O O3 0.749515 0.246072 0.856900
O O4 0.645756 0.440957 0.806681
O O5 0.910816 0.908312 0.250000
O O6 0.052256 0.133397 0.290832
O O7 0.970885 0.933850 0.349997
O O8 0.649801 0.878197 0.516037
O O9 0.716682 0.065374 0.580676
O O10 0.324038 0.984544 0.562253
O O11 0.061110 0.189146 0.935489
O O12 0.000000 0.000000 0.500000
#
# Coordination Sequence:
#
# PCOD9439643 Si02
#       6
#     8   8   4   8   8   8
#     4  12  23  43  73 105 138 193 236 289 362 427
#     4  10  24  46  65 100 146 178 235 298 354 415
#     4  10  24  44  68  98 138 184 240 292 352 428
#     4  10  22  45  72 101 147 186 229 300 358 415
#     4  11  24  43  74 101 145 184 241 289 350 435
#     4   9  20  45  72 100 142 184 229 303 354 414
#
# _framework density 26.720896
#
# number of rings (size 3 to 8) (size 9 to 14) (size 15 to 20)
#    0.545    1.091    2.727    1.091    1.273    1.455 
#    4.909   10.000    0.000    0.000    0.000    0.000 
#    0.000    0.000    0.000    0.000    0.000    0.000 
#
# Total GULP energy -245297.255897 kJ/mol
# GULP energy per Si atom -5574.937634 kJ/mol
# Density = 2.666008 g / cm^3
# Si number density = 26.720896 Si / 1000 Ang^3
#
#
#
# Elastic Constant Matrix: (Units=GPa)
#
#
# Indices 1 2 3 4 5 6 
#
# 1 102.5566 39.2265 60.0247 0.0000 0.0000 0.0000
# 2 39.2265 99.4684 48.3160 0.0000 0.0000 0.0000
# 3 60.0247 48.3160 206.4033 0.0000 0.0000 0.0000
# 4 0.0000 0.0000 0.0000 42.2016 0.0000 0.0000
# 5 0.0000 0.0000 0.0000 0.0000 114.1019 0.0000
# 6 0.0000 0.0000 0.0000 0.0000 0.0000 51.6631
#
#
#
# Elastic Compliance Matrix: (Units=1/GPa)
#
#
# Indices 1 2 3 4 5 6 
#
# 1 0.012835 -0.003665 -0.002875 0.000000 0.000000 0.000000
# 2 -0.003665 0.012390 -0.001834 0.000000 0.000000 0.000000
# 3 -0.002875 -0.001834 0.006110 0.000000 0.000000 0.000000
# 4 0.000000 0.000000 0.000000 0.023696 0.000000 0.000000
# 5 0.000000 0.000000 0.000000 0.000000 0.008764 0.000000
# 6 0.000000 0.000000 0.000000 0.000000 0.000000 0.019356
#
#
# Mechanical properties :
#
#
# Convention : Reuss Voigt Hill
#
# Bulk Modulus (GPa) = 68.55585 78.17365 73.36475
# Shear Modulus (GPa) = 47.72711 58.98406 53.35559
#
# Velocity S-wave (km/s) = 4.23085 4.70341 4.47338
# Velocity P-wave (km/s) = 7.04122 7.66911 7.36186
#
# Compressibility (1/GPa) = 0.01458665
#
# Stress axis : x y z
#
# Youngs Moduli (GPa) = 77.91120 80.71059 163.65918
#
# Poissons Ratio (x) = 0.29583 0.47046
# Poissons Ratio (y) = 0.28557 0.30021
# Poissons Ratio (z) = 0.22396 0.14805
#
# Static dielectric constant tensor:
#      x y z
#    x 2.059210 0.000000 0.000000 
#    y 0.000000 2.338890 0.000000 
#    z 0.000000 0.000000 2.113640 
# 
# From -- ./inp_files/27878.got.cif
#   From: 2010.05.17/outbox.cif.g08.bks.cpg/sg57_14_cif.got.tgz:27878.got - 2010.06.03 13:58:18.
