data_PCOD9439447
_publ_section_title
;
Structure prediction by ZEFSAII (Michael W. Deem and Ramdas Pophale) SiO2 
 PCOD9439447
Probable space group: P B C M
;
_chemical_formula_sum "Si O2"
_cell_formula_units_Z 48
_cell_length_a 31.344535
_cell_length_b 7.634716
_cell_length_c 9.483559
_cell_angle_alpha 90.000000
_cell_angle_beta 90.000000
_cell_angle_gamma 90.000000
_cell_volume 2269.478477
_symmetry_space_group_name_H-M "P B C M"
_symmetry_group_IT_number 57
_symmetry_cell_setting 'orthorhombic'
loop_
_space_group_symop_operation_xyz
x,y,z
-x,-y,1/2+z
x,1/2-y,-z
-x,1/2+y,1/2-z
-x,-y,-z
x,y,1/2-z
-x,1/2+y,z
x,1/2-y,1/2+z
loop_
_atom_site_type_symbol
_atom_site_label
_atom_site_fract_x
_atom_site_fract_y
_atom_site_fract_z
Si Si1 0.751563 0.003312 0.250000
Si Si2 0.776966 0.426435 0.250000
Si Si3 0.832393 0.748365 0.750000
Si Si4 0.894536 0.750000 0.000000
Si Si5 0.291126 0.953017 0.026757
Si Si6 0.378198 0.095017 0.088526
Si Si7 0.957255 0.067526 0.579191
Si Si8 0.456672 0.564992 0.424132
O O1 0.771230 0.208997 0.250000
O O2 0.719757 0.964699 0.378531
O O3 0.790419 0.869985 0.250000
O O4 0.820226 0.541836 0.250000
O O5 0.748916 0.498390 0.378159
O O6 0.862176 0.697158 0.621144
O O7 0.923264 0.587417 0.051922
O O8 0.286425 0.750000 0.000000
O O9 0.338145 0.966747 0.091608
O O10 0.392434 0.128061 0.250000
O O11 0.357436 0.250000 0.000000
O O12 0.417512 0.045846 0.986480
O O13 0.945499 0.250000 0.500000
O O14 0.962997 0.091183 0.750000
O O15 0.000000 0.000000 0.500000
O O16 0.449010 0.750000 0.500000
O O17 0.500000 0.500000 0.500000
O O18 0.458859 0.568277 0.250000
#
# Coordination Sequence:
#
# PCOD9439447 Si02
#       8
#     4   4   4   4   8   8   8   8
#     4  10  24  40  70  98 136 187 246 297 369 439
#     4  10  22  44  64  98 136 189 242 299 359 435
#     4  12  26  44  72 100 148 198 244 302 370 446
#     4  12  28  48  70 114 154 192 252 310 368 446
#     4  10  22  40  65  96 134 176 232 296 359 423
#     4  12  26  42  65 100 138 176 233 293 351 424
#     4  12  27  47  80 113 153 197 248 307 376 443
#     4  12  26  47  73 100 138 182 225 277 349 426
#
# _framework density 21.150234000000001
#
# number of rings (size 3 to 8) (size 9 to 14) (size 15 to 20)
#    0.000    0.667    2.500    4.500    7.000    1.333 
#    0.000    0.000    0.000    0.000    0.000    0.000 
#    0.000    0.000    0.000    0.000    0.000    0.000 
#
# Total GULP energy -267311.401886 kJ/mol
# GULP energy per Si atom -5568.987539 kJ/mol
# Density = 2.110209 g / cm^3
# Si number density = 21.150234 Si / 1000 Ang^3
#
#
#
# Elastic Constant Matrix: (Units=GPa)
#
#
# Indices 1 2 3 4 5 6 
#
# 1 102.8784 13.6607 49.7810 0.0000 0.0000 0.0000
# 2 13.6607 65.8862 39.2958 0.0000 0.0000 0.0000
# 3 49.7810 39.2958 216.9240 0.0000 0.0000 0.0000
# 4 0.0000 0.0000 0.0000 25.1594 0.0000 0.0000
# 5 0.0000 0.0000 0.0000 0.0000 49.4503 0.0000
# 6 0.0000 0.0000 0.0000 0.0000 0.0000 11.0834
#
#
#
# Elastic Compliance Matrix: (Units=1/GPa)
#
#
# Indices 1 2 3 4 5 6 
#
# 1 0.010978 -0.000867 -0.002362 0.000000 0.000000 0.000000
# 2 -0.000867 0.017085 -0.002896 0.000000 0.000000 0.000000
# 3 -0.002362 -0.002896 0.005677 0.000000 0.000000 0.000000
# 4 0.000000 0.000000 0.000000 0.039747 0.000000 0.000000
# 5 0.000000 0.000000 0.000000 0.000000 0.020222 0.000000
# 6 0.000000 0.000000 0.000000 0.000000 0.000000 0.090225
#
#
# Mechanical properties :
#
#
# Convention : Reuss Voigt Hill
#
# Bulk Modulus (GPa) = 46.53591 65.68483 56.11037
# Shear Modulus (GPa) = 24.58847 36.00204 30.29526
#
# Velocity S-wave (km/s) = 3.41334 4.13026 3.78879
# Velocity P-wave (km/s) = 6.13064 7.33956 6.76217
#
# Compressibility (1/GPa) = 0.02148878
#
# Stress axis : x y z
#
# Youngs Moduli (GPa) = 91.08753 58.53212 176.16171
#
# Poissons Ratio (x) = 0.05077 0.41614
# Poissons Ratio (y) = 0.07900 0.51014
# Poissons Ratio (z) = 0.21517 0.16950
#
# Static dielectric constant tensor:
#      x y z
#    x 1.636680 0.000000 0.000000 
#    y 0.000000 2.001330 0.000000 
#    z 0.000000 0.000000 1.851840 
# 
# From -- ./inp_files/10223.got.cif
#   From: 2010.05.17/outbox.cif.g08.bks.cpg/sg57_6_cif.got.tgz:10223.got - 2010.06.03 13:58:18.
