data_PCOD9439335
_publ_section_title
;
Structure prediction by ZEFSAII (Michael W. Deem and Ramdas Pophale) SiO2 
 PCOD9439335
Probable space group: P B C M
;
_chemical_formula_sum "Si O2"
_cell_formula_units_Z 56
_cell_length_a 19.659322
_cell_length_b 13.574405
_cell_length_c 10.913770
_cell_angle_alpha 90.000000
_cell_angle_beta 90.000000
_cell_angle_gamma 90.000000
_cell_volume 2912.487939
_symmetry_space_group_name_H-M "P B C M"
_symmetry_group_IT_number 57
_symmetry_cell_setting 'orthorhombic'
loop_
_space_group_symop_operation_xyz
x,y,z
-x,-y,1/2+z
x,1/2-y,-z
-x,1/2+y,1/2-z
-x,-y,-z
x,y,1/2-z
-x,1/2+y,z
x,1/2-y,1/2+z
loop_
_atom_site_type_symbol
_atom_site_label
_atom_site_fract_x
_atom_site_fract_y
_atom_site_fract_z
Si Si1 0.122699 0.196222 0.619780
Si Si2 0.403995 0.611516 0.606420
Si Si3 0.712827 0.250000 0.500000
Si Si4 0.946134 0.482900 0.608548
Si Si5 0.731889 0.891880 0.107235
Si Si6 0.627388 0.882237 0.889906
Si Si7 0.807255 0.091606 0.393362
Si Si8 0.481582 0.250000 0.000000
O O1 0.097226 0.250000 0.500000
O O2 0.106413 0.245626 0.750000
O O3 0.203880 0.181055 0.611820
O O4 0.091386 0.087853 0.620917
O O5 0.408505 0.628818 0.750000
O O6 0.337155 0.669305 0.559562
O O7 0.398994 0.494209 0.587798
O O8 0.469150 0.663597 0.547144
O O9 0.763593 0.188771 0.414204
O O10 0.969438 0.457542 0.750000
O O11 0.885395 0.410231 0.562460
O O12 0.000000 0.500000 0.500000
O O13 0.706293 0.899695 0.250000
O O14 0.763299 0.997286 0.064664
O O15 0.678496 0.863739 0.002936
O O16 0.655591 0.878288 0.750000
O O17 0.567323 0.802627 0.901926
O O18 0.815184 0.073988 0.250000
#
# Coordination Sequence:
#
# PCOD9439335 Si02
#       8
#     8   8   4   8   8   8   8   4
#     4   9  19  35  57  83 114 149 191 236 284 346
#     4  10  22  39  58  84 117 152 197 248 300 355
#     4  11  18  34  62  88 119 152 196 244 297 352
#     4   9  19  38  59  82 118 159 199 237 282 343
#     4   9  19  37  58  82 112 149 187 230 291 349
#     4  11  23  40  60  86 117 148 196 252 294 348
#     4   9  18  35  58  83 114 154 194 234 287 347
#     4  11  24  40  58  80 115 160 198 240 305 368
#
# _framework density 19.227547000000001
#
# number of rings (size 3 to 8) (size 9 to 14) (size 15 to 20)
#    0.000    2.286    1.429    3.000    1.000    2.286 
#    1.286    4.286    0.000    0.000    0.000    0.000 
#    0.000    0.000    0.000    0.000    0.000    0.000 
#
# Total GULP energy -311838.508136 kJ/mol
# GULP energy per Si atom -5568.544788 kJ/mol
# Density = 1.918378 g / cm^3
# Si number density = 19.227547 Si / 1000 Ang^3
#
#
#
# Elastic Constant Matrix: (Units=GPa)
#
#
# Indices 1 2 3 4 5 6 
#
# 1 101.0407 12.9310 54.5825 0.0000 0.0000 0.0000
# 2 12.9310 52.2371 20.6005 0.0000 0.0000 0.0000
# 3 54.5825 20.6005 115.8449 0.0000 0.0000 0.0000
# 4 0.0000 0.0000 0.0000 26.3646 0.0000 0.0000
# 5 0.0000 0.0000 0.0000 0.0000 11.6989 0.0000
# 6 0.0000 0.0000 0.0000 0.0000 0.0000 10.5969
#
#
#
# Elastic Compliance Matrix: (Units=1/GPa)
#
#
# Indices 1 2 3 4 5 6 
#
# 1 0.013314 -0.000884 -0.006116 0.000000 0.000000 0.000000
# 2 -0.000884 0.020646 -0.003255 0.000000 0.000000 0.000000
# 3 -0.006116 -0.003255 0.012093 0.000000 0.000000 0.000000
# 4 0.000000 0.000000 0.000000 0.037930 0.000000 0.000000
# 5 0.000000 0.000000 0.000000 0.000000 0.085478 0.000000
# 6 0.000000 0.000000 0.000000 0.000000 0.000000 0.094367
#
#
# Mechanical properties :
#
#
# Convention : Reuss Voigt Hill
#
# Bulk Modulus (GPa) = 39.14967 49.48341 44.31654
# Shear Modulus (GPa) = 17.07352 21.79933 19.43643
#
# Velocity S-wave (km/s) = 2.98312 3.37078 3.18286
# Velocity P-wave (km/s) = 5.68074 6.39852 6.05028
#
# Compressibility (1/GPa) = 0.02554300
#
# Stress axis : x y z
#
# Youngs Moduli (GPa) = 75.10907 48.43566 82.69451
#
# Poissons Ratio (x) = 0.04281 0.50576
# Poissons Ratio (y) = 0.06639 0.26917
# Poissons Ratio (z) = 0.45936 0.15766
#
# Static dielectric constant tensor:
#      x y z
#    x 1.721810 0.000000 0.000000 
#    y 0.000000 1.698080 0.000000 
#    z 0.000000 0.000000 1.681860 
# 
# From -- ./inp_files/8239.got.cif
#   From: 2010.05.17/outbox.cif.g08.bks.cpg/sg57_5_cif.got.tgz:8239.got - 2010.06.03 13:58:18.
