data_PCOD9439684
_publ_section_title
;
Structure prediction by ZEFSAII (Michael W. Deem and Ramdas Pophale) SiO2 
 PCOD9439684
Probable space group: P B C M
;
_chemical_formula_sum "Si O2"
_cell_formula_units_Z 40
_cell_length_a 11.676596
_cell_length_b 13.883980
_cell_length_c 13.752302
_cell_angle_alpha 90.000000
_cell_angle_beta 90.000000
_cell_angle_gamma 90.000000
_cell_volume 2229.490543
_symmetry_space_group_name_H-M "P B C M"
_symmetry_group_IT_number 57
_symmetry_cell_setting 'orthorhombic'
loop_
_space_group_symop_operation_xyz
x,y,z
-x,-y,1/2+z
x,1/2-y,-z
-x,1/2+y,1/2-z
-x,-y,-z
x,y,1/2-z
-x,1/2+y,z
x,1/2-y,1/2+z
loop_
_atom_site_type_symbol
_atom_site_label
_atom_site_fract_x
_atom_site_fract_y
_atom_site_fract_z
Si Si1 0.643931 0.782472 0.250000
Si Si2 0.901775 0.863252 0.250000
Si Si3 0.474070 0.150517 0.947067
Si Si4 0.006880 0.840873 0.750000
Si Si5 0.250383 0.422699 0.750000
Si Si6 0.685116 0.493724 0.045496
Si Si7 0.092262 0.977397 0.916385
O O1 0.773488 0.821490 0.250000
O O2 0.577905 0.822423 0.343113
O O3 0.659902 0.666705 0.250000
O O4 0.991128 0.774493 0.250000
O O5 0.912076 0.931532 0.343630
O O6 0.588665 0.087539 0.944203
O O7 0.497761 0.250000 0.000000
O O8 0.379309 0.088424 0.004783
O O9 0.877634 0.881545 0.750000
O O10 0.064965 0.885732 0.846940
O O11 0.266478 0.482637 0.651825
O O12 0.785783 0.468203 0.970128
O O13 0.000000 0.000000 0.000000
#
# Coordination Sequence:
#
# PCOD9439684 Si02
#       7
#     4   4   8   4   4   8   8
#     4  11  20  38  66  91 123 157 219 262 293 374
#     4  10  23  40  64  94 120 166 211 263 306 368
#     4  11  23  41  61  93 125 166 212 256 314 379
#     4  10  23  40  63  97 121 160 219 255 313 374
#     4  11  20  38  65  94 122 161 213 262 302 372
#     4  11  23  40  65  90 128 167 207 260 319 372
#     4  11  22  42  64  91 130 164 207 259 316 381
#
# _framework density 17.941317999999999
#
# number of rings (size 3 to 8) (size 9 to 14) (size 15 to 20)
#    0.000    1.200    6.000    0.600    0.000    0.800 
#    3.600    2.000    0.000    0.000    0.000    0.000 
#    0.000    0.000    0.000    0.000    0.000    0.000 
#
# Total GULP energy -223360.715151 kJ/mol
# GULP energy per Si atom -5584.017879 kJ/mol
# Density = 1.790048 g / cm^3
# Si number density = 17.941318 Si / 1000 Ang^3
#
#
#
# Elastic Constant Matrix: (Units=GPa)
#
#
# Indices 1 2 3 4 5 6 
#
# 1 77.7043 29.4745 43.4040 0.0000 0.0000 0.0000
# 2 29.4745 94.1902 55.5678 0.0000 0.0000 0.0000
# 3 43.4040 55.5678 153.7908 0.0000 0.0000 0.0000
# 4 0.0000 0.0000 0.0000 30.1776 0.0000 0.0000
# 5 0.0000 0.0000 0.0000 0.0000 183.3872 0.0000
# 6 0.0000 0.0000 0.0000 0.0000 0.0000 20.2992
#
#
#
# Elastic Compliance Matrix: (Units=1/GPa)
#
#
# Indices 1 2 3 4 5 6 
#
# 1 0.015901 -0.002959 -0.003419 0.000000 0.000000 0.000000
# 2 -0.002959 0.014044 -0.004239 0.000000 0.000000 0.000000
# 3 -0.003419 -0.004239 0.008999 0.000000 0.000000 0.000000
# 4 0.000000 0.000000 0.000000 0.033137 0.000000 0.000000
# 5 0.000000 0.000000 0.000000 0.000000 0.005453 0.000000
# 6 0.000000 0.000000 0.000000 0.000000 0.000000 0.049263
#
#
# Mechanical properties :
#
#
# Convention : Reuss Voigt Hill
#
# Bulk Modulus (GPa) = 56.46479 64.73087 60.59783
# Shear Modulus (GPa) = 32.48145 59.92207 46.20176
#
# Velocity S-wave (km/s) = 4.25953 5.78545 5.08011
# Velocity P-wave (km/s) = 7.46537 8.98811 8.26189
#
# Compressibility (1/GPa) = 0.01771015
#
# Stress axis : x y z
#
# Youngs Moduli (GPa) = 62.88796 71.20634 111.12546
#
# Poissons Ratio (x) = 0.21071 0.37989
# Poissons Ratio (y) = 0.18609 0.47107
# Poissons Ratio (z) = 0.21499 0.30185
#
# Static dielectric constant tensor:
#      x y z
#    x 1.595330 0.000000 0.000000 
#    y 0.000000 1.604010 0.000000 
#    z 0.000000 0.000000 1.600870 
# 
# From -- ./inp_files/12770.got.cif
#   From: 2010.05.17/outbox.cif.g08.bks.cpg/sg57_7_cif.got.tgz:12770.got - 2010.06.03 13:58:18.
