data_PCOD9439575
_publ_section_title
;
Structure prediction by ZEFSAII (Michael W. Deem and Ramdas Pophale) SiO2 
 PCOD9439575
Probable space group: P B C M
;
_chemical_formula_sum "Si O2"
_cell_formula_units_Z 28
_cell_length_a 5.083649
_cell_length_b 15.559086
_cell_length_c 17.746919
_cell_angle_alpha 90.000000
_cell_angle_beta 90.000000
_cell_angle_gamma 90.000000
_cell_volume 1403.726845
_symmetry_space_group_name_H-M "P B C M"
_symmetry_group_IT_number 57
_symmetry_cell_setting 'orthorhombic'
loop_
_space_group_symop_operation_xyz
x,y,z
-x,-y,1/2+z
x,1/2-y,-z
-x,1/2+y,1/2-z
-x,-y,-z
x,y,1/2-z
-x,1/2+y,z
x,1/2-y,1/2+z
loop_
_atom_site_type_symbol
_atom_site_label
_atom_site_fract_x
_atom_site_fract_y
_atom_site_fract_z
Si Si1 0.913330 0.586817 0.543011
Si Si2 0.934589 0.041215 0.160565
Si Si3 0.729118 0.250000 0.500000
Si Si4 0.433678 0.125295 0.416846
O O1 0.951442 0.556152 0.628376
O O2 0.629071 0.600511 0.504280
O O3 0.000000 0.500000 0.500000
O O4 0.083009 0.670200 0.521991
O O5 0.934625 0.044284 0.250000
O O6 0.662370 0.074388 0.124946
O O7 0.168284 0.102268 0.128105
O O8 0.546263 0.220615 0.429929
#
# Coordination Sequence:
#
# PCOD9439575 Si02
#       4
#     8   8   4   8
#     4  10  22  42  70  98 129 175 235 278 327 394
#     4  11  24  42  66  96 137 177 216 277 353 406
#     4  12  22  40  72 102 132 172 242 288 324 384
#     4  11  22  41  67 100 127 174 231 281 324 396
#
# _framework density 19.946902000000001
#
# number of rings (size 3 to 8) (size 9 to 14) (size 15 to 20)
#    0.000    1.143    5.714    2.571    4.000    0.000 
#    0.000    2.857    0.000    0.000    0.000    0.000 
#    0.000    0.000    0.000    0.000    0.000    0.000 
#
# Total GULP energy -155895.265784 kJ/mol
# GULP energy per Si atom -5567.688064 kJ/mol
# Density = 1.990150 g / cm^3
# Si number density = 19.946902 Si / 1000 Ang^3
#
#
#
# Elastic Constant Matrix: (Units=GPa)
#
#
# Indices 1 2 3 4 5 6 
#
# 1 143.9879 50.7006 54.5425 0.0000 0.0000 0.0000
# 2 50.7006 124.6863 56.3096 0.0000 0.0000 0.0000
# 3 54.5425 56.3096 140.4732 0.0000 0.0000 0.0000
# 4 0.0000 0.0000 0.0000 18.4327 0.0000 0.0000
# 5 0.0000 0.0000 0.0000 0.0000 22.5910 0.0000
# 6 0.0000 0.0000 0.0000 0.0000 0.0000 28.2594
#
#
#
# Elastic Compliance Matrix: (Units=1/GPa)
#
#
# Indices 1 2 3 4 5 6 
#
# 1 0.008721 -0.002463 -0.002399 0.000000 0.000000 0.000000
# 2 -0.002463 0.010488 -0.003248 0.000000 0.000000 0.000000
# 3 -0.002399 -0.003248 0.009352 0.000000 0.000000 0.000000
# 4 0.000000 0.000000 0.000000 0.054251 0.000000 0.000000
# 5 0.000000 0.000000 0.000000 0.000000 0.044265 0.000000
# 6 0.000000 0.000000 0.000000 0.000000 0.000000 0.035386
#
#
# Mechanical properties :
#
#
# Convention : Reuss Voigt Hill
#
# Bulk Modulus (GPa) = 81.02406 81.36141 81.19274
# Shear Modulus (GPa) = 27.35255 30.36295 28.85775
#
# Velocity S-wave (km/s) = 3.70708 3.90576 3.80771
# Velocity P-wave (km/s) = 7.68318 7.82416 7.75399
#
# Compressibility (1/GPa) = 0.01234201
#
# Stress axis : x y z
#
# Youngs Moduli (GPa) = 114.66681 95.34308 106.92600
#
# Poissons Ratio (x) = 0.23481 0.25651
# Poissons Ratio (y) = 0.28240 0.34731
# Poissons Ratio (z) = 0.27508 0.30969
#
# Static dielectric constant tensor:
#      x y z
#    x 1.795790 0.000000 0.000000 
#    y 0.000000 1.783770 0.000000 
#    z 0.000000 0.000000 1.765210 
# 
# From -- ./inp_files/19782.got.cif
#   From: 2010.05.17/outbox.cif.g08.bks.cpg/sg57_10_cif.got.tgz:19782.got - 2010.06.03 13:58:18.
