data_PCOD9439393
_publ_section_title
;
Structure prediction by ZEFSAII (Michael W. Deem and Ramdas Pophale) SiO2 
 PCOD9439393
Probable space group: P B C M
;
_chemical_formula_sum "Si O2"
_cell_formula_units_Z 64
_cell_length_a 14.755747
_cell_length_b 8.565615
_cell_length_c 23.267409
_cell_angle_alpha 90.000000
_cell_angle_beta 90.000000
_cell_angle_gamma 90.000000
_cell_volume 2940.815471
_symmetry_space_group_name_H-M "P B C M"
_symmetry_group_IT_number 57
_symmetry_cell_setting 'orthorhombic'
loop_
_space_group_symop_operation_xyz
x,y,z
-x,-y,1/2+z
x,1/2-y,-z
-x,1/2+y,1/2-z
-x,-y,-z
x,y,1/2-z
-x,1/2+y,z
x,1/2-y,1/2+z
loop_
_atom_site_type_symbol
_atom_site_label
_atom_site_fract_x
_atom_site_fract_y
_atom_site_fract_z
Si Si1 0.869506 0.917130 0.180859
Si Si2 0.517919 0.878303 0.312510
Si Si3 0.807388 0.086749 0.815298
Si Si4 0.621512 0.880016 0.548676
Si Si5 0.020620 0.378281 0.682434
Si Si6 0.267917 0.699307 0.560480
Si Si7 0.300826 0.271088 0.664960
Si Si8 0.568378 0.350295 0.891172
O O1 0.878050 0.920310 0.250000
O O2 0.925592 0.767909 0.157047
O O3 0.765370 0.876505 0.171047
O O4 0.922628 0.069775 0.159388
O O5 0.477465 0.902272 0.250000
O O6 0.600380 0.755983 0.309020
O O7 0.448465 0.814753 0.359388
O O8 0.564417 0.029657 0.338892
O O9 0.796862 0.161059 0.750000
O O10 0.911006 0.026001 0.820110
O O11 0.748891 0.925835 0.812723
O O12 0.780266 0.163968 0.877175
O O13 0.623586 0.750000 0.500000
O O14 0.677264 0.798827 0.599345
O O15 0.516012 0.891788 0.567847
O O16 0.671166 0.046640 0.543816
O O17 0.009539 0.342406 0.750000
O O18 0.219568 0.750000 0.500000
O O19 0.338626 0.836646 0.575918
#
# Coordination Sequence:
#
# PCOD9439393 Si02
#       8
#     8   8   8   8   8   8   8   8
#     4   9  15  29  51  79 111 144 178 223 273 335
#     4  11  22  37  55  82 116 151 189 233 287 342
#     4   9  18  37  59  82 113 154 189 226 287 350
#     4  10  22  40  60  77 104 148 195 238 281 341
#     4   8  15  28  51  78 109 143 180 220 273 334
#     4  11  24  38  59  85 111 147 193 243 285 336
#     4   9  19  34  57  83 109 149 191 231 283 341
#     4  11  23  39  55  80 109 149 192 238 284 336
#
# _framework density 21.76267
#
# number of rings (size 3 to 8) (size 9 to 14) (size 15 to 20)
#    0.000    2.250    1.250    2.625    3.500    2.000 
#    2.250    0.000    0.000    0.750    0.000    5.250 
#    0.000    0.000    0.000    0.000    0.000    0.000 
#
# Total GULP energy -356683.056675 kJ/mol
# GULP energy per Si atom -5573.172761 kJ/mol
# Density = 2.171314 g / cm^3
# Si number density = 21.762670 Si / 1000 Ang^3
#
#
#
# Elastic Constant Matrix: (Units=GPa)
#
#
# Indices 1 2 3 4 5 6 
#
# 1 57.6410 -2.6282 12.5922 0.0000 0.0000 0.0000
# 2 -2.6282 38.2235 24.2580 0.0000 0.0000 0.0000
# 3 12.5922 24.2580 122.9098 0.0000 0.0000 0.0000
# 4 0.0000 0.0000 0.0000 27.1713 0.0000 0.0000
# 5 0.0000 0.0000 0.0000 0.0000 7.6558 0.0000
# 6 0.0000 0.0000 0.0000 0.0000 0.0000 25.7050
#
#
#
# Elastic Compliance Matrix: (Units=1/GPa)
#
#
# Indices 1 2 3 4 5 6 
#
# 1 0.017996 0.002752 -0.002387 0.000000 0.000000 0.000000
# 2 0.002752 0.030329 -0.006268 0.000000 0.000000 0.000000
# 3 -0.002387 -0.006268 0.009618 0.000000 0.000000 0.000000
# 4 0.000000 0.000000 0.000000 0.036804 0.000000 0.000000
# 5 0.000000 0.000000 0.000000 0.000000 0.130621 0.000000
# 6 0.000000 0.000000 0.000000 0.000000 0.000000 0.038903
#
#
# Mechanical properties :
#
#
# Convention : Reuss Voigt Hill
#
# Bulk Modulus (GPa) = 21.67448 31.91313 26.79381
# Shear Modulus (GPa) = 17.15540 24.40990 20.78265
#
# Velocity S-wave (km/s) = 2.81070 3.35272 3.09361
# Velocity P-wave (km/s) = 4.52930 5.44827 5.00990
#
# Compressibility (1/GPa) = 0.04613720
#
# Stress axis : x y z
#
# Youngs Moduli (GPa) = 55.56894 32.97187 103.97588
#
# Poissons Ratio (x) = -0.09074 0.24817
# Poissons Ratio (y) = -0.15293 0.65170
# Poissons Ratio (z) = 0.13263 0.20666
#
# Static dielectric constant tensor:
#      x y z
#    x 1.801660 0.000000 0.000000 
#    y 0.000000 1.910140 0.000000 
#    z 0.000000 0.000000 1.948210 
# 
# From -- ./inp_files/27504.got.cif
#   From: 2010.05.17/outbox.cif.g08.bks.cpg/sg57_14_cif.got.tgz:27504.got - 2010.06.03 13:58:18.
