data_PCOD9439229
_publ_section_title
;
Structure prediction by ZEFSAII (Michael W. Deem and Ramdas Pophale) SiO2 
 PCOD9439229
Probable space group: P B C M
;
_chemical_formula_sum "Si O2"
_cell_formula_units_Z 40
_cell_length_a 10.328995
_cell_length_b 10.893757
_cell_length_c 14.548962
_cell_angle_alpha 90.000000
_cell_angle_beta 90.000000
_cell_angle_gamma 90.000000
_cell_volume 1637.071924
_symmetry_space_group_name_H-M "P B C M"
_symmetry_group_IT_number 57
_symmetry_cell_setting 'orthorhombic'
loop_
_space_group_symop_operation_xyz
x,y,z
-x,-y,1/2+z
x,1/2-y,-z
-x,1/2+y,1/2-z
-x,-y,-z
x,y,1/2-z
-x,1/2+y,z
x,1/2-y,1/2+z
loop_
_atom_site_type_symbol
_atom_site_label
_atom_site_fract_x
_atom_site_fract_y
_atom_site_fract_z
Si Si1 0.764956 0.564209 0.460054
Si Si2 0.109396 0.820909 0.096237
Si Si3 0.179236 0.186582 0.853050
Si Si4 0.474382 0.512682 0.851484
Si Si5 0.610056 0.264806 0.609940
O O1 0.865920 0.462645 0.427546
O O2 0.779194 0.685167 0.398630
O O3 0.781836 0.590526 0.567546
O O4 0.624993 0.513305 0.433833
O O5 0.243635 0.771184 0.138949
O O6 0.976837 0.808944 0.149900
O O7 0.090250 0.750000 0.000000
O O8 0.228369 0.164325 0.750000
O O9 0.413595 0.494209 0.750000
O O10 0.492460 0.660445 0.857058
O O11 0.576616 0.402482 0.860343
O O12 0.609173 0.250000 0.500000
#
# Coordination Sequence:
#
# PCOD9439229 Si02
#       5
#     8   8   8   8   8
#     4  10  23  43  65  94 141 172 216 276 340 391
#     4  10  21  43  66  94 132 179 215 274 340 392
#     4  11  23  39  67  97 128 176 227 270 329 398
#     4  11  23  43  70 101 137 181 226 281 340 408
#     4  10  23  42  70  98 137 179 225 277 348 401
#
# _framework density 24.433869000000001
#
# number of rings (size 3 to 8) (size 9 to 14) (size 15 to 20)
#    0.000    1.600    2.000    2.400    2.800    4.800 
#    0.000    0.000    0.000    9.600    0.000    0.000 
#    0.000    0.000    0.000    0.000    0.000    0.000 
#
# Total GULP energy -223775.620648 kJ/mol
# GULP energy per Si atom -5594.390516 kJ/mol
# Density = 2.437826 g / cm^3
# Si number density = 24.433869 Si / 1000 Ang^3
#
#
#
# Elastic Constant Matrix: (Units=GPa)
#
#
# Indices 1 2 3 4 5 6 
#
# 1 76.9634 39.7139 39.5740 0.0000 0.0000 0.0000
# 2 39.7139 125.7377 26.0593 0.0000 0.0000 0.0000
# 3 39.5740 26.0593 164.7585 0.0000 0.0000 0.0000
# 4 0.0000 0.0000 0.0000 8.2914 0.0000 0.0000
# 5 0.0000 0.0000 0.0000 0.0000 26.8880 0.0000
# 6 0.0000 0.0000 0.0000 0.0000 0.0000 -21.7263
#
#
#
# Elastic Compliance Matrix: (Units=1/GPa)
#
#
# Indices 1 2 3 4 5 6 
#
# 1 0.017166 -0.004722 -0.003376 0.000000 0.000000 0.000000
# 2 -0.004722 0.009522 -0.000372 0.000000 0.000000 0.000000
# 3 -0.003376 -0.000372 0.006939 0.000000 0.000000 0.000000
# 4 0.000000 0.000000 0.000000 0.120606 0.000000 0.000000
# 5 0.000000 0.000000 0.000000 0.000000 0.037191 0.000000
# 6 0.000000 0.000000 0.000000 0.000000 0.000000 -0.046027
#
#
# Mechanical properties :
#
#
# Convention : Reuss Voigt Hill
#
# Bulk Modulus (GPa) = 59.92877 64.23932 62.08404
# Shear Modulus (GPa) = 29.77967 20.16477 24.97222
#
# Velocity S-wave (km/s) = 3.49490 2.87588 3.20039
# Velocity P-wave (km/s) = 6.39265 6.11357 6.25467
#
# Compressibility (1/GPa) = 0.01668648
#
# Stress axis : x y z
#
# Youngs Moduli (GPa) = 58.25515 105.02474 144.10778
#
# Poissons Ratio (x) = 0.49593 0.48655
# Poissons Ratio (y) = 0.27508 0.05358
# Poissons Ratio (z) = 0.19668 0.03905
#
# Static dielectric constant tensor:
#      x y z
#    x 2.001950 0.000000 0.000000 
#    y 0.000000 1.956330 0.000000 
#    z 0.000000 0.000000 1.937000 
# 
# From -- ./inp_files/17390.got.cif
#   From: 2010.05.17/outbox.cif.g08.bks.cpg/sg57_9_cif.got.tgz:17390.got - 2010.06.03 13:58:18.
