data_PCOD9439427
_publ_section_title
;
Structure prediction by ZEFSAII (Michael W. Deem and Ramdas Pophale) SiO2 
 PCOD9439427
Probable space group: P B C M
;
_chemical_formula_sum "Si O2"
_cell_formula_units_Z 36
_cell_length_a 7.833383
_cell_length_b 8.979588
_cell_length_c 21.749345
_cell_angle_alpha 90.000000
_cell_angle_beta 90.000000
_cell_angle_gamma 90.000000
_cell_volume 1529.860933
_symmetry_space_group_name_H-M "P B C M"
_symmetry_group_IT_number 57
_symmetry_cell_setting 'orthorhombic'
loop_
_space_group_symop_operation_xyz
x,y,z
-x,-y,1/2+z
x,1/2-y,-z
-x,1/2+y,1/2-z
-x,-y,-z
x,y,1/2-z
-x,1/2+y,z
x,1/2-y,1/2+z
loop_
_atom_site_type_symbol
_atom_site_label
_atom_site_fract_x
_atom_site_fract_y
_atom_site_fract_z
Si Si1 0.589682 0.526870 0.640320
Si Si2 0.500000 0.500000 0.000000
Si Si3 0.184469 0.262418 0.063441
Si Si4 0.277298 0.782657 0.183265
Si Si5 0.148958 0.572806 0.937720
O O1 0.519089 0.469242 0.574390
O O2 0.722447 0.651271 0.617198
O O3 0.667290 0.388319 0.675631
O O4 0.442927 0.611189 0.677225
O O5 0.307468 0.577559 0.984822
O O6 0.032165 0.366380 0.039196
O O7 0.135201 0.098607 0.083054
O O8 0.304574 0.250000 0.000000
O O9 0.195315 0.805634 0.250000
O O10 0.174108 0.827717 0.122909
#
# Coordination Sequence:
#
# PCOD9439427 Si02
#       5
#     8   4   8   8   8
#     4  11  23  40  70  99 142 175 238 289 364 423
#     4  10  22  40  64 106 130 180 216 294 354 430
#     4  12  24  43  64 108 140 182 220 294 377 441
#     4  11  25  45  68  99 137 193 248 294 340 422
#     4  11  25  42  70  99 147 180 240 286 365 430
#
# _framework density 23.531552000000001
#
# number of rings (size 3 to 8) (size 9 to 14) (size 15 to 20)
#    0.000    0.889    2.222    5.333    3.111    1.778 
#    0.000    6.667    0.000    0.000    0.000    0.000 
#    0.000    0.000    0.000    0.000    0.000    0.000 
#
# Total GULP energy -200475.779025 kJ/mol
# GULP energy per Si atom -5568.771640 kJ/mol
# Density = 2.347799 g / cm^3
# Si number density = 23.531552 Si / 1000 Ang^3
#
#
#
# Elastic Constant Matrix: (Units=GPa)
#
#
# Indices 1 2 3 4 5 6 
#
# 1 69.2190 -3.1681 3.4075 0.0000 0.0000 0.0000
# 2 -3.1681 119.2844 6.7015 0.0000 0.0000 0.0000
# 3 3.4075 6.7015 109.8556 0.0000 0.0000 0.0000
# 4 0.0000 0.0000 0.0000 22.0512 0.0000 0.0000
# 5 0.0000 0.0000 0.0000 0.0000 8.2487 0.0000
# 6 0.0000 0.0000 0.0000 0.0000 0.0000 27.2920
#
#
#
# Elastic Compliance Matrix: (Units=1/GPa)
#
#
# Indices 1 2 3 4 5 6 
#
# 1 0.014489 0.000411 -0.000475 0.000000 0.000000 0.000000
# 2 0.000411 0.008424 -0.000527 0.000000 0.000000 0.000000
# 3 -0.000475 -0.000527 0.009150 0.000000 0.000000 0.000000
# 4 0.000000 0.000000 0.000000 0.045349 0.000000 0.000000
# 5 0.000000 0.000000 0.000000 0.000000 0.121231 0.000000
# 6 0.000000 0.000000 0.000000 0.000000 0.000000 0.036641
#
#
# Mechanical properties :
#
#
# Convention : Reuss Voigt Hill
#
# Bulk Modulus (GPa) = 32.37998 34.69340 33.53669
# Shear Modulus (GPa) = 20.26284 30.94626 25.60455
#
# Velocity S-wave (km/s) = 2.93762 3.63036 3.30221
# Velocity P-wave (km/s) = 5.02954 5.68753 5.36863
#
# Compressibility (1/GPa) = 0.03088328
#
# Stress axis : x y z
#
# Youngs Moduli (GPa) = 69.01747 118.71065 109.29311
#
# Poissons Ratio (x) = -0.04885 0.05186
# Poissons Ratio (y) = -0.02840 0.05756
# Poissons Ratio (z) = 0.03275 0.06252
#
# Static dielectric constant tensor:
#      x y z
#    x 2.017850 0.000000 0.000000 
#    y 0.000000 1.827100 0.000000 
#    z 0.000000 0.000000 1.880380 
# 
# From -- ./inp_files/24016.got.cif
#   From: 2010.05.17/outbox.cif.g08.bks.cpg/sg57_13_cif.got.tgz:24016.got - 2010.06.03 13:58:18.
