data_PCOD9439441
_publ_section_title
;
Structure prediction by ZEFSAII (Michael W. Deem and Ramdas Pophale) SiO2 
 PCOD9439441
Probable space group: P B C M
;
_chemical_formula_sum "Si O2"
_cell_formula_units_Z 48
_cell_length_a 15.766434
_cell_length_b 9.576601
_cell_length_c 15.153772
_cell_angle_alpha 90.000000
_cell_angle_beta 90.000000
_cell_angle_gamma 90.000000
_cell_volume 2288.050571
_symmetry_space_group_name_H-M "P B C M"
_symmetry_group_IT_number 57
_symmetry_cell_setting 'orthorhombic'
loop_
_space_group_symop_operation_xyz
x,y,z
-x,-y,1/2+z
x,1/2-y,-z
-x,1/2+y,1/2-z
-x,-y,-z
x,y,1/2-z
-x,1/2+y,z
x,1/2-y,1/2+z
loop_
_atom_site_type_symbol
_atom_site_label
_atom_site_fract_x
_atom_site_fract_y
_atom_site_fract_z
Si Si1 0.042807 0.383685 0.559978
Si Si2 0.133483 0.874146 0.645576
Si Si3 0.322288 0.383385 0.891479
Si Si4 0.388986 0.513261 0.250000
Si Si5 0.179465 0.571828 0.849254
Si Si6 0.456717 0.295793 0.750000
Si Si7 0.726824 0.576324 0.908272
O O1 0.062032 0.250000 0.500000
O O2 0.966822 0.355888 0.629068
O O3 0.000000 0.500000 0.500000
O O4 0.123437 0.456179 0.602662
O O5 0.148432 0.896390 0.750000
O O6 0.172657 0.727214 0.613435
O O7 0.182414 0.998839 0.594724
O O8 0.273733 0.513102 0.849688
O O9 0.408108 0.353341 0.837678
O O10 0.269843 0.238326 0.878949
O O11 0.318875 0.416000 0.996238
O O12 0.448796 0.646761 0.250000
O O13 0.445376 0.371209 0.250000
O O14 0.330458 0.503348 0.336585
O O15 0.146202 0.583400 0.750000
#
# Coordination Sequence:
#
# PCOD9439441 Si02
#       7
#     8   8   8   4   8   4   8
#     4  12  25  42  59  88 127 166 216 266 314 373
#     4  11  24  42  62  88 126 166 214 266 318 381
#     4  10  22  40  65  95 128 165 213 264 316 386
#     4  10  22  42  64  97 130 165 214 257 322 387
#     4  11  24  41  62  91 125 165 217 264 318 376
#     4  10  22  42  64  95 132 165 208 267 314 389
#     4  10  22  40  66  95 126 170 212 258 324 384
#
# _framework density 20.978556999999999
#
# number of rings (size 3 to 8) (size 9 to 14) (size 15 to 20)
#    0.000    1.333    3.333    1.500    4.667    2.000 
#    0.000    0.000    0.000    0.000    0.000    0.000 
#    0.000    0.000    0.000    0.000    0.000    0.000 
#
# Total GULP energy -268042.623218 kJ/mol
# GULP energy per Si atom -5584.221317 kJ/mol
# Density = 2.093081 g / cm^3
# Si number density = 20.978557 Si / 1000 Ang^3
#
#
#
# Elastic Constant Matrix: (Units=GPa)
#
#
# Indices 1 2 3 4 5 6 
#
# 1 37.6510 7.3142 7.3507 0.0000 0.0000 0.0000
# 2 7.3142 63.0939 14.2838 0.0000 0.0000 0.0000
# 3 7.3507 14.2838 92.4800 0.0000 0.0000 0.0000
# 4 0.0000 0.0000 0.0000 24.6641 0.0000 0.0000
# 5 0.0000 0.0000 0.0000 0.0000 18.7533 0.0000
# 6 0.0000 0.0000 0.0000 0.0000 0.0000 41.1198
#
#
#
# Elastic Compliance Matrix: (Units=1/GPa)
#
#
# Indices 1 2 3 4 5 6 
#
# 1 0.027443 -0.002785 -0.001751 0.000000 0.000000 0.000000
# 2 -0.002785 0.016706 -0.002359 0.000000 0.000000 0.000000
# 3 -0.001751 -0.002359 0.011317 0.000000 0.000000 0.000000
# 4 0.000000 0.000000 0.000000 0.040545 0.000000 0.000000
# 5 0.000000 0.000000 0.000000 0.000000 0.053324 0.000000
# 6 0.000000 0.000000 0.000000 0.000000 0.000000 0.024319
#
#
# Mechanical properties :
#
#
# Convention : Reuss Voigt Hill
#
# Bulk Modulus (GPa) = 23.99484 27.90249 25.94866
# Shear Modulus (GPa) = 24.83420 27.85919 26.34670
#
# Velocity S-wave (km/s) = 3.44436 3.64810 3.54769
# Velocity P-wave (km/s) = 5.22310 5.57443 5.40162
#
# Compressibility (1/GPa) = 0.04167563
#
# Stress axis : x y z
#
# Youngs Moduli (GPa) = 36.43969 59.85775 88.36513
#
# Poissons Ratio (x) = 0.16670 0.15474
# Poissons Ratio (y) = 0.10148 0.20845
# Poissons Ratio (z) = 0.06381 0.14120
#
# Static dielectric constant tensor:
#      x y z
#    x 1.788700 0.000000 0.000000 
#    y 0.000000 1.738980 0.000000 
#    z 0.000000 0.000000 1.796340 
# 
# From -- ./inp_files/19005.got.cif
#   From: 2010.05.17/outbox.cif.g08.bks.cpg/sg57_10_cif.got.tgz:19005.got - 2010.06.03 13:58:18.
