data_PCOD9439602
_publ_section_title
;
Structure prediction by ZEFSAII (Michael W. Deem and Ramdas Pophale) SiO2 
 PCOD9439602
Probable space group: P B C M
;
_chemical_formula_sum "Si O2"
_cell_formula_units_Z 64
_cell_length_a 9.942912
_cell_length_b 12.574570
_cell_length_c 26.718968
_cell_angle_alpha 90.000000
_cell_angle_beta 90.000000
_cell_angle_gamma 90.000000
_cell_volume 3340.614935
_symmetry_space_group_name_H-M "P B C M"
_symmetry_group_IT_number 57
_symmetry_cell_setting 'orthorhombic'
loop_
_space_group_symop_operation_xyz
x,y,z
-x,-y,1/2+z
x,1/2-y,-z
-x,1/2+y,1/2-z
-x,-y,-z
x,y,1/2-z
-x,1/2+y,z
x,1/2-y,1/2+z
loop_
_atom_site_type_symbol
_atom_site_label
_atom_site_fract_x
_atom_site_fract_y
_atom_site_fract_z
Si Si1 0.099416 0.692924 0.194028
Si Si2 0.843161 0.555367 0.191851
Si Si3 0.352044 0.645195 0.376470
Si Si4 0.740939 0.919459 0.412499
Si Si5 0.351877 0.030494 0.479086
Si Si6 0.649638 0.816376 0.618768
Si Si7 0.775926 0.305849 0.449678
Si Si8 0.973236 0.121372 0.631600
O O1 0.141354 0.719046 0.250000
O O2 0.231096 0.671116 0.161427
O O3 0.007130 0.787511 0.172534
O O4 0.997749 0.594606 0.194202
O O5 0.799006 0.541465 0.250000
O O6 0.752381 0.635128 0.159359
O O7 0.859825 0.451580 0.157512
O O8 0.340175 0.522187 0.392580
O O9 0.500785 0.671454 0.358397
O O10 0.325958 0.724015 0.423211
O O11 0.731278 0.926463 0.472856
O O12 0.684402 0.805519 0.394688
O O13 0.890876 0.929822 0.389324
O O14 0.350997 0.113885 0.432945
O O15 0.500000 0.000000 0.500000
O O16 0.288845 0.919990 0.460068
O O17 0.819847 0.250000 0.500000
O O18 0.903812 0.321780 0.414980
#
# Coordination Sequence:
#
# PCOD9439602 Si02
#       8
#     8   8   8   8   8   8   8   8
#     4  10  22  43  69  95 126 170 219 269 334 396
#     4  11  23  42  68  96 130 171 220 275 331 390
#     4  11  24  41  68  93 134 172 215 271 329 391
#     4  12  24  41  64  98 130 173 221 267 330 398
#     4  12  23  41  65  93 131 184 219 262 336 404
#     4  12  25  43  65  99 137 170 224 277 324 393
#     4  11  22  40  63  94 132 176 217 268 326 397
#     4  11  23  41  66  95 133 169 221 273 333 391
#
# _framework density 19.158149000000002
#
# number of rings (size 3 to 8) (size 9 to 14) (size 15 to 20)
#    0.000    0.750    6.250    1.500    0.000    2.000 
#    0.000    0.625    0.000    0.000    0.000    0.000 
#    0.000    0.000    0.000    0.000    0.000    0.000 
#
# Total GULP energy -357096.842593 kJ/mol
# GULP energy per Si atom -5579.638166 kJ/mol
# Density = 1.911454 g / cm^3
# Si number density = 19.158149 Si / 1000 Ang^3
#
#
#
# Elastic Constant Matrix: (Units=GPa)
#
#
# Indices 1 2 3 4 5 6 
#
# 1 71.7976 32.6393 47.6924 0.0000 0.0000 0.0000
# 2 32.6393 82.2256 22.7876 0.0000 0.0000 0.0000
# 3 47.6924 22.7876 119.6444 0.0000 0.0000 0.0000
# 4 0.0000 0.0000 0.0000 17.1815 0.0000 0.0000
# 5 0.0000 0.0000 0.0000 0.0000 12.6201 0.0000
# 6 0.0000 0.0000 0.0000 0.0000 0.0000 21.4523
#
#
#
# Elastic Compliance Matrix: (Units=1/GPa)
#
#
# Indices 1 2 3 4 5 6 
#
# 1 0.021900 -0.006623 -0.007468 0.000000 0.000000 0.000000
# 2 -0.006623 0.014843 -0.000187 0.000000 0.000000 0.000000
# 3 -0.007468 -0.000187 0.011371 0.000000 0.000000 0.000000
# 4 0.000000 0.000000 0.000000 0.058202 0.000000 0.000000
# 5 0.000000 0.000000 0.000000 0.000000 0.079239 0.000000
# 6 0.000000 0.000000 0.000000 0.000000 0.000000 0.046615
#
#
# Mechanical properties :
#
#
# Convention : Reuss Voigt Hill
#
# Bulk Modulus (GPa) = 51.13410 53.32291 52.22850
# Shear Modulus (GPa) = 18.70945 21.62065 20.16505
#
# Velocity S-wave (km/s) = 3.12842 3.36301 3.24783
# Velocity P-wave (km/s) = 6.30855 6.55540 6.43316
#
# Compressibility (1/GPa) = 0.01955642
#
# Stress axis : x y z
#
# Youngs Moduli (GPa) = 45.66234 67.37376 87.94601
#
# Poissons Ratio (x) = 0.44625 0.65680
# Poissons Ratio (y) = 0.30244 0.01642
# Poissons Ratio (z) = 0.34101 0.01258
#
# Static dielectric constant tensor:
#      x y z
#    x 1.673730 0.000000 0.000000 
#    y 0.000000 1.714620 0.000000 
#    z 0.000000 0.000000 1.661250 
# 
# From -- ./inp_files/29613.got.cif
#   From: 2010.05.17/outbox.cif.g08.bks.cpg/sg57_15_cif.got.tgz:29613.got - 2010.06.03 13:58:18.
