data_PCOD9439073
_publ_section_title
;
Structure prediction by ZEFSAII (Michael W. Deem and Ramdas Pophale) SiO2 
 PCOD9439073
Probable space group: P B C M
;
_chemical_formula_sum "Si O2"
_cell_formula_units_Z 48
_cell_length_a 29.557149
_cell_length_b 4.986434
_cell_length_c 14.839876
_cell_angle_alpha 90.000000
_cell_angle_beta 90.000000
_cell_angle_gamma 90.000000
_cell_volume 2187.171751
_symmetry_space_group_name_H-M "P B C M"
_symmetry_group_IT_number 57
_symmetry_cell_setting 'orthorhombic'
loop_
_space_group_symop_operation_xyz
x,y,z
-x,-y,1/2+z
x,1/2-y,-z
-x,1/2+y,1/2-z
-x,-y,-z
x,y,1/2-z
-x,1/2+y,z
x,1/2-y,1/2+z
loop_
_atom_site_type_symbol
_atom_site_label
_atom_site_fract_x
_atom_site_fract_y
_atom_site_fract_z
Si Si1 0.752873 0.997704 0.563051
Si Si2 0.340300 0.195331 0.146150
Si Si3 0.468832 0.884674 0.750000
Si Si4 0.969945 0.580297 0.750000
Si Si5 0.159289 0.755463 0.390867
Si Si6 0.602347 0.177296 0.097835
Si Si7 0.103935 0.253648 0.390916
O O1 0.739786 0.250000 0.500000
O O2 0.791846 0.116849 0.628175
O O3 0.770166 0.750000 0.500000
O O4 0.709154 0.888268 0.613433
O O5 0.338947 0.283052 0.250000
O O6 0.360578 0.442358 0.090308
O O7 0.373086 0.939681 0.137111
O O8 0.489989 0.590117 0.750000
O O9 0.436809 0.920318 0.663854
O O10 0.939804 0.650037 0.837387
O O11 0.986974 0.276923 0.750000
O O12 0.159590 0.750000 0.500000
O O13 0.144426 0.459144 0.365013
O O14 0.120290 0.960096 0.362607
O O15 0.584154 0.250000 0.000000
O O16 0.097783 0.250000 0.500000
#
# Coordination Sequence:
#
# PCOD9439073 Si02
#       7
#     8   8   4   4   8   8   8
#     4  11  21  36  62  95 130 171 221 263 306 370
#     4  12  23  42  63  97 140 178 220 271 317 381
#     4  12  26  46  72  99 134 163 212 286 340 392
#     4  12  26  42  62  91 122 153 202 264 320 382
#     4   9  18  36  62  87 122 164 207 251 300 362
#     4  12  25  45  71  97 132 178 221 264 333 397
#     4  10  21  40  63  88 120 163 203 250 313 375
#
# _framework density 21.946147
#
# number of rings (size 3 to 8) (size 9 to 14) (size 15 to 20)
#    0.000    1.000    1.667    7.500    0.000    1.333 
#    3.000    0.000    0.000    0.000    2.167    0.000 
#    0.000    0.000    0.000    0.000    0.000    0.000 
#
# Total GULP energy -268556.171743 kJ/mol
# GULP energy per Si atom -5594.920245 kJ/mol
# Density = 2.189620 g / cm^3
# Si number density = 21.946147 Si / 1000 Ang^3
#
#
#
# Elastic Constant Matrix: (Units=GPa)
#
#
# Indices 1 2 3 4 5 6 
#
# 1 84.4728 -1.5761 28.1986 0.0000 0.0000 0.0000
# 2 -1.5761 91.3439 3.5279 0.0000 0.0000 0.0000
# 3 28.1986 3.5279 91.9273 0.0000 0.0000 0.0000
# 4 0.0000 0.0000 0.0000 13.8643 0.0000 0.0000
# 5 0.0000 0.0000 0.0000 0.0000 27.0046 0.0000
# 6 0.0000 0.0000 0.0000 0.0000 0.0000 48.2766
#
#
#
# Elastic Compliance Matrix: (Units=1/GPa)
#
#
# Indices 1 2 3 4 5 6 
#
# 1 0.013202 0.000385 -0.004064 0.000000 0.000000 0.000000
# 2 0.000385 0.010975 -0.000539 0.000000 0.000000 0.000000
# 3 -0.004064 -0.000539 0.012146 0.000000 0.000000 0.000000
# 4 0.000000 0.000000 0.000000 0.072128 0.000000 0.000000
# 5 0.000000 0.000000 0.000000 0.000000 0.037031 0.000000
# 6 0.000000 0.000000 0.000000 0.000000 0.000000 0.020714
#
#
# Mechanical properties :
#
#
# Convention : Reuss Voigt Hill
#
# Bulk Modulus (GPa) = 35.86164 36.44943 36.15553
# Shear Modulus (GPa) = 27.18450 33.66867 30.42659
#
# Velocity S-wave (km/s) = 3.52332 3.92107 3.72751
# Velocity P-wave (km/s) = 5.73829 6.09462 5.91914
#
# Compressibility (1/GPa) = 0.02788495
#
# Stress axis : x y z
#
# Youngs Moduli (GPa) = 75.74548 91.11536 82.33408
#
# Poissons Ratio (x) = -0.03506 0.33465
# Poissons Ratio (y) = -0.02914 0.04440
# Poissons Ratio (z) = 0.30787 0.04913
#
# Static dielectric constant tensor:
#      x y z
#    x 1.789740 0.000000 0.000000 
#    y 0.000000 1.769920 0.000000 
#    z 0.000000 0.000000 1.815920 
# 
# From -- ./inp_files/19607.got.cif
#   From: 2010.05.17/outbox.cif.g08.bks.cpg/sg57_10_cif.got.tgz:19607.got - 2010.06.03 13:58:18.
