data_PCOD9439065
_publ_section_title
;
Structure prediction by ZEFSAII (Michael W. Deem and Ramdas Pophale) SiO2 
 PCOD9439065
Probable space group: P B C M
;
_chemical_formula_sum "Si O2"
_cell_formula_units_Z 48
_cell_length_a 9.071022
_cell_length_b 16.206206
_cell_length_c 16.899150
_cell_angle_alpha 90.000000
_cell_angle_beta 90.000000
_cell_angle_gamma 90.000000
_cell_volume 2484.290829
_symmetry_space_group_name_H-M "P B C M"
_symmetry_group_IT_number 57
_symmetry_cell_setting 'orthorhombic'
loop_
_space_group_symop_operation_xyz
x,y,z
-x,-y,1/2+z
x,1/2-y,-z
-x,1/2+y,1/2-z
-x,-y,-z
x,y,1/2-z
-x,1/2+y,z
x,1/2-y,1/2+z
loop_
_atom_site_type_symbol
_atom_site_label
_atom_site_fract_x
_atom_site_fract_y
_atom_site_fract_z
Si Si1 0.873574 0.554193 0.960608
Si Si2 0.829291 0.695930 0.422270
Si Si3 0.036671 0.819794 0.345695
Si Si4 0.527645 0.818566 0.842918
Si Si5 0.378803 0.848200 0.344976
Si Si6 0.559346 0.004029 0.412044
O O1 0.937944 0.613709 0.892304
O O2 0.734488 0.509696 0.920717
O O3 0.828130 0.606905 0.037749
O O4 0.000000 0.500000 0.000000
O O5 0.794140 0.750000 0.500000
O O6 0.977824 0.732944 0.382761
O O7 0.699466 0.697667 0.359180
O O8 0.019266 0.819838 0.250000
O O9 0.205317 0.844177 0.365293
O O10 0.498150 0.822117 0.750000
O O11 0.447032 0.737425 0.876817
O O12 0.477613 0.906147 0.877536
O O13 0.386415 0.846160 0.250000
O O14 0.473211 0.928127 0.370069
O O15 0.500000 0.000000 0.500000
#
# Coordination Sequence:
#
# PCOD9439065 Si02
#       6
#     8   8   8   8   8   8
#     4  11  24  42  61  94 129 168 213 265 335 395
#     4  10  21  40  62  92 125 167 217 262 326 390
#     4  10  22  41  65  91 127 173 216 268 328 384
#     4  11  24  41  67  97 126 171 219 266 326 393
#     4  10  23  43  64  94 131 169 219 274 326 387
#     4  12  24  41  66  94 131 169 217 271 329 391
#
# _framework density 19.32141
#
# number of rings (size 3 to 8) (size 9 to 14) (size 15 to 20)
#    0.000    1.333    1.667    4.000    2.333    2.667 
#    3.000    0.833    0.000    0.000    0.000    0.000 
#    0.000    0.000    0.000    0.000    0.000    0.000 
#
# Total GULP energy -267598.125374 kJ/mol
# GULP energy per Si atom -5574.960945 kJ/mol
# Density = 1.927743 g / cm^3
# Si number density = 19.321410 Si / 1000 Ang^3
#
#
#
# Elastic Constant Matrix: (Units=GPa)
#
#
# Indices 1 2 3 4 5 6 
#
# 1 104.9928 30.0323 7.5765 0.0000 0.0000 0.0000
# 2 30.0323 75.8866 7.1920 0.0000 0.0000 0.0000
# 3 7.5765 7.1920 53.0323 0.0000 0.0000 0.0000
# 4 0.0000 0.0000 0.0000 15.0369 0.0000 0.0000
# 5 0.0000 0.0000 0.0000 0.0000 36.0922 0.0000
# 6 0.0000 0.0000 0.0000 0.0000 0.0000 27.8209
#
#
#
# Elastic Compliance Matrix: (Units=1/GPa)
#
#
# Indices 1 2 3 4 5 6 
#
# 1 0.010790 -0.004178 -0.000975 0.000000 0.000000 0.000000
# 2 -0.004178 0.014967 -0.001433 0.000000 0.000000 0.000000
# 3 -0.000975 -0.001433 0.019190 0.000000 0.000000 0.000000
# 4 0.000000 0.000000 0.000000 0.066503 0.000000 0.000000
# 5 0.000000 0.000000 0.000000 0.000000 0.027707 0.000000
# 6 0.000000 0.000000 0.000000 0.000000 0.000000 0.035944
#
#
# Mechanical properties :
#
#
# Convention : Reuss Voigt Hill
#
# Bulk Modulus (GPa) = 31.47073 35.94592 33.70832
# Shear Modulus (GPa) = 25.14290 28.39741 26.77015
#
# Velocity S-wave (km/s) = 3.61126 3.83788 3.72629
# Velocity P-wave (km/s) = 5.80617 6.18738 5.99980
#
# Compressibility (1/GPa) = 0.03177556
#
# Stress axis : x y z
#
# Youngs Moduli (GPa) = 92.67998 66.81508 52.11034
#
# Poissons Ratio (x) = 0.27913 0.05080
# Poissons Ratio (y) = 0.38719 0.07467
# Poissons Ratio (z) = 0.09036 0.09574
#
# Static dielectric constant tensor:
#      x y z
#    x 1.727200 0.000000 0.000000 
#    y 0.000000 2.191660 0.000000 
#    z 0.000000 0.000000 1.645410 
# 
# From -- ./inp_files/20959.got.cif
#   From: 2010.05.17/outbox.cif.g08.bks.cpg/sg57_11_cif.got.tgz:20959.got - 2010.06.03 13:58:18.
