data_PCOD9439676
_publ_section_title
;
Structure prediction by ZEFSAII (Michael W. Deem and Ramdas Pophale) SiO2 
 PCOD9439676
Probable space group: P B C M
;
_chemical_formula_sum "Si O2"
_cell_formula_units_Z 40
_cell_length_a 26.433423
_cell_length_b 9.244691
_cell_length_c 8.588662
_cell_angle_alpha 90.000000
_cell_angle_beta 90.000000
_cell_angle_gamma 90.000000
_cell_volume 2098.801265
_symmetry_space_group_name_H-M "P B C M"
_symmetry_group_IT_number 57
_symmetry_cell_setting 'orthorhombic'
loop_
_space_group_symop_operation_xyz
x,y,z
-x,-y,1/2+z
x,1/2-y,-z
-x,1/2+y,1/2-z
-x,-y,-z
x,y,1/2-z
-x,1/2+y,z
x,1/2-y,1/2+z
loop_
_atom_site_type_symbol
_atom_site_label
_atom_site_fract_x
_atom_site_fract_y
_atom_site_fract_z
Si Si1 0.148522 0.912570 0.937638
Si Si2 0.655447 0.086391 0.936316
Si Si3 0.452346 0.912844 0.936332
Si Si4 0.248879 0.412472 0.062435
Si Si5 0.951767 0.913057 0.437331
O O1 0.148233 0.906795 0.750000
O O2 0.199629 0.995014 0.985819
O O3 0.099253 0.003336 0.986998
O O4 0.147030 0.750000 0.000000
O O5 0.654089 0.090829 0.750000
O O6 0.662158 0.250000 0.000000
O O7 0.601542 0.030921 0.000488
O O8 0.701269 0.988748 0.995586
O O9 0.451820 0.912855 0.750000
O O10 0.456382 0.750000 0.000000
O O11 0.500000 0.000000 0.000000
O O12 0.251335 0.410870 0.250000
O O13 0.244554 0.250000 0.000000
O O14 0.951851 0.750000 0.500000
O O15 0.953382 0.909964 0.250000
O O16 0.000000 0.000000 0.500000
#
# Coordination Sequence:
#
# PCOD9439676 Si02
#       5
#     8   8   8   8   8
#     4  10  23  40  61  87 118 154 197 242 293 350
#     4  11  22  39  61  87 117 154 195 240 290 348
#     4  11  22  39  61  88 119 155 196 242 292 348
#     4  11  23  40  60  87 118 153 194 242 294 349
#     4  11  23  40  61  89 121 158 199 246 296 351
#
# _framework density 19.058498
#
# number of rings (size 3 to 8) (size 9 to 14) (size 15 to 20)
#    0.000    1.200    0.000    7.800    0.000    7.200 
#    0.000    4.000    0.000    0.000    0.000    0.000 
#    0.000    0.000    0.000    0.000    0.000    0.000 
#
# Total GULP energy -223762.564211 kJ/mol
# GULP energy per Si atom -5594.064105 kJ/mol
# Density = 1.901512 g / cm^3
# Si number density = 19.058498 Si / 1000 Ang^3
#
#
#
# Elastic Constant Matrix: (Units=GPa)
#
#
# Indices 1 2 3 4 5 6 
#
# 1 228.6082 123.4077 74.2305 0.0000 0.0000 0.0000
# 2 123.4077 161.0402 53.7495 0.0000 0.0000 0.0000
# 3 74.2305 53.7495 128.1189 0.0000 0.0000 0.0000
# 4 0.0000 0.0000 0.0000 40.1681 0.0000 0.0000
# 5 0.0000 0.0000 0.0000 0.0000 31.6086 0.0000
# 6 0.0000 0.0000 0.0000 0.0000 0.0000 44.6492
#
#
#
# Elastic Compliance Matrix: (Units=1/GPa)
#
#
# Indices 1 2 3 4 5 6 
#
# 1 0.008056 -0.005367 -0.002416 0.000000 0.000000 0.000000
# 2 -0.005367 0.010796 -0.001420 0.000000 0.000000 0.000000
# 3 -0.002416 -0.001420 0.009801 0.000000 0.000000 0.000000
# 4 0.000000 0.000000 0.000000 0.024895 0.000000 0.000000
# 5 0.000000 0.000000 0.000000 0.000000 0.031637 0.000000
# 6 0.000000 0.000000 0.000000 0.000000 0.000000 0.022397
#
#
# Mechanical properties :
#
#
# Convention : Reuss Voigt Hill
#
# Bulk Modulus (GPa) = 97.58482 113.39365 105.48924
# Shear Modulus (GPa) = 38.63876 41.04380 39.84128
#
# Velocity S-wave (km/s) = 4.50753 4.64569 4.57713
# Velocity P-wave (km/s) = 8.85462 9.40231 9.13257
#
# Compressibility (1/GPa) = 0.01024750
#
# Stress axis : x y z
#
# Youngs Moduli (GPa) = 124.13020 92.62330 102.03428
#
# Poissons Ratio (x) = 0.49712 0.24651
# Poissons Ratio (y) = 0.66622 0.14486
# Poissons Ratio (z) = 0.29989 0.13150
#
# Static dielectric constant tensor:
#      x y z
#    x 1.653840 0.000000 0.000000 
#    y 0.000000 1.615780 0.000000 
#    z 0.000000 0.000000 1.641970 
# 
# From -- ./inp_files/8870.got.cif
#   From: 2010.05.17/outbox.cif.g08.bks.cpg/sg57_5_cif.got.tgz:8870.got - 2010.06.03 13:58:18.
