data_PCOD9439494
_publ_section_title
;
Structure prediction by ZEFSAII (Michael W. Deem and Ramdas Pophale) SiO2 
 PCOD9439494
Probable space group: P B C M
;
_chemical_formula_sum "Si O2"
_cell_formula_units_Z 40
_cell_length_a 5.498896
_cell_length_b 22.704164
_cell_length_c 13.664194
_cell_angle_alpha 90.000000
_cell_angle_beta 90.000000
_cell_angle_gamma 90.000000
_cell_volume 1705.945060
_symmetry_space_group_name_H-M "P B C M"
_symmetry_group_IT_number 57
_symmetry_cell_setting 'orthorhombic'
loop_
_space_group_symop_operation_xyz
x,y,z
-x,-y,1/2+z
x,1/2-y,-z
-x,1/2+y,1/2-z
-x,-y,-z
x,y,1/2-z
-x,1/2+y,z
x,1/2-y,1/2+z
loop_
_atom_site_type_symbol
_atom_site_label
_atom_site_fract_x
_atom_site_fract_y
_atom_site_fract_z
Si Si1 0.449306 0.641192 0.863537
Si Si2 0.532414 0.222009 0.367822
Si Si3 0.147073 0.532007 0.860399
Si Si4 0.249705 0.058124 0.496698
Si Si5 0.029057 0.342589 0.868581
O O1 0.547188 0.637898 0.750000
O O2 0.432159 0.709239 0.891296
O O3 0.206592 0.601637 0.860239
O O4 0.595110 0.606145 0.945833
O O5 0.538694 0.218673 0.250000
O O6 0.770069 0.185102 0.398968
O O7 0.263673 0.198425 0.393913
O O8 0.141545 0.511560 0.750000
O O9 0.897561 0.526168 0.917377
O O10 0.338220 0.492583 0.921687
O O11 0.076359 0.097108 0.425640
O O12 0.028988 0.350361 0.750000
#
# Coordination Sequence:
#
# PCOD9439494 Si02
#       5
#     8   8   8   8   8
#     4  10  22  41  64  92 130 173 219 274 334 398
#     4   9  21  41  66  94 135 178 218 268 333 396
#     4  10  23  43  64  91 129 172 222 278 340 397
#     4  11  23  39  66  96 129 168 227 278 330 402
#     4  10  22  42  66  98 136 178 219 273 336 396
#
# _framework density 23.447412
#
# number of rings (size 3 to 8) (size 9 to 14) (size 15 to 20)
#    0.000    2.000    0.000    1.800    5.600    0.800 
#    0.000    0.000    0.000    0.000    0.000    0.000 
#    0.000    0.000    0.000    0.000    0.000    0.000 
#
# Total GULP energy -223262.542271 kJ/mol
# GULP energy per Si atom -5581.563557 kJ/mol
# Density = 2.339405 g / cm^3
# Si number density = 23.447412 Si / 1000 Ang^3
#
#
#
# Elastic Constant Matrix: (Units=GPa)
#
#
# Indices 1 2 3 4 5 6 
#
# 1 88.6889 18.9959 22.5344 0.0000 0.0000 0.0000
# 2 18.9959 117.7321 13.5776 0.0000 0.0000 0.0000
# 3 22.5344 13.5776 115.7239 0.0000 0.0000 0.0000
# 4 0.0000 0.0000 0.0000 44.7314 0.0000 0.0000
# 5 0.0000 0.0000 0.0000 0.0000 22.8617 0.0000
# 6 0.0000 0.0000 0.0000 0.0000 0.0000 29.6151
#
#
#
# Elastic Compliance Matrix: (Units=1/GPa)
#
#
# Indices 1 2 3 4 5 6 
#
# 1 0.012195 -0.001717 -0.002173 0.000000 0.000000 0.000000
# 2 -0.001717 0.008852 -0.000704 0.000000 0.000000 0.000000
# 3 -0.002173 -0.000704 0.009147 0.000000 0.000000 0.000000
# 4 0.000000 0.000000 0.000000 0.022356 0.000000 0.000000
# 5 0.000000 0.000000 0.000000 0.000000 0.043741 0.000000
# 6 0.000000 0.000000 0.000000 0.000000 0.000000 0.033767
#
#
# Mechanical properties :
#
#
# Convention : Reuss Voigt Hill
#
# Bulk Modulus (GPa) = 47.60690 48.04008 47.82349
# Shear Modulus (GPa) = 34.18827 37.24411 35.71619
#
# Velocity S-wave (km/s) = 3.82263 3.98981 3.90711
# Velocity P-wave (km/s) = 6.31119 6.46202 6.38705
#
# Compressibility (1/GPa) = 0.02100536
#
# Stress axis : x y z
#
# Youngs Moduli (GPa) = 81.99859 112.96731 109.32456
#
# Poissons Ratio (x) = 0.19397 0.23759
# Poissons Ratio (y) = 0.14080 0.07699
# Poissons Ratio (z) = 0.17821 0.07956
#
# Static dielectric constant tensor:
#      x y z
#    x 1.943580 0.000000 0.000000 
#    y 0.000000 1.914020 0.000000 
#    z 0.000000 0.000000 1.904960 
# 
# From -- ./inp_files/14970.got.cif
#   From: 2010.05.17/outbox.cif.g08.bks.cpg/sg57_8_cif.got.tgz:14970.got - 2010.06.03 13:58:18.
