data_PCOD9439452
_publ_section_title
;
Structure prediction by ZEFSAII (Michael W. Deem and Ramdas Pophale) SiO2 
 PCOD9439452
Probable space group: P B C M
;
_chemical_formula_sum "Si O2"
_cell_formula_units_Z 40
_cell_length_a 13.437035
_cell_length_b 9.518922
_cell_length_c 14.010908
_cell_angle_alpha 90.000000
_cell_angle_beta 90.000000
_cell_angle_gamma 90.000000
_cell_volume 1792.080433
_symmetry_space_group_name_H-M "P B C M"
_symmetry_group_IT_number 57
_symmetry_cell_setting 'orthorhombic'
loop_
_space_group_symop_operation_xyz
x,y,z
-x,-y,1/2+z
x,1/2-y,-z
-x,1/2+y,1/2-z
-x,-y,-z
x,y,1/2-z
-x,1/2+y,z
x,1/2-y,1/2+z
loop_
_atom_site_type_symbol
_atom_site_label
_atom_site_fract_x
_atom_site_fract_y
_atom_site_fract_z
Si Si1 0.054446 0.954569 0.365129
Si Si2 0.752378 0.878027 0.933401
Si Si3 0.368597 0.301211 0.750000
Si Si4 0.551648 0.010138 0.250000
Si Si5 0.658767 0.386873 0.943259
Si Si6 0.120741 0.647041 0.135390
O O1 0.056323 0.969420 0.250000
O O2 0.151819 0.033250 0.402730
O O3 0.950624 0.021602 0.397142
O O4 0.064730 0.791294 0.387083
O O5 0.700368 0.809782 0.842094
O O6 0.782873 0.750000 0.000000
O O7 0.673530 0.980452 0.986576
O O8 0.438935 0.437366 0.750000
O O9 0.431299 0.157155 0.750000
O O10 0.600110 0.072400 0.152781
O O11 0.771255 0.352633 0.910217
O O12 0.618896 0.250000 0.000000
O O13 0.133905 0.638142 0.250000
#
# Coordination Sequence:
#
# PCOD9439452 Si02
#       6
#     8   8   4   4   8   8
#     4  10  22  40  66 100 143 192 235 288 342 413
#     4  12  26  46  73 106 143 186 239 289 350 426
#     4  12  30  52  77 106 141 182 233 296 368 422
#     4  12  30  52  77 106 143 182 229 302 360 428
#     4  12  26  46  75 108 143 189 239 290 353 425
#     4  10  22  40  66 102 144 191 238 284 347 409
#
# _framework density 22.320428
#
# number of rings (size 3 to 8) (size 9 to 14) (size 15 to 20)
#    0.000    0.800    6.000    0.000    5.600    3.200 
#    0.000    0.000    0.000    0.000    0.000    0.000 
#    0.000    0.000    0.000    0.000    0.000    0.000 
#
# Total GULP energy -224130.263124 kJ/mol
# GULP energy per Si atom -5603.256578 kJ/mol
# Density = 2.226963 g / cm^3
# Si number density = 22.320428 Si / 1000 Ang^3
#
#
#
# Elastic Constant Matrix: (Units=GPa)
#
#
# Indices 1 2 3 4 5 6 
#
# 1 32.0633 -21.0071 11.8560 0.0000 0.0000 0.0000
# 2 -21.0071 68.4217 31.0460 0.0000 0.0000 0.0000
# 3 11.8560 31.0460 102.9050 0.0000 0.0000 0.0000
# 4 0.0000 0.0000 0.0000 31.3682 0.0000 0.0000
# 5 0.0000 0.0000 0.0000 0.0000 4.0565 0.0000
# 6 0.0000 0.0000 0.0000 0.0000 0.0000 35.5241
#
#
#
# Elastic Compliance Matrix: (Units=1/GPa)
#
#
# Indices 1 2 3 4 5 6 
#
# 1 0.048868 0.020343 -0.011768 0.000000 0.000000 0.000000
# 2 0.020343 0.025402 -0.010007 0.000000 0.000000 0.000000
# 3 -0.011768 -0.010007 0.014093 0.000000 0.000000 0.000000
# 4 0.000000 0.000000 0.000000 0.031879 0.000000 0.000000
# 5 0.000000 0.000000 0.000000 0.000000 0.246519 0.000000
# 6 0.000000 0.000000 0.000000 0.000000 0.000000 0.028150
#
#
# Mechanical properties :
#
#
# Convention : Reuss Voigt Hill
#
# Bulk Modulus (GPa) = 11.69608 27.46443 19.58025
# Shear Modulus (GPa) = 11.72954 26.28943 19.00948
#
# Velocity S-wave (km/s) = 2.29488 3.43566 2.92149
# Velocity P-wave (km/s) = 3.50335 5.29808 4.49127
#
# Compressibility (1/GPa) = 0.08549871
#
# Stress axis : x y z
#
# Youngs Moduli (GPa) = 20.46327 39.36711 70.95872
#
# Poissons Ratio (x) = -0.80085 0.83502
# Poissons Ratio (y) = -0.41629 0.71012
# Poissons Ratio (z) = 0.24081 0.39396
#
# Static dielectric constant tensor:
#      x y z
#    x 1.746310 0.000000 0.000000 
#    y 0.000000 1.795140 0.000000 
#    z 0.000000 0.000000 1.869060 
# 
# From -- ./inp_files/18249.got.cif
#   From: 2010.05.17/outbox.cif.g08.bks.cpg/sg57_10_cif.got.tgz:18249.got - 2010.06.03 13:58:18.
