data_PCOD9439990
_publ_section_title
;
Structure prediction by ZEFSAII (Michael W. Deem and Ramdas Pophale) SiO2 
 PCOD9439990
Probable space group: P B C M
;
_chemical_formula_sum "Si O2"
_cell_formula_units_Z 40
_cell_length_a 10.510298
_cell_length_b 7.656418
_cell_length_c 22.242515
_cell_angle_alpha 90.000000
_cell_angle_beta 90.000000
_cell_angle_gamma 90.000000
_cell_volume 1789.882647
_symmetry_space_group_name_H-M "P B C M"
_symmetry_group_IT_number 57
_symmetry_cell_setting 'orthorhombic'
loop_
_space_group_symop_operation_xyz
x,y,z
-x,-y,1/2+z
x,1/2-y,-z
-x,1/2+y,1/2-z
-x,-y,-z
x,y,1/2-z
-x,1/2+y,z
x,1/2-y,1/2+z
loop_
_atom_site_type_symbol
_atom_site_label
_atom_site_fract_x
_atom_site_fract_y
_atom_site_fract_z
Si Si1 0.145482 0.798783 0.320984
Si Si2 0.712107 0.620034 0.750000
Si Si3 0.865728 0.708484 0.149071
Si Si4 0.460479 0.032893 0.250000
Si Si5 0.359291 0.168148 0.435252
Si Si6 0.397990 0.828471 0.126939
O O1 0.141609 0.751850 0.250000
O O2 0.015169 0.741783 0.352513
O O3 0.152325 0.011139 0.325516
O O4 0.268305 0.728312 0.356904
O O5 0.803532 0.650318 0.806181
O O6 0.615134 0.786354 0.750000
O O7 0.613832 0.460339 0.750000
O O8 0.778916 0.719544 0.090153
O O9 0.424100 0.932154 0.189083
O O10 0.379042 0.250000 0.500000
O O11 0.474276 0.231249 0.392000
O O12 0.367622 0.959999 0.427786
#
# Coordination Sequence:
#
# PCOD9439990 Si02
#       6
#     8   4   8   4   8   8
#     4  11  20  37  58  89 123 150 189 249 315 371
#     4  12  20  37  59  91 135 153 189 256 312 366
#     4  11  22  39  58  87 124 159 195 246 304 360
#     4  12  18  37  61  95 121 145 193 254 320 354
#     4  11  24  42  61  84 121 168 210 245 288 357
#     4  11  21  38  62  89 120 150 197 257 306 359
#
# _framework density 22.347835
#
# number of rings (size 3 to 8) (size 9 to 14) (size 15 to 20)
#    0.000    0.800    9.000    0.600    0.000    1.600 
#    3.600    5.000    0.000    0.000    0.000    0.000 
#    0.000    0.000    0.000    0.000    0.000    0.000 
#
# Total GULP energy -223714.722280 kJ/mol
# GULP energy per Si atom -5592.868057 kJ/mol
# Density = 2.229697 g / cm^3
# Si number density = 22.347835 Si / 1000 Ang^3
#
#
#
# Elastic Constant Matrix: (Units=GPa)
#
#
# Indices 1 2 3 4 5 6 
#
# 1 188.4352 18.5142 50.3377 0.0000 0.0000 0.0000
# 2 18.5142 35.2159 9.1046 0.0000 0.0000 0.0000
# 3 50.3377 9.1046 64.2998 0.0000 0.0000 0.0000
# 4 0.0000 0.0000 0.0000 21.2920 0.0000 0.0000
# 5 0.0000 0.0000 0.0000 0.0000 25.3600 0.0000
# 6 0.0000 0.0000 0.0000 0.0000 0.0000 41.9252
#
#
#
# Elastic Compliance Matrix: (Units=1/GPa)
#
#
# Indices 1 2 3 4 5 6 
#
# 1 0.006887 -0.002311 -0.005064 0.000000 0.000000 0.000000
# 2 -0.002311 0.030251 -0.002474 0.000000 0.000000 0.000000
# 3 -0.005064 -0.002474 0.019867 0.000000 0.000000 0.000000
# 4 0.000000 0.000000 0.000000 0.046966 0.000000 0.000000
# 5 0.000000 0.000000 0.000000 0.000000 0.039432 0.000000
# 6 0.000000 0.000000 0.000000 0.000000 0.000000 0.023852
#
#
# Mechanical properties :
#
#
# Convention : Reuss Voigt Hill
#
# Bulk Modulus (GPa) = 26.80543 49.31821 38.06182
# Shear Modulus (GPa) = 25.07661 31.71507 28.39584
#
# Velocity S-wave (km/s) = 3.35342 3.77126 3.56846
# Velocity P-wave (km/s) = 5.19755 6.40933 5.83498
#
# Compressibility (1/GPa) = 0.03730588
#
# Stress axis : x y z
#
# Youngs Moduli (GPa) = 145.20628 33.05675 50.33494
#
# Poissons Ratio (x) = 0.07641 0.25490
# Poissons Ratio (y) = 0.33562 0.12453
# Poissons Ratio (z) = 0.73534 0.08178
#
# Static dielectric constant tensor:
#      x y z
#    x 1.880300 0.000000 0.000000 
#    y 0.000000 1.929460 0.000000 
#    z 0.000000 0.000000 1.784840 
# 
# From -- ./inp_files/24872.got.cif
#   From: 2010.05.17/outbox.cif.g08.bks.cpg/sg57_13_cif.got.tgz:24872.got - 2010.06.03 13:58:18.
