data_PCOD9439031
_publ_section_title
;
Structure prediction by ZEFSAII (Michael W. Deem and Ramdas Pophale) SiO2 
 PCOD9439031
Probable space group: P B C M
;
_chemical_formula_sum "Si O2"
_cell_formula_units_Z 44
_cell_length_a 6.085162
_cell_length_b 19.743973
_cell_length_c 15.187316
_cell_angle_alpha 90.000000
_cell_angle_beta 90.000000
_cell_angle_gamma 90.000000
_cell_volume 1824.684246
_symmetry_space_group_name_H-M "P B C M"
_symmetry_group_IT_number 57
_symmetry_cell_setting 'orthorhombic'
loop_
_space_group_symop_operation_xyz
x,y,z
-x,-y,1/2+z
x,1/2-y,-z
-x,1/2+y,1/2-z
-x,-y,-z
x,y,1/2-z
-x,1/2+y,z
x,1/2-y,1/2+z
loop_
_atom_site_type_symbol
_atom_site_label
_atom_site_fract_x
_atom_site_fract_y
_atom_site_fract_z
Si Si1 0.872275 0.918113 0.750000
Si Si2 0.805369 0.356074 0.453548
Si Si3 0.539027 0.750000 0.500000
Si Si4 0.179147 0.196243 0.848282
Si Si5 0.622037 0.438587 0.750000
Si Si6 0.132132 0.056793 0.050671
Si Si7 0.432165 0.442084 0.106491
O O1 0.606530 0.894615 0.750000
O O2 0.141172 0.899295 0.750000
O O3 0.865391 0.951661 0.653981
O O4 0.617706 0.314497 0.501617
O O5 0.682457 0.416013 0.400470
O O6 0.931625 0.311055 0.382123
O O7 0.991665 0.377353 0.522878
O O8 0.687970 0.756912 0.414570
O O9 0.190187 0.221758 0.750000
O O10 0.288509 0.120775 0.854330
O O11 0.611457 0.491520 0.665893
O O12 0.355689 0.056105 0.995650
O O13 0.000000 0.000000 0.000000
#
# Coordination Sequence:
#
# PCOD9439031 Si02
#       7
#     4   8   4   8   4   8   8
#     4  12  28  40  66  95 144 190 236 277 347 428
#     4  10  23  40  70  92 136 176 226 293 354 418
#     4  10  22  44  64  98 128 174 220 290 356 430
#     4  10  21  39  66  98 127 162 225 285 353 409
#     4  12  24  40  64 103 134 186 234 287 337 412
#     4  11  23  43  63  99 140 184 228 285 348 426
#     4  10  22  37  66  96 131 172 224 286 341 403
#
# _framework density 24.113762999999999
#
# number of rings (size 3 to 8) (size 9 to 14) (size 15 to 20)
#    0.000    1.455    2.727    1.636    6.364    2.182 
#    1.636    0.000   24.000    0.000    0.000    0.000 
#    0.000    0.000    0.000    0.000    0.000    0.000 
#
# Total GULP energy -245466.184512 kJ/mol
# GULP energy per Si atom -5578.776921 kJ/mol
# Density = 2.405888 g / cm^3
# Si number density = 24.113763 Si / 1000 Ang^3
#
#
#
# Elastic Constant Matrix: (Units=GPa)
#
#
# Indices 1 2 3 4 5 6 
#
# 1 164.3151 19.1965 35.5302 0.0000 0.0000 0.0000
# 2 19.1965 27.2589 15.0330 0.0000 0.0000 0.0000
# 3 35.5302 15.0330 208.6816 0.0000 0.0000 0.0000
# 4 0.0000 0.0000 0.0000 -18.5837 0.0000 0.0000
# 5 0.0000 0.0000 0.0000 0.0000 24.0853 0.0000
# 6 0.0000 0.0000 0.0000 0.0000 0.0000 41.5181
#
#
#
# Elastic Compliance Matrix: (Units=1/GPa)
#
#
# Indices 1 2 3 4 5 6 
#
# 1 0.006771 -0.004303 -0.000843 0.000000 0.000000 0.000000
# 2 -0.004303 0.040938 -0.002216 0.000000 0.000000 0.000000
# 3 -0.000843 -0.002216 0.005095 0.000000 0.000000 0.000000
# 4 0.000000 0.000000 0.000000 -0.053811 0.000000 0.000000
# 5 0.000000 0.000000 0.000000 0.000000 0.041519 0.000000
# 6 0.000000 0.000000 0.000000 0.000000 0.000000 0.024086
#
#
# Mechanical properties :
#
#
# Convention : Reuss Voigt Hill
#
# Bulk Modulus (GPa) = 26.26125 59.97501 43.11813
# Shear Modulus (GPa) = 54.33793 31.43701 42.88747
#
# Velocity S-wave (km/s) = 4.75215 3.61459 4.22186
# Velocity P-wave (km/s) = 6.40506 6.50738 6.45642
#
# Compressibility (1/GPa) = 0.03807891
#
# Stress axis : x y z
#
# Youngs Moduli (GPa) = 147.69152 24.42706 196.26509
#
# Poissons Ratio (x) = 0.10512 0.16541
# Poissons Ratio (y) = 0.63558 0.43500
# Poissons Ratio (z) = 0.12447 0.05414
#
# Static dielectric constant tensor:
#      x y z
#    x 2.010920 0.000000 0.000000 
#    y 0.000000 2.095880 0.000000 
#    z 0.000000 0.000000 1.877770 
# 
# From -- ./inp_files/15071.got.cif
#   From: 2010.05.17/outbox.cif.g08.bks.cpg/sg57_8_cif.got.tgz:15071.got - 2010.06.03 13:58:18.
