data_PCOD9439601
_publ_section_title
;
Structure prediction by ZEFSAII (Michael W. Deem and Ramdas Pophale) SiO2 
 PCOD9439601
Probable space group: P B C M
;
_chemical_formula_sum "Si O2"
_cell_formula_units_Z 40
_cell_length_a 8.180622
_cell_length_b 10.375468
_cell_length_c 21.271424
_cell_angle_alpha 90.000000
_cell_angle_beta 90.000000
_cell_angle_gamma 90.000000
_cell_volume 1805.471284
_symmetry_space_group_name_H-M "P B C M"
_symmetry_group_IT_number 57
_symmetry_cell_setting 'orthorhombic'
loop_
_space_group_symop_operation_xyz
x,y,z
-x,-y,1/2+z
x,1/2-y,-z
-x,1/2+y,1/2-z
-x,-y,-z
x,y,1/2-z
-x,1/2+y,z
x,1/2-y,1/2+z
loop_
_atom_site_type_symbol
_atom_site_label
_atom_site_fract_x
_atom_site_fract_y
_atom_site_fract_z
Si Si1 0.852760 0.780684 0.931553
Si Si2 0.373280 0.973753 0.441476
Si Si3 0.318250 0.456871 0.122627
Si Si4 0.837922 0.254729 0.250000
Si Si5 0.120734 0.036391 0.750000
Si Si6 0.203929 0.731931 0.388810
O O1 0.719043 0.672794 0.915460
O O2 0.007257 0.760699 0.886865
O O3 0.765935 0.918272 0.935293
O O4 0.921870 0.750000 0.000000
O O5 0.490458 0.983084 0.380511
O O6 0.287541 0.834929 0.434592
O O7 0.500000 0.000000 0.500000
O O8 0.233412 0.441753 0.189410
O O9 0.239695 0.584972 0.092219
O O10 0.740698 0.254669 0.183749
O O11 0.964316 0.372269 0.250000
O O12 0.926284 0.114685 0.250000
#
# Coordination Sequence:
#
# PCOD9439601 Si02
#       6
#     8   8   8   4   4   8
#     4  12  25  43  70 103 136 191 233 284 354 433
#     4  12  27  46  67 103 147 185 229 295 362 432
#     4  11  24  44  68 100 143 185 229 296 358 419
#     4  10  22  43  71 103 143 180 244 302 346 419
#     4  10  22  43  69 103 141 184 240 298 352 427
#     4  11  26  44  72 104 140 189 242 290 353 428
#
# _framework density 22.154882000000001
#
# number of rings (size 3 to 8) (size 9 to 14) (size 15 to 20)
#    0.000    0.800    4.000    2.400    5.600    2.400 
#    0.000    4.000    0.000    0.000    0.000    0.000 
#    0.000    0.000    0.000    0.000    0.000    0.000 
#
# Total GULP energy -223401.929964 kJ/mol
# GULP energy per Si atom -5585.048249 kJ/mol
# Density = 2.210446 g / cm^3
# Si number density = 22.154882 Si / 1000 Ang^3
#
#
#
# Elastic Constant Matrix: (Units=GPa)
#
#
# Indices 1 2 3 4 5 6 
#
# 1 54.7329 2.8374 -7.8253 0.0000 0.0000 0.0000
# 2 2.8374 111.5713 32.8315 0.0000 0.0000 0.0000
# 3 -7.8253 32.8315 73.9603 0.0000 0.0000 0.0000
# 4 0.0000 0.0000 0.0000 28.1530 0.0000 0.0000
# 5 0.0000 0.0000 0.0000 0.0000 22.6356 0.0000
# 6 0.0000 0.0000 0.0000 0.0000 0.0000 37.2122
#
#
#
# Elastic Compliance Matrix: (Units=1/GPa)
#
#
# Indices 1 2 3 4 5 6 
#
# 1 0.018694 -0.001216 0.002518 0.000000 0.000000 0.000000
# 2 -0.001216 0.010389 -0.004740 0.000000 0.000000 0.000000
# 3 0.002518 -0.004740 0.015891 0.000000 0.000000 0.000000
# 4 0.000000 0.000000 0.000000 0.035520 0.000000 0.000000
# 5 0.000000 0.000000 0.000000 0.000000 0.044178 0.000000
# 6 0.000000 0.000000 0.000000 0.000000 0.000000 0.026873
#
#
# Mechanical properties :
#
#
# Convention : Reuss Voigt Hill
#
# Bulk Modulus (GPa) = 26.24948 32.88355 29.56651
# Shear Modulus (GPa) = 29.21905 31.76157 30.49031
#
# Velocity S-wave (km/s) = 3.63554 3.79042 3.71379
# Velocity P-wave (km/s) = 5.43109 5.83362 5.63595
#
# Compressibility (1/GPa) = 0.03809600
#
# Stress axis : x y z
#
# Youngs Moduli (GPa) = 53.49437 96.25828 62.92707
#
# Poissons Ratio (x) = 0.11708 -0.15844
# Poissons Ratio (y) = 0.06506 0.29829
# Poissons Ratio (z) = -0.13469 0.45629
#
# Static dielectric constant tensor:
#      x y z
#    x 1.791750 0.000000 0.000000 
#    y 0.000000 1.810310 0.000000 
#    z 0.000000 0.000000 1.867260 
# 
# From -- ./inp_files/26564.got.cif
#   From: 2010.05.17/outbox.cif.g08.bks.cpg/sg57_14_cif.got.tgz:26564.got - 2010.06.03 13:58:18.
