data_PCOD9439193
_publ_section_title
;
Structure prediction by ZEFSAII (Michael W. Deem and Ramdas Pophale) SiO2 
 PCOD9439193
Probable space group: P B C M
;
_chemical_formula_sum "Si O2"
_cell_formula_units_Z 40
_cell_length_a 5.847129
_cell_length_b 9.411830
_cell_length_c 29.014817
_cell_angle_alpha 90.000000
_cell_angle_beta 90.000000
_cell_angle_gamma 90.000000
_cell_volume 1596.748752
_symmetry_space_group_name_H-M "P B C M"
_symmetry_group_IT_number 57
_symmetry_cell_setting 'orthorhombic'
loop_
_space_group_symop_operation_xyz
x,y,z
-x,-y,1/2+z
x,1/2-y,-z
-x,1/2+y,1/2-z
-x,-y,-z
x,y,1/2-z
-x,1/2+y,z
x,1/2-y,1/2+z
loop_
_atom_site_type_symbol
_atom_site_label
_atom_site_fract_x
_atom_site_fract_y
_atom_site_fract_z
Si Si1 0.989862 0.873614 0.250000
Si Si2 0.521225 0.964811 0.652956
Si Si3 0.748884 0.929709 0.491782
Si Si4 0.213993 0.250329 0.585692
Si Si5 0.278024 0.129181 0.250000
Si Si6 0.802135 0.262617 0.153629
O O1 0.096901 0.810878 0.297218
O O2 0.742638 0.799746 0.250000
O O3 0.038429 0.040485 0.250000
O O4 0.656552 0.863642 0.617654
O O5 0.602002 0.921256 0.704057
O O6 0.266401 0.902989 0.653111
O O7 0.589835 0.128054 0.645915
O O8 0.724975 0.902913 0.436131
O O9 0.770504 0.822376 0.535476
O O10 0.500000 0.000000 0.500000
O O11 0.000000 0.000000 0.500000
O O12 0.979529 0.221469 0.612396
#
# Coordination Sequence:
#
# PCOD9439193 Si02
#       6
#     4   8   8   8   4   8
#     4  10  21  42  64  99 153 195 263 311 395 451
#     4  11  25  42  73 106 149 198 261 310 397 453
#     4  11  28  49  75 106 152 195 248 316 396 465
#     4  11  26  45  75 105 147 191 258 317 388 465
#     4  10  21  42  64 103 145 203 247 327 375 467
#     4  11  25  44  71 110 150 206 254 327 378 476
#
# _framework density 25.050903000000002
#
# number of rings (size 3 to 8) (size 9 to 14) (size 15 to 20)
#    0.000    1.200    2.000    1.800    8.400    4.800 
#    0.000    0.000    0.000    0.000    0.000    0.000 
#    0.000    0.000    0.000    0.000    0.000    0.000 
#
# Total GULP energy -222771.718567 kJ/mol
# GULP energy per Si atom -5569.292964 kJ/mol
# Density = 2.499389 g / cm^3
# Si number density = 25.050903 Si / 1000 Ang^3
#
#
#
# Elastic Constant Matrix: (Units=GPa)
#
#
# Indices 1 2 3 4 5 6 
#
# 1 56.9447 14.7154 27.4358 0.0000 0.0000 0.0000
# 2 14.7154 53.9193 39.8098 0.0000 0.0000 0.0000
# 3 27.4358 39.8098 185.8576 0.0000 0.0000 0.0000
# 4 0.0000 0.0000 0.0000 43.8095 0.0000 0.0000
# 5 0.0000 0.0000 0.0000 0.0000 29.0498 0.0000
# 6 0.0000 0.0000 0.0000 0.0000 0.0000 35.5140
#
#
#
# Elastic Compliance Matrix: (Units=1/GPa)
#
#
# Indices 1 2 3 4 5 6 
#
# 1 0.019541 -0.003805 -0.002070 0.000000 0.000000 0.000000
# 2 -0.003805 0.022771 -0.004316 0.000000 0.000000 0.000000
# 3 -0.002070 -0.004316 0.006610 0.000000 0.000000 0.000000
# 4 0.000000 0.000000 0.000000 0.022826 0.000000 0.000000
# 5 0.000000 0.000000 0.000000 0.000000 0.034424 0.000000
# 6 0.000000 0.000000 0.000000 0.000000 0.000000 0.028158
#
#
# Mechanical properties :
#
#
# Convention : Reuss Voigt Hill
#
# Bulk Modulus (GPa) = 35.03621 51.18264 43.10943
# Shear Modulus (GPa) = 30.44598 35.99205 33.21902
#
# Velocity S-wave (km/s) = 3.48999 3.79457 3.64546
# Velocity P-wave (km/s) = 5.50058 6.29874 5.91314
#
# Compressibility (1/GPa) = 0.02854190
#
# Stress axis : x y z
#
# Youngs Moduli (GPa) = 51.17363 43.91528 151.27702
#
# Poissons Ratio (x) = 0.16710 0.31308
# Poissons Ratio (y) = 0.19472 0.65288
# Poissons Ratio (z) = 0.10591 0.18953
#
# Static dielectric constant tensor:
#      x y z
#    x 1.933180 0.000000 0.000000 
#    y 0.000000 2.046420 0.000000 
#    z 0.000000 0.000000 1.736920 
# 
# From -- ./inp_files/29078.got.cif
#   From: 2010.05.17/outbox.cif.g08.bks.cpg/sg57_15_cif.got.tgz:29078.got - 2010.06.03 13:58:18.
