data_PCOD9439524
_publ_section_title
;
Structure prediction by ZEFSAII (Michael W. Deem and Ramdas Pophale) SiO2 
 PCOD9439524
Probable space group: P B C M
;
_chemical_formula_sum "Si O2"
_cell_formula_units_Z 48
_cell_length_a 9.959640
_cell_length_b 13.425321
_cell_length_c 16.320179
_cell_angle_alpha 90.000000
_cell_angle_beta 90.000000
_cell_angle_gamma 90.000000
_cell_volume 2182.193396
_symmetry_space_group_name_H-M "P B C M"
_symmetry_group_IT_number 57
_symmetry_cell_setting 'orthorhombic'
loop_
_space_group_symop_operation_xyz
x,y,z
-x,-y,1/2+z
x,1/2-y,-z
-x,1/2+y,1/2-z
-x,-y,-z
x,y,1/2-z
-x,1/2+y,z
x,1/2-y,1/2+z
loop_
_atom_site_type_symbol
_atom_site_label
_atom_site_fract_x
_atom_site_fract_y
_atom_site_fract_z
Si Si1 0.029623 0.935367 0.081455
Si Si2 0.409221 0.050352 0.848128
Si Si3 0.215627 0.218542 0.912157
Si Si4 0.309538 0.628914 0.849373
Si Si5 0.727151 0.348608 0.650563
Si Si6 0.980660 0.864729 0.841554
O O1 0.179154 0.896317 0.097154
O O2 0.919545 0.848892 0.082881
O O3 0.012220 0.016363 0.153717
O O4 0.000000 0.000000 0.000000
O O5 0.412609 0.042336 0.750000
O O6 0.322669 0.148443 0.868272
O O7 0.563182 0.063010 0.873913
O O8 0.339816 0.949707 0.881132
O O9 0.157262 0.321058 0.875507
O O10 0.269273 0.250000 0.000000
O O11 0.282948 0.618187 0.750000
O O12 0.347153 0.744878 0.863162
O O13 0.737973 0.360105 0.750000
O O14 0.878615 0.334330 0.617273
O O15 0.985743 0.824925 0.750000
#
# Coordination Sequence:
#
# PCOD9439524 Si02
#       6
#     8   8   8   8   8   8
#     4  12  24  41  63  94 131 172 218 273 335 401
#     4  10  22  41  67  98 132 172 226 286 337 399
#     4  12  24  41  62  93 134 176 219 272 338 409
#     4  10  22  41  68  99 132 173 224 279 335 401
#     4   9  18  35  62  94 125 164 215 274 339 389
#     4  11  22  37  66  98 124 168 229 287 334 391
#
# _framework density 21.996216
#
# number of rings (size 3 to 8) (size 9 to 14) (size 15 to 20)
#    0.000    1.333    5.000    1.000    0.000    2.667 
#    0.000    6.667    0.000    0.000    0.000    0.000 
#    0.000    0.000    0.000    0.000    0.000    0.000 
#
# Total GULP energy -267831.200920 kJ/mol
# GULP energy per Si atom -5579.816686 kJ/mol
# Density = 2.194615 g / cm^3
# Si number density = 21.996216 Si / 1000 Ang^3
#
#
#
# Elastic Constant Matrix: (Units=GPa)
#
#
# Indices 1 2 3 4 5 6 
#
# 1 96.7578 18.7016 14.9078 0.0000 0.0000 0.0000
# 2 18.7016 63.6836 0.6845 0.0000 0.0000 0.0000
# 3 14.9078 0.6845 26.6738 0.0000 0.0000 0.0000
# 4 0.0000 0.0000 0.0000 24.6165 0.0000 0.0000
# 5 0.0000 0.0000 0.0000 0.0000 18.8082 0.0000
# 6 0.0000 0.0000 0.0000 0.0000 0.0000 27.2254
#
#
#
# Elastic Compliance Matrix: (Units=1/GPa)
#
#
# Indices 1 2 3 4 5 6 
#
# 1 0.012026 -0.003460 -0.006632 0.000000 0.000000 0.000000
# 2 -0.003460 0.016703 0.001505 0.000000 0.000000 0.000000
# 3 -0.006632 0.001505 0.041158 0.000000 0.000000 0.000000
# 4 0.000000 0.000000 0.000000 0.040623 0.000000 0.000000
# 5 0.000000 0.000000 0.000000 0.000000 0.053168 0.000000
# 6 0.000000 0.000000 0.000000 0.000000 0.000000 0.036730
#
#
# Mechanical properties :
#
#
# Convention : Reuss Voigt Hill
#
# Bulk Modulus (GPa) = 18.97107 28.41146 23.69127
# Shear Modulus (GPa) = 21.26272 24.31811 22.79041
#
# Velocity S-wave (km/s) = 3.11248 3.32860 3.22235
# Velocity P-wave (km/s) = 4.64329 5.26473 4.96374
#
# Compressibility (1/GPa) = 0.05271183
#
# Stress axis : x y z
#
# Youngs Moduli (GPa) = 83.15486 59.87089 24.29659
#
# Poissons Ratio (x) = 0.20717 0.16114
# Poissons Ratio (y) = 0.28774 -0.03657
# Poissons Ratio (z) = 0.55151 -0.09012
#
# Static dielectric constant tensor:
#      x y z
#    x 1.813850 0.000000 0.000000 
#    y 0.000000 1.876030 0.000000 
#    z 0.000000 0.000000 1.852970 
# 
# From -- ./inp_files/20968.got.cif
#   From: 2010.05.17/outbox.cif.g08.bks.cpg/sg57_11_cif.got.tgz:20968.got - 2010.06.03 13:58:18.
