data_PCOD9439219
_publ_section_title
;
Structure prediction by ZEFSAII (Michael W. Deem and Ramdas Pophale) SiO2 
 PCOD9439219
Probable space group: P B C M
;
_chemical_formula_sum "Si O2"
_cell_formula_units_Z 24
_cell_length_a 9.651574
_cell_length_b 9.932325
_cell_length_c 9.147935
_cell_angle_alpha 90.000000
_cell_angle_beta 90.000000
_cell_angle_gamma 90.000000
_cell_volume 876.944557
_symmetry_space_group_name_H-M "P B C M"
_symmetry_group_IT_number 57
_symmetry_cell_setting 'orthorhombic'
loop_
_space_group_symop_operation_xyz
x,y,z
-x,-y,1/2+z
x,1/2-y,-z
-x,1/2+y,1/2-z
-x,-y,-z
x,y,1/2-z
-x,1/2+y,z
x,1/2-y,1/2+z
loop_
_atom_site_type_symbol
_atom_site_label
_atom_site_fract_x
_atom_site_fract_y
_atom_site_fract_z
Si Si1 0.049300 0.829526 0.750000
Si Si2 0.266980 0.429658 0.250000
Si Si3 0.458904 0.081695 0.250000
Si Si4 0.239180 0.897650 0.250000
Si Si5 0.408060 0.750000 0.000000
Si Si6 0.136467 0.250000 0.000000
O O1 0.090007 0.669226 0.750000
O O2 0.961156 0.843191 0.603103
O O3 0.182914 0.927387 0.750000
O O4 0.431330 0.457788 0.250000
O O5 0.222293 0.345336 0.108430
O O6 0.500226 0.160591 0.394153
O O7 0.297604 0.047195 0.250000
O O8 0.310417 0.837891 0.104400
#
# Coordination Sequence:
#
# PCOD9439219 Si02
#       6
#     4   4   4   4   4   4
#     4  11  21  43  73 102 140 185 241 283 368 416
#     4  11  23  45  70  97 146 177 239 302 346 427
#     4  11  24  42  73 105 145 191 233 292 362 414
#     4  11  22  40  72 108 139 191 229 289 348 443
#     4  10  21  43  64 102 144 187 235 278 356 424
#     4  10  25  43  70 106 130 189 243 298 348 408
#
# _framework density 27.367749
#
# number of rings (size 3 to 8) (size 9 to 14) (size 15 to 20)
#    0.000    1.333    3.333    3.000    0.000    1.333 
#    0.000    5.000    0.000    0.000    0.000    0.000 
#    0.000    0.000    0.000    0.000    0.000    0.000 
#
# Total GULP energy -134837.735557 kJ/mol
# GULP energy per Si atom -5618.238982 kJ/mol
# Density = 2.730546 g / cm^3
# Si number density = 27.367749 Si / 1000 Ang^3
#
#
#
# Elastic Constant Matrix: (Units=GPa)
#
#
# Indices 1 2 3 4 5 6 
#
# 1 120.3005 30.9567 43.7786 0.0000 0.0000 0.0000
# 2 30.9567 65.7265 31.8003 0.0000 0.0000 0.0000
# 3 43.7786 31.8003 192.6699 0.0000 0.0000 0.0000
# 4 0.0000 0.0000 0.0000 13.1002 0.0000 0.0000
# 5 0.0000 0.0000 0.0000 0.0000 -15.0516 0.0000
# 6 0.0000 0.0000 0.0000 0.0000 0.0000 61.5348
#
#
#
# Elastic Compliance Matrix: (Units=1/GPa)
#
#
# Indices 1 2 3 4 5 6 
#
# 1 0.009897 -0.003883 -0.001608 0.000000 0.000000 0.000000
# 2 -0.003883 0.018059 -0.002098 0.000000 0.000000 0.000000
# 3 -0.001608 -0.002098 0.005902 0.000000 0.000000 0.000000
# 4 0.000000 0.000000 0.000000 0.076335 0.000000 0.000000
# 5 0.000000 0.000000 0.000000 0.000000 -0.066438 0.000000
# 6 0.000000 0.000000 0.000000 0.000000 0.000000 0.016251
#
#
# Mechanical properties :
#
#
# Convention : Reuss Voigt Hill
#
# Bulk Modulus (GPa) = 53.53719 65.75203 59.64461
# Shear Modulus (GPa) = 61.41722 30.06077 45.73899
#
# Velocity S-wave (km/s) = 4.74238 3.31781 4.09256
# Velocity P-wave (km/s) = 7.04212 6.22532 6.64628
#
# Compressibility (1/GPa) = 0.01867861
#
# Stress axis : x y z
#
# Youngs Moduli (GPa) = 101.04130 55.37459 169.43794
#
# Poissons Ratio (x) = 0.21505 0.27243
# Poissons Ratio (y) = 0.39239 0.35552
# Poissons Ratio (z) = 0.16246 0.11619
#
# Static dielectric constant tensor:
#      x y z
#    x 2.075580 0.000000 0.000000 
#    y 0.000000 2.209290 0.000000 
#    z 0.000000 0.000000 2.012190 
# 
# From -- ./inp_files/954.got.cif
#   From: 2010.05.17/outbox.cif.g08.bks.cpg/sg57_1_cif.got.tgz:954.got - 2010.06.03 13:58:18.
