data_PCOD9439352
_publ_section_title
;
Structure prediction by ZEFSAII (Michael W. Deem and Ramdas Pophale) SiO2 
 PCOD9439352
Probable space group: P B C M
;
_chemical_formula_sum "Si O2"
_cell_formula_units_Z 40
_cell_length_a 7.654139
_cell_length_b 29.810667
_cell_length_c 7.766649
_cell_angle_alpha 90.000000
_cell_angle_beta 90.000000
_cell_angle_gamma 90.000000
_cell_volume 1772.155049
_symmetry_space_group_name_H-M "P B C M"
_symmetry_group_IT_number 57
_symmetry_cell_setting 'orthorhombic'
loop_
_space_group_symop_operation_xyz
x,y,z
-x,-y,1/2+z
x,1/2-y,-z
-x,1/2+y,1/2-z
-x,-y,-z
x,y,1/2-z
-x,1/2+y,z
x,1/2-y,1/2+z
loop_
_atom_site_type_symbol
_atom_site_label
_atom_site_fract_x
_atom_site_fract_y
_atom_site_fract_z
Si Si1 0.351743 0.944404 0.039212
Si Si2 0.753812 0.962322 0.550145
Si Si3 0.827539 0.867600 0.952151
Si Si4 0.462339 0.300372 0.545086
Si Si5 0.801584 0.150724 0.547484
O O1 0.363977 0.945315 0.250000
O O2 0.276124 0.896782 0.983422
O O3 0.235644 0.987046 0.979835
O O4 0.546611 0.950924 0.966309
O O5 0.805191 0.965930 0.750000
O O6 0.843116 0.918021 0.472046
O O7 0.788445 0.874129 0.750000
O O8 0.671322 0.837725 0.027105
O O9 0.009873 0.842156 0.966780
O O10 0.410049 0.250000 0.500000
O O11 0.461140 0.304127 0.750000
O O12 0.656601 0.311883 0.483886
O O13 0.829660 0.146215 0.750000
#
# Coordination Sequence:
#
# PCOD9439352 Si02
#       5
#     8   8   8   8   8
#     4   9  18  32  54  85 120 157 199 242 289 344
#     4   9  17  33  56  83 117 159 201 242 289 343
#     4  10  22  39  61  88 120 159 201 245 294 353
#     4  11  24  44  67  89 115 151 195 246 303 357
#     4  11  23  38  60  91 125 159 196 243 294 352
#
# _framework density 22.571389
#
# number of rings (size 3 to 8) (size 9 to 14) (size 15 to 20)
#    0.000    2.000    2.000    1.200    0.000    4.800 
#    0.000    2.000    0.000    0.000    0.000    0.000 
#    0.000    0.000    0.000    0.000    0.000    0.000 
#
# Total GULP energy -223415.785105 kJ/mol
# GULP energy per Si atom -5585.394628 kJ/mol
# Density = 2.252002 g / cm^3
# Si number density = 22.571389 Si / 1000 Ang^3
#
#
#
# Elastic Constant Matrix: (Units=GPa)
#
#
# Indices 1 2 3 4 5 6 
#
# 1 44.2659 -0.9527 -11.7899 0.0000 0.0000 0.0000
# 2 -0.9527 76.1943 1.4595 0.0000 0.0000 0.0000
# 3 -11.7899 1.4595 42.9320 0.0000 0.0000 0.0000
# 4 0.0000 0.0000 0.0000 16.5690 0.0000 0.0000
# 5 0.0000 0.0000 0.0000 0.0000 17.0540 0.0000
# 6 0.0000 0.0000 0.0000 0.0000 0.0000 17.4202
#
#
#
# Elastic Compliance Matrix: (Units=1/GPa)
#
#
# Indices 1 2 3 4 5 6 
#
# 1 0.024376 0.000177 0.006688 0.000000 0.000000 0.000000
# 2 0.000177 0.013134 -0.000398 0.000000 0.000000 0.000000
# 3 0.006688 -0.000398 0.025143 0.000000 0.000000 0.000000
# 4 0.000000 0.000000 0.000000 0.060353 0.000000 0.000000
# 5 0.000000 0.000000 0.000000 0.000000 0.058637 0.000000
# 6 0.000000 0.000000 0.000000 0.000000 0.000000 0.057405
#
#
# Mechanical properties :
#
#
# Convention : Reuss Voigt Hill
#
# Bulk Modulus (GPa) = 13.22991 15.64733 14.43862
# Shear Modulus (GPa) = 19.89575 21.85369 20.87472
#
# Velocity S-wave (km/s) = 2.97216 3.11497 3.04440
# Velocity P-wave (km/s) = 4.20147 4.45924 4.33227
#
# Compressibility (1/GPa) = 0.07558632
#
# Stress axis : x y z
#
# Youngs Moduli (GPa) = 41.02420 76.13729 39.77280
#
# Poissons Ratio (x) = -0.01345 -0.26600
# Poissons Ratio (y) = -0.00725 0.01583
# Poissons Ratio (z) = -0.27437 0.03030
#
# Static dielectric constant tensor:
#      x y z
#    x 1.825390 0.000000 0.000000 
#    y 0.000000 1.877360 0.000000 
#    z 0.000000 0.000000 1.756870 
# 
# From -- ./inp_files/1823.got.cif
#   From: 2010.05.17/outbox.cif.g08.bks.cpg/sg57_1_cif.got.tgz:1823.got - 2010.06.03 13:58:18.
