data_PCOD9439251
_publ_section_title
;
Structure prediction by ZEFSAII (Michael W. Deem and Ramdas Pophale) SiO2 
 PCOD9439251
Probable space group: P B C M
;
_chemical_formula_sum "Si O2"
_cell_formula_units_Z 40
_cell_length_a 9.753662
_cell_length_b 9.684405
_cell_length_c 18.835684
_cell_angle_alpha 90.000000
_cell_angle_beta 90.000000
_cell_angle_gamma 90.000000
_cell_volume 1779.188819
_symmetry_space_group_name_H-M "P B C M"
_symmetry_group_IT_number 57
_symmetry_cell_setting 'orthorhombic'
loop_
_space_group_symop_operation_xyz
x,y,z
-x,-y,1/2+z
x,1/2-y,-z
-x,1/2+y,1/2-z
-x,-y,-z
x,y,1/2-z
-x,1/2+y,z
x,1/2-y,1/2+z
loop_
_atom_site_type_symbol
_atom_site_label
_atom_site_fract_x
_atom_site_fract_y
_atom_site_fract_z
Si Si1 0.038670 0.835386 0.835837
Si Si2 0.306475 0.250000 0.500000
Si Si3 0.654119 0.748032 0.250000
Si Si4 0.441796 0.435674 0.617465
Si Si5 0.823112 0.053193 0.663823
Si Si6 0.743017 0.561259 0.620634
O O1 0.040752 0.839094 0.750000
O O2 0.078596 0.679870 0.855607
O O3 0.155397 0.936304 0.864564
O O4 0.896624 0.909418 0.856062
O O5 0.400371 0.343996 0.550579
O O6 0.221688 0.350955 0.449063
O O7 0.574355 0.658788 0.187496
O O8 0.733329 0.839263 0.311586
O O9 0.325688 0.553925 0.628826
O O10 0.590419 0.500337 0.611324
O O11 0.805032 0.051944 0.750000
#
# Coordination Sequence:
#
# PCOD9439251 Si02
#       6
#     8   4   4   8   8   8
#     4  10  23  39  66 101 134 165 211 270 331 383
#     4  10  26  42  64  88 136 172 220 262 334 376
#     4  10  22  34  68  96 128 156 220 270 330 368
#     4  11  23  41  66  94 130 173 217 271 321 385
#     4  10  23  39  66 101 134 165 211 270 331 383
#     4  11  23  41  66  94 130 173 217 271 321 385
#
# _framework density 22.482156
#
# number of rings (size 3 to 8) (size 9 to 14) (size 15 to 20)
#    0.000    1.600    2.000    1.200   11.200    0.000 
#    0.000    1.000    0.000    0.000    0.000    0.000 
#    0.000    0.000    0.000    0.000    0.000    0.000 
#
# Total GULP energy -222810.469117 kJ/mol
# GULP energy per Si atom -5570.261728 kJ/mol
# Density = 2.243099 g / cm^3
# Si number density = 22.482156 Si / 1000 Ang^3
#
#
#
# Elastic Constant Matrix: (Units=GPa)
#
#
# Indices 1 2 3 4 5 6 
#
# 1 66.8559 14.8270 -19.7670 0.0000 0.0000 0.0000
# 2 14.8270 100.7526 22.7329 0.0000 0.0000 0.0000
# 3 -19.7670 22.7329 104.3755 0.0000 0.0000 0.0000
# 4 0.0000 0.0000 0.0000 39.0829 0.0000 0.0000
# 5 0.0000 0.0000 0.0000 0.0000 5.4107 0.0000
# 6 0.0000 0.0000 0.0000 0.0000 0.0000 9.2020
#
#
#
# Elastic Compliance Matrix: (Units=1/GPa)
#
#
# Indices 1 2 3 4 5 6 
#
# 1 0.016866 -0.003368 0.003928 0.000000 0.000000 0.000000
# 2 -0.003368 0.011111 -0.003058 0.000000 0.000000 0.000000
# 3 0.003928 -0.003058 0.010991 0.000000 0.000000 0.000000
# 4 0.000000 0.000000 0.000000 0.025587 0.000000 0.000000
# 5 0.000000 0.000000 0.000000 0.000000 0.184818 0.000000
# 6 0.000000 0.000000 0.000000 0.000000 0.000000 0.108672
#
#
# Mechanical properties :
#
#
# Convention : Reuss Voigt Hill
#
# Bulk Modulus (GPa) = 29.43716 34.17443 31.80579
# Shear Modulus (GPa) = 13.35597 27.68520 20.52058
#
# Velocity S-wave (km/s) = 2.44000 3.51298 3.02445
# Velocity P-wave (km/s) = 4.58913 5.62924 5.13559
#
# Compressibility (1/GPa) = 0.03397067
#
# Stress axis : x y z
#
# Youngs Moduli (GPa) = 59.29147 90.00157 90.98662
#
# Poissons Ratio (x) = 0.30315 -0.35737
# Poissons Ratio (y) = 0.19971 0.27822
# Poissons Ratio (z) = -0.23288 0.27521
#
# Static dielectric constant tensor:
#      x y z
#    x 1.845890 0.000000 0.000000 
#    y 0.000000 1.867050 0.000000 
#    z 0.000000 0.000000 1.795710 
# 
# From -- ./inp_files/11792.got.cif
#   From: 2010.05.17/outbox.cif.g08.bks.cpg/sg57_6_cif.got.tgz:11792.got - 2010.06.03 13:58:18.
