data_PCOD9439907
_publ_section_title
;
Structure prediction by ZEFSAII (Michael W. Deem and Ramdas Pophale) SiO2 
 PCOD9439907
Probable space group: P B C M
;
_chemical_formula_sum "Si O2"
_cell_formula_units_Z 36
_cell_length_a 7.148122
_cell_length_b 8.052853
_cell_length_c 26.825124
_cell_angle_alpha 90.000000
_cell_angle_beta 90.000000
_cell_angle_gamma 90.000000
_cell_volume 1544.128596
_symmetry_space_group_name_H-M "P B C M"
_symmetry_group_IT_number 57
_symmetry_cell_setting 'orthorhombic'
loop_
_space_group_symop_operation_xyz
x,y,z
-x,-y,1/2+z
x,1/2-y,-z
-x,1/2+y,1/2-z
-x,-y,-z
x,y,1/2-z
-x,1/2+y,z
x,1/2-y,1/2+z
loop_
_atom_site_type_symbol
_atom_site_label
_atom_site_fract_x
_atom_site_fract_y
_atom_site_fract_z
Si Si1 0.575237 0.250000 0.500000
Si Si2 0.709001 0.022637 0.352341
Si Si3 0.206906 0.060946 0.250000
Si Si4 0.933515 0.680235 0.354237
Si Si5 0.596918 0.304104 0.750000
Si Si6 0.358283 0.487287 0.925398
O O1 0.690454 0.363938 0.462550
O O2 0.441870 0.352895 0.536524
O O3 0.837848 0.859565 0.350890
O O4 0.642730 0.089954 0.299102
O O5 0.530335 0.982578 0.386693
O O6 0.849957 0.168844 0.369639
O O7 0.089541 0.095214 0.200253
O O8 0.371870 0.198871 0.250000
O O9 0.701509 0.374973 0.250000
O O10 0.812266 0.579098 0.393744
#
# Coordination Sequence:
#
# PCOD9439907 Si02
#       6
#     4   8   4   8   4   8
#     4  10  24  46  74  96 130 182 224 298 338 402
#     4  12  26  44  71 104 141 182 226 277 338 409
#     4  12  25  42  69 103 143 183 224 272 333 408
#     4  12  26  44  71 104 141 182 226 277 338 409
#     4  12  25  42  69 103 143 183 224 272 333 408
#     4  11  24  47  72  98 138 175 232 279 352 396
#
# _framework density 23.314119000000002
#
# number of rings (size 3 to 8) (size 9 to 14) (size 15 to 20)
#    0.000    0.444    4.444    4.000    6.222    0.000 
#    0.000    6.667    0.000    0.000    0.000    0.000 
#    0.000    0.000    0.000    0.000    0.000    0.000 
#
# Total GULP energy -201562.264152 kJ/mol
# GULP energy per Si atom -5598.951782 kJ/mol
# Density = 2.326105 g / cm^3
# Si number density = 23.314119 Si / 1000 Ang^3
#
#
#
# Elastic Constant Matrix: (Units=GPa)
#
#
# Indices 1 2 3 4 5 6 
#
# 1 58.0762 -32.2070 0.0742 0.0000 0.0000 0.0000
# 2 -32.2070 63.9665 20.1118 0.0000 0.0000 0.0000
# 3 0.0742 20.1118 121.0451 0.0000 0.0000 0.0000
# 4 0.0000 0.0000 0.0000 28.4370 0.0000 0.0000
# 5 0.0000 0.0000 0.0000 0.0000 14.6193 0.0000
# 6 0.0000 0.0000 0.0000 0.0000 0.0000 -0.4543
#
#
#
# Elastic Compliance Matrix: (Units=1/GPa)
#
#
# Indices 1 2 3 4 5 6 
#
# 1 0.024418 0.012977 -0.002171 0.000000 0.000000 0.000000
# 2 0.012977 0.023392 -0.003894 0.000000 0.000000 0.000000
# 3 -0.002171 -0.003894 0.008910 0.000000 0.000000 0.000000
# 4 0.000000 0.000000 0.000000 0.035165 0.000000 0.000000
# 5 0.000000 0.000000 0.000000 0.000000 0.068403 0.000000
# 6 0.000000 0.000000 0.000000 0.000000 0.000000 -2.201422
#
#
# Mechanical properties :
#
#
# Convention : Reuss Voigt Hill
#
# Bulk Modulus (GPa) = 14.17580 24.33840 19.25710
# Shear Modulus (GPa) = -2.46130 25.52767 11.53318
#
# Velocity S-wave (km/s) = -1.02859 3.31258 2.22657
# Velocity P-wave (km/s) = 2.16399 5.00929 3.85849
#
# Compressibility (1/GPa) = 0.07054278
#
# Stress axis : x y z
#
# Youngs Moduli (GPa) = 40.95300 42.75028 112.23614
#
# Poissons Ratio (x) = -0.55478 0.24368
# Poissons Ratio (y) = -0.53145 0.43710
# Poissons Ratio (z) = 0.08891 0.16649
#
# Static dielectric constant tensor:
#      x y z
#    x 1.837340 0.000000 0.000000 
#    y 0.000000 1.998890 0.000000 
#    z 0.000000 0.000000 1.829470 
# 
# From -- ./inp_files/28233.got.cif
#   From: 2010.05.17/outbox.cif.g08.bks.cpg/sg57_15_cif.got.tgz:28233.got - 2010.06.03 13:58:18.
