data_PCOD9439022
_publ_section_title
;
Structure prediction by ZEFSAII (Michael W. Deem and Ramdas Pophale) SiO2 
 PCOD9439022
Probable space group: P B C M
;
_chemical_formula_sum "Si O2"
_cell_formula_units_Z 64
_cell_length_a 24.284434
_cell_length_b 15.358773
_cell_length_c 8.668408
_cell_angle_alpha 90.000000
_cell_angle_beta 90.000000
_cell_angle_gamma 90.000000
_cell_volume 3233.135094
_symmetry_space_group_name_H-M "P B C M"
_symmetry_group_IT_number 57
_symmetry_cell_setting 'orthorhombic'
loop_
_space_group_symop_operation_xyz
x,y,z
-x,-y,1/2+z
x,1/2-y,-z
-x,1/2+y,1/2-z
-x,-y,-z
x,y,1/2-z
-x,1/2+y,z
x,1/2-y,1/2+z
loop_
_atom_site_type_symbol
_atom_site_label
_atom_site_fract_x
_atom_site_fract_y
_atom_site_fract_z
Si Si1 0.488413 0.849717 0.064385
Si Si2 0.898144 0.582489 0.072712
Si Si3 0.419403 0.020771 0.064762
Si Si4 0.877593 0.120756 0.570856
Si Si5 0.210411 0.158379 0.933732
Si Si6 0.701774 0.988133 0.064442
Si Si7 0.243532 0.839841 0.064048
Si Si8 0.001158 0.658826 0.934980
O O1 0.490003 0.843060 0.250000
O O2 0.441475 0.922725 0.022991
O O3 0.483127 0.750000 0.000000
O O4 0.542283 0.902525 0.004739
O O5 0.904400 0.609612 0.250000
O O6 0.877745 0.483397 0.068578
O O7 0.850949 0.638486 0.992874
O O8 0.957213 0.588942 0.992208
O O9 0.421707 0.026756 0.250000
O O10 0.357891 0.031937 0.003551
O O11 0.878260 0.149603 0.750000
O O12 0.819840 0.152063 0.503854
O O13 0.936496 0.148030 0.502852
O O14 0.209261 0.161260 0.750000
O O15 0.252540 0.083010 0.982540
O O16 0.229239 0.250000 0.000000
O O17 0.699250 0.990349 0.250000
O O18 0.722485 0.079686 0.999407
O O19 0.243125 0.841657 0.250000
O O20 0.266630 0.750000 0.000000
O O21 0.002692 0.657473 0.750000
O O22 0.979684 0.750000 0.000000
#
# Coordination Sequence:
#
# PCOD9439022 Si02
#       8
#     8   8   8   8   8   8   8   8
#     4  10  21  39  65  97 132 171 213 257 306 361
#     4  11  21  38  60  83 111 148 191 243 304 367
#     4  10  22  40  64  94 130 172 213 258 309 360
#     4   9  20  37  59  83 111 147 192 243 302 366
#     4  11  24  41  62  88 117 156 203 252 308 367
#     4  11  24  42  63  91 126 164 210 260 307 363
#     4  11  22  40  63  89 120 159 204 254 310 371
#     4  11  22  37  54  80 112 145 188 240 298 366
#
# _framework density 19.795027999999999
#
# number of rings (size 3 to 8) (size 9 to 14) (size 15 to 20)
#    0.000    1.500    1.250    3.750    0.000    4.000 
#    0.000    6.250    0.000    0.000    0.000    0.000 
#    0.000    0.000    0.000    0.000    0.000    0.000 
#
# Total GULP energy -357404.851344 kJ/mol
# GULP energy per Si atom -5584.450802 kJ/mol
# Density = 1.974997 g / cm^3
# Si number density = 19.795028 Si / 1000 Ang^3
#
#
#
# Elastic Constant Matrix: (Units=GPa)
#
#
# Indices 1 2 3 4 5 6 
#
# 1 71.7669 8.8412 18.4595 0.0000 0.0000 0.0000
# 2 8.8412 91.6965 25.0268 0.0000 0.0000 0.0000
# 3 18.4595 25.0268 54.1020 0.0000 0.0000 0.0000
# 4 0.0000 0.0000 0.0000 29.1277 0.0000 0.0000
# 5 0.0000 0.0000 0.0000 0.0000 46.9179 0.0000
# 6 0.0000 0.0000 0.0000 0.0000 0.0000 -69.7607
#
#
#
# Elastic Compliance Matrix: (Units=1/GPa)
#
#
# Indices 1 2 3 4 5 6 
#
# 1 0.015275 -0.000058 -0.005185 0.000000 0.000000 0.000000
# 2 -0.000058 0.012482 -0.005754 0.000000 0.000000 0.000000
# 3 -0.005185 -0.005754 0.022915 0.000000 0.000000 0.000000
# 4 0.000000 0.000000 0.000000 0.034332 0.000000 0.000000
# 5 0.000000 0.000000 0.000000 0.000000 0.021314 0.000000
# 6 0.000000 0.000000 0.000000 0.000000 0.000000 -0.014335
#
#
# Mechanical properties :
#
#
# Convention : Reuss Voigt Hill
#
# Bulk Modulus (GPa) = 34.87085 35.80226 35.33656
# Shear Modulus (GPa) = 40.47461 12.27285 26.37373
#
# Velocity S-wave (km/s) = 4.52673 2.49267 3.65408
# Velocity P-wave (km/s) = 6.70641 5.13910 5.97437
#
# Compressibility (1/GPa) = 0.02867725
#
# Stress axis : x y z
#
# Youngs Moduli (GPa) = 65.46745 80.11809 43.64043
#
# Poissons Ratio (x) = 0.00461 0.22628
# Poissons Ratio (y) = 0.00377 0.25111
# Poissons Ratio (z) = 0.33945 0.46101
#
# Static dielectric constant tensor:
#      x y z
#    x 1.693610 0.000000 0.000000 
#    y 0.000000 1.707240 0.000000 
#    z 0.000000 0.000000 1.679860 
# 
# From -- ./inp_files/9398.got.cif
#   From: 2010.05.17/outbox.cif.g08.bks.cpg/sg57_5_cif.got.tgz:9398.got - 2010.06.03 13:58:18.
