data_PCOD9439078
_publ_section_title
;
Structure prediction by ZEFSAII (Michael W. Deem and Ramdas Pophale) SiO2 
 PCOD9439078
Probable space group: P B C M
;
_chemical_formula_sum "Si O2"
_cell_formula_units_Z 48
_cell_length_a 7.931694
_cell_length_b 19.459916
_cell_length_c 15.870619
_cell_angle_alpha 90.000000
_cell_angle_beta 90.000000
_cell_angle_gamma 90.000000
_cell_volume 2449.631613
_symmetry_space_group_name_H-M "P B C M"
_symmetry_group_IT_number 57
_symmetry_cell_setting 'orthorhombic'
loop_
_space_group_symop_operation_xyz
x,y,z
-x,-y,1/2+z
x,1/2-y,-z
-x,1/2+y,1/2-z
-x,-y,-z
x,y,1/2-z
-x,1/2+y,z
x,1/2-y,1/2+z
loop_
_atom_site_type_symbol
_atom_site_label
_atom_site_fract_x
_atom_site_fract_y
_atom_site_fract_z
Si Si1 0.398908 0.675648 0.848503
Si Si2 0.997423 0.330538 0.345478
Si Si3 0.042830 0.920089 0.505576
Si Si4 0.799830 0.907610 0.849757
Si Si5 0.292065 0.237205 0.403781
Si Si6 0.374303 0.962096 0.062255
O O1 0.432224 0.681787 0.750000
O O2 0.529746 0.725325 0.893317
O O3 0.440717 0.597813 0.877483
O O4 0.198657 0.690951 0.860155
O O5 0.001701 0.360419 0.250000
O O6 0.139918 0.272229 0.351119
O O7 0.031977 0.382586 0.422909
O O8 0.242450 0.919896 0.495690
O O9 0.966357 0.895226 0.593158
O O10 0.000000 0.000000 0.500000
O O11 0.828249 0.910025 0.750000
O O12 0.689593 0.841578 0.875720
O O13 0.717315 0.978833 0.882374
O O14 0.239290 0.250000 0.500000
O O15 0.500000 0.000000 0.000000
#
# Coordination Sequence:
#
# PCOD9439078 Si02
#       6
#     8   8   8   8   8   8
#     4  10  22  40  63  92 124 167 217 262 314 386
#     4  10  21  40  63  89 123 165 213 262 314 383
#     4   9  20  37  60  88 119 158 206 254 317 379
#     4  11  22  40  62  91 131 170 211 271 328 377
#     4  12  23  40  66  92 129 172 214 269 327 383
#     4  10  21  40  64  90 127 166 211 263 321 383
#
# _framework density 19.594783
#
# number of rings (size 3 to 8) (size 9 to 14) (size 15 to 20)
#    0.000    1.667    1.667    3.000    2.333    4.667 
#    3.000    1.667    0.000    0.000    0.000    0.000 
#    0.000    0.000    0.000    0.000    0.000    0.000 
#
# Total GULP energy -267553.926291 kJ/mol
# GULP energy per Si atom -5574.040131 kJ/mol
# Density = 1.955018 g / cm^3
# Si number density = 19.594783 Si / 1000 Ang^3
#
#
#
# Elastic Constant Matrix: (Units=GPa)
#
#
# Indices 1 2 3 4 5 6 
#
# 1 35.5988 20.2511 38.8034 0.0000 0.0000 0.0000
# 2 20.2511 85.1920 26.9958 0.0000 0.0000 0.0000
# 3 38.8034 26.9958 146.5748 0.0000 0.0000 0.0000
# 4 0.0000 0.0000 0.0000 29.7111 0.0000 0.0000
# 5 0.0000 0.0000 0.0000 0.0000 27.3289 0.0000
# 6 0.0000 0.0000 0.0000 0.0000 0.0000 33.4705
#
#
#
# Elastic Compliance Matrix: (Units=1/GPa)
#
#
# Indices 1 2 3 4 5 6 
#
# 1 0.043130 -0.007046 -0.010120 0.000000 0.000000 0.000000
# 2 -0.007046 0.013617 -0.000643 0.000000 0.000000 0.000000
# 3 -0.010120 -0.000643 0.009620 0.000000 0.000000 0.000000
# 4 0.000000 0.000000 0.000000 0.033657 0.000000 0.000000
# 5 0.000000 0.000000 0.000000 0.000000 0.036591 0.000000
# 6 0.000000 0.000000 0.000000 0.000000 0.000000 0.029877
#
#
# Mechanical properties :
#
#
# Convention : Reuss Voigt Hill
#
# Bulk Modulus (GPa) = 32.52070 48.82957 40.67514
# Shear Modulus (GPa) = 23.54493 30.18980 26.86736
#
# Velocity S-wave (km/s) = 3.47016 3.92944 3.70692
# Velocity P-wave (km/s) = 5.71740 6.74990 6.25499
#
# Compressibility (1/GPa) = 0.03074964
#
# Stress axis : x y z
#
# Youngs Moduli (GPa) = 23.18557 73.43947 103.94961
#
# Poissons Ratio (x) = 0.51742 1.05201
# Poissons Ratio (y) = 0.16336 0.06681
# Poissons Ratio (z) = 0.23465 0.04720
#
# Static dielectric constant tensor:
#      x y z
#    x 1.701600 0.000000 0.000000 
#    y 0.000000 1.687350 0.000000 
#    z 0.000000 0.000000 1.696390 
# 
# From -- ./inp_files/16399.got.cif
#   From: 2010.05.17/outbox.cif.g08.bks.cpg/sg57_9_cif.got.tgz:16399.got - 2010.06.03 13:58:18.
