data_PCOD9439096
_publ_section_title
;
Structure prediction by ZEFSAII (Michael W. Deem and Ramdas Pophale) SiO2 
 PCOD9439096
Probable space group: P B C M
;
_chemical_formula_sum "Si O2"
_cell_formula_units_Z 56
_cell_length_a 5.021162
_cell_length_b 33.114979
_cell_length_c 16.485033
_cell_angle_alpha 90.000000
_cell_angle_beta 90.000000
_cell_angle_gamma 90.000000
_cell_volume 2741.059976
_symmetry_space_group_name_H-M "P B C M"
_symmetry_group_IT_number 57
_symmetry_cell_setting 'orthorhombic'
loop_
_space_group_symop_operation_xyz
x,y,z
-x,-y,1/2+z
x,1/2-y,-z
-x,1/2+y,1/2-z
-x,-y,-z
x,y,1/2-z
-x,1/2+y,z
x,1/2-y,1/2+z
loop_
_atom_site_type_symbol
_atom_site_label
_atom_site_fract_x
_atom_site_fract_y
_atom_site_fract_z
Si Si1 0.355807 0.642750 0.070468
Si Si2 0.142313 0.175059 0.155411
Si Si3 0.129105 0.426354 0.250000
Si Si4 0.370779 0.626723 0.750000
Si Si5 0.713973 0.533415 0.917006
Si Si6 0.269918 0.231584 0.652568
Si Si7 0.238942 0.685098 0.600455
Si Si8 0.782664 0.445958 0.517207
O O1 0.656040 0.650121 0.099120
O O2 0.157549 0.662519 0.135576
O O3 0.295433 0.664955 0.985560
O O4 0.286486 0.595870 0.059293
O O5 0.201950 0.168171 0.250000
O O6 0.187056 0.222390 0.138089
O O7 0.324208 0.387406 0.250000
O O8 0.200141 0.451304 0.329796
O O9 0.826136 0.411489 0.250000
O O10 0.304778 0.652901 0.670769
O O11 0.420136 0.547576 0.942038
O O12 0.919230 0.552183 0.982543
O O13 0.736447 0.485179 0.926801
O O14 0.269850 0.224759 0.750000
O O15 0.559393 0.221956 0.617294
O O16 0.058761 0.201444 0.611708
#
# Coordination Sequence:
#
# PCOD9439096 Si02
#       8
#     8   8   4   4   8   8   8   8
#     4  12  24  41  66  96 123 158 220 263 306 367
#     4  11  26  45  64  87 122 172 211 267 320 355
#     4  12  22  36  60  94 125 154 205 250 294 374
#     4  12  24  38  60  98 133 160 189 256 320 370
#     4  10  21  40  64  90 123 168 200 240 314 370
#     4  11  22  42  62  85 131 169 206 248 317 379
#     4  12  23  38  63  95 125 166 203 254 315 375
#     4  10  22  42  64  87 127 166 199 250 310 370
#
# _framework density 20.430053999999998
#
# number of rings (size 3 to 8) (size 9 to 14) (size 15 to 20)
#    0.000    0.857    1.429    6.429    0.000    5.714 
#    2.571    0.000    0.000    0.000    0.000    0.000 
#    0.000    0.000    0.000    0.000    0.000    0.000 
#
# Total GULP energy -313558.743887 kJ/mol
# GULP energy per Si atom -5599.263284 kJ/mol
# Density = 2.038355 g / cm^3
# Si number density = 20.430054 Si / 1000 Ang^3
#
#
#
# Elastic Constant Matrix: (Units=GPa)
#
#
# Indices 1 2 3 4 5 6 
#
# 1 53.3388 -14.3050 -17.0357 0.0000 0.0000 0.0000
# 2 -14.3050 66.7224 27.1549 0.0000 0.0000 0.0000
# 3 -17.0357 27.1549 61.6640 0.0000 0.0000 0.0000
# 4 0.0000 0.0000 0.0000 18.0856 0.0000 0.0000
# 5 0.0000 0.0000 0.0000 0.0000 23.4104 0.0000
# 6 0.0000 0.0000 0.0000 0.0000 0.0000 26.3875
#
#
#
# Elastic Compliance Matrix: (Units=1/GPa)
#
#
# Indices 1 2 3 4 5 6 
#
# 1 0.020926 0.002600 0.004636 0.000000 0.000000 0.000000
# 2 0.002600 0.018583 -0.007465 0.000000 0.000000 0.000000
# 3 0.004636 -0.007465 0.020785 0.000000 0.000000 0.000000
# 4 0.000000 0.000000 0.000000 0.055293 0.000000 0.000000
# 5 0.000000 0.000000 0.000000 0.000000 0.042716 0.000000
# 6 0.000000 0.000000 0.000000 0.000000 0.000000 0.037897
#
#
# Mechanical properties :
#
#
# Convention : Reuss Voigt Hill
#
# Bulk Modulus (GPa) = 16.71240 19.26150 17.98695
# Shear Modulus (GPa) = 23.08362 25.97075 24.52718
#
# Velocity S-wave (km/s) = 3.36502 3.56926 3.46865
# Velocity P-wave (km/s) = 4.82658 5.14146 4.98651
#
# Compressibility (1/GPa) = 0.05983582
#
# Stress axis : x y z
#
# Youngs Moduli (GPa) = 47.78725 53.81259 48.11097
#
# Poissons Ratio (x) = -0.13989 -0.22306
# Poissons Ratio (y) = -0.12422 0.35916
# Poissons Ratio (z) = -0.22156 0.40172
#
# Static dielectric constant tensor:
#      x y z
#    x 1.693600 0.000000 0.000000 
#    y 0.000000 1.707040 0.000000 
#    z 0.000000 0.000000 1.690280 
# 
# From -- ./inp_files/15313.got.cif
#   From: 2010.05.17/outbox.cif.g08.bks.cpg/sg57_8_cif.got.tgz:15313.got - 2010.06.03 13:58:18.
