data_PCOD9439846
_publ_section_title
;
Structure prediction by ZEFSAII (Michael W. Deem and Ramdas Pophale) SiO2 
 PCOD9439846
Probable space group: P B C M
;
_chemical_formula_sum "Si O2"
_cell_formula_units_Z 28
_cell_length_a 7.668718
_cell_length_b 11.599080
_cell_length_c 13.967182
_cell_angle_alpha 90.000000
_cell_angle_beta 90.000000
_cell_angle_gamma 90.000000
_cell_volume 1242.381867
_symmetry_space_group_name_H-M "P B C M"
_symmetry_group_IT_number 57
_symmetry_cell_setting 'orthorhombic'
loop_
_space_group_symop_operation_xyz
x,y,z
-x,-y,1/2+z
x,1/2-y,-z
-x,1/2+y,1/2-z
-x,-y,-z
x,y,1/2-z
-x,1/2+y,z
x,1/2-y,1/2+z
loop_
_atom_site_type_symbol
_atom_site_label
_atom_site_fract_x
_atom_site_fract_y
_atom_site_fract_z
Si Si1 0.528723 0.371659 0.042447
Si Si2 0.230088 0.398657 0.750000
Si Si3 0.942383 0.287974 0.250000
Si Si4 0.111205 0.560327 0.581501
Si Si5 0.520284 0.205732 0.750000
O O1 0.737638 0.364930 0.034540
O O2 0.478779 0.364691 0.154145
O O3 0.455953 0.250000 0.000000
O O4 0.500000 0.500000 0.000000
O O5 0.212406 0.473539 0.653708
O O6 0.402226 0.320339 0.750000
O O7 0.053009 0.325740 0.750000
O O8 0.993041 0.359990 0.155514
O O9 0.731042 0.271891 0.250000
O O10 0.000000 0.500000 0.500000
#
# Coordination Sequence:
#
# PCOD9439846 Si02
#       5
#     8   4   4   8   4
#     4  11  25  45  72 107 141 193 244 304 373 435
#     4  11  23  45  71  98 139 193 243 294 376 439
#     4   9  23  43  66  99 133 190 233 302 366 422
#     4  10  24  42  64 102 143 181 243 300 362 443
#     4  10  24  46  71 101 146 183 250 308 360 445
#
# _framework density 22.537355000000002
#
# number of rings (size 3 to 8) (size 9 to 14) (size 15 to 20)
#    0.000    1.714    0.000    2.571   12.000    1.143 
#    0.000    2.857    0.000    0.000    0.000    0.000 
#    0.000    0.000    0.000    0.000    0.000    0.000 
#
# Total GULP energy -156204.890486 kJ/mol
# GULP energy per Si atom -5578.746089 kJ/mol
# Density = 2.248606 g / cm^3
# Si number density = 22.537355 Si / 1000 Ang^3
#
#
#
# Elastic Constant Matrix: (Units=GPa)
#
#
# Indices 1 2 3 4 5 6 
#
# 1 49.5929 38.8254 46.5861 0.0000 0.0000 0.0000
# 2 38.8254 176.9995 91.7240 0.0000 0.0000 0.0000
# 3 46.5861 91.7240 146.4259 0.0000 0.0000 0.0000
# 4 0.0000 0.0000 0.0000 11.2126 0.0000 0.0000
# 5 0.0000 0.0000 0.0000 0.0000 -12.7042 0.0000
# 6 0.0000 0.0000 0.0000 0.0000 0.0000 56.3838
#
#
#
# Elastic Compliance Matrix: (Units=1/GPa)
#
#
# Indices 1 2 3 4 5 6 
#
# 1 0.029417 -0.002373 -0.007873 0.000000 0.000000 0.000000
# 2 -0.002373 0.008557 -0.004605 0.000000 0.000000 0.000000
# 3 -0.007873 -0.004605 0.012219 0.000000 0.000000 0.000000
# 4 0.000000 0.000000 0.000000 0.089185 0.000000 0.000000
# 5 0.000000 0.000000 0.000000 0.000000 -0.078714 0.000000
# 6 0.000000 0.000000 0.000000 0.000000 0.000000 0.017736
#
#
# Mechanical properties :
#
#
# Convention : Reuss Voigt Hill
#
# Bulk Modulus (GPa) = 48.80140 80.80993 64.80567
# Shear Modulus (GPa) = 43.50387 24.03729 33.77058
#
# Velocity S-wave (km/s) = 4.39829 3.26936 3.87515
# Velocity P-wave (km/s) = 6.89157 7.08417 6.98853
#
# Compressibility (1/GPa) = 0.02049122
#
# Stress axis : x y z
#
# Youngs Moduli (GPa) = 33.99343 116.86753 81.84051
#
# Poissons Ratio (x) = 0.27733 0.64431
# Poissons Ratio (y) = 0.08067 0.37688
# Poissons Ratio (z) = 0.26762 0.53819
#
# Static dielectric constant tensor:
#      x y z
#    x 1.978520 0.000000 0.000000 
#    y 0.000000 1.816000 0.000000 
#    z 0.000000 0.000000 1.892350 
# 
# From -- ./inp_files/15463.got.cif
#   From: 2010.05.17/outbox.cif.g08.bks.cpg/sg57_8_cif.got.tgz:15463.got - 2010.06.03 13:58:18.
