data_PCOD9439026
_publ_section_title
;
Structure prediction by ZEFSAII (Michael W. Deem and Ramdas Pophale) SiO2 
 PCOD9439026
Probable space group: P B C M
;
_chemical_formula_sum "Si O2"
_cell_formula_units_Z 64
_cell_length_a 8.729572
_cell_length_b 10.342363
_cell_length_c 30.228913
_cell_angle_alpha 90.000000
_cell_angle_beta 90.000000
_cell_angle_gamma 90.000000
_cell_volume 2729.199347
_symmetry_space_group_name_H-M "P B C M"
_symmetry_group_IT_number 57
_symmetry_cell_setting 'orthorhombic'
loop_
_space_group_symop_operation_xyz
x,y,z
-x,-y,1/2+z
x,1/2-y,-z
-x,1/2+y,1/2-z
-x,-y,-z
x,y,1/2-z
-x,1/2+y,z
x,1/2-y,1/2+z
loop_
_atom_site_type_symbol
_atom_site_label
_atom_site_fract_x
_atom_site_fract_y
_atom_site_fract_z
Si Si1 0.325087 0.540506 0.013770
Si Si2 0.579823 0.222895 0.357615
Si Si3 0.038752 0.416557 0.700191
Si Si4 0.172087 0.044926 0.428904
Si Si5 0.680346 0.692627 0.919133
Si Si6 0.049048 0.339224 0.143161
Si Si7 0.851011 0.180801 0.083463
Si Si8 0.653633 0.996641 0.664989
O O1 0.297180 0.427678 0.049526
O O2 0.263208 0.663699 0.041910
O O3 0.500000 0.500000 0.000000
O O4 0.219981 0.540126 0.970332
O O5 0.487475 0.277367 0.400629
O O6 0.736239 0.162195 0.375543
O O7 0.608821 0.353216 0.329574
O O8 0.482275 0.107230 0.336678
O O9 0.979072 0.415887 0.750000
O O10 0.018589 0.279802 0.676153
O O11 0.219535 0.449422 0.699185
O O12 0.972549 0.531163 0.670190
O O13 0.251765 0.181893 0.442478
O O14 0.261674 0.013437 0.383286
O O15 0.993652 0.081905 0.422463
O O16 0.780901 0.672672 0.875232
O O17 0.940704 0.311477 0.099843
#
# Coordination Sequence:
#
# PCOD9439026 Si02
#       8
#     8   8   8   8   8   8   8   8
#     4  12  23  38  58  99 145 192 251 297 357 413
#     4  11  21  41  69  96 134 194 235 283 358 437
#     4  12  24  46  78 113 144 179 235 310 368 452
#     4  10  22  39  60  94 139 185 238 307 346 421
#     4  10  21  39  66  91 137 192 234 292 354 426
#     4  11  23  47  76 109 141 190 242 293 381 440
#     4  11  22  38  66  95 135 189 241 293 353 424
#     4  11  23  44  68  99 142 186 235 288 368 436
#
# _framework density 23.450102000000001
#
# number of rings (size 3 to 8) (size 9 to 14) (size 15 to 20)
#    0.000    1.000    5.000    4.875    0.000    0.000 
#    0.000    8.750    0.000    0.000    0.000    0.000 
#    0.000    0.000    0.000    0.000    0.000    0.000 
#
# Total GULP energy -357561.193061 kJ/mol
# GULP energy per Si atom -5586.893642 kJ/mol
# Density = 2.339673 g / cm^3
# Si number density = 23.450102 Si / 1000 Ang^3
#
#
#
# Elastic Constant Matrix: (Units=GPa)
#
#
# Indices 1 2 3 4 5 6 
#
# 1 104.9018 9.2371 9.3277 0.0000 0.0000 0.0000
# 2 9.2371 125.6117 33.0840 0.0000 0.0000 0.0000
# 3 9.3277 33.0840 106.3651 0.0000 0.0000 0.0000
# 4 0.0000 0.0000 0.0000 20.7516 0.0000 0.0000
# 5 0.0000 0.0000 0.0000 0.0000 20.7474 0.0000
# 6 0.0000 0.0000 0.0000 0.0000 0.0000 36.1881
#
#
#
# Elastic Compliance Matrix: (Units=1/GPa)
#
#
# Indices 1 2 3 4 5 6 
#
# 1 0.009640 -0.000530 -0.000681 0.000000 0.000000 0.000000
# 2 -0.000530 0.008701 -0.002660 0.000000 0.000000 0.000000
# 3 -0.000681 -0.002660 0.010289 0.000000 0.000000 0.000000
# 4 0.000000 0.000000 0.000000 0.048189 0.000000 0.000000
# 5 0.000000 0.000000 0.000000 0.000000 0.048199 0.000000
# 6 0.000000 0.000000 0.000000 0.000000 0.000000 0.027633
#
#
# Mechanical properties :
#
#
# Convention : Reuss Voigt Hill
#
# Bulk Modulus (GPa) = 47.87232 48.90848 48.39040
# Shear Modulus (GPa) = 29.87689 34.55273 32.21481
#
# Velocity S-wave (km/s) = 3.57327 3.84273 3.71045
# Velocity P-wave (km/s) = 6.12236 6.37106 6.24795
#
# Compressibility (1/GPa) = 0.02088890
#
# Stress axis : x y z
#
# Youngs Moduli (GPa) = 103.73575 114.93547 97.19516
#
# Poissons Ratio (x) = 0.06087 0.06615
# Poissons Ratio (y) = 0.05494 0.25852
# Poissons Ratio (z) = 0.07061 0.30570
#
# Static dielectric constant tensor:
#      x y z
#    x 1.920150 0.000000 0.000000 
#    y 0.000000 1.983030 0.000000 
#    z 0.000000 0.000000 1.850720 
# 
# From -- ./inp_files/29615.got.cif
#   From: 2010.05.17/outbox.cif.g08.bks.cpg/sg57_15_cif.got.tgz:29615.got - 2010.06.03 13:58:18.
