data_PCOD9439206
_publ_section_title
;
Structure prediction by ZEFSAII (Michael W. Deem and Ramdas Pophale) SiO2 
 PCOD9439206
Probable space group: P B C M
;
_chemical_formula_sum "Si O2"
_cell_formula_units_Z 40
_cell_length_a 13.991731
_cell_length_b 7.960525
_cell_length_c 16.311408
_cell_angle_alpha 90.000000
_cell_angle_beta 90.000000
_cell_angle_gamma 90.000000
_cell_volume 1816.789488
_symmetry_space_group_name_H-M "P B C M"
_symmetry_group_IT_number 57
_symmetry_cell_setting 'orthorhombic'
loop_
_space_group_symop_operation_xyz
x,y,z
-x,-y,1/2+z
x,1/2-y,-z
-x,1/2+y,1/2-z
-x,-y,-z
x,y,1/2-z
-x,1/2+y,z
x,1/2-y,1/2+z
loop_
_atom_site_type_symbol
_atom_site_label
_atom_site_fract_x
_atom_site_fract_y
_atom_site_fract_z
Si Si1 0.388701 0.875939 0.342679
Si Si2 0.078198 0.087627 0.250000
Si Si3 0.560979 0.469288 0.918482
Si Si4 0.773647 0.935341 0.417468
Si Si5 0.864095 0.983970 0.250000
Si Si6 0.804874 0.541444 0.404501
O O1 0.371487 0.819659 0.250000
O O2 0.404986 0.718851 0.402005
O O3 0.486823 0.980302 0.347892
O O4 0.298584 0.982659 0.372822
O O5 0.112740 0.282478 0.250000
O O6 0.119952 0.001288 0.167361
O O7 0.964750 0.077180 0.250000
O O8 0.658823 0.571918 0.922095
O O9 0.500000 0.500000 0.000000
O O10 0.806225 0.021855 0.333194
O O11 0.806914 0.743086 0.412309
O O12 0.813929 0.018127 0.501067
#
# Coordination Sequence:
#
# PCOD9439206 Si02
#       6
#     8   4   8   8   4   8
#     4  12  25  40  62  95 129 179 219 274 322 391
#     4  10  22  44  67  98 125 172 219 286 338 400
#     4  12  25  40  61  93 134 175 223 262 329 389
#     4  10  23  41  64  96 130 176 214 279 333 398
#     4  10  24  42  67  94 131 168 223 276 344 400
#     4  10  21  42  68  92 131 170 225 271 336 394
#
# _framework density 22.016860999999999
#
# number of rings (size 3 to 8) (size 9 to 14) (size 15 to 20)
#    0.000    1.200    3.000    2.400    5.600    2.400 
#    0.000    0.000    0.000    0.000    0.000    0.000 
#    0.000    0.000    0.000    0.000    0.000    0.000 
#
# Total GULP energy -223543.963099 kJ/mol
# GULP energy per Si atom -5588.599077 kJ/mol
# Density = 2.196675 g / cm^3
# Si number density = 22.016861 Si / 1000 Ang^3
#
#
#
# Elastic Constant Matrix: (Units=GPa)
#
#
# Indices 1 2 3 4 5 6 
#
# 1 95.2065 -15.4657 76.5229 0.0000 0.0000 0.0000
# 2 -15.4657 16.0177 14.2987 0.0000 0.0000 0.0000
# 3 76.5229 14.2987 220.0284 0.0000 0.0000 0.0000
# 4 0.0000 0.0000 0.0000 10.5503 0.0000 0.0000
# 5 0.0000 0.0000 0.0000 0.0000 32.0545 0.0000
# 6 0.0000 0.0000 0.0000 0.0000 0.0000 30.9411
#
#
#
# Elastic Compliance Matrix: (Units=1/GPa)
#
#
# Indices 1 2 3 4 5 6 
#
# 1 0.024446 0.033114 -0.010654 0.000000 0.000000 0.000000
# 2 0.033114 0.111131 -0.018738 0.000000 0.000000 0.000000
# 3 -0.010654 -0.018738 0.009468 0.000000 0.000000 0.000000
# 4 0.000000 0.000000 0.000000 0.094784 0.000000 0.000000
# 5 0.000000 0.000000 0.000000 0.000000 0.031197 0.000000
# 6 0.000000 0.000000 0.000000 0.000000 0.000000 0.032319
#
#
# Mechanical properties :
#
#
# Convention : Reuss Voigt Hill
#
# Bulk Modulus (GPa) = 6.55790 53.55159 30.05474
# Shear Modulus (GPa) = 14.42038 31.76896 23.09467
#
# Velocity S-wave (km/s) = 2.56201 3.80272 3.24227
# Velocity P-wave (km/s) = 3.42592 6.60732 5.26278
#
# Compressibility (1/GPa) = 0.15248782
#
# Stress axis : x y z
#
# Youngs Moduli (GPa) = 40.90705 8.99837 105.62071
#
# Poissons Ratio (x) = -0.29797 1.12526
# Poissons Ratio (y) = -1.35459 1.97917
# Poissons Ratio (z) = 0.43582 0.16862
#
# Static dielectric constant tensor:
#      x y z
#    x 1.797990 0.000000 0.000000 
#    y 0.000000 1.837250 0.000000 
#    z 0.000000 0.000000 1.883990 
# 
# From -- ./inp_files/18247.got.cif
#   From: 2010.05.17/outbox.cif.g08.bks.cpg/sg57_10_cif.got.tgz:18247.got - 2010.06.03 13:58:18.
