data_PCOD9439881
_publ_section_title
;
Structure prediction by ZEFSAII (Michael W. Deem and Ramdas Pophale) SiO2 
 PCOD9439881
Probable space group: P B C M
;
_chemical_formula_sum "Si O2"
_cell_formula_units_Z 24
_cell_length_a 4.988527
_cell_length_b 19.423272
_cell_length_c 11.587068
_cell_angle_alpha 90.000000
_cell_angle_beta 90.000000
_cell_angle_gamma 90.000000
_cell_volume 1122.711768
_symmetry_space_group_name_H-M "P B C M"
_symmetry_group_IT_number 57
_symmetry_cell_setting 'orthorhombic'
loop_
_space_group_symop_operation_xyz
x,y,z
-x,-y,1/2+z
x,1/2-y,-z
-x,1/2+y,1/2-z
-x,-y,-z
x,y,1/2-z
-x,1/2+y,z
x,1/2-y,1/2+z
loop_
_atom_site_type_symbol
_atom_site_label
_atom_site_fract_x
_atom_site_fract_y
_atom_site_fract_z
Si Si1 0.931796 0.351310 0.750000
Si Si2 0.932564 0.919834 0.508690
Si Si3 0.428659 0.260766 0.750000
Si Si4 0.430109 0.868570 0.120619
O O1 0.004811 0.393527 0.863688
O O2 0.123603 0.284309 0.750000
O O3 0.626168 0.325628 0.750000
O O4 0.632008 0.903497 0.468525
O O5 0.130260 0.879102 0.422432
O O6 0.000000 0.000000 0.500000
O O7 0.496231 0.211318 0.641733
O O8 0.462236 0.899459 0.250000
#
# Coordination Sequence:
#
# PCOD9439881 Si02
#       4
#     4   8   4   8
#     4  12  26  40  68 104 130 172 230 272 328 386
#     4  12  26  44  68  99 137 178 216 277 323 404
#     4  10  24  44  68 104 128 174 222 276 330 396
#     4  10  24  45  70  94 132 180 215 267 343 382
#
# _framework density 21.376812000000001
#
# number of rings (size 3 to 8) (size 9 to 14) (size 15 to 20)
#    1.000    0.000    0.000    6.000    4.667    8.000 
#    0.000    0.000    0.000    0.000    0.000    0.000 
#    0.000    0.000    0.000    0.000    0.000    0.000 
#
# Total GULP energy -134226.253009 kJ/mol
# GULP energy per Si atom -5592.760542 kJ/mol
# Density = 2.132816 g / cm^3
# Si number density = 21.376812 Si / 1000 Ang^3
#
#
#
# Elastic Constant Matrix: (Units=GPa)
#
#
# Indices 1 2 3 4 5 6 
#
# 1 54.7501 -20.9302 -15.0636 0.0000 0.0000 0.0000
# 2 -20.9302 67.1772 21.3871 0.0000 0.0000 0.0000
# 3 -15.0636 21.3871 102.2410 0.0000 0.0000 0.0000
# 4 0.0000 0.0000 0.0000 43.6075 0.0000 0.0000
# 5 0.0000 0.0000 0.0000 0.0000 56.2473 0.0000
# 6 0.0000 0.0000 0.0000 0.0000 0.0000 16.8267
#
#
#
# Elastic Compliance Matrix: (Units=1/GPa)
#
#
# Indices 1 2 3 4 5 6 
#
# 1 0.021057 0.005971 0.001854 0.000000 0.000000 0.000000
# 2 0.005971 0.017641 -0.002811 0.000000 0.000000 0.000000
# 3 0.001854 -0.002811 0.010642 0.000000 0.000000 0.000000
# 4 0.000000 0.000000 0.000000 0.022932 0.000000 0.000000
# 5 0.000000 0.000000 0.000000 0.000000 0.017779 0.000000
# 6 0.000000 0.000000 0.000000 0.000000 0.000000 0.059429
#
#
# Mechanical properties :
#
#
# Convention : Reuss Voigt Hill
#
# Bulk Modulus (GPa) = 16.84426 21.66164 19.25295
# Shear Modulus (GPa) = 31.39881 39.25464 35.32673
#
# Velocity S-wave (km/s) = 3.83668 4.28988 4.06959
# Velocity P-wave (km/s) = 5.24630 5.89005 5.57747
#
# Compressibility (1/GPa) = 0.05936739
#
# Stress axis : x y z
#
# Youngs Moduli (GPa) = 47.48954 56.68598 93.96896
#
# Poissons Ratio (x) = -0.33845 -0.17417
# Poissons Ratio (y) = -0.28354 0.26410
# Poissons Ratio (z) = -0.08802 0.15932
#
# Static dielectric constant tensor:
#      x y z
#    x 1.700890 0.000000 0.000000 
#    y 0.000000 1.761910 0.000000 
#    z 0.000000 0.000000 1.759240 
# 
# From -- ./inp_files/10489.got.cif
#   From: 2010.05.17/outbox.cif.g08.bks.cpg/sg57_6_cif.got.tgz:10489.got - 2010.06.03 13:58:18.
