data_PCOD9439744
_publ_section_title
;
Structure prediction by ZEFSAII (Michael W. Deem and Ramdas Pophale) SiO2 
 PCOD9439744
Probable space group: P B C M
;
_chemical_formula_sum "Si O2"
_cell_formula_units_Z 36
_cell_length_a 12.254281
_cell_length_b 13.912247
_cell_length_c 10.321394
_cell_angle_alpha 90.000000
_cell_angle_beta 90.000000
_cell_angle_gamma 90.000000
_cell_volume 1759.638563
_symmetry_space_group_name_H-M "P B C M"
_symmetry_group_IT_number 57
_symmetry_cell_setting 'orthorhombic'
loop_
_space_group_symop_operation_xyz
x,y,z
-x,-y,1/2+z
x,1/2-y,-z
-x,1/2+y,1/2-z
-x,-y,-z
x,y,1/2-z
-x,1/2+y,z
x,1/2-y,1/2+z
loop_
_atom_site_type_symbol
_atom_site_label
_atom_site_fract_x
_atom_site_fract_y
_atom_site_fract_z
Si Si1 0.254036 0.139477 0.961058
Si Si2 0.840944 0.168422 0.750000
Si Si3 0.919136 0.918897 0.250000
Si Si4 0.500535 0.834837 0.395320
Si Si5 0.802870 0.106020 0.250000
Si Si6 0.291291 0.940751 0.032339
O O1 0.151638 0.116963 0.871288
O O2 0.373931 0.132182 0.896338
O O3 0.245131 0.250000 0.000000
O O4 0.259852 0.051367 0.061920
O O5 0.836908 0.283426 0.750000
O O6 0.778907 0.128979 0.623353
O O7 0.961682 0.124506 0.750000
O O8 0.907180 0.034405 0.250000
O O9 0.488660 0.750000 0.500000
O O10 0.473093 0.800829 0.250000
O O11 0.416141 0.917419 0.434636
O O12 0.736216 0.081069 0.381511
#
# Coordination Sequence:
#
# PCOD9439744 Si02
#       6
#     8   4   4   8   4   8
#     4  10  23  43  63  92 131 177 216 263 325 392
#     4  12  24  41  69 103 124 166 227 269 321 381
#     4  10  24  43  65  91 132 172 219 267 327 379
#     4  11  22  41  68 100 134 172 214 264 328 392
#     4  10  24  44  66  92 136 170 210 268 328 384
#     4  11  24  42  66  98 130 171 217 269 325 387
#
# _framework density 20.458748
#
# number of rings (size 3 to 8) (size 9 to 14) (size 15 to 20)
#    0.000    1.333    2.222    2.667    1.556    8.000 
#    2.000    0.000    0.000    0.000    0.000    0.000 
#    0.000    0.000    0.000    0.000    0.000    0.000 
#
# Total GULP energy -201000.911494 kJ/mol
# GULP energy per Si atom -5583.358653 kJ/mol
# Density = 2.041218 g / cm^3
# Si number density = 20.458748 Si / 1000 Ang^3
#
#
#
# Elastic Constant Matrix: (Units=GPa)
#
#
# Indices 1 2 3 4 5 6 
#
# 1 100.4476 37.6014 23.6126 0.0000 0.0000 0.0000
# 2 37.6014 181.7146 36.9331 0.0000 0.0000 0.0000
# 3 23.6126 36.9331 107.9518 0.0000 0.0000 0.0000
# 4 0.0000 0.0000 0.0000 57.4379 0.0000 0.0000
# 5 0.0000 0.0000 0.0000 0.0000 13.3134 0.0000
# 6 0.0000 0.0000 0.0000 0.0000 0.0000 29.3135
#
#
#
# Elastic Compliance Matrix: (Units=1/GPa)
#
#
# Indices 1 2 3 4 5 6 
#
# 1 0.011095 -0.001937 -0.001764 0.000000 0.000000 0.000000
# 2 -0.001937 0.006253 -0.001715 0.000000 0.000000 0.000000
# 3 -0.001764 -0.001715 0.010236 0.000000 0.000000 0.000000
# 4 0.000000 0.000000 0.000000 0.017410 0.000000 0.000000
# 5 0.000000 0.000000 0.000000 0.000000 0.075112 0.000000
# 6 0.000000 0.000000 0.000000 0.000000 0.000000 0.034114
#
#
# Mechanical properties :
#
#
# Convention : Reuss Voigt Hill
#
# Bulk Modulus (GPa) = 59.70005 65.15647 62.42826
# Shear Modulus (GPa) = 29.30183 39.47741 34.38962
#
# Velocity S-wave (km/s) = 3.78860 4.39750 4.10436
# Velocity P-wave (km/s) = 6.95572 7.59611 7.28296
#
# Compressibility (1/GPa) = 0.01675040
#
# Stress axis : x y z
#
# Youngs Moduli (GPa) = 90.12770 159.93128 97.69288
#
# Poissons Ratio (x) = 0.30985 0.17234
# Poissons Ratio (y) = 0.17461 0.16759
# Poissons Ratio (z) = 0.15899 0.27435
#
# Static dielectric constant tensor:
#      x y z
#    x 1.695670 0.000000 0.000000 
#    y 0.000000 1.751900 0.000000 
#    z 0.000000 0.000000 1.759360 
# 
# From -- ./inp_files/12573.got.cif
#   From: 2010.05.17/outbox.cif.g08.bks.cpg/sg57_7_cif.got.tgz:12573.got - 2010.06.03 13:58:18.
