data_PCOD9439997
_publ_section_title
;
Structure prediction by ZEFSAII (Michael W. Deem and Ramdas Pophale) SiO2 
 PCOD9439997
Probable space group: P B C M
;
_chemical_formula_sum "Si O2"
_cell_formula_units_Z 40
_cell_length_a 5.846779
_cell_length_b 14.931471
_cell_length_c 18.101115
_cell_angle_alpha 90.000000
_cell_angle_beta 90.000000
_cell_angle_gamma 90.000000
_cell_volume 1580.245641
_symmetry_space_group_name_H-M "P B C M"
_symmetry_group_IT_number 57
_symmetry_cell_setting 'orthorhombic'
loop_
_space_group_symop_operation_xyz
x,y,z
-x,-y,1/2+z
x,1/2-y,-z
-x,1/2+y,1/2-z
-x,-y,-z
x,y,1/2-z
-x,1/2+y,z
x,1/2-y,1/2+z
loop_
_atom_site_type_symbol
_atom_site_label
_atom_site_fract_x
_atom_site_fract_y
_atom_site_fract_z
Si Si1 0.647777 0.617931 0.615548
Si Si2 0.247647 0.787529 0.569261
Si Si3 0.372147 0.168620 0.337855
Si Si4 0.146125 0.615691 0.836718
Si Si5 0.866899 0.585292 0.469017
O O1 0.650804 0.724039 0.640919
O O2 0.400402 0.579428 0.640461
O O3 0.890205 0.578595 0.646059
O O4 0.667729 0.601296 0.528002
O O5 0.393562 0.750000 0.500000
O O6 0.382829 0.851454 0.624977
O O7 0.151477 0.710651 0.621634
O O8 0.053980 0.837910 0.524867
O O9 0.356626 0.159069 0.250000
O O10 0.207984 0.103428 0.384584
O O11 0.157624 0.628000 0.750000
O O12 0.000000 0.500000 0.500000
#
# Coordination Sequence:
#
# PCOD9439997 Si02
#       5
#     8   8   8   8   8
#     4  11  22  42  68 103 130 178 237 288 346 408
#     4  11  20  39  68  97 127 173 235 288 344 412
#     4  11  23  42  71 101 133 172 233 302 358 406
#     4  11  21  38  70 103 134 167 225 301 350 389
#     4  12  26  43  67  95 143 192 230 279 342 441
#
# _framework density 25.312519999999999
#
# number of rings (size 3 to 8) (size 9 to 14) (size 15 to 20)
#    0.000    0.800    4.000    6.600    0.000    1.600 
#    0.000    3.000    0.000    0.000    0.000    0.000 
#    0.000    0.000    0.000    0.000    0.000    0.000 
#
# Total GULP energy -223058.994905 kJ/mol
# GULP energy per Si atom -5576.474873 kJ/mol
# Density = 2.525491 g / cm^3
# Si number density = 25.312520 Si / 1000 Ang^3
#
#
#
# Elastic Constant Matrix: (Units=GPa)
#
#
# Indices 1 2 3 4 5 6 
#
# 1 141.5994 27.3797 27.4917 0.0000 0.0000 0.0000
# 2 27.3797 75.9944 47.0073 0.0000 0.0000 0.0000
# 3 27.4917 47.0073 185.9272 0.0000 0.0000 0.0000
# 4 0.0000 0.0000 0.0000 2.0795 0.0000 0.0000
# 5 0.0000 0.0000 0.0000 0.0000 43.3580 0.0000
# 6 0.0000 0.0000 0.0000 0.0000 0.0000 31.1857
#
#
#
# Elastic Compliance Matrix: (Units=1/GPa)
#
#
# Indices 1 2 3 4 5 6 
#
# 1 0.007632 -0.002432 -0.000514 0.000000 0.000000 0.000000
# 2 -0.002432 0.016373 -0.003780 0.000000 0.000000 0.000000
# 3 -0.000514 -0.003780 0.006410 0.000000 0.000000 0.000000
# 4 0.000000 0.000000 0.000000 0.480896 0.000000 0.000000
# 5 0.000000 0.000000 0.000000 0.000000 0.023064 0.000000
# 6 0.000000 0.000000 0.000000 0.000000 0.000000 0.032066
#
#
# Mechanical properties :
#
#
# Convention : Reuss Voigt Hill
#
# Bulk Modulus (GPa) = 58.94772 67.47536 63.21154
# Shear Modulus (GPa) = 8.53903 35.43412 21.98657
#
# Velocity S-wave (km/s) = 1.83869 3.74554 2.95041
# Velocity P-wave (km/s) = 5.27695 6.73945 6.05254
#
# Compressibility (1/GPa) = 0.01696418
#
# Stress axis : x y z
#
# Youngs Moduli (GPa) = 131.02451 61.07520 156.00442
#
# Poissons Ratio (x) = 0.14854 0.08013
# Poissons Ratio (y) = 0.31866 0.58969
# Poissons Ratio (z) = 0.06730 0.23086
#
# Static dielectric constant tensor:
#      x y z
#    x 2.155180 0.000000 0.000000 
#    y 0.000000 2.513640 0.000000 
#    z 0.000000 0.000000 1.983080 
# 
# From -- ./inp_files/19970.got.cif
#   From: 2010.05.17/outbox.cif.g08.bks.cpg/sg57_10_cif.got.tgz:19970.got - 2010.06.03 13:58:18.
