data_PCOD9439247
_publ_section_title
;
Structure prediction by ZEFSAII (Michael W. Deem and Ramdas Pophale) SiO2 
 PCOD9439247
Probable space group: P B C M
;
_chemical_formula_sum "Si O2"
_cell_formula_units_Z 28
_cell_length_a 4.801533
_cell_length_b 10.135887
_cell_length_c 20.214956
_cell_angle_alpha 90.000000
_cell_angle_beta 90.000000
_cell_angle_gamma 90.000000
_cell_volume 983.817353
_symmetry_space_group_name_H-M "P B C M"
_symmetry_group_IT_number 57
_symmetry_cell_setting 'orthorhombic'
loop_
_space_group_symop_operation_xyz
x,y,z
-x,-y,1/2+z
x,1/2-y,-z
-x,1/2+y,1/2-z
-x,-y,-z
x,y,1/2-z
-x,1/2+y,z
x,1/2-y,1/2+z
loop_
_atom_site_type_symbol
_atom_site_label
_atom_site_fract_x
_atom_site_fract_y
_atom_site_fract_z
Si Si1 0.562164 0.412445 0.110471
Si Si2 0.336649 0.089641 0.750000
Si Si3 0.945759 0.080574 0.106408
Si Si4 0.919520 0.188630 0.250000
Si Si5 0.746389 0.750000 0.000000
O O1 0.492694 0.361976 0.184095
O O2 0.885862 0.442979 0.105590
O O3 0.449172 0.325719 0.051565
O O4 0.379581 0.546679 0.104015
O O5 0.033475 0.158442 0.750000
O O6 0.325694 0.929096 0.750000
O O7 0.024065 0.146814 0.176271
O O8 0.057608 0.157130 0.043848
#
# Coordination Sequence:
#
# PCOD9439247 Si02
#       5
#     8   4   8   4   4
#     4  11  25  44  67  99 134 178 227 280 339 406
#     4  10  21  46  71 104 136 180 230 284 338 402
#     4  11  25  44  67  99 134 178 227 280 339 406
#     4  10  21  46  71 104 136 180 230 284 338 402
#     4  12  24  44  68  96 140 176 228 278 342 408
#
# _framework density 28.460570000000001
#
# number of rings (size 3 to 8) (size 9 to 14) (size 15 to 20)
#    0.000    1.143    2.857    2.571    0.000    4.571 
#    5.143    2.857    0.000    0.000    0.000    0.000 
#    0.000    0.000    0.000    0.000    0.000    0.000 
#
# Total GULP energy -156856.817084 kJ/mol
# GULP energy per Si atom -5602.029182 kJ/mol
# Density = 2.839579 g / cm^3
# Si number density = 28.460570 Si / 1000 Ang^3
#
#
#
# Elastic Constant Matrix: (Units=GPa)
#
#
# Indices 1 2 3 4 5 6 
#
# 1 104.0967 16.8031 18.7785 0.0000 0.0000 0.0000
# 2 16.8031 79.5374 44.3666 0.0000 0.0000 0.0000
# 3 18.7785 44.3666 254.2728 0.0000 0.0000 0.0000
# 4 0.0000 0.0000 0.0000 52.7516 0.0000 0.0000
# 5 0.0000 0.0000 0.0000 0.0000 35.9361 0.0000
# 6 0.0000 0.0000 0.0000 0.0000 0.0000 33.7351
#
#
#
# Elastic Compliance Matrix: (Units=1/GPa)
#
#
# Indices 1 2 3 4 5 6 
#
# 1 0.009984 -0.001881 -0.000409 0.000000 0.000000 0.000000
# 2 -0.001881 0.014283 -0.002353 0.000000 0.000000 0.000000
# 3 -0.000409 -0.002353 0.004374 0.000000 0.000000 0.000000
# 4 0.000000 0.000000 0.000000 0.018957 0.000000 0.000000
# 5 0.000000 0.000000 0.000000 0.000000 0.027827 0.000000
# 6 0.000000 0.000000 0.000000 0.000000 0.000000 0.029643
#
#
# Mechanical properties :
#
#
# Convention : Reuss Voigt Hill
#
# Bulk Modulus (GPa) = 51.67004 66.42258 59.04631
# Shear Modulus (GPa) = 41.38914 48.34847 44.86881
#
# Velocity S-wave (km/s) = 3.81762 4.12611 3.97486
# Velocity P-wave (km/s) = 6.13405 6.78887 6.46975
#
# Compressibility (1/GPa) = 0.01935358
#
# Stress axis : x y z
#
# Youngs Moduli (GPa) = 100.16145 70.01471 228.64488
#
# Poissons Ratio (x) = 0.13170 0.09354
# Poissons Ratio (y) = 0.18840 0.53805
# Poissons Ratio (z) = 0.04098 0.16476
#
# Static dielectric constant tensor:
#      x y z
#    x 2.172080 0.000000 0.000000 
#    y 0.000000 2.298090 0.000000 
#    z 0.000000 0.000000 2.116750 
# 
# From -- ./inp_files/23262.got.cif
#   From: 2010.05.17/outbox.cif.g08.bks.cpg/sg57_12_cif.got.tgz:23262.got - 2010.06.03 13:58:18.
