data_PCOD9439133
_publ_section_title
;
Structure prediction by ZEFSAII (Michael W. Deem and Ramdas Pophale) SiO2 
 PCOD9439133
Probable space group: P B C M
;
_chemical_formula_sum "Si O2"
_cell_formula_units_Z 56
_cell_length_a 5.147839
_cell_length_b 21.294874
_cell_length_c 24.621260
_cell_angle_alpha 90.000000
_cell_angle_beta 90.000000
_cell_angle_gamma 90.000000
_cell_volume 2699.046115
_symmetry_space_group_name_H-M "P B C M"
_symmetry_group_IT_number 57
_symmetry_cell_setting 'orthorhombic'
loop_
_space_group_symop_operation_xyz
x,y,z
-x,-y,1/2+z
x,1/2-y,-z
-x,1/2+y,1/2-z
-x,-y,-z
x,y,1/2-z
-x,1/2+y,z
x,1/2-y,1/2+z
loop_
_atom_site_type_symbol
_atom_site_label
_atom_site_fract_x
_atom_site_fract_y
_atom_site_fract_z
Si Si1 0.793980 0.522873 0.957161
Si Si2 0.398026 0.699917 0.381180
Si Si3 0.441117 0.892857 0.519748
Si Si4 0.744712 0.950425 0.750000
Si Si5 0.242340 0.838568 0.412025
Si Si6 0.885784 0.830731 0.811919
Si Si7 0.755899 0.602835 0.636580
Si Si8 0.759439 0.538414 0.750000
O O1 0.615046 0.461532 0.954907
O O2 0.861920 0.542073 0.896729
O O3 0.682541 0.587286 0.982425
O O4 0.000000 0.500000 0.000000
O O5 0.469848 0.654199 0.430949
O O6 0.328621 0.766801 0.407179
O O7 0.645744 0.703178 0.341347
O O8 0.146542 0.675102 0.347568
O O9 0.245633 0.864083 0.474292
O O10 0.790028 0.902628 0.800757
O O11 0.471014 0.986302 0.750000
O O12 0.970743 0.001221 0.750000
O O13 0.465160 0.878752 0.381353
O O14 0.967897 0.846038 0.381587
O O15 0.933857 0.806810 0.750000
O O16 0.746794 0.583114 0.698205
#
# Coordination Sequence:
#
# PCOD9439133 Si02
#       8
#     8   8   8   4   8   8   8   4
#     4  10  21  40  66  96 137 171 213 285 342 398
#     4  12  24  43  72  95 131 189 219 279 338 391
#     4  10  24  39  66 103 132 174 227 274 347 399
#     4  10  24  42  65  92 141 152 222 282 322 398
#     4  11  24  47  62  99 137 175 228 277 315 413
#     4  10  25  44  63 101 131 168 227 278 338 396
#     4  11  25  43  67  96 137 172 230 270 341 401
#     4  12  24  44  67 102 125 186 210 278 342 402
#
# _framework density 20.748072000000001
#
# number of rings (size 3 to 8) (size 9 to 14) (size 15 to 20)
#    0.429    0.857    1.429    3.429    6.000    0.000 
#    7.714    2.857    0.000    0.000    0.000    0.000 
#    0.000    0.000    0.000    0.000    0.000    0.000 
#
# Total GULP energy -312231.189451 kJ/mol
# GULP energy per Si atom -5575.556954 kJ/mol
# Density = 2.070085 g / cm^3
# Si number density = 20.748072 Si / 1000 Ang^3
#
#
#
# Elastic Constant Matrix: (Units=GPa)
#
#
# Indices 1 2 3 4 5 6 
#
# 1 44.0167 -9.1664 10.8929 0.0000 0.0000 0.0000
# 2 -9.1664 71.2111 38.9024 0.0000 0.0000 0.0000
# 3 10.8929 38.9024 130.3550 0.0000 0.0000 0.0000
# 4 0.0000 0.0000 0.0000 16.2672 0.0000 0.0000
# 5 0.0000 0.0000 0.0000 0.0000 16.8463 0.0000
# 6 0.0000 0.0000 0.0000 0.0000 0.0000 32.2718
#
#
#
# Elastic Compliance Matrix: (Units=1/GPa)
#
#
# Indices 1 2 3 4 5 6 
#
# 1 0.024679 0.005142 -0.003597 0.000000 0.000000 0.000000
# 2 0.005142 0.017849 -0.005757 0.000000 0.000000 0.000000
# 3 -0.003597 -0.005757 0.009690 0.000000 0.000000 0.000000
# 4 0.000000 0.000000 0.000000 0.061473 0.000000 0.000000
# 5 0.000000 0.000000 0.000000 0.000000 0.059360 0.000000
# 6 0.000000 0.000000 0.000000 0.000000 0.000000 0.030987
#
#
# Mechanical properties :
#
#
# Convention : Reuss Voigt Hill
#
# Bulk Modulus (GPa) = 22.83339 36.31561 29.57450
# Shear Modulus (GPa) = 22.02055 26.74066 24.38060
#
# Velocity S-wave (km/s) = 3.26134 3.59392 3.43166
# Velocity P-wave (km/s) = 5.02103 5.89600 5.47602
#
# Compressibility (1/GPa) = 0.04379551
#
# Stress axis : x y z
#
# Youngs Moduli (GPa) = 40.51951 56.02439 103.20068
#
# Poissons Ratio (x) = -0.28806 0.37119
# Poissons Ratio (y) = -0.20834 0.59408
# Poissons Ratio (z) = 0.14574 0.32251
#
# Static dielectric constant tensor:
#      x y z
#    x 1.803850 0.000000 0.000000 
#    y 0.000000 1.781320 0.000000 
#    z 0.000000 0.000000 1.806650 
# 
# From -- ./inp_files/26329.got.cif
#   From: 2010.05.17/outbox.cif.g08.bks.cpg/sg57_14_cif.got.tgz:26329.got - 2010.06.03 13:58:18.
