data_PCOD9439103
_publ_section_title
;
Structure prediction by ZEFSAII (Michael W. Deem and Ramdas Pophale) SiO2 
 PCOD9439103
Probable space group: P B C M
;
_chemical_formula_sum "Si O2"
_cell_formula_units_Z 48
_cell_length_a 5.304926
_cell_length_b 27.362129
_cell_length_c 15.277512
_cell_angle_alpha 90.000000
_cell_angle_beta 90.000000
_cell_angle_gamma 90.000000
_cell_volume 2217.593039
_symmetry_space_group_name_H-M "P B C M"
_symmetry_group_IT_number 57
_symmetry_cell_setting 'orthorhombic'
loop_
_space_group_symop_operation_xyz
x,y,z
-x,-y,1/2+z
x,1/2-y,-z
-x,1/2+y,1/2-z
-x,-y,-z
x,y,1/2-z
-x,1/2+y,z
x,1/2-y,1/2+z
loop_
_atom_site_type_symbol
_atom_site_label
_atom_site_fract_x
_atom_site_fract_y
_atom_site_fract_z
Si Si1 0.648521 0.154003 0.345201
Si Si2 0.265568 0.428925 0.846744
Si Si3 0.062650 0.619569 0.999952
Si Si4 0.252013 0.981891 0.451233
Si Si5 0.086971 0.692720 0.848466
Si Si6 0.604583 0.750536 0.604760
O O1 0.766489 0.162855 0.250000
O O2 0.532254 0.099273 0.345887
O O3 0.808713 0.156899 0.432624
O O4 0.439267 0.195105 0.358783
O O5 0.153830 0.418785 0.750000
O O6 0.265581 0.487148 0.861722
O O7 0.131684 0.406107 0.932596
O O8 0.234922 0.576381 0.959029
O O9 0.992905 0.651576 0.916661
O O10 0.500000 0.000000 0.500000
O O11 0.000000 0.000000 0.500000
O O12 0.110501 0.673322 0.750000
O O13 0.355192 0.717974 0.872798
O O14 0.861056 0.731269 0.853561
O O15 0.631741 0.750000 0.500000
#
# Coordination Sequence:
#
# PCOD9439103 Si02
#       6
#     8   8   8   8   8   8
#     4  11  22  38  64  95 129 169 219 277 335 397
#     4  10  22  40  65  99 133 171 222 280 333 399
#     4  11  23  41  67  94 136 177 227 270 349 401
#     4  10  21  40  64  91 128 171 214 270 332 398
#     4  12  27  45  67  98 138 179 231 282 334 410
#     4  12  25  46  67  97 132 181 226 281 345 405
#
# _framework density 21.645092000000002
#
# number of rings (size 3 to 8) (size 9 to 14) (size 15 to 20)
#    0.000    1.000    3.333    3.500    2.333    0.667 
#    0.000    0.000    0.000    1.000    0.000    0.000 
#    0.000    0.000    0.000    0.000    0.000    0.000 
#
# Total GULP energy -267690.716957 kJ/mol
# GULP energy per Si atom -5576.889937 kJ/mol
# Density = 2.159583 g / cm^3
# Si number density = 21.645092 Si / 1000 Ang^3
#
#
#
# Elastic Constant Matrix: (Units=GPa)
#
#
# Indices 1 2 3 4 5 6 
#
# 1 66.3078 -8.1468 7.3530 0.0000 0.0000 0.0000
# 2 -8.1468 55.1172 22.7763 0.0000 0.0000 0.0000
# 3 7.3530 22.7763 165.3194 0.0000 0.0000 0.0000
# 4 0.0000 0.0000 0.0000 13.0547 0.0000 0.0000
# 5 0.0000 0.0000 0.0000 0.0000 -194.4845 0.0000
# 6 0.0000 0.0000 0.0000 0.0000 0.0000 31.3235
#
#
#
# Elastic Compliance Matrix: (Units=1/GPa)
#
#
# Indices 1 2 3 4 5 6 
#
# 1 0.015536 0.002738 -0.001068 0.000000 0.000000 0.000000
# 2 0.002738 0.019721 -0.002839 0.000000 0.000000 0.000000
# 3 -0.001068 -0.002839 0.006488 0.000000 0.000000 0.000000
# 4 0.000000 0.000000 0.000000 0.076601 0.000000 0.000000
# 5 0.000000 0.000000 0.000000 0.000000 -0.005142 0.000000
# 6 0.000000 0.000000 0.000000 0.000000 0.000000 0.031925
#
#
# Mechanical properties :
#
#
# Convention : Reuss Voigt Hill
#
# Bulk Modulus (GPa) = 25.37683 36.74549 31.06116
# Shear Modulus (GPa) = 31.13285 -12.37047 9.38119
#
# Velocity S-wave (km/s) = 3.79665 -2.39323 2.08411
# Velocity P-wave (km/s) = 5.56497 3.06211 4.49140
#
# Compressibility (1/GPa) = 0.03940603
#
# Stress axis : x y z
#
# Youngs Moduli (GPa) = 64.36664 50.70771 154.14246
#
# Poissons Ratio (x) = -0.13883 0.16465
# Poissons Ratio (y) = -0.17622 0.43757
# Poissons Ratio (z) = 0.06876 0.14395
#
# Static dielectric constant tensor:
#      x y z
#    x 1.839530 0.000000 0.000000 
#    y 0.000000 1.840860 0.000000 
#    z 0.000000 0.000000 1.806850 
# 
# From -- ./inp_files/15210.got.cif
#   From: 2010.05.17/outbox.cif.g08.bks.cpg/sg57_8_cif.got.tgz:15210.got - 2010.06.03 13:58:18.
