data_PCOD9439831
_publ_section_title
;
Structure prediction by ZEFSAII (Michael W. Deem and Ramdas Pophale) SiO2 
 PCOD9439831
Probable space group: P B C M
;
_chemical_formula_sum "Si O2"
_cell_formula_units_Z 32
_cell_length_a 29.298762
_cell_length_b 4.646230
_cell_length_c 8.753756
_cell_angle_alpha 90.000000
_cell_angle_beta 90.000000
_cell_angle_gamma 90.000000
_cell_volume 1191.638186
_symmetry_space_group_name_H-M "P B C M"
_symmetry_group_IT_number 57
_symmetry_cell_setting 'orthorhombic'
loop_
_space_group_symop_operation_xyz
x,y,z
-x,-y,1/2+z
x,1/2-y,-z
-x,1/2+y,1/2-z
-x,-y,-z
x,y,1/2-z
-x,1/2+y,z
x,1/2-y,1/2+z
loop_
_atom_site_type_symbol
_atom_site_label
_atom_site_fract_x
_atom_site_fract_y
_atom_site_fract_z
Si Si1 0.788276 0.062252 0.250000
Si Si2 0.729724 0.750000 0.000000
Si Si3 0.589364 0.250000 0.500000
Si Si4 0.969334 0.554960 0.750000
Si Si5 0.850070 0.559743 0.250000
Si Si6 0.909475 0.250000 0.000000
Si Si7 0.531153 0.566346 0.750000
Si Si8 0.340447 0.500096 0.750000
O O1 0.760582 0.962122 0.101887
O O2 0.836693 0.892197 0.250000
O O3 0.801544 0.394268 0.250000
O O4 0.696980 0.584591 0.117189
O O5 0.558771 0.464087 0.601895
O O6 0.622097 0.415301 0.382720
O O7 0.941345 0.449347 0.604715
O O8 0.982136 0.887955 0.750000
O O9 0.877877 0.451771 0.104521
O O10 0.517224 0.897600 0.750000
#
# Coordination Sequence:
#
# PCOD9439831 Si02
#       8
#     4   4   4   4   4   4   4   4
#     4  11  24  43  69  99 135 180 226 289 349 419
#     4  10  24  42  69 101 140 184 236 289 355 426
#     4  10  24  42  70 104 148 190 238 300 362 426
#     4  11  24  41  62  91 127 170 219 272 337 409
#     4  11  24  42  65  97 132 171 226 279 347 414
#     4  10  24  40  65  93 128 172 218 279 339 410
#     4  11  24  44  72 106 143 190 241 296 360 430
#     4  10  24  44  64 103 141 187 238 292 355 428
#
# _framework density 26.853787000000001
#
# number of rings (size 3 to 8) (size 9 to 14) (size 15 to 20)
#    0.000    1.500    0.000    3.000    0.000   18.000 
#    0.000    0.000    0.000    0.000    0.000    0.000 
#    0.000    0.000    0.000    0.000    0.000    0.000 
#
# Total GULP energy -179029.778344 kJ/mol
# GULP energy per Si atom -5594.680573 kJ/mol
# Density = 2.679267 g / cm^3
# Si number density = 26.853787 Si / 1000 Ang^3
#
#
#
# Elastic Constant Matrix: (Units=GPa)
#
#
# Indices 1 2 3 4 5 6 
#
# 1 147.3909 32.0053 76.4953 0.0000 0.0000 0.0000
# 2 32.0053 87.5388 31.3105 0.0000 0.0000 0.0000
# 3 76.4953 31.3105 230.6702 0.0000 0.0000 0.0000
# 4 0.0000 0.0000 0.0000 22.7999 0.0000 0.0000
# 5 0.0000 0.0000 0.0000 0.0000 11.1499 0.0000
# 6 0.0000 0.0000 0.0000 0.0000 0.0000 40.4358
#
#
#
# Elastic Compliance Matrix: (Units=1/GPa)
#
#
# Indices 1 2 3 4 5 6 
#
# 1 0.008590 -0.002230 -0.002546 0.000000 0.000000 0.000000
# 2 -0.002230 0.012585 -0.000969 0.000000 0.000000 0.000000
# 3 -0.002546 -0.000969 0.005311 0.000000 0.000000 0.000000
# 4 0.000000 0.000000 0.000000 0.043860 0.000000 0.000000
# 5 0.000000 0.000000 0.000000 0.000000 0.089687 0.000000
# 6 0.000000 0.000000 0.000000 0.000000 0.000000 0.024731
#
#
# Mechanical properties :
#
#
# Convention : Reuss Voigt Hill
#
# Bulk Modulus (GPa) = 66.68027 82.80246 74.74137
# Shear Modulus (GPa) = 24.84436 36.59638 30.72037
#
# Velocity S-wave (km/s) = 3.04496 3.69562 3.38596
# Velocity P-wave (km/s) = 6.10305 7.00797 6.57110
#
# Compressibility (1/GPa) = 0.01499694
#
# Stress axis : x y z
#
# Youngs Moduli (GPa) = 116.41023 79.45749 188.28814
#
# Poissons Ratio (x) = 0.17720 0.47939
# Poissons Ratio (y) = 0.25960 0.18240
# Poissons Ratio (z) = 0.29638 0.07697
#
# Static dielectric constant tensor:
#      x y z
#    x 2.033460 0.000000 0.000000 
#    y 0.000000 2.060010 0.000000 
#    z 0.000000 0.000000 2.003190 
# 
# From -- ./inp_files/9610.got.cif
#   From: 2010.05.17/outbox.cif.g08.bks.cpg/sg57_5_cif.got.tgz:9610.got - 2010.06.03 13:58:18.
