data_PCOD9439389
_publ_section_title
;
Structure prediction by ZEFSAII (Michael W. Deem and Ramdas Pophale) SiO2 
 PCOD9439389
Probable space group: P B C M
;
_chemical_formula_sum "Si O2"
_cell_formula_units_Z 64
_cell_length_a 11.462872
_cell_length_b 14.340048
_cell_length_c 19.828600
_cell_angle_alpha 90.000000
_cell_angle_beta 90.000000
_cell_angle_gamma 90.000000
_cell_volume 3259.388282
_symmetry_space_group_name_H-M "P B C M"
_symmetry_group_IT_number 57
_symmetry_cell_setting 'orthorhombic'
loop_
_space_group_symop_operation_xyz
x,y,z
-x,-y,1/2+z
x,1/2-y,-z
-x,1/2+y,1/2-z
-x,-y,-z
x,y,1/2-z
-x,1/2+y,z
x,1/2-y,1/2+z
loop_
_atom_site_type_symbol
_atom_site_label
_atom_site_fract_x
_atom_site_fract_y
_atom_site_fract_z
Si Si1 0.753455 0.351134 0.012516
Si Si2 0.073537 0.821661 0.370120
Si Si3 0.431906 0.508202 0.930145
Si Si4 0.070557 0.472042 0.825789
Si Si5 0.358016 0.022747 0.827118
Si Si6 0.172708 0.882801 0.638964
Si Si7 0.808044 0.842350 0.087399
Si Si8 0.767359 0.630873 0.433669
O O1 0.867641 0.335546 0.057138
O O2 0.664644 0.412682 0.055516
O O3 0.697650 0.250000 0.000000
O O4 0.795494 0.388780 0.940482
O O5 0.128233 0.723063 0.345153
O O6 0.935252 0.821944 0.381812
O O7 0.096864 0.917441 0.330228
O O8 0.523279 0.521756 0.870215
O O9 0.356647 0.415803 0.921507
O O10 0.500000 0.500000 0.000000
O O11 0.096894 0.439141 0.750000
O O12 0.143052 0.417312 0.882249
O O13 0.935067 0.449496 0.841336
O O14 0.377882 0.050448 0.750000
O O15 0.289904 0.923262 0.827811
O O16 0.269949 0.092900 0.865301
O O17 0.755317 0.739898 0.079163
O O18 0.810276 0.883461 0.011081
#
# Coordination Sequence:
#
# PCOD9439389 Si02
#       8
#     8   8   8   8   8   8   8   8
#     4  10  22  39  70 101 130 168 224 282 335 392
#     4  11  23  39  67 105 138 170 217 277 342 408
#     4  12  23  45  68  95 129 179 227 282 326 386
#     4  12  25  39  63  98 141 184 216 267 339 409
#     4  12  27  46  69  98 135 182 231 284 339 397
#     4  11  22  42  67 100 137 174 219 274 339 410
#     4  11  23  42  72 106 133 169 223 282 340 409
#     4  11  24  43  69 100 132 177 227 277 338 397
#
# _framework density 19.635587000000001
#
# number of rings (size 3 to 8) (size 9 to 14) (size 15 to 20)
#    0.000    0.750    6.250    1.125    3.500    4.000 
#    0.000    0.000    0.000    0.000    0.000    0.000 
#    0.000    0.000    0.000    0.000    0.000    0.000 
#
# Total GULP energy -357360.122868 kJ/mol
# GULP energy per Si atom -5583.751920 kJ/mol
# Density = 1.959090 g / cm^3
# Si number density = 19.635587 Si / 1000 Ang^3
#
#
#
# Elastic Constant Matrix: (Units=GPa)
#
#
# Indices 1 2 3 4 5 6 
#
# 1 81.1958 31.2114 32.0966 0.0000 0.0000 0.0000
# 2 31.2114 111.6807 41.3638 0.0000 0.0000 0.0000
# 3 32.0966 41.3638 134.2543 0.0000 0.0000 0.0000
# 4 0.0000 0.0000 0.0000 7.5639 0.0000 0.0000
# 5 0.0000 0.0000 0.0000 0.0000 -2.0114 0.0000
# 6 0.0000 0.0000 0.0000 0.0000 0.0000 10.9450
#
#
#
# Elastic Compliance Matrix: (Units=1/GPa)
#
#
# Indices 1 2 3 4 5 6 
#
# 1 0.014508 -0.003127 -0.002505 0.000000 0.000000 0.000000
# 2 -0.003127 0.010781 -0.002574 0.000000 0.000000 0.000000
# 3 -0.002505 -0.002574 0.008841 0.000000 0.000000 0.000000
# 4 0.000000 0.000000 0.000000 0.132206 0.000000 0.000000
# 5 0.000000 0.000000 0.000000 0.000000 -0.497174 0.000000
# 6 0.000000 0.000000 0.000000 0.000000 0.000000 0.091366
#
#
# Mechanical properties :
#
#
# Convention : Reuss Voigt Hill
#
# Bulk Modulus (GPa) = 56.44031 59.60825 58.02428
# Shear Modulus (GPa) = -23.02522 18.13011 -2.44756
#
# Velocity S-wave (km/s) = -3.42808 3.04193 -1.11767
# Velocity P-wave (km/s) = 3.62454 6.53918 5.28669
#
# Compressibility (1/GPa) = 0.01771783
#
# Stress axis : x y z
#
# Youngs Moduli (GPa) = 68.92705 92.75273 113.11471
#
# Poissons Ratio (x) = 0.29001 0.28337
# Poissons Ratio (y) = 0.21552 0.29118
# Poissons Ratio (z) = 0.17267 0.23877
#
# Static dielectric constant tensor:
#      x y z
#    x 1.718650 0.000000 0.000000 
#    y 0.000000 1.739350 0.000000 
#    z 0.000000 0.000000 1.709010 
# 
# From -- ./inp_files/22076.got.cif
#   From: 2010.05.17/outbox.cif.g08.bks.cpg/sg57_12_cif.got.tgz:22076.got - 2010.06.03 13:58:18.
