data_PCOD9439146
_publ_section_title
;
Structure prediction by ZEFSAII (Michael W. Deem and Ramdas Pophale) SiO2 
 PCOD9439146
Probable space group: P B C M
;
_chemical_formula_sum "Si O2"
_cell_formula_units_Z 48
_cell_length_a 8.664439
_cell_length_b 15.152274
_cell_length_c 17.996966
_cell_angle_alpha 90.000000
_cell_angle_beta 90.000000
_cell_angle_gamma 90.000000
_cell_volume 2362.748847
_symmetry_space_group_name_H-M "P B C M"
_symmetry_group_IT_number 57
_symmetry_cell_setting 'orthorhombic'
loop_
_space_group_symop_operation_xyz
x,y,z
-x,-y,1/2+z
x,1/2-y,-z
-x,1/2+y,1/2-z
-x,-y,-z
x,y,1/2-z
-x,1/2+y,z
x,1/2-y,1/2+z
loop_
_atom_site_type_symbol
_atom_site_label
_atom_site_fract_x
_atom_site_fract_y
_atom_site_fract_z
Si Si1 0.280961 0.395034 0.096447
Si Si2 0.114886 0.944502 0.666099
Si Si3 0.364167 0.884429 0.044724
Si Si4 0.174033 0.435999 0.559784
Si Si5 0.668699 0.296793 0.616994
Si Si6 0.676041 0.706905 0.333587
O O1 0.235896 0.477523 0.147620
O O2 0.458242 0.401206 0.068047
O O3 0.268360 0.302634 0.138887
O O4 0.172758 0.397412 0.023469
O O5 0.054556 0.955826 0.750000
O O6 0.199797 0.850569 0.658602
O O7 0.986720 0.948768 0.601869
O O8 0.297723 0.803906 0.093934
O O9 0.265017 0.972022 0.053849
O O10 0.360813 0.849747 0.960162
O O11 0.265092 0.366827 0.610453
O O12 0.509317 0.294521 0.661628
O O13 0.728235 0.689764 0.250000
#
# Coordination Sequence:
#
# PCOD9439146 Si02
#       6
#     8   8   8   8   8   8
#     4  11  22  42  68  94 122 168 223 272 312 381
#     4  12  26  42  61  95 139 175 210 262 331 391
#     4  10  21  40  70  99 118 162 227 274 309 372
#     4  12  23  41  65  94 128 172 216 262 315 389
#     4  10  21  41  66  96 129 161 215 270 319 379
#     4  11  23  41  65  95 128 165 210 268 329 376
#
# _framework density 20.31532
#
# number of rings (size 3 to 8) (size 9 to 14) (size 15 to 20)
#    0.000    1.000    3.333    4.000    0.000    1.333 
#    3.000   10.833    0.000    0.000    0.000    0.000 
#    0.000    0.000    0.000    0.000    0.000    0.000 
#
# Total GULP energy -268458.354705 kJ/mol
# GULP energy per Si atom -5592.882390 kJ/mol
# Density = 2.026908 g / cm^3
# Si number density = 20.315320 Si / 1000 Ang^3
#
#
#
# Elastic Constant Matrix: (Units=GPa)
#
#
# Indices 1 2 3 4 5 6 
#
# 1 35.0362 20.3676 11.9025 0.0000 0.0000 0.0000
# 2 20.3676 98.2361 18.0288 0.0000 0.0000 0.0000
# 3 11.9025 18.0288 94.4759 0.0000 0.0000 0.0000
# 4 0.0000 0.0000 0.0000 17.7075 0.0000 0.0000
# 5 0.0000 0.0000 0.0000 0.0000 6.4270 0.0000
# 6 0.0000 0.0000 0.0000 0.0000 0.0000 -14.9812
#
#
#
# Elastic Compliance Matrix: (Units=1/GPa)
#
#
# Indices 1 2 3 4 5 6 
#
# 1 0.033242 -0.006346 -0.002977 0.000000 0.000000 0.000000
# 2 -0.006346 0.011760 -0.001445 0.000000 0.000000 0.000000
# 3 -0.002977 -0.001445 0.011235 0.000000 0.000000 0.000000
# 4 0.000000 0.000000 0.000000 0.056473 0.000000 0.000000
# 5 0.000000 0.000000 0.000000 0.000000 0.155593 0.000000
# 6 0.000000 0.000000 0.000000 0.000000 0.000000 -0.066750
#
#
# Mechanical properties :
#
#
# Convention : Reuss Voigt Hill
#
# Bulk Modulus (GPa) = 28.81602 36.48288 32.64945
# Shear Modulus (GPa) = 21.30765 13.66062 17.48414
#
# Velocity S-wave (km/s) = 3.24210 2.59594 2.93685
# Velocity P-wave (km/s) = 5.31321 5.19447 5.25417
#
# Compressibility (1/GPa) = 0.03470291
#
# Stress axis : x y z
#
# Youngs Moduli (GPa) = 30.08211 85.03102 89.00388
#
# Poissons Ratio (x) = 0.53960 0.26497
# Poissons Ratio (y) = 0.19090 0.12859
# Poissons Ratio (z) = 0.08956 0.12285
#
# Static dielectric constant tensor:
#      x y z
#    x 1.723800 0.000000 0.000000 
#    y 0.000000 1.692910 0.000000 
#    z 0.000000 0.000000 1.720760 
# 
# From -- ./inp_files/20977.got.cif
#   From: 2010.05.17/outbox.cif.g08.bks.cpg/sg57_11_cif.got.tgz:20977.got - 2010.06.03 13:58:18.
