data_PCOD9439694
_publ_section_title
;
Structure prediction by ZEFSAII (Michael W. Deem and Ramdas Pophale) SiO2 
 PCOD9439694
Probable space group: P B C M
;
_chemical_formula_sum "Si O2"
_cell_formula_units_Z 48
_cell_length_a 14.005382
_cell_length_b 10.091790
_cell_length_c 16.178561
_cell_angle_alpha 90.000000
_cell_angle_beta 90.000000
_cell_angle_gamma 90.000000
_cell_volume 2286.667684
_symmetry_space_group_name_H-M "P B C M"
_symmetry_group_IT_number 57
_symmetry_cell_setting 'orthorhombic'
loop_
_space_group_symop_operation_xyz
x,y,z
-x,-y,1/2+z
x,1/2-y,-z
-x,1/2+y,1/2-z
-x,-y,-z
x,y,1/2-z
-x,1/2+y,z
x,1/2-y,1/2+z
loop_
_atom_site_type_symbol
_atom_site_label
_atom_site_fract_x
_atom_site_fract_y
_atom_site_fract_z
Si Si1 0.286710 0.861128 0.650914
Si Si2 0.688353 0.812565 0.908114
Si Si3 0.018321 0.872922 0.056575
Si Si4 0.479932 0.625038 0.058278
Si Si5 0.208182 0.572116 0.848929
Si Si6 0.831085 0.892907 0.345037
O O1 0.290249 0.872079 0.750000
O O2 0.388033 0.900381 0.613605
O O3 0.261369 0.709854 0.630742
O O4 0.205553 0.964547 0.622930
O O5 0.576748 0.840083 0.892192
O O6 0.741709 0.706216 0.851351
O O7 0.743991 0.950395 0.897168
O O8 0.694282 0.750000 0.000000
O O9 0.099564 0.908494 0.122549
O O10 0.918764 0.839768 0.101705
O O11 0.048402 0.750000 0.000000
O O12 0.000000 0.000000 0.000000
O O13 0.459097 0.750000 0.000000
O O14 0.500000 0.500000 0.000000
O O15 0.214430 0.549136 0.750000
O O16 0.861373 0.906140 0.250000
#
# Coordination Sequence:
#
# PCOD9439694 Si02
#       6
#     8   8   8   8   8   8
#     4  10  23  41  63  90 123 162 208 258 310 368
#     4  11  23  40  62  91 124 160 206 254 308 370
#     4  12  25  40  63  92 122 159 203 254 309 368
#     4  11  23  39  62  90 122 161 202 251 307 364
#     4  11  24  43  65  91 124 166 210 258 312 372
#     4  11  23  41  62  88 123 162 203 255 311 370
#
# _framework density 20.991243999999998
#
# number of rings (size 3 to 8) (size 9 to 14) (size 15 to 20)
#    0.000    1.000    0.000    7.500    0.000    4.667 
#    0.000    9.167    0.000    0.000    0.000    0.000 
#    0.000    0.000    0.000    0.000    0.000    0.000 
#
# Total GULP energy -268626.906086 kJ/mol
# GULP energy per Si atom -5596.393877 kJ/mol
# Density = 2.094347 g / cm^3
# Si number density = 20.991244 Si / 1000 Ang^3
#
#
#
# Elastic Constant Matrix: (Units=GPa)
#
#
# Indices 1 2 3 4 5 6 
#
# 1 94.0252 -11.1916 27.5407 0.0000 0.0000 0.0000
# 2 -11.1916 79.1024 14.9034 0.0000 0.0000 0.0000
# 3 27.5407 14.9034 39.7758 0.0000 0.0000 0.0000
# 4 0.0000 0.0000 0.0000 26.8452 0.0000 0.0000
# 5 0.0000 0.0000 0.0000 0.0000 36.6516 0.0000
# 6 0.0000 0.0000 0.0000 0.0000 0.0000 35.7979
#
#
#
# Elastic Compliance Matrix: (Units=1/GPa)
#
#
# Indices 1 2 3 4 5 6 
#
# 1 0.014564 0.004261 -0.011681 0.000000 0.000000 0.000000
# 2 0.004261 0.014849 -0.008514 0.000000 0.000000 0.000000
# 3 -0.011681 -0.008514 0.036419 0.000000 0.000000 0.000000
# 4 0.000000 0.000000 0.000000 0.037251 0.000000 0.000000
# 5 0.000000 0.000000 0.000000 0.000000 0.027284 0.000000
# 6 0.000000 0.000000 0.000000 0.000000 0.000000 0.027935
#
#
# Mechanical properties :
#
#
# Convention : Reuss Voigt Hill
#
# Bulk Modulus (GPa) = 29.44257 30.60094 30.02175
# Shear Modulus (GPa) = 24.81520 31.96901 28.39210
#
# Velocity S-wave (km/s) = 3.44200 3.90676 3.68172
# Velocity P-wave (km/s) = 5.46379 5.91269 5.69267
#
# Compressibility (1/GPa) = 0.03396443
#
# Stress axis : x y z
#
# Youngs Moduli (GPa) = 68.66229 67.34530 27.45837
#
# Poissons Ratio (x) = -0.28698 0.32073
# Poissons Ratio (y) = -0.29259 0.23378
# Poissons Ratio (z) = 0.80203 0.57339
#
# Static dielectric constant tensor:
#      x y z
#    x 1.730390 0.000000 0.000000 
#    y 0.000000 1.740980 0.000000 
#    z 0.000000 0.000000 1.760450 
# 
# From -- ./inp_files/22430.got.cif
#   From: 2010.05.17/outbox.cif.g08.bks.cpg/sg57_12_cif.got.tgz:22430.got - 2010.06.03 13:58:18.
