data_PCOD9439551
_publ_section_title
;
Structure prediction by ZEFSAII (Michael W. Deem and Ramdas Pophale) SiO2 
 PCOD9439551
Probable space group: P B C M
;
_chemical_formula_sum "Si O2"
_cell_formula_units_Z 48
_cell_length_a 12.051106
_cell_length_b 11.692633
_cell_length_c 15.670926
_cell_angle_alpha 90.000000
_cell_angle_beta 90.000000
_cell_angle_gamma 90.000000
_cell_volume 2208.177014
_symmetry_space_group_name_H-M "P B C M"
_symmetry_group_IT_number 57
_symmetry_cell_setting 'orthorhombic'
loop_
_space_group_symop_operation_xyz
x,y,z
-x,-y,1/2+z
x,1/2-y,-z
-x,1/2+y,1/2-z
-x,-y,-z
x,y,1/2-z
-x,1/2+y,z
x,1/2-y,1/2+z
loop_
_atom_site_type_symbol
_atom_site_label
_atom_site_fract_x
_atom_site_fract_y
_atom_site_fract_z
Si Si1 0.193919 0.979989 0.887777
Si Si2 0.184027 0.253941 0.149388
Si Si3 0.043741 0.050133 0.408685
Si Si4 0.593258 0.887157 0.649259
Si Si5 0.639386 0.198781 0.154631
Si Si6 0.253639 0.580552 0.582009
O O1 0.290993 0.917313 0.838373
O O2 0.072028 0.938823 0.859815
O O3 0.188196 0.115760 0.879229
O O4 0.223801 0.942864 0.984189
O O5 0.152653 0.246183 0.250000
O O6 0.103420 0.173104 0.093772
O O7 0.307217 0.202990 0.140975
O O8 0.139689 0.965099 0.373249
O O9 0.000000 0.000000 0.500000
O O10 0.575544 0.910586 0.750000
O O11 0.478987 0.834897 0.614879
O O12 0.642430 0.000909 0.607038
O O13 0.620009 0.246659 0.250000
O O14 0.711729 0.291650 0.104236
#
# Coordination Sequence:
#
# PCOD9439551 Si02
#       6
#     8   8   8   8   8   8
#     4  11  24  41  63 100 131 168 220 271 340 404
#     4  10  22  42  66  97 133 172 220 271 333 404
#     4   9  22  42  67  92 128 171 214 267 331 399
#     4   9  21  41  65  91 125 175 223 271 335 399
#     4  11  24  41  64  93 130 173 224 283 337 400
#     4  10  22  43  64  93 126 173 219 272 336 405
#
# _framework density 21.737386999999998
#
# number of rings (size 3 to 8) (size 9 to 14) (size 15 to 20)
#    0.000    2.000    0.000    1.500    4.667    8.667 
#    6.000    0.000    0.000    0.000    0.000    0.000 
#    0.000    0.000    0.000    0.000    0.000    0.000 
#
# Total GULP energy -267881.573405 kJ/mol
# GULP energy per Si atom -5580.866113 kJ/mol
# Density = 2.168791 g / cm^3
# Si number density = 21.737387 Si / 1000 Ang^3
#
#
#
# Elastic Constant Matrix: (Units=GPa)
#
#
# Indices 1 2 3 4 5 6 
#
# 1 131.8313 70.7781 33.2085 0.0000 0.0000 0.0000
# 2 70.7781 157.1056 32.6584 0.0000 0.0000 0.0000
# 3 33.2085 32.6584 60.4746 0.0000 0.0000 0.0000
# 4 0.0000 0.0000 0.0000 25.4328 0.0000 0.0000
# 5 0.0000 0.0000 0.0000 0.0000 11.0400 0.0000
# 6 0.0000 0.0000 0.0000 0.0000 0.0000 21.6866
#
#
#
# Elastic Compliance Matrix: (Units=1/GPa)
#
#
# Indices 1 2 3 4 5 6 
#
# 1 0.010687 -0.004049 -0.003682 0.000000 0.000000 0.000000
# 2 -0.004049 0.008704 -0.002477 0.000000 0.000000 0.000000
# 3 -0.003682 -0.002477 0.019895 0.000000 0.000000 0.000000
# 4 0.000000 0.000000 0.000000 0.039319 0.000000 0.000000
# 5 0.000000 0.000000 0.000000 0.000000 0.090579 0.000000
# 6 0.000000 0.000000 0.000000 0.000000 0.000000 0.046111
#
#
# Mechanical properties :
#
#
# Convention : Reuss Voigt Hill
#
# Bulk Modulus (GPa) = 52.99307 69.18904 61.09105
# Shear Modulus (GPa) = 20.66092 25.81633 23.23863
#
# Velocity S-wave (km/s) = 3.08633 3.44996 3.27320
# Velocity P-wave (km/s) = 6.09362 6.91146 6.51539
#
# Compressibility (1/GPa) = 0.01887039
#
# Stress axis : x y z
#
# Youngs Moduli (GPa) = 93.57291 114.88590 50.26300
#
# Poissons Ratio (x) = 0.46520 0.18506
# Poissons Ratio (y) = 0.37890 0.12450
# Poissons Ratio (z) = 0.34451 0.28458
#
# Static dielectric constant tensor:
#      x y z
#    x 1.806160 0.000000 0.000000 
#    y 0.000000 1.777000 0.000000 
#    z 0.000000 0.000000 1.920340 
# 
# From -- ./inp_files/21837.got.cif
#   From: 2010.05.17/outbox.cif.g08.bks.cpg/sg57_11_cif.got.tgz:21837.got - 2010.06.03 13:58:18.
