data_PCOD9439942
_publ_section_title
;
Structure prediction by ZEFSAII (Michael W. Deem and Ramdas Pophale) SiO2 
 PCOD9439942
Probable space group: P B C M
;
_chemical_formula_sum "Si O2"
_cell_formula_units_Z 36
_cell_length_a 5.308516
_cell_length_b 15.312664
_cell_length_c 14.634320
_cell_angle_alpha 90.000000
_cell_angle_beta 90.000000
_cell_angle_gamma 90.000000
_cell_volume 1189.587607
_symmetry_space_group_name_H-M "P B C M"
_symmetry_group_IT_number 57
_symmetry_cell_setting 'orthorhombic'
loop_
_space_group_symop_operation_xyz
x,y,z
-x,-y,1/2+z
x,1/2-y,-z
-x,1/2+y,1/2-z
-x,-y,-z
x,y,1/2-z
-x,1/2+y,z
x,1/2-y,1/2+z
loop_
_atom_site_type_symbol
_atom_site_label
_atom_site_fract_x
_atom_site_fract_y
_atom_site_fract_z
Si Si1 0.521279 0.539435 0.359574
Si Si2 0.812746 0.123382 0.250000
Si Si3 0.648633 0.655873 0.965761
Si Si4 0.059382 0.028286 0.603760
Si Si5 0.843221 0.296014 0.353600
O O1 0.518523 0.596704 0.250000
O O2 0.380885 0.450016 0.414423
O O3 0.000000 0.500000 0.500000
O O4 0.786093 0.489348 0.348907
O O5 0.796803 0.044983 0.168344
O O6 0.893608 0.195421 0.330559
O O7 0.937331 0.640385 0.895877
O O8 0.403563 0.693575 0.912366
O O9 0.773521 0.750000 0.000000
O O10 0.574421 0.614112 0.065809
O O11 0.801968 0.329668 0.250000
#
# Coordination Sequence:
#
# PCOD9439942 Si02
#       5
#     8   4   8   8   8
#     4  12  28  49  78 117 153 210 254 337 383 475
#     4  10  26  52  74 116 156 202 270 310 398 466
#     4  12  25  50  82 112 160 206 262 318 399 472
#     4  12  28  48  79 112 157 199 266 317 397 455
#     4  10  25  51  74 113 152 207 255 319 382 472
#
# _framework density 30.262588000000001
#
# number of rings (size 3 to 8) (size 9 to 14) (size 15 to 20)
#    0.667    0.000    4.444    1.333    6.222    3.556 
#    4.000    0.000    0.000    0.000    0.000    0.000 
#    0.000    0.000    0.000    0.000    0.000    0.000 
#
# Total GULP energy -200485.616168 kJ/mol
# GULP energy per Si atom -5569.044894 kJ/mol
# Density = 3.019371 g / cm^3
# Si number density = 30.262588 Si / 1000 Ang^3
#
#
#
# Elastic Constant Matrix: (Units=GPa)
#
#
# Indices 1 2 3 4 5 6 
#
# 1 242.7251 87.3771 83.7705 0.0000 0.0000 0.0000
# 2 87.3771 287.4828 157.7504 0.0000 0.0000 0.0000
# 3 83.7705 157.7504 284.8303 0.0000 0.0000 0.0000
# 4 0.0000 0.0000 0.0000 96.8770 0.0000 0.0000
# 5 0.0000 0.0000 0.0000 0.0000 66.3701 0.0000
# 6 0.0000 0.0000 0.0000 0.0000 0.0000 64.2718
#
#
#
# Elastic Compliance Matrix: (Units=1/GPa)
#
#
# Indices 1 2 3 4 5 6 
#
# 1 0.004769 -0.000977 -0.000862 0.000000 0.000000 0.000000
# 2 -0.000977 0.005197 -0.002591 0.000000 0.000000 0.000000
# 3 -0.000862 -0.002591 0.005199 0.000000 0.000000 0.000000
# 4 0.000000 0.000000 0.000000 0.010322 0.000000 0.000000
# 5 0.000000 0.000000 0.000000 0.000000 0.015067 0.000000
# 6 0.000000 0.000000 0.000000 0.000000 0.000000 0.015559
#
#
# Mechanical properties :
#
#
# Convention : Reuss Voigt Hill
#
# Bulk Modulus (GPa) = 158.56691 163.64825 161.10758
# Shear Modulus (GPa) = 74.54379 77.91314 76.22846
#
# Velocity S-wave (km/s) = 4.96848 5.07953 5.02431
# Velocity P-wave (km/s) = 9.24257 9.41252 9.32794
#
# Compressibility (1/GPa) = 0.00630649
#
# Stress axis : x y z
#
# Youngs Moduli (GPa) = 209.69503 192.41328 192.33106
#
# Poissons Ratio (x) = 0.18791 0.16572
# Poissons Ratio (y) = 0.20479 0.49836
# Poissons Ratio (z) = 0.18069 0.49857
#
# Static dielectric constant tensor:
#      x y z
#    x 2.327750 0.000000 0.000000 
#    y 0.000000 2.409510 0.000000 
#    z 0.000000 0.000000 2.447710 
# 
# From -- ./inp_files/12719.got.cif
#   From: 2010.05.17/outbox.cif.g08.bks.cpg/sg57_7_cif.got.tgz:12719.got - 2010.06.03 13:58:18.
