data_PCOD9439375
_publ_section_title
;
Structure prediction by ZEFSAII (Michael W. Deem and Ramdas Pophale) SiO2 
 PCOD9439375
Probable space group: P B C M
;
_chemical_formula_sum "Si O2"
_cell_formula_units_Z 48
_cell_length_a 8.720913
_cell_length_b 9.727753
_cell_length_c 26.200236
_cell_angle_alpha 90.000000
_cell_angle_beta 90.000000
_cell_angle_gamma 90.000000
_cell_volume 2222.694076
_symmetry_space_group_name_H-M "P B C M"
_symmetry_group_IT_number 57
_symmetry_cell_setting 'orthorhombic'
loop_
_space_group_symop_operation_xyz
x,y,z
-x,-y,1/2+z
x,1/2-y,-z
-x,1/2+y,1/2-z
-x,-y,-z
x,y,1/2-z
-x,1/2+y,z
x,1/2-y,1/2+z
loop_
_atom_site_type_symbol
_atom_site_label
_atom_site_fract_x
_atom_site_fract_y
_atom_site_fract_z
Si Si1 0.805094 0.924431 0.750000
Si Si2 0.666694 0.805541 0.646121
Si Si3 0.024517 0.822048 0.250000
Si Si4 0.352822 0.592116 0.012795
Si Si5 0.169686 0.965570 0.417128
Si Si6 0.127957 0.047525 0.850655
Si Si7 0.312364 0.685902 0.124238
O O1 0.720415 0.871545 0.699468
O O2 0.966326 0.836295 0.750000
O O3 0.816011 0.091064 0.750000
O O4 0.736147 0.654642 0.638684
O O5 0.484524 0.803348 0.643278
O O6 0.741810 0.900666 0.602736
O O7 0.952721 0.886749 0.301486
O O8 0.314879 0.595558 0.072265
O O9 0.393331 0.750000 0.000000
O O10 0.500000 0.500000 0.000000
O O11 0.209256 0.551555 0.976828
O O12 0.246626 0.833547 0.390135
O O13 0.996874 0.967149 0.395944
O O14 0.199254 0.898341 0.839523
#
# Coordination Sequence:
#
# PCOD9439375 Si02
#       7
#     4   8   4   8   8   8   8
#     4  10  22  39  63  95 127 168 212 260 316 381
#     4  11  22  40  64  93 129 166 214 262 318 375
#     4  10  22  39  63  93 131 166 206 260 322 375
#     4  10  22  39  64  92 126 165 210 256 320 376
#     4  11  22  40  64  92 126 167 215 257 314 379
#     4  11  24  41  64  96 127 169 215 262 316 382
#     4  11  24  41  64  93 129 166 212 267 318 377
#
# _framework density 21.595414000000002
#
# number of rings (size 3 to 8) (size 9 to 14) (size 15 to 20)
#    0.000    1.333    3.333    2.000    4.667    1.333 
#    0.000    5.000    0.000    0.000    0.000    0.000 
#    0.000    0.000    0.000    0.000    0.000    0.000 
#
# Total GULP energy -268163.123597 kJ/mol
# GULP energy per Si atom -5586.731742 kJ/mol
# Density = 2.154626 g / cm^3
# Si number density = 21.595414 Si / 1000 Ang^3
#
#
#
# Elastic Constant Matrix: (Units=GPa)
#
#
# Indices 1 2 3 4 5 6 
#
# 1 129.2487 6.6948 21.6554 0.0000 0.0000 0.0000
# 2 6.6948 44.4358 -6.6607 0.0000 0.0000 0.0000
# 3 21.6554 -6.6607 40.1214 0.0000 0.0000 0.0000
# 4 0.0000 0.0000 0.0000 13.6238 0.0000 0.0000
# 5 0.0000 0.0000 0.0000 0.0000 -43.9450 0.0000
# 6 0.0000 0.0000 0.0000 0.0000 0.0000 35.6472
#
#
#
# Elastic Compliance Matrix: (Units=1/GPa)
#
#
# Indices 1 2 3 4 5 6 
#
# 1 0.008687 -0.002063 -0.005031 0.000000 0.000000 0.000000
# 2 -0.002063 0.023569 0.005026 0.000000 0.000000 0.000000
# 3 -0.005031 0.005026 0.028474 0.000000 0.000000 0.000000
# 4 0.000000 0.000000 0.000000 0.073401 0.000000 0.000000
# 5 0.000000 0.000000 0.000000 0.000000 -0.022756 0.000000
# 6 0.000000 0.000000 0.000000 0.000000 0.000000 0.028053
#
#
# Mechanical properties :
#
#
# Convention : Reuss Voigt Hill
#
# Bulk Modulus (GPa) = 17.66975 28.57610 23.12293
# Shear Modulus (GPa) = 30.78284 13.87297 22.32790
#
# Velocity S-wave (km/s) = 3.77959 2.53732 3.21895
# Velocity P-wave (km/s) = 5.21986 4.67388 4.95440
#
# Compressibility (1/GPa) = 0.05659388
#
# Stress axis : x y z
#
# Youngs Moduli (GPa) = 115.11663 42.42937 35.11933
#
# Poissons Ratio (x) = 0.08753 0.17669
# Poissons Ratio (y) = 0.23748 -0.17652
# Poissons Ratio (z) = 0.57917 -0.21326
#
# Static dielectric constant tensor:
#      x y z
#    x 1.788020 0.000000 0.000000 
#    y 0.000000 1.779490 0.000000 
#    z 0.000000 0.000000 1.850280 
# 
# From -- ./inp_files/29508.got.cif
#   From: 2010.05.17/outbox.cif.g08.bks.cpg/sg57_15_cif.got.tgz:29508.got - 2010.06.03 13:58:18.
