data_PCOD9439442
_publ_section_title
;
Structure prediction by ZEFSAII (Michael W. Deem and Ramdas Pophale) SiO2 
 PCOD9439442
Probable space group: P B C M
;
_chemical_formula_sum "Si O2"
_cell_formula_units_Z 56
_cell_length_a 12.846196
_cell_length_b 14.205462
_cell_length_c 14.340527
_cell_angle_alpha 90.000000
_cell_angle_beta 90.000000
_cell_angle_gamma 90.000000
_cell_volume 2616.947549
_symmetry_space_group_name_H-M "P B C M"
_symmetry_group_IT_number 57
_symmetry_cell_setting 'orthorhombic'
loop_
_space_group_symop_operation_xyz
x,y,z
-x,-y,1/2+z
x,1/2-y,-z
-x,1/2+y,1/2-z
-x,-y,-z
x,y,1/2-z
-x,1/2+y,z
x,1/2-y,1/2+z
loop_
_atom_site_type_symbol
_atom_site_label
_atom_site_fract_x
_atom_site_fract_y
_atom_site_fract_z
Si Si1 0.064278 0.287152 0.894679
Si Si2 0.511824 0.742892 0.643272
Si Si3 0.286432 0.165747 0.075868
Si Si4 0.678583 0.125551 0.142005
Si Si5 0.886146 0.426249 0.950592
Si Si6 0.591474 0.550609 0.945492
Si Si7 0.999372 0.417669 0.144704
O O1 0.177275 0.329219 0.870798
O O2 0.976523 0.366070 0.898960
O O3 0.028375 0.192011 0.845850
O O4 0.072073 0.250000 0.000000
O O5 0.494743 0.716554 0.750000
O O6 0.611158 0.812153 0.635734
O O7 0.409147 0.799181 0.612190
O O8 0.544547 0.649205 0.589230
O O9 0.282589 0.250000 0.000000
O O10 0.312946 0.073607 0.015592
O O11 0.707412 0.143252 0.250000
O O12 0.778290 0.122487 0.075323
O O13 0.629500 0.021119 0.133040
O O14 0.901897 0.527434 0.900940
O O15 0.913981 0.428758 0.061028
O O16 0.500000 0.500000 0.000000
O O17 0.974291 0.451832 0.250000
#
# Coordination Sequence:
#
# PCOD9439442 Si02
#       7
#     8   8   8   8   8   8   8
#     4   9  20  40  62  90 127 170 217 273 332 393
#     4  10  22  41  63  95 129 165 221 277 327 396
#     4   9  19  36  62  91 120 162 212 264 332 382
#     4  11  24  42  68  99 133 178 226 274 341 412
#     4  10  23  42  65  97 138 177 222 280 333 403
#     4  11  22  40  65  96 130 174 222 271 334 400
#     4  10  22  40  65  95 130 180 232 273 335 407
#
# _framework density 21.398976999999999
#
# number of rings (size 3 to 8) (size 9 to 14) (size 15 to 20)
#    0.000    2.000    1.429    0.857   10.000    1.714 
#    7.714    0.000    0.000    0.857    0.000    0.000 
#    0.000    0.000    0.000    0.000    0.000    0.000 
#
# Total GULP energy -312385.492608 kJ/mol
# GULP energy per Si atom -5578.312368 kJ/mol
# Density = 2.135027 g / cm^3
# Si number density = 21.398977 Si / 1000 Ang^3
#
#
#
# Elastic Constant Matrix: (Units=GPa)
#
#
# Indices 1 2 3 4 5 6 
#
# 1 139.8419 30.4448 41.5162 0.0000 0.0000 0.0000
# 2 30.4448 78.4646 25.8052 0.0000 0.0000 0.0000
# 3 41.5162 25.8052 121.1645 0.0000 0.0000 0.0000
# 4 0.0000 0.0000 0.0000 21.8161 0.0000 0.0000
# 5 0.0000 0.0000 0.0000 0.0000 11.4804 0.0000
# 6 0.0000 0.0000 0.0000 0.0000 0.0000 24.2226
#
#
#
# Elastic Compliance Matrix: (Units=1/GPa)
#
#
# Indices 1 2 3 4 5 6 
#
# 1 0.008388 -0.002483 -0.002345 0.000000 0.000000 0.000000
# 2 -0.002483 0.014440 -0.002224 0.000000 0.000000 0.000000
# 3 -0.002345 -0.002224 0.009531 0.000000 0.000000 0.000000
# 4 0.000000 0.000000 0.000000 0.045838 0.000000 0.000000
# 5 0.000000 0.000000 0.000000 0.000000 0.087105 0.000000
# 6 0.000000 0.000000 0.000000 0.000000 0.000000 0.041284
#
#
# Mechanical properties :
#
#
# Convention : Reuss Voigt Hill
#
# Bulk Modulus (GPa) = 54.78752 59.44483 57.11618
# Shear Modulus (GPa) = 22.04835 27.61747 24.83291
#
# Velocity S-wave (km/s) = 3.21338 3.59639 3.41027
# Velocity P-wave (km/s) = 6.27903 6.71453 6.50043
#
# Compressibility (1/GPa) = 0.01825233
#
# Stress axis : x y z
#
# Youngs Moduli (GPa) = 119.22096 69.25355 104.92581
#
# Poissons Ratio (x) = 0.17197 0.24607
# Poissons Ratio (y) = 0.29606 0.23340
# Poissons Ratio (z) = 0.27959 0.15405
#
# Static dielectric constant tensor:
#      x y z
#    x 1.803790 0.000000 0.000000 
#    y 0.000000 1.843270 0.000000 
#    z 0.000000 0.000000 1.817600 
# 
# From -- ./inp_files/17747.got.cif
#   From: 2010.05.17/outbox.cif.g08.bks.cpg/sg57_9_cif.got.tgz:17747.got - 2010.06.03 13:58:18.
