data_PCOD9439859
_publ_section_title
;
Structure prediction by ZEFSAII (Michael W. Deem and Ramdas Pophale) SiO2 
 PCOD9439859
Probable space group: P B C M
;
_chemical_formula_sum "Si O2"
_cell_formula_units_Z 32
_cell_length_a 29.454963
_cell_length_b 4.658539
_cell_length_c 8.801924
_cell_angle_alpha 90.000000
_cell_angle_beta 90.000000
_cell_angle_gamma 90.000000
_cell_volume 1207.774432
_symmetry_space_group_name_H-M "P B C M"
_symmetry_group_IT_number 57
_symmetry_cell_setting 'orthorhombic'
loop_
_space_group_symop_operation_xyz
x,y,z
-x,-y,1/2+z
x,1/2-y,-z
-x,1/2+y,1/2-z
-x,-y,-z
x,y,1/2-z
-x,1/2+y,z
x,1/2-y,1/2+z
loop_
_atom_site_type_symbol
_atom_site_label
_atom_site_fract_x
_atom_site_fract_y
_atom_site_fract_z
Si Si1 0.030539 0.948173 0.250000
Si Si2 0.090056 0.250000 0.500000
Si Si3 0.851315 0.437016 0.750000
Si Si4 0.658047 0.500408 0.750000
Si Si5 0.469067 0.435668 0.750000
Si Si6 0.588614 0.250000 0.500000
Si Si7 0.272754 0.250000 0.000000
Si Si8 0.211494 0.066731 0.250000
O O1 0.058489 0.052190 0.394657
O O2 0.982437 0.116384 0.250000
O O3 0.120948 0.453714 0.395068
O O4 0.835457 0.109464 0.750000
O O5 0.803662 0.602027 0.750000
O O6 0.621071 0.413535 0.617563
O O7 0.695069 0.591038 0.618613
O O8 0.482924 0.105187 0.750000
O O9 0.441723 0.536625 0.602042
O O10 0.241361 0.037070 0.099731
#
# Coordination Sequence:
#
# PCOD9439859 Si02
#       8
#     4   4   4   4   4   4   4   4
#     4  11  24  43  69 102 140 186 238 295 360 430
#     4  10  25  44  70 102 142 190 240 300 360 430
#     4  11  26  46  69 103 144 188 244 296 362 434
#     4  10  24  46  67 106 145 192 247 307 372 444
#     4  11  24  44  72 108 148 196 248 305 370 445
#     4  10  24  42  71 106 150 196 246 308 375 442
#     4  10  25  46  75 108 148 192 248 308 375 448
#     4  11  26  47  75 107 143 192 241 305 372 443
#
# _framework density 26.495013
#
# number of rings (size 3 to 8) (size 9 to 14) (size 15 to 20)
#    0.000    1.500    0.000    2.250    0.000   22.000 
#    0.000    3.750    0.000    0.000    0.000    0.000 
#    0.000    0.000    0.000    0.000    0.000    0.000 
#
# Total GULP energy -178802.855621 kJ/mol
# GULP energy per Si atom -5587.589238 kJ/mol
# Density = 2.643471 g / cm^3
# Si number density = 26.495013 Si / 1000 Ang^3
#
#
#
# Elastic Constant Matrix: (Units=GPa)
#
#
# Indices 1 2 3 4 5 6 
#
# 1 152.6610 33.5503 94.3438 0.0000 0.0000 0.0000
# 2 33.5503 76.4893 38.4685 0.0000 0.0000 0.0000
# 3 94.3438 38.4685 250.3434 0.0000 0.0000 0.0000
# 4 0.0000 0.0000 0.0000 16.3323 0.0000 0.0000
# 5 0.0000 0.0000 0.0000 0.0000 92.0819 0.0000
# 6 0.0000 0.0000 0.0000 0.0000 0.0000 43.9655
#
#
#
# Elastic Compliance Matrix: (Units=1/GPa)
#
#
# Indices 1 2 3 4 5 6 
#
# 1 0.008932 -0.002411 -0.002995 0.000000 0.000000 0.000000
# 2 -0.002411 0.014820 -0.001369 0.000000 0.000000 0.000000
# 3 -0.002995 -0.001369 0.005334 0.000000 0.000000 0.000000
# 4 0.000000 0.000000 0.000000 0.061228 0.000000 0.000000
# 5 0.000000 0.000000 0.000000 0.000000 0.010860 0.000000
# 6 0.000000 0.000000 0.000000 0.000000 0.000000 0.022745
#
#
# Mechanical properties :
#
#
# Convention : Reuss Voigt Hill
#
# Bulk Modulus (GPa) = 64.37267 90.24655 77.30961
# Shear Modulus (GPa) = 35.05167 51.35135 43.20151
#
# Velocity S-wave (km/s) = 3.64119 4.40722 4.04239
# Velocity P-wave (km/s) = 6.48279 7.74815 7.14354
#
# Compressibility (1/GPa) = 0.01553454
#
# Stress axis : x y z
#
# Youngs Moduli (GPa) = 111.96326 67.47821 187.48875
#
# Poissons Ratio (x) = 0.16270 0.56160
# Poissons Ratio (y) = 0.26996 0.25659
# Poissons Ratio (z) = 0.33538 0.09235
#
# Static dielectric constant tensor:
#      x y z
#    x 1.996810 0.000000 0.000000 
#    y 0.000000 2.055280 0.000000 
#    z 0.000000 0.000000 1.992110 
# 
# From -- ./inp_files/9822.got.cif
#   From: 2010.05.17/outbox.cif.g08.bks.cpg/sg57_5_cif.got.tgz:9822.got - 2010.06.03 13:58:18.
