data_PCOD9439713
_publ_section_title
;
Structure prediction by ZEFSAII (Michael W. Deem and Ramdas Pophale) SiO2 
 PCOD9439713
Probable space group: P B C M
;
_chemical_formula_sum "Si O2"
_cell_formula_units_Z 64
_cell_length_a 13.614117
_cell_length_b 13.302335
_cell_length_c 17.199072
_cell_angle_alpha 90.000000
_cell_angle_beta 90.000000
_cell_angle_gamma 90.000000
_cell_volume 3114.744115
_symmetry_space_group_name_H-M "P B C M"
_symmetry_group_IT_number 57
_symmetry_cell_setting 'orthorhombic'
loop_
_space_group_symop_operation_xyz
x,y,z
-x,-y,1/2+z
x,1/2-y,-z
-x,1/2+y,1/2-z
-x,-y,-z
x,y,1/2-z
-x,1/2+y,z
x,1/2-y,1/2+z
loop_
_atom_site_type_symbol
_atom_site_label
_atom_site_fract_x
_atom_site_fract_y
_atom_site_fract_z
Si Si1 0.969019 0.881253 0.160719
Si Si2 0.878338 0.241940 0.414378
Si Si3 0.677135 0.216180 0.342160
Si Si4 0.025137 0.062087 0.078685
Si Si5 0.386135 0.560639 0.655052
Si Si6 0.253255 0.385325 0.917626
Si Si7 0.247467 0.340844 0.099912
Si Si8 0.397435 0.504417 0.342387
O O1 0.965387 0.849164 0.250000
O O2 0.868388 0.850475 0.118446
O O3 0.067021 0.838659 0.119851
O O4 0.980638 0.999878 0.150096
O O5 0.832217 0.250000 0.500000
O O6 0.792841 0.206875 0.357978
O O7 0.966701 0.164833 0.425623
O O8 0.658771 0.217767 0.250000
O O9 0.644037 0.326592 0.370489
O O10 0.626339 0.115551 0.375233
O O11 0.139338 0.083550 0.090376
O O12 0.000000 0.000000 0.000000
O O13 0.377570 0.555400 0.750000
O O14 0.318538 0.474269 0.617498
O O15 0.498192 0.538614 0.630828
O O16 0.274132 0.274997 0.881322
O O17 0.266121 0.366340 0.009616
O O18 0.310926 0.424472 0.143691
O O19 0.406502 0.516239 0.250000
#
# Coordination Sequence:
#
# PCOD9439713 Si02
#       8
#     8   8   8   8   8   8   8   8
#     4  12  25  40  63  97 133 172 221 270 319 386
#     4  12  23  40  64  92 130 179 217 260 329 390
#     4  10  23  42  63  96 133 166 221 278 327 397
#     4  12  23  41  67  92 134 180 217 265 322 394
#     4  10  24  44  68  97 131 170 219 281 339 397
#     4  11  24  42  67  97 132 175 222 271 333 393
#     4  11  23  43  65  95 135 173 218 275 329 398
#     4  10  23  43  69  95 128 175 219 273 342 399
#
# _framework density 20.547435
#
# number of rings (size 3 to 8) (size 9 to 14) (size 15 to 20)
#    0.000    1.000    3.750    2.250    1.750    5.000 
#    0.000    0.000    0.000    0.000    0.000    0.000 
#    0.000    0.000    0.000    0.000    0.000    0.000 
#
# Total GULP energy -357388.521913 kJ/mol
# GULP energy per Si atom -5584.195655 kJ/mol
# Density = 2.050067 g / cm^3
# Si number density = 20.547435 Si / 1000 Ang^3
#
#
#
# Elastic Constant Matrix: (Units=GPa)
#
#
# Indices 1 2 3 4 5 6 
#
# 1 97.7489 47.4379 -0.9638 0.0000 0.0000 0.0000
# 2 47.4379 123.1774 18.6303 0.0000 0.0000 0.0000
# 3 -0.9638 18.6303 34.0915 0.0000 0.0000 0.0000
# 4 0.0000 0.0000 0.0000 29.5225 0.0000 0.0000
# 5 0.0000 0.0000 0.0000 0.0000 -383.8167 0.0000
# 6 0.0000 0.0000 0.0000 0.0000 0.0000 25.2835
#
#
#
# Elastic Compliance Matrix: (Units=1/GPa)
#
#
# Indices 1 2 3 4 5 6 
#
# 1 0.012926 -0.005487 0.003364 0.000000 0.000000 0.000000
# 2 -0.005487 0.011179 -0.006264 0.000000 0.000000 0.000000
# 3 0.003364 -0.006264 0.032851 0.000000 0.000000 0.000000
# 4 0.000000 0.000000 0.000000 0.033872 0.000000 0.000000
# 5 0.000000 0.000000 0.000000 0.000000 -0.002605 0.000000
# 6 0.000000 0.000000 0.000000 0.000000 0.000000 0.039552
#
#
# Mechanical properties :
#
#
# Convention : Reuss Voigt Hill
#
# Bulk Modulus (GPa) = 24.88676 42.80295 33.84486
# Shear Modulus (GPa) = 31.65693 -53.14124 -10.74216
#
# Velocity S-wave (km/s) = 3.92940 -5.09106 -2.28896
# Velocity P-wave (km/s) = 5.72058 3.69891 3.08570
#
# Compressibility (1/GPa) = 0.04018200
#
# Stress axis : x y z
#
# Youngs Moduli (GPa) = 77.36167 89.45396 30.44036
#
# Poissons Ratio (x) = 0.49083 -0.10240
# Poissons Ratio (y) = 0.42448 0.19068
# Poissons Ratio (z) = -0.26024 0.56036
#
# Static dielectric constant tensor:
#      x y z
#    x 1.707040 0.000000 0.000000 
#    y 0.000000 1.850610 0.000000 
#    z 0.000000 0.000000 1.829600 
# 
# From -- ./inp_files/22699.got.cif
#   From: 2010.05.17/outbox.cif.g08.bks.cpg/sg57_12_cif.got.tgz:22699.got - 2010.06.03 13:58:18.
