data_PCOD9439810
_publ_section_title
;
Structure prediction by ZEFSAII (Michael W. Deem and Ramdas Pophale) SiO2 
 PCOD9439810
Probable space group: P B C M
;
_chemical_formula_sum "Si O2"
_cell_formula_units_Z 48
_cell_length_a 4.866167
_cell_length_b 14.558083
_cell_length_c 26.405030
_cell_angle_alpha 90.000000
_cell_angle_beta 90.000000
_cell_angle_gamma 90.000000
_cell_volume 1870.586801
_symmetry_space_group_name_H-M "P B C M"
_symmetry_group_IT_number 57
_symmetry_cell_setting 'orthorhombic'
loop_
_space_group_symop_operation_xyz
x,y,z
-x,-y,1/2+z
x,1/2-y,-z
-x,1/2+y,1/2-z
-x,-y,-z
x,y,1/2-z
-x,1/2+y,z
x,1/2-y,1/2+z
loop_
_atom_site_type_symbol
_atom_site_label
_atom_site_fract_x
_atom_site_fract_y
_atom_site_fract_z
Si Si1 0.631144 0.548838 0.950799
Si Si2 0.892245 0.831243 0.523108
Si Si3 0.494719 0.389078 0.889157
Si Si4 0.852718 0.649096 0.691511
Si Si5 0.350311 0.523949 0.695191
Si Si6 0.235949 0.707385 0.902116
O O1 0.702572 0.464842 0.913573
O O2 0.422360 0.621659 0.923214
O O3 0.500000 0.500000 0.000000
O O4 0.895728 0.599882 0.975255
O O5 0.702517 0.750000 0.500000
O O6 0.735054 0.878613 0.568286
O O7 0.123744 0.769642 0.550323
O O8 0.377943 0.441288 0.842052
O O9 0.588497 0.287776 0.875561
O O10 0.869981 0.691522 0.750000
O O11 0.041482 0.558833 0.695889
O O12 0.990324 0.688620 0.639092
O O13 0.543579 0.612489 0.683698
O O14 0.440422 0.492603 0.750000
#
# Coordination Sequence:
#
# PCOD9439810 Si02
#       6
#     8   8   8   8   8   8
#     4  10  24  47  65  96 146 187 248 304 372 443
#     4  11  26  43  65  98 143 187 244 305 366 444
#     4  11  25  45  71 104 141 192 249 307 374 449
#     4  10  24  47  76 109 146 193 245 313 382 450
#     4  10  23  46  75 107 147 190 244 308 385 455
#     4  12  26  43  74 103 146 197 256 317 378 460
#
# _framework density 25.660395000000001
#
# number of rings (size 3 to 8) (size 9 to 14) (size 15 to 20)
#    0.000    1.333    3.333    0.000   11.667    1.333 
#    0.000    0.833    0.000    0.000    0.000    0.000 
#    0.000    0.000    0.000    0.000    0.000    0.000 
#
# Total GULP energy -267667.243264 kJ/mol
# GULP energy per Si atom -5576.400901 kJ/mol
# Density = 2.560199 g / cm^3
# Si number density = 25.660395 Si / 1000 Ang^3
#
#
#
# Elastic Constant Matrix: (Units=GPa)
#
#
# Indices 1 2 3 4 5 6 
#
# 1 51.9897 16.8337 7.3418 0.0000 0.0000 0.0000
# 2 16.8337 135.0931 43.0233 0.0000 0.0000 0.0000
# 3 7.3418 43.0233 157.3202 0.0000 0.0000 0.0000
# 4 0.0000 0.0000 0.0000 46.1118 0.0000 0.0000
# 5 0.0000 0.0000 0.0000 0.0000 22.2731 0.0000
# 6 0.0000 0.0000 0.0000 0.0000 0.0000 16.7085
#
#
#
# Elastic Compliance Matrix: (Units=1/GPa)
#
#
# Indices 1 2 3 4 5 6 
#
# 1 0.020054 -0.002411 -0.000277 0.000000 0.000000 0.000000
# 2 -0.002411 0.008398 -0.002184 0.000000 0.000000 0.000000
# 3 -0.000277 -0.002184 0.006967 0.000000 0.000000 0.000000
# 4 0.000000 0.000000 0.000000 0.021686 0.000000 0.000000
# 5 0.000000 0.000000 0.000000 0.000000 0.044897 0.000000
# 6 0.000000 0.000000 0.000000 0.000000 0.000000 0.059850
#
#
# Mechanical properties :
#
#
# Convention : Reuss Voigt Hill
#
# Bulk Modulus (GPa) = 38.94694 53.20006 46.07350
# Shear Modulus (GPa) = 27.75394 35.49896 31.62645
#
# Velocity S-wave (km/s) = 3.29232 3.72346 3.51451
# Velocity P-wave (km/s) = 5.44640 6.26601 5.87053
#
# Compressibility (1/GPa) = 0.02567596
#
# Stress axis : x y z
#
# Youngs Moduli (GPa) = 49.86479 119.07134 143.53984
#
# Poissons Ratio (x) = 0.28706 0.03970
# Poissons Ratio (y) = 0.12022 0.31352
# Poissons Ratio (z) = 0.01379 0.26008
#
# Static dielectric constant tensor:
#      x y z
#    x 2.092790 0.000000 0.000000 
#    y 0.000000 2.111980 0.000000 
#    z 0.000000 0.000000 2.175870 
# 
# From -- ./inp_files/27950.got.cif
#   From: 2010.05.17/outbox.cif.g08.bks.cpg/sg57_14_cif.got.tgz:27950.got - 2010.06.03 13:58:18.
