data_PCOD9439798
_publ_section_title
;
Structure prediction by ZEFSAII (Michael W. Deem and Ramdas Pophale) SiO2 
 PCOD9439798
Probable space group: P B C M
;
_chemical_formula_sum "Si O2"
_cell_formula_units_Z 32
_cell_length_a 10.900262
_cell_length_b 4.994757
_cell_length_c 21.355274
_cell_angle_alpha 90.000000
_cell_angle_beta 90.000000
_cell_angle_gamma 90.000000
_cell_volume 1162.669953
_symmetry_space_group_name_H-M "P B C M"
_symmetry_group_IT_number 57
_symmetry_cell_setting 'orthorhombic'
loop_
_space_group_symop_operation_xyz
x,y,z
-x,-y,1/2+z
x,1/2-y,-z
-x,1/2+y,1/2-z
-x,-y,-z
x,y,1/2-z
-x,1/2+y,z
x,1/2-y,1/2+z
loop_
_atom_site_type_symbol
_atom_site_label
_atom_site_fract_x
_atom_site_fract_y
_atom_site_fract_z
Si Si1 0.246671 0.140190 0.856804
Si Si2 0.555540 0.563931 0.069829
Si Si3 0.425495 0.939295 0.750000
Si Si4 0.916695 0.895417 0.750000
Si Si5 0.915170 0.233311 0.569840
O O1 0.314123 0.306209 0.913088
O O2 0.347608 0.037112 0.808686
O O3 0.159635 0.319929 0.811948
O O4 0.175373 0.883555 0.883636
O O5 0.458819 0.772646 0.097978
O O6 0.500000 0.500000 0.000000
O O7 0.452422 0.623786 0.750000
O O8 0.965002 0.197861 0.750000
O O9 0.860470 0.250000 0.500000
O O10 0.033939 0.432044 0.573891
#
# Coordination Sequence:
#
# PCOD9439798 Si02
#       5
#     8   8   4   4   8
#     4  11  24  44  79 106 151 206 249 319 393 455
#     4  10  23  45  66 101 147 194 254 311 366 454
#     4  11  26  45  72 108 150 195 255 318 382 452
#     4  11  26  45  72 120 150 193 261 320 392 470
#     4  10  23  45  69 105 147 192 248 308 370 457
#
# _framework density 27.522859
#
# number of rings (size 3 to 8) (size 9 to 14) (size 15 to 20)
#    0.000    1.500    0.000    3.000    0.000   10.000 
#   22.500    0.000    0.000    0.000    0.000    0.000 
#    0.000    0.000    0.000    0.000    0.000    0.000 
#
# Total GULP energy -179184.529674 kJ/mol
# GULP energy per Si atom -5599.516552 kJ/mol
# Density = 2.746022 g / cm^3
# Si number density = 27.522859 Si / 1000 Ang^3
#
#
#
# Elastic Constant Matrix: (Units=GPa)
#
#
# Indices 1 2 3 4 5 6 
#
# 1 88.3067 2.7539 59.3953 0.0000 0.0000 0.0000
# 2 2.7539 151.0559 22.6593 0.0000 0.0000 0.0000
# 3 59.3953 22.6593 177.9773 0.0000 0.0000 0.0000
# 4 0.0000 0.0000 0.0000 45.1077 0.0000 0.0000
# 5 0.0000 0.0000 0.0000 0.0000 51.2241 0.0000
# 6 0.0000 0.0000 0.0000 0.0000 0.0000 44.9176
#
#
#
# Elastic Compliance Matrix: (Units=1/GPa)
#
#
# Indices 1 2 3 4 5 6 
#
# 1 0.014635 0.000475 -0.004945 0.000000 0.000000 0.000000
# 2 0.000475 0.006764 -0.001020 0.000000 0.000000 0.000000
# 3 -0.004945 -0.001020 0.007399 0.000000 0.000000 0.000000
# 4 0.000000 0.000000 0.000000 0.022169 0.000000 0.000000
# 5 0.000000 0.000000 0.000000 0.000000 0.019522 0.000000
# 6 0.000000 0.000000 0.000000 0.000000 0.000000 0.022263
#
#
# Mechanical properties :
#
#
# Convention : Reuss Voigt Hill
#
# Bulk Modulus (GPa) = 56.11864 65.21743 60.66803
# Shear Modulus (GPa) = 45.59101 50.41863 48.00482
#
# Velocity S-wave (km/s) = 4.07440 4.28469 4.18087
# Velocity P-wave (km/s) = 6.52445 6.94444 6.73772
#
# Compressibility (1/GPa) = 0.01781939
#
# Stress axis : x y z
#
# Youngs Moduli (GPa) = 68.32908 147.83348 135.16022
#
# Poissons Ratio (x) = -0.07020 0.66830
# Poissons Ratio (y) = -0.03245 0.13782
# Poissons Ratio (z) = 0.33786 0.15074
#
# Static dielectric constant tensor:
#      x y z
#    x 2.190730 0.000000 0.000000 
#    y 0.000000 1.621610 0.000000 
#    z 0.000000 0.000000 1.785150 
# 
# From -- ./inp_files/24794.got.cif
#   From: 2010.05.17/outbox.cif.g08.bks.cpg/sg57_13_cif.got.tgz:24794.got - 2010.06.03 13:58:18.
