data_PCOD9439348
_publ_section_title
;
Structure prediction by ZEFSAII (Michael W. Deem and Ramdas Pophale) SiO2 
 PCOD9439348
Probable space group: P B C M
;
_chemical_formula_sum "Si O2"
_cell_formula_units_Z 56
_cell_length_a 13.267818
_cell_length_b 11.432190
_cell_length_c 17.551325
_cell_angle_alpha 90.000000
_cell_angle_beta 90.000000
_cell_angle_gamma 90.000000
_cell_volume 2662.188772
_symmetry_space_group_name_H-M "P B C M"
_symmetry_group_IT_number 57
_symmetry_cell_setting 'orthorhombic'
loop_
_space_group_symop_operation_xyz
x,y,z
-x,-y,1/2+z
x,1/2-y,-z
-x,1/2+y,1/2-z
-x,-y,-z
x,y,1/2-z
-x,1/2+y,z
x,1/2-y,1/2+z
loop_
_atom_site_type_symbol
_atom_site_label
_atom_site_fract_x
_atom_site_fract_y
_atom_site_fract_z
Si Si1 0.620955 0.870204 0.537833
Si Si2 0.100845 0.050689 0.539544
Si Si3 0.166626 0.866730 0.836371
Si Si4 0.047358 0.238786 0.833181
Si Si5 0.204842 0.424515 0.620810
Si Si6 0.605012 0.125634 0.990203
Si Si7 0.310830 0.848029 0.336313
O O1 0.654845 0.750000 0.500000
O O2 0.680975 0.875921 0.617103
O O3 0.499502 0.864561 0.535530
O O4 0.642477 0.994104 0.494943
O O5 0.072076 0.156519 0.595624
O O6 0.167139 0.082785 0.466475
O O7 0.154681 0.957830 0.595260
O O8 0.000000 0.000000 0.500000
O O9 0.170624 0.917087 0.750000
O O10 0.261378 0.779900 0.844169
O O11 0.064570 0.790002 0.840269
O O12 0.054808 0.179383 0.750000
O O13 0.125731 0.346838 0.834600
O O14 0.221144 0.557849 0.646677
O O15 0.602015 0.126223 0.897680
O O16 0.662208 0.250000 0.000000
O O17 0.344477 0.863857 0.250000
#
# Coordination Sequence:
#
# PCOD9439348 Si02
#       7
#     8   8   8   8   8   8   8
#     4   9  18  35  58  87 117 147 192 252 315 363
#     4  12  23  36  57  86 121 156 209 252 293 353
#     4  10  23  38  55  81 122 163 199 247 306 356
#     4  11  23  39  56  80 122 165 202 247 307 360
#     4  11  22  36  61  88 117 156 206 255 296 364
#     4   9  19  35  61  89 115 151 199 256 311 367
#     4  10  22  39  60  87 119 160 205 246 305 376
#
# _framework density 21.035322000000001
#
# number of rings (size 3 to 8) (size 9 to 14) (size 15 to 20)
#    0.000    1.714    1.429    3.000    4.000    1.143 
#    0.000    0.000    0.000   30.000    0.000    0.000 
#    0.000    0.000    0.000    0.000    0.000    0.000 
#
# Total GULP energy -311881.288106 kJ/mol
# GULP energy per Si atom -5569.308716 kJ/mol
# Density = 2.098745 g / cm^3
# Si number density = 21.035322 Si / 1000 Ang^3
#
#
#
# Elastic Constant Matrix: (Units=GPa)
#
#
# Indices 1 2 3 4 5 6 
#
# 1 65.0497 -12.9760 12.0254 0.0000 0.0000 0.0000
# 2 -12.9760 99.3947 11.5480 0.0000 0.0000 0.0000
# 3 12.0254 11.5480 132.4587 0.0000 0.0000 0.0000
# 4 0.0000 0.0000 0.0000 34.6971 0.0000 0.0000
# 5 0.0000 0.0000 0.0000 0.0000 14.0011 0.0000
# 6 0.0000 0.0000 0.0000 0.0000 0.0000 18.8789
#
#
#
# Elastic Compliance Matrix: (Units=1/GPa)
#
#
# Indices 1 2 3 4 5 6 
#
# 1 0.016140 0.002301 -0.001666 0.000000 0.000000 0.000000
# 2 0.002301 0.010492 -0.001124 0.000000 0.000000 0.000000
# 3 -0.001666 -0.001124 0.007799 0.000000 0.000000 0.000000
# 4 0.000000 0.000000 0.000000 0.028821 0.000000 0.000000
# 5 0.000000 0.000000 0.000000 0.000000 0.071423 0.000000
# 6 0.000000 0.000000 0.000000 0.000000 0.000000 0.052969
#
#
# Mechanical properties :
#
#
# Convention : Reuss Voigt Hill
#
# Bulk Modulus (GPa) = 29.89302 35.34420 32.61861
# Shear Modulus (GPa) = 25.02859 32.60247 28.81553
#
# Velocity S-wave (km/s) = 3.45314 3.94114 3.70518
# Velocity P-wave (km/s) = 5.49005 6.12771 5.81762
#
# Compressibility (1/GPa) = 0.03345262
#
# Stress axis : x y z
#
# Youngs Moduli (GPa) = 61.95893 95.31273 128.22629
#
# Poissons Ratio (x) = -0.21927 0.21360
# Poissons Ratio (y) = -0.14254 0.14407
# Poissons Ratio (z) = 0.10321 0.10709
#
# Static dielectric constant tensor:
#      x y z
#    x 1.809510 0.000000 0.000000 
#    y 0.000000 1.810010 0.000000 
#    z 0.000000 0.000000 1.764520 
# 
# From -- ./inp_files/18537.got.cif
#   From: 2010.05.17/outbox.cif.g08.bks.cpg/sg57_10_cif.got.tgz:18537.got - 2010.06.03 13:58:18.
