data_PCOD9439112
_publ_section_title
;
Structure prediction by ZEFSAII (Michael W. Deem and Ramdas Pophale) SiO2 
 PCOD9439112
Probable space group: P B C M
;
_chemical_formula_sum "Si O2"
_cell_formula_units_Z 48
_cell_length_a 14.577612
_cell_length_b 9.586030
_cell_length_c 15.168956
_cell_angle_alpha 90.000000
_cell_angle_beta 90.000000
_cell_angle_gamma 90.000000
_cell_volume 2119.731542
_symmetry_space_group_name_H-M "P B C M"
_symmetry_group_IT_number 57
_symmetry_cell_setting 'orthorhombic'
loop_
_space_group_symop_operation_xyz
x,y,z
-x,-y,1/2+z
x,1/2-y,-z
-x,1/2+y,1/2-z
-x,-y,-z
x,y,1/2-z
-x,1/2+y,z
x,1/2-y,1/2+z
loop_
_atom_site_type_symbol
_atom_site_label
_atom_site_fract_x
_atom_site_fract_y
_atom_site_fract_z
Si Si1 0.774652 0.358349 0.583831
Si Si2 0.136595 0.162995 0.908992
Si Si3 0.201292 0.060898 0.350537
Si Si4 0.928267 0.173041 0.595697
Si Si5 0.595162 0.495797 0.357978
Si Si6 0.572214 0.181397 0.143921
O O1 0.764156 0.250000 0.500000
O O2 0.817136 0.513149 0.577989
O O3 0.851943 0.273213 0.639899
O O4 0.672655 0.374271 0.620144
O O5 0.190276 0.273169 0.849360
O O6 0.032150 0.153391 0.873771
O O7 0.136335 0.250000 0.000000
O O8 0.196967 0.009538 0.250000
O O9 0.301544 0.026777 0.388593
O O10 0.120180 0.978087 0.400600
O O11 0.939205 0.250000 0.500000
O O12 0.598051 0.501873 0.250000
O O13 0.515643 0.597946 0.389444
O O14 0.569520 0.340769 0.385611
O O15 0.566457 0.180497 0.250000
#
# Coordination Sequence:
#
# PCOD9439112 Si02
#       6
#     8   8   8   8   8   8
#     4  11  23  39  63  92 126 162 212 268 317 369
#     4  11  24  41  64  94 127 178 223 256 311 398
#     4  11  23  41  65  97 133 165 211 278 328 367
#     4  10  21  42  68  90 126 174 219 258 321 396
#     4   9  20  38  62  89 121 163 210 257 317 387
#     4  10  21  40  65  89 119 164 211 257 318 391
#
# _framework density 22.644376999999999
#
# number of rings (size 3 to 8) (size 9 to 14) (size 15 to 20)
#    0.000    1.667    1.667    3.000    2.333    6.000 
#    0.000    3.333    0.000    1.000    0.000    0.000 
#    0.000    0.000    0.000    0.000    0.000    0.000 
#
# Total GULP energy -267705.087703 kJ/mol
# GULP energy per Si atom -5577.189327 kJ/mol
# Density = 2.259284 g / cm^3
# Si number density = 22.644377 Si / 1000 Ang^3
#
#
#
# Elastic Constant Matrix: (Units=GPa)
#
#
# Indices 1 2 3 4 5 6 
#
# 1 167.6790 96.2265 14.9300 0.0000 0.0000 0.0000
# 2 96.2265 197.4737 22.4344 0.0000 0.0000 0.0000
# 3 14.9300 22.4344 34.8623 0.0000 0.0000 0.0000
# 4 0.0000 0.0000 0.0000 21.1317 0.0000 0.0000
# 5 0.0000 0.0000 0.0000 0.0000 37.5431 0.0000
# 6 0.0000 0.0000 0.0000 0.0000 0.0000 47.8817
#
#
#
# Elastic Compliance Matrix: (Units=1/GPa)
#
#
# Indices 1 2 3 4 5 6 
#
# 1 0.008313 -0.003934 -0.001029 0.000000 0.000000 0.000000
# 2 -0.003934 0.007325 -0.003029 0.000000 0.000000 0.000000
# 3 -0.001029 -0.003029 0.031074 0.000000 0.000000 0.000000
# 4 0.000000 0.000000 0.000000 0.047322 0.000000 0.000000
# 5 0.000000 0.000000 0.000000 0.000000 0.026636 0.000000
# 6 0.000000 0.000000 0.000000 0.000000 0.000000 0.020885
#
#
# Mechanical properties :
#
#
# Convention : Reuss Voigt Hill
#
# Bulk Modulus (GPa) = 32.54255 74.13296 53.33776
# Shear Modulus (GPa) = 29.80075 39.07292 34.43683
#
# Velocity S-wave (km/s) = 3.63165 4.15842 3.90393
# Velocity P-wave (km/s) = 5.65575 7.47433 6.62771
#
# Compressibility (1/GPa) = 0.03072900
#
# Stress axis : x y z
#
# Youngs Moduli (GPa) = 120.29434 136.51788 32.18123
#
# Poissons Ratio (x) = 0.53705 0.03310
# Poissons Ratio (y) = 0.47323 0.09748
# Poissons Ratio (z) = 0.12373 0.41352
#
# Static dielectric constant tensor:
#      x y z
#    x 1.831590 0.000000 0.000000 
#    y 0.000000 1.829740 0.000000 
#    z 0.000000 0.000000 2.001690 
# 
# From -- ./inp_files/25263.got.cif
#   From: 2010.05.17/outbox.cif.g08.bks.cpg/sg57_13_cif.got.tgz:25263.got - 2010.06.03 13:58:18.
