data_PCOD9439567
_publ_section_title
;
Structure prediction by ZEFSAII (Michael W. Deem and Ramdas Pophale) SiO2 
 PCOD9439567
Probable space group: P B C M
;
_chemical_formula_sum "Si O2"
_cell_formula_units_Z 56
_cell_length_a 14.683796
_cell_length_b 8.592675
_cell_length_c 20.990776
_cell_angle_alpha 90.000000
_cell_angle_beta 90.000000
_cell_angle_gamma 90.000000
_cell_volume 2648.471002
_symmetry_space_group_name_H-M "P B C M"
_symmetry_group_IT_number 57
_symmetry_cell_setting 'orthorhombic'
loop_
_space_group_symop_operation_xyz
x,y,z
-x,-y,1/2+z
x,1/2-y,-z
-x,1/2+y,1/2-z
-x,-y,-z
x,y,1/2-z
-x,1/2+y,z
x,1/2-y,1/2+z
loop_
_atom_site_type_symbol
_atom_site_label
_atom_site_fract_x
_atom_site_fract_y
_atom_site_fract_z
Si Si1 0.388712 0.423835 0.673070
Si Si2 0.799492 0.092826 0.119642
Si Si3 0.193418 0.955572 0.127082
Si Si4 0.914803 0.061643 0.750000
Si Si5 0.897825 0.566796 0.500795
Si Si6 0.621366 0.142333 0.446237
Si Si7 0.883617 0.063400 0.250000
Si Si8 0.535925 0.635429 0.896679
O O1 0.384333 0.421083 0.750000
O O2 0.298274 0.506439 0.644432
O O3 0.398863 0.250888 0.642941
O O4 0.477761 0.520857 0.649500
O O5 0.828177 0.272951 0.118914
O O6 0.691927 0.108368 0.109976
O O7 0.828533 0.023008 0.186655
O O8 0.844834 0.000127 0.061932
O O9 0.133335 0.007136 0.187410
O O10 0.160776 0.028053 0.061590
O O11 0.899535 0.248773 0.750000
O O12 0.020105 0.020895 0.750000
O O13 0.906742 0.750000 0.500000
O O14 0.000000 0.500000 0.500000
O O15 0.669833 0.250000 0.500000
O O16 0.539096 0.253308 0.427563
O O17 0.581970 0.967895 0.452835
#
# Coordination Sequence:
#
# PCOD9439567 Si02
#       8
#     8   8   8   4   8   8   4   8
#     4  11  22  43  65 102 144 189 234 284 348 410
#     4  11  24  44  70 100 136 180 224 286 346 416
#     4  11  22  42  70  99 139 181 228 284 343 418
#     4  10  22  42  68  97 131 172 220 279 345 408
#     4  12  27  46  69  99 134 179 230 288 355 424
#     4  11  22  43  66  98 136 178 231 286 350 411
#     4  10  24  44  68 101 131 174 226 277 351 420
#     4  10  24  40  65  99 135 187 234 287 340 413
#
# _framework density 21.144276000000001
#
# number of rings (size 3 to 8) (size 9 to 14) (size 15 to 20)
#    0.000    1.143    2.143    3.857    2.000    3.429 
#    6.429    0.000    0.000    0.000    0.000    0.000 
#    0.000    0.000    0.000    0.000    0.000    0.000 
#
# Total GULP energy -312734.868805 kJ/mol
# GULP energy per Si atom -5584.551229 kJ/mol
# Density = 2.109615 g / cm^3
# Si number density = 21.144276 Si / 1000 Ang^3
#
#
#
# Elastic Constant Matrix: (Units=GPa)
#
#
# Indices 1 2 3 4 5 6 
#
# 1 77.2368 22.1558 47.3873 0.0000 0.0000 0.0000
# 2 22.1558 110.9707 47.8229 0.0000 0.0000 0.0000
# 3 47.3873 47.8229 147.4333 0.0000 0.0000 0.0000
# 4 0.0000 0.0000 0.0000 -0.6843 0.0000 0.0000
# 5 0.0000 0.0000 0.0000 0.0000 138.4057 0.0000
# 6 0.0000 0.0000 0.0000 0.0000 0.0000 37.0737
#
#
#
# Elastic Compliance Matrix: (Units=1/GPa)
#
#
# Indices 1 2 3 4 5 6 
#
# 1 0.016254 -0.001155 -0.004850 0.000000 0.000000 0.000000
# 2 -0.001155 0.010558 -0.003053 0.000000 0.000000 0.000000
# 3 -0.004850 -0.003053 0.009332 0.000000 0.000000 0.000000
# 4 0.000000 0.000000 0.000000 -1.461386 0.000000 0.000000
# 5 0.000000 0.000000 0.000000 0.000000 0.007225 0.000000
# 6 0.000000 0.000000 0.000000 0.000000 0.000000 0.026973
#
#
# Mechanical properties :
#
#
# Convention : Reuss Voigt Hill
#
# Bulk Modulus (GPa) = 55.47109 63.37475 59.42292
# Shear Modulus (GPa) = -3.65786 49.51069 22.92641
#
# Velocity S-wave (km/s) = -1.31670 4.84422 3.29642
# Velocity P-wave (km/s) = 4.89693 7.83111 6.53093
#
# Compressibility (1/GPa) = 0.01802741
#
# Stress axis : x y z
#
# Youngs Moduli (GPa) = 61.52353 94.71601 107.15991
#
# Poissons Ratio (x) = 0.10942 0.51968
# Poissons Ratio (y) = 0.07108 0.32719
# Poissons Ratio (z) = 0.29836 0.28920
#
# Static dielectric constant tensor:
#      x y z
#    x 1.763970 0.000000 0.000000 
#    y 0.000000 1.815240 0.000000 
#    z 0.000000 0.000000 1.791720 
# 
# From -- ./inp_files/25472.got.cif
#   From: 2010.05.17/outbox.cif.g08.bks.cpg/sg57_13_cif.got.tgz:25472.got - 2010.06.03 13:58:18.
