data_PCOD9439522
_publ_section_title
;
Structure prediction by ZEFSAII (Michael W. Deem and Ramdas Pophale) SiO2 
 PCOD9439522
Probable space group: P B C M
;
_chemical_formula_sum "Si O2"
_cell_formula_units_Z 48
_cell_length_a 15.825248
_cell_length_b 8.672442
_cell_length_c 17.138015
_cell_angle_alpha 90.000000
_cell_angle_beta 90.000000
_cell_angle_gamma 90.000000
_cell_volume 2352.081940
_symmetry_space_group_name_H-M "P B C M"
_symmetry_group_IT_number 57
_symmetry_cell_setting 'orthorhombic'
loop_
_space_group_symop_operation_xyz
x,y,z
-x,-y,1/2+z
x,1/2-y,-z
-x,1/2+y,1/2-z
-x,-y,-z
x,y,1/2-z
-x,1/2+y,z
x,1/2-y,1/2+z
loop_
_atom_site_type_symbol
_atom_site_label
_atom_site_fract_x
_atom_site_fract_y
_atom_site_fract_z
Si Si1 0.034250 0.382677 0.061601
Si Si2 0.347340 0.392927 0.163743
Si Si3 0.861855 0.097519 0.656254
Si Si4 0.267462 0.373469 0.933031
Si Si5 0.168393 0.941412 0.836241
Si Si6 0.409401 0.930032 0.520594
O O1 0.111046 0.460091 0.106500
O O2 0.956245 0.367215 0.122862
O O3 0.055947 0.250000 0.000000
O O4 0.000000 0.500000 0.000000
O O5 0.383904 0.375343 0.250000
O O6 0.326064 0.227787 0.125168
O O7 0.256104 0.472533 0.169078
O O8 0.397566 0.510355 0.108998
O O9 0.863593 0.065521 0.750000
O O10 0.817652 0.263224 0.641579
O O11 0.809433 0.963156 0.610845
O O12 0.241166 0.250000 0.000000
O O13 0.330243 0.494102 0.974676
O O14 0.127425 0.938198 0.750000
O O15 0.409667 0.750000 0.500000
O O16 0.500000 0.000000 0.500000
#
# Coordination Sequence:
#
# PCOD9439522 Si02
#       6
#     8   8   8   8   8   8
#     4  12  26  39  60  89 125 165 219 267 322 377
#     4  10  22  41  67  96 129 166 213 262 317 380
#     4  11  24  43  64  88 124 170 216 265 323 383
#     4  10  23  39  67  95 130 164 213 260 320 381
#     4  10  23  43  62  88 123 166 215 269 321 376
#     4  11  23  43  69  97 131 168 206 256 316 377
#
# _framework density 20.407450999999998
#
# number of rings (size 3 to 8) (size 9 to 14) (size 15 to 20)
#    0.000    1.333    1.667    3.500    7.000    0.667 
#    0.000    5.000    0.000    0.000    0.000    0.000 
#    0.000    0.000    0.000    0.000    0.000    0.000 
#
# Total GULP energy -267702.206987 kJ/mol
# GULP energy per Si atom -5577.129312 kJ/mol
# Density = 2.036100 g / cm^3
# Si number density = 20.407451 Si / 1000 Ang^3
#
#
#
# Elastic Constant Matrix: (Units=GPa)
#
#
# Indices 1 2 3 4 5 6 
#
# 1 76.2909 33.3332 44.7806 0.0000 0.0000 0.0000
# 2 33.3332 156.5891 71.8663 0.0000 0.0000 0.0000
# 3 44.7806 71.8663 153.3483 0.0000 0.0000 0.0000
# 4 0.0000 0.0000 0.0000 33.0229 0.0000 0.0000
# 5 0.0000 0.0000 0.0000 0.0000 17.9215 0.0000
# 6 0.0000 0.0000 0.0000 0.0000 0.0000 28.0548
#
#
#
# Elastic Compliance Matrix: (Units=1/GPa)
#
#
# Indices 1 2 3 4 5 6 
#
# 1 0.016136 -0.001621 -0.003952 0.000000 0.000000 0.000000
# 2 -0.001621 0.008299 -0.003416 0.000000 0.000000 0.000000
# 3 -0.003952 -0.003416 0.009276 0.000000 0.000000 0.000000
# 4 0.000000 0.000000 0.000000 0.030282 0.000000 0.000000
# 5 0.000000 0.000000 0.000000 0.000000 0.055799 0.000000
# 6 0.000000 0.000000 0.000000 0.000000 0.000000 0.035644
#
#
# Mechanical properties :
#
#
# Convention : Reuss Voigt Hill
#
# Bulk Modulus (GPa) = 63.56260 76.24318 69.90289
# Shear Modulus (GPa) = 27.98630 31.54972 29.76801
#
# Velocity S-wave (km/s) = 3.70723 3.93617 3.82341
# Velocity P-wave (km/s) = 7.03840 7.62230 7.33616
#
# Compressibility (1/GPa) = 0.01573252
#
# Stress axis : x y z
#
# Youngs Moduli (GPa) = 61.97379 120.49751 107.80370
#
# Poissons Ratio (x) = 0.19532 0.42607
# Poissons Ratio (y) = 0.10046 0.36825
# Poissons Ratio (z) = 0.24494 0.41161
#
# Static dielectric constant tensor:
#      x y z
#    x 1.743710 0.000000 0.000000 
#    y 0.000000 1.701570 0.000000 
#    z 0.000000 0.000000 1.769100 
# 
# From -- ./inp_files/22485.got.cif
#   From: 2010.05.17/outbox.cif.g08.bks.cpg/sg57_12_cif.got.tgz:22485.got - 2010.06.03 13:58:18.
