data_PCOD9439199
_publ_section_title
;
Structure prediction by ZEFSAII (Michael W. Deem and Ramdas Pophale) SiO2 
 PCOD9439199
Probable space group: P B C M
;
_chemical_formula_sum "Si O2"
_cell_formula_units_Z 32
_cell_length_a 19.881203
_cell_length_b 4.970073
_cell_length_c 14.459189
_cell_angle_alpha 90.000000
_cell_angle_beta 90.000000
_cell_angle_gamma 90.000000
_cell_volume 1428.727361
_symmetry_space_group_name_H-M "P B C M"
_symmetry_group_IT_number 57
_symmetry_cell_setting 'orthorhombic'
loop_
_space_group_symop_operation_xyz
x,y,z
-x,-y,1/2+z
x,1/2-y,-z
-x,1/2+y,1/2-z
-x,-y,-z
x,y,1/2-z
-x,1/2+y,z
x,1/2-y,1/2+z
loop_
_atom_site_type_symbol
_atom_site_label
_atom_site_fract_x
_atom_site_fract_y
_atom_site_fract_z
Si Si1 0.243289 0.291735 0.141249
Si Si2 0.040350 0.840780 0.250000
Si Si3 0.889115 0.518621 0.060479
Si Si4 0.549339 0.250000 0.000000
Si Si5 0.331641 0.722029 0.858641
O O1 0.226137 0.319955 0.250000
O O2 0.179209 0.168845 0.091351
O O3 0.273295 0.573999 0.107412
O O4 0.303456 0.077824 0.132025
O O5 0.076877 0.927787 0.343965
O O6 0.972754 0.022388 0.250000
O O7 0.927036 0.750000 0.000000
O O8 0.879331 0.250000 0.000000
O O9 0.599969 0.257661 0.913476
O O10 0.500000 0.500000 0.000000
O O11 0.341153 0.780203 0.750000
#
# Coordination Sequence:
#
# PCOD9439199 Si02
#       5
#     8   4   8   4   8
#     4  10  21  42  66  98 136 165 218 282 347 401
#     4  12  28  50  72  98 148 192 232 284 334 416
#     4  12  26  43  71 107 137 182 231 287 353 412
#     4  12  26  42  62  92 132 176 224 268 324 412
#     4  10  23  40  65  94 127 173 216 276 336 397
#
# _framework density 22.397556000000002
#
# number of rings (size 3 to 8) (size 9 to 14) (size 15 to 20)
#    0.000    1.000    1.250    4.500    5.250    4.000 
#    0.000    0.000    0.000    0.000    0.000    0.000 
#    0.000    0.000    0.000    0.000    0.000    0.000 
#
# Total GULP energy -179216.824799 kJ/mol
# GULP energy per Si atom -5600.525775 kJ/mol
# Density = 2.234658 g / cm^3
# Si number density = 22.397556 Si / 1000 Ang^3
#
#
#
# Elastic Constant Matrix: (Units=GPa)
#
#
# Indices 1 2 3 4 5 6 
#
# 1 37.2891 -13.1919 28.7089 0.0000 0.0000 0.0000
# 2 -13.1919 101.9923 14.3167 0.0000 0.0000 0.0000
# 3 28.7089 14.3167 121.8924 0.0000 0.0000 0.0000
# 4 0.0000 0.0000 0.0000 37.2614 0.0000 0.0000
# 5 0.0000 0.0000 0.0000 0.0000 40.0464 0.0000
# 6 0.0000 0.0000 0.0000 0.0000 0.0000 24.1393
#
#
#
# Elastic Compliance Matrix: (Units=1/GPa)
#
#
# Indices 1 2 3 4 5 6 
#
# 1 0.035981 0.005941 -0.009172 0.000000 0.000000 0.000000
# 2 0.005941 0.010950 -0.002685 0.000000 0.000000 0.000000
# 3 -0.009172 -0.002685 0.010680 0.000000 0.000000 0.000000
# 4 0.000000 0.000000 0.000000 0.026837 0.000000 0.000000
# 5 0.000000 0.000000 0.000000 0.000000 0.024971 0.000000
# 6 0.000000 0.000000 0.000000 0.000000 0.000000 0.041426
#
#
# Mechanical properties :
#
#
# Convention : Reuss Voigt Hill
#
# Bulk Modulus (GPa) = 21.84449 35.64902 28.74675
# Shear Modulus (GPa) = 28.09968 35.71210 31.90589
#
# Velocity S-wave (km/s) = 3.54586 3.99741 3.77838
# Velocity P-wave (km/s) = 5.15154 6.10383 5.64779
#
# Compressibility (1/GPa) = 0.04577813
#
# Stress axis : x y z
#
# Youngs Moduli (GPa) = 27.79230 91.32337 93.63547
#
# Poissons Ratio (x) = -0.54259 0.85886
# Poissons Ratio (y) = -0.16513 0.25146
# Poissons Ratio (z) = 0.25492 0.24525
#
# Static dielectric constant tensor:
#      x y z
#    x 1.795040 0.000000 0.000000 
#    y 0.000000 1.803470 0.000000 
#    z 0.000000 0.000000 1.821960 
# 
# From -- ./inp_files/18809.got.cif
#   From: 2010.05.17/outbox.cif.g08.bks.cpg/sg57_10_cif.got.tgz:18809.got - 2010.06.03 13:58:18.
