data_PCOD9439988
_publ_section_title
;
Structure prediction by ZEFSAII (Michael W. Deem and Ramdas Pophale) SiO2 
 PCOD9439988
Probable space group: P B C M
;
_chemical_formula_sum "Si O2"
_cell_formula_units_Z 40
_cell_length_a 8.044705
_cell_length_b 11.737830
_cell_length_c 16.216087
_cell_angle_alpha 90.000000
_cell_angle_beta 90.000000
_cell_angle_gamma 90.000000
_cell_volume 1531.242604
_symmetry_space_group_name_H-M "P B C M"
_symmetry_group_IT_number 57
_symmetry_cell_setting 'orthorhombic'
loop_
_space_group_symop_operation_xyz
x,y,z
-x,-y,1/2+z
x,1/2-y,-z
-x,1/2+y,1/2-z
-x,-y,-z
x,y,1/2-z
-x,1/2+y,z
x,1/2-y,1/2+z
loop_
_atom_site_type_symbol
_atom_site_label
_atom_site_fract_x
_atom_site_fract_y
_atom_site_fract_z
Si Si1 0.696011 0.103680 0.419440
Si Si2 0.206733 0.577072 0.905861
Si Si3 0.424283 0.115487 0.656502
Si Si4 0.129850 0.626295 0.250000
Si Si5 0.687439 0.824127 0.577468
Si Si6 0.990613 0.638188 0.750000
O O1 0.808808 0.381956 0.500087
O O2 0.765755 0.150060 0.333591
O O3 0.506951 0.142001 0.437432
O O4 0.675425 0.969575 0.401895
O O5 0.389885 0.617507 0.877708
O O6 0.213517 0.439084 0.905853
O O7 0.082193 0.620012 0.837642
O O8 0.437549 0.073875 0.750000
O O9 0.331475 0.235220 0.652110
O O10 0.982594 0.720905 0.250000
O O11 0.100589 0.488667 0.250000
O O12 0.747185 0.750000 0.500000
#
# Coordination Sequence:
#
# PCOD9439988 Si02
#       6
#     8   8   8   4   8   4
#     4  11  23  41  67  99 138 180 218 276 343 414
#     4  11  23  42  66 100 142 176 221 280 345 412
#     4  11  20  34  60 104 145 176 214 266 344 420
#     4  12  30  51  72  96 128 183 249 292 339 392
#     4  11  20  34  64 110 144 174 214 264 342 432
#     4  12  30  51  70  98 130 183 243 292 337 394
#
# _framework density 26.122575999999999
#
# number of rings (size 3 to 8) (size 9 to 14) (size 15 to 20)
#    0.000    0.800    6.000    2.400    2.800    2.400 
#    0.000    0.000    0.000    0.000    0.000    0.000 
#    0.000    0.000    0.000    0.000    0.000    0.000 
#
# Total GULP energy -223640.647489 kJ/mol
# GULP energy per Si atom -5591.016187 kJ/mol
# Density = 2.606312 g / cm^3
# Si number density = 26.122576 Si / 1000 Ang^3
#
#
#
# Elastic Constant Matrix: (Units=GPa)
#
#
# Indices 1 2 3 4 5 6 
#
# 1 33.8478 -9.1720 12.1410 0.0000 0.0000 0.0000
# 2 -9.1720 120.1938 -33.3248 0.0000 0.0000 0.0000
# 3 12.1410 -33.3248 157.3330 0.0000 0.0000 0.0000
# 4 0.0000 0.0000 0.0000 -9.7230 0.0000 0.0000
# 5 0.0000 0.0000 0.0000 0.0000 14.7950 0.0000
# 6 0.0000 0.0000 0.0000 0.0000 0.0000 19.1759
#
#
#
# Elastic Compliance Matrix: (Units=1/GPa)
#
#
# Indices 1 2 3 4 5 6 
#
# 1 0.030745 0.001794 -0.001993 0.000000 0.000000 0.000000
# 2 0.001794 0.008944 0.001756 0.000000 0.000000 0.000000
# 3 -0.001993 0.001756 0.006882 0.000000 0.000000 0.000000
# 4 0.000000 0.000000 0.000000 -0.102849 0.000000 0.000000
# 5 0.000000 0.000000 0.000000 0.000000 0.067591 0.000000
# 6 0.000000 0.000000 0.000000 0.000000 0.000000 0.052149
#
#
# Mechanical properties :
#
#
# Convention : Reuss Voigt Hill
#
# Bulk Modulus (GPa) = 20.12715 27.85143 23.98929
# Shear Modulus (GPa) = 65.01276 27.63160 46.32218
#
# Velocity S-wave (km/s) = 4.99416 3.25586 4.21558
# Velocity P-wave (km/s) = 6.40133 4.98188 5.73569
#
# Compressibility (1/GPa) = 0.04968414
#
# Stress axis : x y z
#
# Youngs Moduli (GPa) = 32.52582 111.81154 145.31425
#
# Poissons Ratio (x) = -0.20055 0.28955
# Poissons Ratio (y) = -0.05834 -0.25516
# Poissons Ratio (z) = 0.06481 -0.19633
#
# Static dielectric constant tensor:
#      x y z
#    x 2.079960 0.000000 0.000000 
#    y 0.000000 2.112320 0.000000 
#    z 0.000000 0.000000 1.981410 
# 
# From -- ./inp_files/20561.got.cif
#   From: 2010.05.17/outbox.cif.g08.bks.cpg/sg57_11_cif.got.tgz:20561.got - 2010.06.03 13:58:18.
