data_PCOD9439520
_publ_section_title
;
Structure prediction by ZEFSAII (Michael W. Deem and Ramdas Pophale) SiO2 
 PCOD9439520
Probable space group: P B C M
;
_chemical_formula_sum "Si O2"
_cell_formula_units_Z 20
_cell_length_a 6.533940
_cell_length_b 13.930818
_cell_length_c 9.423305
_cell_angle_alpha 90.000000
_cell_angle_beta 90.000000
_cell_angle_gamma 90.000000
_cell_volume 857.738706
_symmetry_space_group_name_H-M "P B C M"
_symmetry_group_IT_number 57
_symmetry_cell_setting 'orthorhombic'
loop_
_space_group_symop_operation_xyz
x,y,z
-x,-y,1/2+z
x,1/2-y,-z
-x,1/2+y,1/2-z
-x,-y,-z
x,y,1/2-z
-x,1/2+y,z
x,1/2-y,1/2+z
loop_
_atom_site_type_symbol
_atom_site_label
_atom_site_fract_x
_atom_site_fract_y
_atom_site_fract_z
Si Si1 0.359468 0.927380 0.587231
Si Si2 0.381555 0.250000 0.000000
Si Si3 0.020028 0.843743 0.413564
O O1 0.326315 0.956078 0.750000
O O2 0.478850 0.824715 0.585529
O O3 0.144204 0.921355 0.503977
O O4 0.500000 0.000000 0.500000
O O5 0.223912 0.322701 0.080791
O O6 0.090503 0.750000 0.500000
O O7 0.083713 0.847708 0.250000
#
# Coordination Sequence:
#
# PCOD9439520 Si02
#       3
#     8   4   8
#     4  12  26  44  69 101 137 177 224 276 334 397
#     4  10  24  42  74  92 136 176 224 272 344 388
#     4  10  22  41  67  96 128 169 220 270 328 395
#
# _framework density 23.317125000000001
#
# number of rings (size 3 to 8) (size 9 to 14) (size 15 to 20)
#    1.200    0.000    2.000    3.600    0.000    6.400 
#    0.000    0.000    0.000    0.000    0.000    0.000 
#    0.000    0.000    0.000    0.000    0.000    0.000 
#
# Total GULP energy -111338.566455 kJ/mol
# GULP energy per Si atom -5566.928323 kJ/mol
# Density = 2.326405 g / cm^3
# Si number density = 23.317125 Si / 1000 Ang^3
#
#
#
# Elastic Constant Matrix: (Units=GPa)
#
#
# Indices 1 2 3 4 5 6 
#
# 1 124.7345 64.5020 60.5001 0.0000 0.0000 0.0000
# 2 64.5020 86.2725 44.4381 0.0000 0.0000 0.0000
# 3 60.5001 44.4381 237.4139 0.0000 0.0000 0.0000
# 4 0.0000 0.0000 0.0000 27.8665 0.0000 0.0000
# 5 0.0000 0.0000 0.0000 0.0000 22.7007 0.0000
# 6 0.0000 0.0000 0.0000 0.0000 0.0000 158.1572
#
#
#
# Elastic Compliance Matrix: (Units=1/GPa)
#
#
# Indices 1 2 3 4 5 6 
#
# 1 0.013691 -0.009339 -0.001741 0.000000 0.000000 0.000000
# 2 -0.009339 0.019199 -0.001214 0.000000 0.000000 0.000000
# 3 -0.001741 -0.001214 0.004883 0.000000 0.000000 0.000000
# 4 0.000000 0.000000 0.000000 0.035885 0.000000 0.000000
# 5 0.000000 0.000000 0.000000 0.000000 0.044052 0.000000
# 6 0.000000 0.000000 0.000000 0.000000 0.000000 0.006323
#
#
# Mechanical properties :
#
#
# Convention : Reuss Voigt Hill
#
# Bulk Modulus (GPa) = 75.84308 87.47790 81.66049
# Shear Modulus (GPa) = 32.67652 60.34358 46.51005
#
# Velocity S-wave (km/s) = 3.74758 5.09271 4.47102
# Velocity P-wave (km/s) = 7.16402 8.49582 7.85819
#
# Compressibility (1/GPa) = 0.01318512
#
# Stress axis : x y z
#
# Youngs Moduli (GPa) = 73.04125 52.08614 204.80046
#
# Poissons Ratio (x) = 0.48645 0.35650
# Poissons Ratio (y) = 0.68216 0.24855
# Poissons Ratio (z) = 0.12715 0.06321
#
# Static dielectric constant tensor:
#      x y z
#    x 1.912680 0.000000 0.000000 
#    y 0.000000 1.924230 0.000000 
#    z 0.000000 0.000000 1.786240 
# 
# From -- ./inp_files/989.got.cif
#   From: 2010.05.17/outbox.cif.g08.bks.cpg/sg57_1_cif.got.tgz:989.got - 2010.06.03 13:58:18.
