data_PCOD9439754
_publ_section_title
;
Structure prediction by ZEFSAII (Michael W. Deem and Ramdas Pophale) SiO2 
 PCOD9439754
Probable space group: P B C M
;
_chemical_formula_sum "Si O2"
_cell_formula_units_Z 48
_cell_length_a 10.682243
_cell_length_b 11.627783
_cell_length_c 18.494812
_cell_angle_alpha 90.000000
_cell_angle_beta 90.000000
_cell_angle_gamma 90.000000
_cell_volume 2297.255460
_symmetry_space_group_name_H-M "P B C M"
_symmetry_group_IT_number 57
_symmetry_cell_setting 'orthorhombic'
loop_
_space_group_symop_operation_xyz
x,y,z
-x,-y,1/2+z
x,1/2-y,-z
-x,1/2+y,1/2-z
-x,-y,-z
x,y,1/2-z
-x,1/2+y,z
x,1/2-y,1/2+z
loop_
_atom_site_type_symbol
_atom_site_label
_atom_site_fract_x
_atom_site_fract_y
_atom_site_fract_z
Si Si1 0.277623 0.999143 0.576882
Si Si2 0.948099 0.327708 0.564630
Si Si3 0.791824 0.931908 0.574338
Si Si4 0.326110 0.227100 0.835093
Si Si5 0.396309 0.807520 0.667741
Si Si6 0.854512 0.345703 0.167141
O O1 0.145128 0.931963 0.581011
O O2 0.376415 0.909532 0.610695
O O3 0.293941 0.030627 0.492810
O O4 0.279029 0.114178 0.623932
O O5 0.893140 0.250000 0.500000
O O6 0.954015 0.242504 0.632904
O O7 0.083072 0.373252 0.542600
O O8 0.728165 0.840507 0.626942
O O9 0.838158 0.041392 0.619472
O O10 0.296035 0.223698 0.750000
O O11 0.476441 0.237780 0.842867
O O12 0.398842 0.855883 0.750000
O O13 0.277008 0.723493 0.663362
O O14 0.882544 0.373413 0.250000
#
# Coordination Sequence:
#
# PCOD9439754 Si02
#       6
#     8   8   8   8   8   8
#     4  11  23  43  69  95 128 175 223 266 328 398
#     4  11  23  44  69  92 130 175 215 270 335 394
#     4  12  25  41  66 101 133 172 217 276 335 389
#     4  11  25  43  65  97 135 172 220 274 327 387
#     4   9  22  44  68  92 129 180 222 269 329 388
#     4  10  23  43  66  95 130 173 222 268 328 398
#
# _framework density 20.894497999999999
#
# number of rings (size 3 to 8) (size 9 to 14) (size 15 to 20)
#    0.000    1.333    1.667    3.000    4.667    2.667 
#    3.000    0.000    0.000    0.000    0.000    0.000 
#    0.000    0.000    0.000    0.000    0.000    0.000 
#
# Total GULP energy -268426.555200 kJ/mol
# GULP energy per Si atom -5592.219900 kJ/mol
# Density = 2.084694 g / cm^3
# Si number density = 20.894498 Si / 1000 Ang^3
#
#
#
# Elastic Constant Matrix: (Units=GPa)
#
#
# Indices 1 2 3 4 5 6 
#
# 1 39.7616 9.3802 14.1976 0.0000 0.0000 0.0000
# 2 9.3802 111.5980 71.9540 0.0000 0.0000 0.0000
# 3 14.1976 71.9540 144.5168 0.0000 0.0000 0.0000
# 4 0.0000 0.0000 0.0000 46.1113 0.0000 0.0000
# 5 0.0000 0.0000 0.0000 0.0000 23.4600 0.0000
# 6 0.0000 0.0000 0.0000 0.0000 0.0000 8.1880
#
#
#
# Elastic Compliance Matrix: (Units=1/GPa)
#
#
# Indices 1 2 3 4 5 6 
#
# 1 0.026112 -0.000797 -0.002169 0.000000 0.000000 0.000000
# 2 -0.000797 0.013222 -0.006505 0.000000 0.000000 0.000000
# 3 -0.002169 -0.006505 0.010371 0.000000 0.000000 0.000000
# 4 0.000000 0.000000 0.000000 0.021687 0.000000 0.000000
# 5 0.000000 0.000000 0.000000 0.000000 0.042626 0.000000
# 6 0.000000 0.000000 0.000000 0.000000 0.000000 0.122130
#
#
# Mechanical properties :
#
#
# Convention : Reuss Voigt Hill
#
# Bulk Modulus (GPa) = 32.50424 54.10446 43.30435
# Shear Modulus (GPa) = 18.84360 28.90819 23.87590
#
# Velocity S-wave (km/s) = 3.00633 3.72362 3.38403
# Velocity P-wave (km/s) = 5.25746 6.66614 6.00326
#
# Compressibility (1/GPa) = 0.03076521
#
# Stress axis : x y z
#
# Youngs Moduli (GPa) = 38.29633 75.63334 96.41961
#
# Poissons Ratio (x) = 0.06024 0.20911
# Poissons Ratio (y) = 0.03050 0.62718
# Poissons Ratio (z) = 0.08305 0.49197
#
# Static dielectric constant tensor:
#      x y z
#    x 1.734130 0.000000 0.000000 
#    y 0.000000 1.723180 0.000000 
#    z 0.000000 0.000000 1.746440 
# 
# From -- ./inp_files/21789.got.cif
#   From: 2010.05.17/outbox.cif.g08.bks.cpg/sg57_11_cif.got.tgz:21789.got - 2010.06.03 13:58:18.
