data_PCOD9439414
_publ_section_title
;
Structure prediction by ZEFSAII (Michael W. Deem and Ramdas Pophale) SiO2 
 PCOD9439414
Probable space group: P B C M
;
_chemical_formula_sum "Si O2"
_cell_formula_units_Z 40
_cell_length_a 5.275984
_cell_length_b 26.648740
_cell_length_c 15.241210
_cell_angle_alpha 90.000000
_cell_angle_beta 90.000000
_cell_angle_gamma 90.000000
_cell_volume 2142.888610
_symmetry_space_group_name_H-M "P B C M"
_symmetry_group_IT_number 57
_symmetry_cell_setting 'orthorhombic'
loop_
_space_group_symop_operation_xyz
x,y,z
-x,-y,1/2+z
x,1/2-y,-z
-x,1/2+y,1/2-z
-x,-y,-z
x,y,1/2-z
-x,1/2+y,z
x,1/2-y,1/2+z
loop_
_atom_site_type_symbol
_atom_site_label
_atom_site_fract_x
_atom_site_fract_y
_atom_site_fract_z
Si Si1 0.999994 0.632754 0.516032
Si Si2 0.026245 0.957187 0.152840
Si Si3 0.307667 0.120656 0.353018
Si Si4 0.489085 0.309277 0.989509
Si Si5 0.525407 0.014656 0.102099
O O1 0.019281 0.584884 0.577992
O O2 0.939800 0.616538 0.415477
O O3 0.750222 0.665427 0.538915
O O4 0.250410 0.665923 0.520512
O O5 0.996124 0.935043 0.250000
O O6 0.794546 0.995118 0.135683
O O7 0.292109 0.986008 0.147642
O O8 0.259762 0.120764 0.250000
O O9 0.439945 0.171231 0.389796
O O10 0.479336 0.073202 0.380397
O O11 0.490722 0.250000 0.000000
O O12 0.500000 0.000000 0.000000
#
# Coordination Sequence:
#
# PCOD9439414 Si02
#       5
#     8   8   8   8   8
#     4  10  22  40  63  90 122 164 202 257 310 367
#     4  12  24  40  61  94 132 171 210 250 305 380
#     4  10  23  39  63  95 124 159 209 256 306 370
#     4  10  22  42  65  85 119 160 204 260 324 362
#     4  12  23  40  62  92 130 174 207 251 313 369
#
# _framework density 18.666391999999998
#
# number of rings (size 3 to 8) (size 9 to 14) (size 15 to 20)
#    1.200    0.000    2.000    5.400    2.800    0.800 
#    0.000    2.000    0.000    0.000    0.000    0.000 
#    0.000    0.000    0.000    0.000    0.000    0.000 
#
# Total GULP energy -223220.226121 kJ/mol
# GULP energy per Si atom -5580.505653 kJ/mol
# Density = 1.862391 g / cm^3
# Si number density = 18.666392 Si / 1000 Ang^3
#
#
#
# Elastic Constant Matrix: (Units=GPa)
#
#
# Indices 1 2 3 4 5 6 
#
# 1 121.9711 41.6787 16.5618 0.0000 0.0000 0.0000
# 2 41.6787 139.4153 50.5993 0.0000 0.0000 0.0000
# 3 16.5618 50.5993 126.2953 0.0000 0.0000 0.0000
# 4 0.0000 0.0000 0.0000 8.9055 0.0000 0.0000
# 5 0.0000 0.0000 0.0000 0.0000 -11.3753 0.0000
# 6 0.0000 0.0000 0.0000 0.0000 0.0000 17.7030
#
#
#
# Elastic Compliance Matrix: (Units=1/GPa)
#
#
# Indices 1 2 3 4 5 6 
#
# 1 0.009133 -0.002686 -0.000121 0.000000 0.000000 0.000000
# 2 -0.002686 0.009183 -0.003327 0.000000 0.000000 0.000000
# 3 -0.000121 -0.003327 0.009267 0.000000 0.000000 0.000000
# 4 0.000000 0.000000 0.000000 0.112290 0.000000 0.000000
# 5 0.000000 0.000000 0.000000 0.000000 -0.087910 0.000000
# 6 0.000000 0.000000 0.000000 0.000000 0.000000 0.056488
#
#
# Mechanical properties :
#
#
# Convention : Reuss Voigt Hill
#
# Bulk Modulus (GPa) = 65.30035 67.26237 66.28136
# Shear Modulus (GPa) = 39.73769 21.63610 30.68690
#
# Velocity S-wave (km/s) = 4.61894 3.40824 4.05898
# Velocity P-wave (km/s) = 7.96900 7.18334 7.58634
#
# Compressibility (1/GPa) = 0.01531385
#
# Stress axis : x y z
#
# Youngs Moduli (GPa) = 109.49204 108.89226 107.91200
#
# Poissons Ratio (x) = 0.29252 0.01310
# Poissons Ratio (y) = 0.29413 0.35902
# Poissons Ratio (z) = 0.01330 0.36228
#
# Static dielectric constant tensor:
#      x y z
#    x 1.664490 0.000000 0.000000 
#    y 0.000000 1.625060 0.000000 
#    z 0.000000 0.000000 1.664890 
# 
# From -- ./inp_files/14944.got.cif
#   From: 2010.05.17/outbox.cif.g08.bks.cpg/sg57_8_cif.got.tgz:14944.got - 2010.06.03 13:58:18.
