data_PCOD9439585
_publ_section_title
;
Structure prediction by ZEFSAII (Michael W. Deem and Ramdas Pophale) SiO2 
 PCOD9439585
Probable space group: P B C M
;
_chemical_formula_sum "Si O2"
_cell_formula_units_Z 32
_cell_length_a 7.398479
_cell_length_b 14.340340
_cell_length_c 15.432931
_cell_angle_alpha 90.000000
_cell_angle_beta 90.000000
_cell_angle_gamma 90.000000
_cell_volume 1637.383117
_symmetry_space_group_name_H-M "P B C M"
_symmetry_group_IT_number 57
_symmetry_cell_setting 'orthorhombic'
loop_
_space_group_symop_operation_xyz
x,y,z
-x,-y,1/2+z
x,1/2-y,-z
-x,1/2+y,1/2-z
-x,-y,-z
x,y,1/2-z
-x,1/2+y,z
x,1/2-y,1/2+z
loop_
_atom_site_type_symbol
_atom_site_label
_atom_site_fract_x
_atom_site_fract_y
_atom_site_fract_z
Si Si1 0.687413 0.883193 0.347260
Si Si2 0.536139 0.360013 0.986508
Si Si3 0.225207 0.332064 0.649312
Si Si4 0.099367 0.547115 0.419109
O O1 0.611170 0.883683 0.250000
O O2 0.539425 0.898173 0.422311
O O3 0.773008 0.780406 0.362815
O O4 0.835679 0.963644 0.357095
O O5 0.379096 0.370841 0.914729
O O6 0.720629 0.403761 0.954088
O O7 0.563850 0.250000 0.000000
O O8 0.267865 0.350230 0.750000
O O9 0.036451 0.379735 0.624685
O O10 0.000000 0.500000 0.500000
#
# Coordination Sequence:
#
# PCOD9439585 Si02
#       4
#     8   8   8   8
#     4  10  22  43  65  93 130 167 208 260 313 373
#     4  10  23  42  66  90 127 168 209 258 315 377
#     4  10  23  43  65  92 129 166 209 263 314 372
#     4  12  24  38  67  95 126 167 212 257 318 371
#
# _framework density 19.543382000000001
#
# number of rings (size 3 to 8) (size 9 to 14) (size 15 to 20)
#    0.000    1.500    2.500    1.500    3.500    2.000 
#    0.000    1.250    0.000    0.000    0.000    0.000 
#    0.000    0.000    0.000    0.000    0.000    0.000 
#
# Total GULP energy -178842.164307 kJ/mol
# GULP energy per Si atom -5588.817635 kJ/mol
# Density = 1.949890 g / cm^3
# Si number density = 19.543382 Si / 1000 Ang^3
#
#
#
# Elastic Constant Matrix: (Units=GPa)
#
#
# Indices 1 2 3 4 5 6 
#
# 1 144.4168 65.5027 77.3344 0.0000 0.0000 0.0000
# 2 65.5027 72.9983 52.0420 0.0000 0.0000 0.0000
# 3 77.3344 52.0420 151.6080 0.0000 0.0000 0.0000
# 4 0.0000 0.0000 0.0000 18.6641 0.0000 0.0000
# 5 0.0000 0.0000 0.0000 0.0000 5.5909 0.0000
# 6 0.0000 0.0000 0.0000 0.0000 0.0000 26.6648
#
#
#
# Elastic Compliance Matrix: (Units=1/GPa)
#
#
# Indices 1 2 3 4 5 6 
#
# 1 0.012913 -0.009124 -0.003455 0.000000 0.000000 0.000000
# 2 -0.009124 0.024584 -0.003785 0.000000 0.000000 0.000000
# 3 -0.003455 -0.003785 0.009657 0.000000 0.000000 0.000000
# 4 0.000000 0.000000 0.000000 0.053579 0.000000 0.000000
# 5 0.000000 0.000000 0.000000 0.000000 0.178861 0.000000
# 6 0.000000 0.000000 0.000000 0.000000 0.000000 0.037503
#
#
# Mechanical properties :
#
#
# Convention : Reuss Voigt Hill
#
# Bulk Modulus (GPa) = 69.31288 84.30905 76.81097
# Shear Modulus (GPa) = 14.09907 21.79356 17.94631
#
# Velocity S-wave (km/s) = 2.68885 3.34299 3.03360
# Velocity P-wave (km/s) = 6.72183 7.62456 7.18738
#
# Compressibility (1/GPa) = 0.01442733
#
# Stress axis : x y z
#
# Youngs Moduli (GPa) = 77.44341 40.67643 103.54658
#
# Poissons Ratio (x) = 0.37112 0.35773
# Poissons Ratio (y) = 0.70658 0.39192
# Poissons Ratio (z) = 0.26755 0.15396
#
# Static dielectric constant tensor:
#      x y z
#    x 1.635200 0.000000 0.000000 
#    y 0.000000 1.709450 0.000000 
#    z 0.000000 0.000000 1.686790 
# 
# From -- ./inp_files/11302.got.cif
#   From: 2010.05.17/outbox.cif.g08.bks.cpg/sg57_6_cif.got.tgz:11302.got - 2010.06.03 13:58:18.
