data_PCOD9439072
_publ_section_title
;
Structure prediction by ZEFSAII (Michael W. Deem and Ramdas Pophale) SiO2 
 PCOD9439072
Probable space group: P B C M
;
_chemical_formula_sum "Si O2"
_cell_formula_units_Z 48
_cell_length_a 15.222806
_cell_length_b 18.552473
_cell_length_c 8.671462
_cell_angle_alpha 90.000000
_cell_angle_beta 90.000000
_cell_angle_gamma 90.000000
_cell_volume 2449.000345
_symmetry_space_group_name_H-M "P B C M"
_symmetry_group_IT_number 57
_symmetry_cell_setting 'orthorhombic'
loop_
_space_group_symop_operation_xyz
x,y,z
-x,-y,1/2+z
x,1/2-y,-z
-x,1/2+y,1/2-z
-x,-y,-z
x,y,1/2-z
-x,1/2+y,z
x,1/2-y,1/2+z
loop_
_atom_site_type_symbol
_atom_site_label
_atom_site_fract_x
_atom_site_fract_y
_atom_site_fract_z
Si Si1 0.852316 0.952591 0.433483
Si Si2 0.523046 0.674188 0.433432
Si Si3 0.652118 0.114125 0.565624
Si Si4 0.661815 0.946503 0.563881
Si Si5 0.973473 0.826734 0.933379
Si Si6 0.852969 0.387215 0.064946
O O1 0.860133 0.961102 0.250000
O O2 0.753612 0.930340 0.481152
O O3 0.918719 0.892239 0.493577
O O4 0.868021 0.029739 0.514675
O O5 0.554325 0.750000 0.500000
O O6 0.525260 0.677132 0.250000
O O7 0.423975 0.659272 0.487276
O O8 0.585964 0.608608 0.483297
O O9 0.645189 0.122363 0.750000
O O10 0.752526 0.131783 0.521523
O O11 0.638309 0.029430 0.528406
O O12 0.674670 0.942205 0.750000
O O13 0.964660 0.827805 0.750000
O O14 0.943510 0.750000 0.000000
O O15 0.074320 0.839420 0.982535
O O16 0.861436 0.381840 0.250000
#
# Coordination Sequence:
#
# PCOD9439072 Si02
#       6
#     8   8   8   8   8   8
#     4  11  22  38  62  90 117 151 192 237 286 341
#     4  11  23  37  56  82 116 153 190 232 283 341
#     4   9  19  37  61  85 112 145 187 237 286 334
#     4   9  20  39  60  84 113 149 191 239 287 335
#     4  12  25  41  60  85 118 155 193 237 288 345
#     4  10  21  40  63  88 117 151 192 240 287 338
#
# _framework density 19.599834000000001
#
# number of rings (size 3 to 8) (size 9 to 14) (size 15 to 20)
#    0.000    1.667    0.000    6.000    0.000    6.000 
#    0.000    1.667    0.000    0.000    0.000    0.000 
#    0.000    0.000    0.000    0.000    0.000    0.000 
#
# Total GULP energy -268371.094623 kJ/mol
# GULP energy per Si atom -5591.064471 kJ/mol
# Density = 1.955522 g / cm^3
# Si number density = 19.599834 Si / 1000 Ang^3
#
#
#
# Elastic Constant Matrix: (Units=GPa)
#
#
# Indices 1 2 3 4 5 6 
#
# 1 45.4856 12.3124 8.0583 0.0000 0.0000 0.0000
# 2 12.3124 19.4475 -1.8131 0.0000 0.0000 0.0000
# 3 8.0583 -1.8131 42.5834 0.0000 0.0000 0.0000
# 4 0.0000 0.0000 0.0000 31.5883 0.0000 0.0000
# 5 0.0000 0.0000 0.0000 0.0000 34.3606 0.0000
# 6 0.0000 0.0000 0.0000 0.0000 0.0000 -6.7628
#
#
#
# Elastic Compliance Matrix: (Units=1/GPa)
#
#
# Indices 1 2 3 4 5 6 
#
# 1 0.028017 -0.018305 -0.006081 0.000000 0.000000 0.000000
# 2 -0.018305 0.063585 0.006171 0.000000 0.000000 0.000000
# 3 -0.006081 0.006171 0.024897 0.000000 0.000000 0.000000
# 4 0.000000 0.000000 0.000000 0.031657 0.000000 0.000000
# 5 0.000000 0.000000 0.000000 0.000000 0.029103 0.000000
# 6 0.000000 0.000000 0.000000 0.000000 0.000000 -0.147867
#
#
# Mechanical properties :
#
#
# Convention : Reuss Voigt Hill
#
# Bulk Modulus (GPa) = 12.48921 16.07019 14.27970
# Shear Modulus (GPa) = 54.04681 17.76781 35.90731
#
# Velocity S-wave (km/s) = 5.25690 3.01413 4.28485
# Velocity P-wave (km/s) = 6.57515 4.50891 5.63750
#
# Compressibility (1/GPa) = 0.08006911
#
# Stress axis : x y z
#
# Youngs Moduli (GPa) = 35.69219 15.72699 40.16566
#
# Poissons Ratio (x) = 0.28788 0.24426
# Poissons Ratio (y) = 0.65335 -0.24787
# Poissons Ratio (z) = 0.21705 -0.09706
#
# Static dielectric constant tensor:
#      x y z
#    x 1.682150 0.000000 0.000000 
#    y 0.000000 1.676410 0.000000 
#    z 0.000000 0.000000 1.653540 
# 
# From -- ./inp_files/4553.got.cif
#   From: 2010.05.17/outbox.cif.g08.bks.cpg/sg57_3_cif.got.tgz:4553.got - 2010.06.03 13:58:18.
