data_PCOD9439894
_publ_section_title
;
Structure prediction by ZEFSAII (Michael W. Deem and Ramdas Pophale) SiO2 
 PCOD9439894
Probable space group: P B C M
;
_chemical_formula_sum "Si O2"
_cell_formula_units_Z 48
_cell_length_a 5.604053
_cell_length_b 16.884026
_cell_length_c 24.663819
_cell_angle_alpha 90.000000
_cell_angle_beta 90.000000
_cell_angle_gamma 90.000000
_cell_volume 2333.665312
_symmetry_space_group_name_H-M "P B C M"
_symmetry_group_IT_number 57
_symmetry_cell_setting 'orthorhombic'
loop_
_space_group_symop_operation_xyz
x,y,z
-x,-y,1/2+z
x,1/2-y,-z
-x,1/2+y,1/2-z
-x,-y,-z
x,y,1/2-z
-x,1/2+y,z
x,1/2-y,1/2+z
loop_
_atom_site_type_symbol
_atom_site_label
_atom_site_fract_x
_atom_site_fract_y
_atom_site_fract_z
Si Si1 0.977884 0.087897 0.250000
Si Si2 0.759761 0.456306 0.435157
Si Si3 0.738889 0.452752 0.935897
Si Si4 0.300350 0.659986 0.341278
Si Si5 0.773830 0.869266 0.250000
Si Si6 0.163008 0.844299 0.160583
Si Si7 0.377431 0.544975 0.750000
Si Si8 0.647161 0.799734 0.750000
O O1 0.079144 0.179067 0.250000
O O2 0.845218 0.093957 0.192929
O O3 0.198433 0.027687 0.250000
O O4 0.497363 0.493806 0.422128
O O5 0.744660 0.439897 0.499387
O O6 0.813546 0.379276 0.399232
O O7 0.996166 0.510880 0.424167
O O8 0.694665 0.373518 0.901451
O O9 0.212427 0.750801 0.340275
O O10 0.538576 0.664450 0.304797
O O11 0.663332 0.957290 0.250000
O O12 0.603841 0.792905 0.250000
O O13 0.921945 0.858118 0.194922
O O14 0.329481 0.902416 0.196672
#
# Coordination Sequence:
#
# PCOD9439894 Si02
#       8
#     4   8   8   8   4   8   4   4
#     4  11  23  39  58  92 131 168 214 261 330 399
#     4  10  24  45  67  95 129 174 221 283 330 396
#     4  10  24  45  67  94 132 170 225 278 337 391
#     4  11  23  39  64  94 130 176 214 279 336 403
#     4  11  21  40  61  94 137 169 215 277 334 406
#     4  11  23  39  64  94 132 171 218 274 338 397
#     4  11  23  37  59  94 127 172 215 260 327 406
#     4  11  21  38  62  90 133 171 208 268 339 395
#
# _framework density 20.568503
#
# number of rings (size 3 to 8) (size 9 to 14) (size 15 to 20)
#    0.000    1.333    3.333    2.000    7.000    3.333 
#    0.000    0.000    0.000    6.000    0.000    0.000 
#    0.000    0.000    0.000    0.000    0.000    0.000 
#
# Total GULP energy -267206.100114 kJ/mol
# GULP energy per Si atom -5566.793752 kJ/mol
# Density = 2.052169 g / cm^3
# Si number density = 20.568503 Si / 1000 Ang^3
#
#
#
# Elastic Constant Matrix: (Units=GPa)
#
#
# Indices 1 2 3 4 5 6 
#
# 1 71.4453 23.8796 26.2655 0.0000 0.0000 0.0000
# 2 23.8796 103.7345 53.1867 0.0000 0.0000 0.0000
# 3 26.2655 53.1867 79.3160 0.0000 0.0000 0.0000
# 4 0.0000 0.0000 0.0000 58.6981 0.0000 0.0000
# 5 0.0000 0.0000 0.0000 0.0000 54.9161 0.0000
# 6 0.0000 0.0000 0.0000 0.0000 0.0000 30.1954
#
#
#
# Elastic Compliance Matrix: (Units=1/GPa)
#
#
# Indices 1 2 3 4 5 6 
#
# 1 0.016085 -0.001481 -0.004333 0.000000 0.000000 0.000000
# 2 -0.001481 0.014827 -0.009452 0.000000 0.000000 0.000000
# 3 -0.004333 -0.009452 0.020381 0.000000 0.000000 0.000000
# 4 0.000000 0.000000 0.000000 0.017036 0.000000 0.000000
# 5 0.000000 0.000000 0.000000 0.000000 0.018210 0.000000
# 6 0.000000 0.000000 0.000000 0.000000 0.000000 0.033118
#
#
# Mechanical properties :
#
#
# Convention : Reuss Voigt Hill
#
# Bulk Modulus (GPa) = 48.16947 51.23996 49.70472
# Shear Modulus (GPa) = 31.82482 38.83952 35.33217
#
# Velocity S-wave (km/s) = 3.93779 4.35017 4.14911
# Velocity P-wave (km/s) = 6.64416 7.08505 6.86814
#
# Compressibility (1/GPa) = 0.02076004
#
# Stress axis : x y z
#
# Youngs Moduli (GPa) = 62.17056 67.44332 49.06474
#
# Poissons Ratio (x) = 0.09987 0.21262
# Poissons Ratio (y) = 0.09207 0.46377
# Poissons Ratio (z) = 0.26941 0.63749
#
# Static dielectric constant tensor:
#      x y z
#    x 1.943850 0.000000 0.000000 
#    y 0.000000 1.741030 0.000000 
#    z 0.000000 0.000000 1.779970 
# 
# From -- ./inp_files/26263.got.cif
#   From: 2010.05.17/outbox.cif.g08.bks.cpg/sg57_14_cif.got.tgz:26263.got - 2010.06.03 13:58:18.
