data_PCOD9439264
_publ_section_title
;
Structure prediction by ZEFSAII (Michael W. Deem and Ramdas Pophale) SiO2 
 PCOD9439264
Probable space group: P B C M
;
_chemical_formula_sum "Si O2"
_cell_formula_units_Z 64
_cell_length_a 22.453164
_cell_length_b 9.797951
_cell_length_c 14.429806
_cell_angle_alpha 90.000000
_cell_angle_beta 90.000000
_cell_angle_gamma 90.000000
_cell_volume 3174.485181
_symmetry_space_group_name_H-M "P B C M"
_symmetry_group_IT_number 57
_symmetry_cell_setting 'orthorhombic'
loop_
_space_group_symop_operation_xyz
x,y,z
-x,-y,1/2+z
x,1/2-y,-z
-x,1/2+y,1/2-z
-x,-y,-z
x,y,1/2-z
-x,1/2+y,z
x,1/2-y,1/2+z
loop_
_atom_site_type_symbol
_atom_site_label
_atom_site_fract_x
_atom_site_fract_y
_atom_site_fract_z
Si Si1 0.751270 0.757345 0.643835
Si Si2 0.234363 0.766305 0.357654
Si Si3 0.441046 0.088238 0.987960
Si Si4 0.841266 0.967848 0.643518
Si Si5 0.344137 0.063206 0.858165
Si Si6 0.656816 0.389707 0.023286
Si Si7 0.161428 0.997107 0.857222
Si Si8 0.060018 0.086928 0.999293
O O1 0.739352 0.802109 0.750000
O O2 0.788687 0.876360 0.597093
O O3 0.688770 0.701063 0.608819
O O4 0.794345 0.626604 0.643871
O O5 0.252510 0.740603 0.250000
O O6 0.289602 0.839671 0.411256
O O7 0.199040 0.632601 0.393718
O O8 0.182871 0.880499 0.356784
O O9 0.412997 0.069744 0.885110
O O10 0.388635 0.011960 0.049095
O O11 0.448659 0.250000 0.000000
O O12 0.500000 0.000000 0.000000
O O13 0.848567 0.921543 0.750000
O O14 0.901586 0.946749 0.590071
O O15 0.332851 0.043729 0.750000
O O16 0.319580 0.943952 0.923777
O O17 0.621568 0.250000 0.000000
O O18 0.145432 0.967492 0.750000
O O19 0.103843 0.038942 0.916147
O O20 0.049436 0.250000 0.000000
O O21 0.000000 0.000000 0.000000
#
# Coordination Sequence:
#
# PCOD9439264 Si02
#       8
#     8   8   8   8   8   8   8   8
#     4   9  17  35  62  91 121 160 207 259 326 397
#     4  10  23  39  61 100 134 169 211 264 332 399
#     4  10  23  43  67  90 131 181 235 280 337 399
#     4  10  23  41  63  91 130 164 207 268 325 392
#     4   9  21  38  65  98 134 174 223 276 342 409
#     4  10  22  36  64  96 134 171 213 278 328 396
#     4  10  22  43  66  91 129 172 212 261 332 401
#     4  12  28  44  66  94 122 168 224 272 326 398
#
# _framework density 20.160748999999999
#
# number of rings (size 3 to 8) (size 9 to 14) (size 15 to 20)
#    0.750    1.250    1.250    1.125    7.000    2.000 
#    0.000    1.250    0.000    0.000    0.000    0.000 
#    0.000    0.000    0.000    0.000    0.000    0.000 
#
# Total GULP energy -356521.589991 kJ/mol
# GULP energy per Si atom -5570.649844 kJ/mol
# Density = 2.011486 g / cm^3
# Si number density = 20.160749 Si / 1000 Ang^3
#
#
#
# Elastic Constant Matrix: (Units=GPa)
#
#
# Indices 1 2 3 4 5 6 
#
# 1 134.3283 69.6383 43.5864 0.0000 0.0000 0.0000
# 2 69.6383 149.1528 23.4320 0.0000 0.0000 0.0000
# 3 43.5864 23.4320 81.1497 0.0000 0.0000 0.0000
# 4 0.0000 0.0000 0.0000 23.4116 0.0000 0.0000
# 5 0.0000 0.0000 0.0000 0.0000 17.9141 0.0000
# 6 0.0000 0.0000 0.0000 0.0000 0.0000 39.6077
#
#
#
# Elastic Compliance Matrix: (Units=1/GPa)
#
#
# Indices 1 2 3 4 5 6 
#
# 1 0.011356 -0.004550 -0.004786 0.000000 0.000000 0.000000
# 2 -0.004550 0.008846 -0.000110 0.000000 0.000000 0.000000
# 3 -0.004786 -0.000110 0.014925 0.000000 0.000000 0.000000
# 4 0.000000 0.000000 0.000000 0.042714 0.000000 0.000000
# 5 0.000000 0.000000 0.000000 0.000000 0.055822 0.000000
# 6 0.000000 0.000000 0.000000 0.000000 0.000000 0.025248
#
#
# Mechanical properties :
#
#
# Convention : Reuss Voigt Hill
#
# Bulk Modulus (GPa) = 61.59481 70.88270 66.23875
# Shear Modulus (GPa) = 27.29024 31.38496 29.33760
#
# Velocity S-wave (km/s) = 3.68317 3.94983 3.81883
# Velocity P-wave (km/s) = 6.97895 7.48576 7.23679
#
# Compressibility (1/GPa) = 0.01623514
#
# Stress axis : x y z
#
# Youngs Moduli (GPa) = 88.05727 113.04064 67.00078
#
# Poissons Ratio (x) = 0.51437 0.32064
# Poissons Ratio (y) = 0.40069 0.00739
# Poissons Ratio (z) = 0.42141 0.01248
#
# Static dielectric constant tensor:
#      x y z
#    x 1.713250 0.000000 0.000000 
#    y 0.000000 1.743990 0.000000 
#    z 0.000000 0.000000 1.792130 
# 
# From -- ./inp_files/23060.got.cif
#   From: 2010.05.17/outbox.cif.g08.bks.cpg/sg57_12_cif.got.tgz:23060.got - 2010.06.03 13:58:18.
