data_PCOD9439895
_publ_section_title
;
Structure prediction by ZEFSAII (Michael W. Deem and Ramdas Pophale) SiO2 
 PCOD9439895
Probable space group: P B C M
;
_chemical_formula_sum "Si O2"
_cell_formula_units_Z 56
_cell_length_a 13.495789
_cell_length_b 9.062582
_cell_length_c 22.882910
_cell_angle_alpha 90.000000
_cell_angle_beta 90.000000
_cell_angle_gamma 90.000000
_cell_volume 2798.733082
_symmetry_space_group_name_H-M "P B C M"
_symmetry_group_IT_number 57
_symmetry_cell_setting 'orthorhombic'
loop_
_space_group_symop_operation_xyz
x,y,z
-x,-y,1/2+z
x,1/2-y,-z
-x,1/2+y,1/2-z
-x,-y,-z
x,y,1/2-z
-x,1/2+y,z
x,1/2-y,1/2+z
loop_
_atom_site_type_symbol
_atom_site_label
_atom_site_fract_x
_atom_site_fract_y
_atom_site_fract_z
Si Si1 0.377509 0.341391 0.681765
Si Si2 0.834992 0.200841 0.130598
Si Si3 0.172767 0.043821 0.143667
Si Si4 0.923861 0.780669 0.750000
Si Si5 0.977010 0.624924 0.453796
Si Si6 0.625068 0.202691 0.432974
Si Si7 0.869955 0.062174 0.250000
Si Si8 0.522665 0.564329 0.872790
O O1 0.351490 0.336188 0.750000
O O2 0.287461 0.412961 0.645897
O O3 0.403106 0.178457 0.658511
O O4 0.470269 0.450820 0.671812
O O5 0.844372 0.369796 0.152626
O O6 0.931207 0.158236 0.091010
O O7 0.736312 0.196343 0.091699
O O8 0.819705 0.098150 0.187758
O O9 0.123042 0.141787 0.193802
O O10 0.117707 0.084958 0.084448
O O11 0.905449 0.606630 0.750000
O O12 0.037821 0.825553 0.750000
O O13 0.954186 0.750000 0.500000
O O14 0.000000 0.500000 0.500000
O O15 0.626420 0.250000 0.500000
O O16 0.560218 0.328139 0.400377
O O17 0.574670 0.043810 0.419671
#
# Coordination Sequence:
#
# PCOD9439895 Si02
#       8
#     8   8   8   4   8   8   4   8
#     4  11  23  43  71 101 142 180 230 289 356 417
#     4  12  26  46  71 103 140 184 231 281 352 408
#     4  12  25  45  70 101 141 182 228 284 345 410
#     4  12  26  46  72  99 142 181 235 283 342 416
#     4  12  27  45  68  98 142 182 229 281 337 413
#     4  11  24  45  73  99 140 180 235 285 348 410
#     4  12  28  44  72 101 140 185 229 287 342 418
#     4  10  24  45  68 103 134 183 234 289 349 416
#
# _framework density 20.009053999999999
#
# number of rings (size 3 to 8) (size 9 to 14) (size 15 to 20)
#    0.000    0.571    5.000    2.571    4.000    0.000 
#    5.143    0.714    0.000    0.000    0.000    0.000 
#    0.000    0.000    0.000    0.000    0.000    0.000 
#
# Total GULP energy -312866.488408 kJ/mol
# GULP energy per Si atom -5586.901579 kJ/mol
# Density = 1.996351 g / cm^3
# Si number density = 20.009054 Si / 1000 Ang^3
#
#
#
# Elastic Constant Matrix: (Units=GPa)
#
#
# Indices 1 2 3 4 5 6 
#
# 1 82.7343 37.2749 38.0755 0.0000 0.0000 0.0000
# 2 37.2749 155.2434 52.7881 0.0000 0.0000 0.0000
# 3 38.0755 52.7881 120.7245 0.0000 0.0000 0.0000
# 4 0.0000 0.0000 0.0000 31.9799 0.0000 0.0000
# 5 0.0000 0.0000 0.0000 0.0000 27.2388 0.0000
# 6 0.0000 0.0000 0.0000 0.0000 0.0000 26.8144
#
#
#
# Elastic Compliance Matrix: (Units=1/GPa)
#
#
# Indices 1 2 3 4 5 6 
#
# 1 0.014813 -0.002312 -0.003661 0.000000 0.000000 0.000000
# 2 -0.002312 0.007927 -0.002737 0.000000 0.000000 0.000000
# 3 -0.003661 -0.002737 0.010635 0.000000 0.000000 0.000000
# 4 0.000000 0.000000 0.000000 0.031270 0.000000 0.000000
# 5 0.000000 0.000000 0.000000 0.000000 0.036712 0.000000
# 6 0.000000 0.000000 0.000000 0.000000 0.000000 0.037293
#
#
# Mechanical properties :
#
#
# Convention : Reuss Voigt Hill
#
# Bulk Modulus (GPa) = 62.67536 68.33103 65.50319
# Shear Modulus (GPa) = 30.98092 32.57753 31.77922
#
# Velocity S-wave (km/s) = 3.93917 4.03940 3.98960
# Velocity P-wave (km/s) = 7.21671 7.48197 7.35054
#
# Compressibility (1/GPa) = 0.01595523
#
# Stress axis : x y z
#
# Youngs Moduli (GPa) = 67.50660 126.14603 94.03039
#
# Poissons Ratio (x) = 0.29163 0.34426
# Poissons Ratio (y) = 0.15607 0.25738
# Poissons Ratio (z) = 0.24715 0.34528
#
# Static dielectric constant tensor:
#      x y z
#    x 1.728820 0.000000 0.000000 
#    y 0.000000 1.644990 0.000000 
#    z 0.000000 0.000000 1.700100 
# 
# From -- ./inp_files/25470.got.cif
#   From: 2010.05.17/outbox.cif.g08.bks.cpg/sg57_13_cif.got.tgz:25470.got - 2010.06.03 13:58:18.
