data_PCOD9439872
_publ_section_title
;
Structure prediction by ZEFSAII (Michael W. Deem and Ramdas Pophale) SiO2 
 PCOD9439872
Probable space group: P B C M
;
_chemical_formula_sum "Si O2"
_cell_formula_units_Z 48
_cell_length_a 26.695867
_cell_length_b 4.989368
_cell_length_c 14.811950
_cell_angle_alpha 90.000000
_cell_angle_beta 90.000000
_cell_angle_gamma 90.000000
_cell_volume 1972.885154
_symmetry_space_group_name_H-M "P B C M"
_symmetry_group_IT_number 57
_symmetry_cell_setting 'orthorhombic'
loop_
_space_group_symop_operation_xyz
x,y,z
-x,-y,1/2+z
x,1/2-y,-z
-x,1/2+y,1/2-z
-x,-y,-z
x,y,1/2-z
-x,1/2+y,z
x,1/2-y,1/2+z
loop_
_atom_site_type_symbol
_atom_site_label
_atom_site_fract_x
_atom_site_fract_y
_atom_site_fract_z
Si Si1 0.373382 0.648673 0.600208
Si Si2 0.168464 0.184545 0.145955
Si Si3 0.893791 0.165237 0.096695
Si Si4 0.530763 0.814146 0.859040
Si Si5 0.333887 0.546375 0.250000
Si Si6 0.032178 0.469555 0.250000
Si Si7 0.718162 0.712319 0.106698
O O1 0.364537 0.750000 0.500000
O O2 0.419175 0.444049 0.601981
O O3 0.324804 0.491509 0.639262
O O4 0.376341 0.888017 0.671206
O O5 0.166540 0.275762 0.250000
O O6 0.147700 0.431560 0.087417
O O7 0.225473 0.117083 0.121788
O O8 0.133506 0.926492 0.135757
O O9 0.935397 0.048430 0.163058
O O10 0.914867 0.250000 0.000000
O O11 0.535201 0.827842 0.750000
O O12 0.485940 0.018260 0.886008
O O13 0.293128 0.465309 0.330209
O O14 0.016559 0.160269 0.250000
O O15 0.710414 0.750000 0.000000
#
# Coordination Sequence:
#
# PCOD9439872 Si02
#       7
#     8   8   8   8   4   4   8
#     4  12  27  45  73 102 142 184 237 302 366 435
#     4  12  25  46  74 105 150 201 242 300 362 435
#     4  12  26  48  74 108 150 196 248 303 365 430
#     4  10  24  43  70  99 133 181 234 293 367 440
#     4  12  26  46  68  98 142 185 229 293 358 426
#     4  12  26  46  78 110 150 191 249 311 364 426
#     4  12  27  44  71 106 145 191 244 292 362 433
#
# _framework density 24.329847000000001
#
# number of rings (size 3 to 8) (size 9 to 14) (size 15 to 20)
#    0.000    0.333    5.000    3.000    4.667    2.000 
#    0.000    0.000    0.000    0.000    0.000    0.000 
#    0.000    0.000    0.000    0.000    0.000    0.000 
#
# Total GULP energy -268106.463703 kJ/mol
# GULP energy per Si atom -5585.551327 kJ/mol
# Density = 2.427447 g / cm^3
# Si number density = 24.329847 Si / 1000 Ang^3
#
#
#
# Elastic Constant Matrix: (Units=GPa)
#
#
# Indices 1 2 3 4 5 6 
#
# 1 86.7336 -3.0871 6.4930 0.0000 0.0000 0.0000
# 2 -3.0871 54.3430 -12.0000 0.0000 0.0000 0.0000
# 3 6.4930 -12.0000 146.1566 0.0000 0.0000 0.0000
# 4 0.0000 0.0000 0.0000 470.2159 0.0000 0.0000
# 5 0.0000 0.0000 0.0000 0.0000 36.7231 0.0000
# 6 0.0000 0.0000 0.0000 0.0000 0.0000 41.1865
#
#
#
# Elastic Compliance Matrix: (Units=1/GPa)
#
#
# Indices 1 2 3 4 5 6 
#
# 1 0.011584 0.000554 -0.000469 0.000000 0.000000 0.000000
# 2 0.000554 0.018768 0.001516 0.000000 0.000000 0.000000
# 3 -0.000469 0.001516 0.006987 0.000000 0.000000 0.000000
# 4 0.000000 0.000000 0.000000 0.002127 0.000000 0.000000
# 5 0.000000 0.000000 0.000000 0.000000 0.027231 0.000000
# 6 0.000000 0.000000 0.000000 0.000000 0.000000 0.024280
#
#
# Mechanical properties :
#
#
# Convention : Reuss Voigt Hill
#
# Bulk Modulus (GPa) = 24.66517 30.00501 27.33509
# Shear Modulus (GPa) = 49.36419 129.34691 89.35555
#
# Velocity S-wave (km/s) = 4.50928 7.29927 6.06683
# Velocity P-wave (km/s) = 6.10502 9.13227 7.76755
#
# Compressibility (1/GPa) = 0.04054300
#
# Stress axis : x y z
#
# Youngs Moduli (GPa) = 86.32288 53.28232 143.11663
#
# Poissons Ratio (x) = -0.02954 0.06714
# Poissons Ratio (y) = -0.04787 -0.21701
# Poissons Ratio (z) = 0.04050 -0.08079
#
# Static dielectric constant tensor:
#      x y z
#    x 1.922090 0.000000 0.000000 
#    y 0.000000 2.053050 0.000000 
#    z 0.000000 0.000000 1.909440 
# 
# From -- ./inp_files/19598.got.cif
#   From: 2010.05.17/outbox.cif.g08.bks.cpg/sg57_10_cif.got.tgz:19598.got - 2010.06.03 13:58:18.
