data_PCOD9439953
_publ_section_title
;
Structure prediction by ZEFSAII (Michael W. Deem and Ramdas Pophale) SiO2 
 PCOD9439953
Probable space group: P B C M
;
_chemical_formula_sum "Si O2"
_cell_formula_units_Z 36
_cell_length_a 4.655268
_cell_length_b 16.886567
_cell_length_c 18.555869
_cell_angle_alpha 90.000000
_cell_angle_beta 90.000000
_cell_angle_gamma 90.000000
_cell_volume 1458.704603
_symmetry_space_group_name_H-M "P B C M"
_symmetry_group_IT_number 57
_symmetry_cell_setting 'orthorhombic'
loop_
_space_group_symop_operation_xyz
x,y,z
-x,-y,1/2+z
x,1/2-y,-z
-x,1/2+y,1/2-z
-x,-y,-z
x,y,1/2-z
-x,1/2+y,z
x,1/2-y,1/2+z
loop_
_atom_site_type_symbol
_atom_site_label
_atom_site_fract_x
_atom_site_fract_y
_atom_site_fract_z
Si Si1 0.524655 0.363156 0.958469
Si Si2 0.063065 0.092997 0.250000
Si Si3 0.841527 0.620119 0.897788
Si Si4 0.362502 0.513583 0.625421
Si Si5 0.984658 0.706691 0.380670
O O1 0.342013 0.312724 0.900931
O O2 0.833897 0.324096 0.949308
O O3 0.359626 0.359564 0.033776
O O4 0.486955 0.547695 0.070999
O O5 0.934172 0.152373 0.186737
O O6 0.214504 0.037108 0.312345
O O7 0.614149 0.572478 0.848085
O O8 0.985296 0.699837 0.867803
O O9 0.106363 0.561505 0.913179
#
# Coordination Sequence:
#
# PCOD9439953 Si02
#       5
#     8   4   8   8   8
#     4  11  23  44  69 102 142 182 225 285 366 423
#     4  10  26  48  66  96 140 192 236 270 360 416
#     4  12  24  42  70 108 136 179 242 299 352 408
#     4  11  24  42  69  99 142 186 231 295 343 424
#     4  11  25  43  71 100 142 188 227 290 347 430
#
# _framework density 24.679434000000001
#
# number of rings (size 3 to 8) (size 9 to 14) (size 15 to 20)
#    0.000    0.889    0.000    7.333    0.000   11.556 
#    0.000    0.000    0.000    0.000    0.000    0.000 
#    0.000    0.000    0.000    0.000    0.000    0.000 
#
# Total GULP energy -200420.027512 kJ/mol
# GULP energy per Si atom -5567.222986 kJ/mol
# Density = 2.462326 g / cm^3
# Si number density = 24.679434 Si / 1000 Ang^3
#
#
#
# Elastic Constant Matrix: (Units=GPa)
#
#
# Indices 1 2 3 4 5 6 
#
# 1 121.8287 58.5861 17.0289 0.0000 0.0000 0.0000
# 2 58.5861 171.3513 38.4455 0.0000 0.0000 0.0000
# 3 17.0289 38.4455 86.8164 0.0000 0.0000 0.0000
# 4 0.0000 0.0000 0.0000 17.4518 0.0000 0.0000
# 5 0.0000 0.0000 0.0000 0.0000 0.6050 0.0000
# 6 0.0000 0.0000 0.0000 0.0000 0.0000 36.8954
#
#
#
# Elastic Compliance Matrix: (Units=1/GPa)
#
#
# Indices 1 2 3 4 5 6 
#
# 1 0.009842 -0.003255 -0.000489 0.000000 0.000000 0.000000
# 2 -0.003255 0.007557 -0.002708 0.000000 0.000000 0.000000
# 3 -0.000489 -0.002708 0.012814 0.000000 0.000000 0.000000
# 4 0.000000 0.000000 0.000000 0.057301 0.000000 0.000000
# 5 0.000000 0.000000 0.000000 0.000000 1.652757 0.000000
# 6 0.000000 0.000000 0.000000 0.000000 0.000000 0.027104
#
#
# Mechanical properties :
#
#
# Convention : Reuss Voigt Hill
#
# Bulk Modulus (GPa) = 57.77659 67.56860 62.67259
# Shear Modulus (GPa) = 2.79948 28.71950 15.75949
#
# Velocity S-wave (km/s) = 1.06621 3.41501 2.52973
# Velocity P-wave (km/s) = 4.99774 6.55650 5.82945
#
# Compressibility (1/GPa) = 0.01730805
#
# Stress axis : x y z
#
# Youngs Moduli (GPa) = 101.60478 132.33589 78.04230
#
# Poissons Ratio (x) = 0.43080 0.03816
# Poissons Ratio (y) = 0.33076 0.21132
# Poissons Ratio (z) = 0.04968 0.35834
#
# Static dielectric constant tensor:
#      x y z
#    x 1.945820 0.000000 0.000000 
#    y 0.000000 2.013600 0.000000 
#    z 0.000000 0.000000 1.924190 
# 
# From -- ./inp_files/23483.got.cif
#   From: 2010.05.17/outbox.cif.g08.bks.cpg/sg57_12_cif.got.tgz:23483.got - 2010.06.03 13:58:18.
