data_PCOD9439005
_publ_section_title
;
Structure prediction by ZEFSAII (Michael W. Deem and Ramdas Pophale) SiO2 
 PCOD9439005
Probable space group: P B C M
;
_chemical_formula_sum "Si O2"
_cell_formula_units_Z 32
_cell_length_a 19.842381
_cell_length_b 4.931326
_cell_length_c 14.407729
_cell_angle_alpha 90.000000
_cell_angle_beta 90.000000
_cell_angle_gamma 90.000000
_cell_volume 1409.785467
_symmetry_space_group_name_H-M "P B C M"
_symmetry_group_IT_number 57
_symmetry_cell_setting 'orthorhombic'
loop_
_space_group_symop_operation_xyz
x,y,z
-x,-y,1/2+z
x,1/2-y,-z
-x,1/2+y,1/2-z
-x,-y,-z
x,y,1/2-z
-x,1/2+y,z
x,1/2-y,1/2+z
loop_
_atom_site_type_symbol
_atom_site_label
_atom_site_fract_x
_atom_site_fract_y
_atom_site_fract_z
Si Si1 0.650965 0.469299 0.750000
Si Si2 0.739399 0.524658 0.250000
Si Si3 0.819551 0.014797 0.937822
Si Si4 0.957718 0.243476 0.138550
Si Si5 0.456921 0.749328 0.889577
O O1 0.674266 0.779333 0.750000
O O2 0.606623 0.371409 0.662850
O O3 0.717970 0.288772 0.750000
O O4 0.780531 0.568709 0.155552
O O5 0.889786 0.148791 0.905809
O O6 0.828992 0.750000 0.000000
O O7 0.784347 0.250000 0.000000
O O8 0.949420 0.256366 0.250000
O O9 0.019578 0.441952 0.113592
O O10 0.480325 0.446980 0.865418
O O11 0.446287 0.750000 0.000000
#
# Coordination Sequence:
#
# PCOD9439005 Si02
#       5
#     4   4   8   8   8
#     4  12  24  41  70  91 132 180 220 266 320 392
#     4  12  28  47  62  97 134 176 234 278 316 384
#     4  12  26  45  69  93 130 177 221 276 337 396
#     4  10  21  39  66  97 129 163 208 275 341 402
#     4  10  21  39  65 100 134 164 207 266 326 384
#
# _framework density 22.698488000000001
#
# number of rings (size 3 to 8) (size 9 to 14) (size 15 to 20)
#    0.000    1.000    1.250    5.250    0.000    6.000 
#    0.000    0.000    0.000    0.000    0.000    0.000 
#    0.000    0.000    0.000    0.000    0.000    0.000 
#
# Total GULP energy -179166.314979 kJ/mol
# GULP energy per Si atom -5598.947343 kJ/mol
# Density = 2.264682 g / cm^3
# Si number density = 22.698488 Si / 1000 Ang^3
#
#
#
# Elastic Constant Matrix: (Units=GPa)
#
#
# Indices 1 2 3 4 5 6 
#
# 1 54.4142 -11.0272 39.5711 0.0000 0.0000 0.0000
# 2 -11.0272 87.7064 20.9695 0.0000 0.0000 0.0000
# 3 39.5711 20.9695 140.2371 0.0000 0.0000 0.0000
# 4 0.0000 0.0000 0.0000 23.8579 0.0000 0.0000
# 5 0.0000 0.0000 0.0000 0.0000 2.5915 0.0000
# 6 0.0000 0.0000 0.0000 0.0000 0.0000 37.3784
#
#
#
# Elastic Compliance Matrix: (Units=1/GPa)
#
#
# Indices 1 2 3 4 5 6 
#
# 1 0.025092 0.005027 -0.007832 0.000000 0.000000 0.000000
# 2 0.005027 0.012832 -0.003337 0.000000 0.000000 0.000000
# 3 -0.007832 -0.003337 0.009840 0.000000 0.000000 0.000000
# 4 0.000000 0.000000 0.000000 0.041915 0.000000 0.000000
# 5 0.000000 0.000000 0.000000 0.000000 0.385881 0.000000
# 6 0.000000 0.000000 0.000000 0.000000 0.000000 0.026753
#
#
# Mechanical properties :
#
#
# Convention : Reuss Voigt Hill
#
# Bulk Modulus (GPa) = 28.18532 42.37606 35.28069
# Shear Modulus (GPa) = 9.49807 28.28850 18.89328
#
# Velocity S-wave (km/s) = 2.04781 3.53409 2.88819
# Velocity P-wave (km/s) = 4.24683 5.94665 5.16712
#
# Compressibility (1/GPa) = 0.03547946
#
# Stress axis : x y z
#
# Youngs Moduli (GPa) = 39.85342 77.93227 101.62836
#
# Poissons Ratio (x) = -0.39179 0.79595
# Poissons Ratio (y) = -0.20036 0.33916
# Poissons Ratio (z) = 0.31213 0.26008
#
# Static dielectric constant tensor:
#      x y z
#    x 1.817030 0.000000 0.000000 
#    y 0.000000 1.789600 0.000000 
#    z 0.000000 0.000000 1.873580 
# 
# From -- ./inp_files/18781.got.cif
#   From: 2010.05.17/outbox.cif.g08.bks.cpg/sg57_10_cif.got.tgz:18781.got - 2010.06.03 13:58:18.
