data_PCOD9439783
_publ_section_title
;
Structure prediction by ZEFSAII (Michael W. Deem and Ramdas Pophale) SiO2 
 PCOD9439783
Probable space group: P B C M
;
_chemical_formula_sum "Si O2"
_cell_formula_units_Z 40
_cell_length_a 7.078560
_cell_length_b 15.756298
_cell_length_c 14.776549
_cell_angle_alpha 90.000000
_cell_angle_beta 90.000000
_cell_angle_gamma 90.000000
_cell_volume 1648.056597
_symmetry_space_group_name_H-M "P B C M"
_symmetry_group_IT_number 57
_symmetry_cell_setting 'orthorhombic'
loop_
_space_group_symop_operation_xyz
x,y,z
-x,-y,1/2+z
x,1/2-y,-z
-x,1/2+y,1/2-z
-x,-y,-z
x,y,1/2-z
-x,1/2+y,z
x,1/2-y,1/2+z
loop_
_atom_site_type_symbol
_atom_site_label
_atom_site_fract_x
_atom_site_fract_y
_atom_site_fract_z
Si Si1 0.272736 0.889190 0.907848
Si Si2 0.607467 0.265162 0.750000
Si Si3 0.126619 0.185458 0.072384
Si Si4 0.277095 0.023125 0.750000
Si Si5 0.822203 0.711814 0.750000
Si Si6 0.723041 0.421699 0.250000
Si Si7 0.802870 0.002231 0.557920
O O1 0.371143 0.821854 0.840723
O O2 0.231180 0.965491 0.836841
O O3 0.089201 0.840523 0.946010
O O4 0.337464 0.939729 0.997495
O O5 0.400560 0.228071 0.750000
O O6 0.735466 0.180712 0.750000
O O7 0.108674 0.237425 0.163849
O O8 0.240958 0.097375 0.073706
O O9 0.208722 0.250000 0.000000
O O10 0.162580 0.110839 0.750000
O O11 0.502148 0.045595 0.750000
O O12 0.809888 0.457828 0.342607
O O13 0.000000 0.000000 0.500000
#
# Coordination Sequence:
#
# PCOD9439783 Si02
#       7
#     8   4   8   4   4   4   8
#     4  10  23  45  67 101 135 182 233 276 354 413
#     4  10  25  42  69 102 134 188 224 290 347 418
#     4  11  24  43  69 103 132 180 232 288 341 405
#     4  10  23  44  68 101 140 188 224 288 351 420
#     4  11  23  46  66 100 143 173 234 288 349 402
#     4  11  25  44  69 103 141 181 240 286 353 418
#     4  10  24  43  70  99 136 185 233 286 347 406
#
# _framework density 24.271011999999999
#
# number of rings (size 3 to 8) (size 9 to 14) (size 15 to 20)
#    0.000    1.600    0.000    3.000   11.200    5.600 
#   14.400    0.000    0.000    0.000    0.000    0.000 
#    0.000    0.000    0.000    0.000    0.000    0.000 
#
# Total GULP energy -223432.299292 kJ/mol
# GULP energy per Si atom -5585.807482 kJ/mol
# Density = 2.421577 g / cm^3
# Si number density = 24.271012 Si / 1000 Ang^3
#
#
#
# Elastic Constant Matrix: (Units=GPa)
#
#
# Indices 1 2 3 4 5 6 
#
# 1 54.1237 21.7958 6.0595 0.0000 0.0000 0.0000
# 2 21.7958 229.7780 89.9404 0.0000 0.0000 0.0000
# 3 6.0595 89.9404 180.0126 0.0000 0.0000 0.0000
# 4 0.0000 0.0000 0.0000 -81.3593 0.0000 0.0000
# 5 0.0000 0.0000 0.0000 0.0000 -153.0235 0.0000
# 6 0.0000 0.0000 0.0000 0.0000 0.0000 4.8621
#
#
#
# Elastic Compliance Matrix: (Units=1/GPa)
#
#
# Indices 1 2 3 4 5 6 
#
# 1 0.019226 -0.001952 0.000328 0.000000 0.000000 0.000000
# 2 -0.001952 0.005608 -0.002736 0.000000 0.000000 0.000000
# 3 0.000328 -0.002736 0.006911 0.000000 0.000000 0.000000
# 4 0.000000 0.000000 0.000000 -0.012291 0.000000 0.000000
# 5 0.000000 0.000000 0.000000 0.000000 -0.006535 0.000000
# 6 0.000000 0.000000 0.000000 0.000000 0.000000 0.205673
#
#
# Mechanical properties :
#
#
# Convention : Reuss Voigt Hill
#
# Bulk Modulus (GPa) = 43.43192 77.72284 60.57738
# Shear Modulus (GPa) = 21.27771 -22.82956 -0.77592
#
# Velocity S-wave (km/s) = 2.96408 -3.07026 -0.56603
# Velocity P-wave (km/s) = 5.44497 4.41857 4.95840
#
# Compressibility (1/GPa) = 0.02302454
#
# Stress axis : x y z
#
# Youngs Moduli (GPa) = 52.01406 178.30793 144.69048
#
# Poissons Ratio (x) = 0.34808 -0.04748
# Poissons Ratio (y) = 0.10154 0.39593
# Poissons Ratio (z) = -0.01707 0.48792
#
# Static dielectric constant tensor:
#      x y z
#    x 2.043200 0.000000 0.000000 
#    y 0.000000 1.963910 0.000000 
#    z 0.000000 0.000000 1.959380 
# 
# From -- ./inp_files/15997.got.cif
#   From: 2010.05.17/outbox.cif.g08.bks.cpg/sg57_8_cif.got.tgz:15997.got - 2010.06.03 13:58:18.
