data_PCOD9439409
_publ_section_title
;
Structure prediction by ZEFSAII (Michael W. Deem and Ramdas Pophale) SiO2 
 PCOD9439409
Probable space group: P B C M
;
_chemical_formula_sum "Si O2"
_cell_formula_units_Z 48
_cell_length_a 8.164317
_cell_length_b 29.417869
_cell_length_c 10.217060
_cell_angle_alpha 90.000000
_cell_angle_beta 90.000000
_cell_angle_gamma 90.000000
_cell_volume 2453.900858
_symmetry_space_group_name_H-M "P B C M"
_symmetry_group_IT_number 57
_symmetry_cell_setting 'orthorhombic'
loop_
_space_group_symop_operation_xyz
x,y,z
-x,-y,1/2+z
x,1/2-y,-z
-x,1/2+y,1/2-z
-x,-y,-z
x,y,1/2-z
-x,1/2+y,z
x,1/2-y,1/2+z
loop_
_atom_site_type_symbol
_atom_site_label
_atom_site_fract_x
_atom_site_fract_y
_atom_site_fract_z
Si Si1 0.507270 0.292231 0.401825
Si Si2 0.292039 0.982851 0.250000
Si Si3 0.154628 0.195330 0.510476
Si Si4 0.518993 0.922528 0.750000
Si Si5 0.154904 0.135022 0.250000
Si Si6 0.037789 0.961865 0.750000
Si Si7 0.738209 0.436041 0.527048
Si Si8 0.164496 0.650341 0.602985
O O1 0.517472 0.250000 0.500000
O O2 0.509121 0.277262 0.250000
O O3 0.332554 0.316211 0.428652
O O4 0.667196 0.322891 0.423818
O O5 0.317189 0.957095 0.388465
O O6 0.405043 0.027215 0.250000
O O7 0.106800 0.001904 0.250000
O O8 0.152827 0.250000 0.500000
O O9 0.136606 0.167941 0.374983
O O10 0.995504 0.181067 0.591681
O O11 0.662355 0.885798 0.750000
O O12 0.409031 0.919584 0.880096
O O13 0.039129 0.089719 0.250000
O O14 0.150769 0.967218 0.878749
O O15 0.845523 0.392224 0.491648
O O16 0.176466 0.632448 0.750000
#
# Coordination Sequence:
#
# PCOD9439409 Si02
#       8
#     8   4   8   4   4   4   8   8
#     4  10  23  41  60  90 124 163 212 262 318 375
#     4  11  22  40  67  91 130 159 203 260 320 393
#     4  11  24  39  64  91 126 170 214 267 314 377
#     4  10  24  40  68  92 126 165 208 264 314 382
#     4  11  22  42  61  91 122 166 220 254 317 371
#     4  10  22  40  62  92 122 162 205 260 309 384
#     4  11  21  41  62  94 124 161 209 255 320 382
#     4  11  22  40  63  91 128 164 210 261 319 375
#
# _framework density 19.560693000000001
#
# number of rings (size 3 to 8) (size 9 to 14) (size 15 to 20)
#    0.000    1.333    2.500    3.000    5.833    0.000 
#    4.500    0.000    0.000    0.000    0.000    0.000 
#    0.000    0.000    0.000    0.000    0.000    0.000 
#
# Total GULP energy -267875.655091 kJ/mol
# GULP energy per Si atom -5580.742814 kJ/mol
# Density = 1.951617 g / cm^3
# Si number density = 19.560693 Si / 1000 Ang^3
#
#
#
# Elastic Constant Matrix: (Units=GPa)
#
#
# Indices 1 2 3 4 5 6 
#
# 1 82.4237 2.9616 18.4286 0.0000 0.0000 0.0000
# 2 2.9616 43.5381 34.1489 0.0000 0.0000 0.0000
# 3 18.4286 34.1489 113.1256 0.0000 0.0000 0.0000
# 4 0.0000 0.0000 0.0000 13.7709 0.0000 0.0000
# 5 0.0000 0.0000 0.0000 0.0000 4.6150 0.0000
# 6 0.0000 0.0000 0.0000 0.0000 0.0000 17.5213
#
#
#
# Elastic Compliance Matrix: (Units=1/GPa)
#
#
# Indices 1 2 3 4 5 6 
#
# 1 0.012623 0.000988 -0.002355 0.000000 0.000000 0.000000
# 2 0.000988 0.030171 -0.009269 0.000000 0.000000 0.000000
# 3 -0.002355 -0.009269 0.012021 0.000000 0.000000 0.000000
# 4 0.000000 0.000000 0.000000 0.072617 0.000000 0.000000
# 5 0.000000 0.000000 0.000000 0.000000 0.216685 0.000000
# 6 0.000000 0.000000 0.000000 0.000000 0.000000 0.057073
#
#
# Mechanical properties :
#
#
# Convention : Reuss Voigt Hill
#
# Bulk Modulus (GPa) = 29.81036 38.90730 34.35883
# Shear Modulus (GPa) = 11.53022 19.41799 15.47410
#
# Velocity S-wave (km/s) = 2.43051 3.15414 2.81567
# Velocity P-wave (km/s) = 4.81140 5.76182 5.30792
#
# Compressibility (1/GPa) = 0.03354538
#
# Stress axis : x y z
#
# Youngs Moduli (GPa) = 79.21794 33.14445 83.18625
#
# Poissons Ratio (x) = -0.03275 0.19588
# Poissons Ratio (y) = -0.07829 0.77102
# Poissons Ratio (z) = 0.18654 0.30720
#
# Static dielectric constant tensor:
#      x y z
#    x 1.686990 0.000000 0.000000 
#    y 0.000000 1.689060 0.000000 
#    z 0.000000 0.000000 1.710710 
# 
# From -- ./inp_files/2215.got.cif
#   From: 2010.05.17/outbox.cif.g08.bks.cpg/sg57_2_cif.got.tgz:2215.got - 2010.06.03 13:58:18.
