data_PCOD9439920
_publ_section_title
;
Structure prediction by ZEFSAII (Michael W. Deem and Ramdas Pophale) SiO2 
 PCOD9439920
Probable space group: P B C M
;
_chemical_formula_sum "Si O2"
_cell_formula_units_Z 60
_cell_length_a 14.565483
_cell_length_b 11.584681
_cell_length_c 14.395727
_cell_angle_alpha 90.000000
_cell_angle_beta 90.000000
_cell_angle_gamma 90.000000
_cell_volume 2429.084217
_symmetry_space_group_name_H-M "P B C M"
_symmetry_group_IT_number 57
_symmetry_cell_setting 'orthorhombic'
loop_
_space_group_symop_operation_xyz
x,y,z
-x,-y,1/2+z
x,1/2-y,-z
-x,1/2+y,1/2-z
-x,-y,-z
x,y,1/2-z
-x,1/2+y,z
x,1/2-y,1/2+z
loop_
_atom_site_type_symbol
_atom_site_label
_atom_site_fract_x
_atom_site_fract_y
_atom_site_fract_z
Si Si1 0.654443 0.506216 0.250000
Si Si2 0.162689 0.774158 0.639275
Si Si3 0.848413 0.850399 0.436883
Si Si4 0.349949 0.147643 0.896662
Si Si5 0.980566 0.024690 0.391192
Si Si6 0.643596 0.386287 0.854439
Si Si7 0.447300 0.131246 0.403818
Si Si8 0.822968 0.482228 0.104603
O O1 0.577603 0.530442 0.167428
O O2 0.734989 0.493257 0.169165
O O3 0.165106 0.748368 0.750000
O O4 0.079693 0.862499 0.624128
O O5 0.260194 0.832252 0.615622
O O6 0.156163 0.652650 0.588030
O O7 0.892228 0.750000 0.500000
O O8 0.754102 0.803303 0.394716
O O9 0.917334 0.913700 0.367134
O O10 0.812049 0.948079 0.508851
O O11 0.412235 0.249672 0.857543
O O12 0.346367 0.023889 0.850329
O O13 0.392217 0.125158 0.999608
O O14 0.000000 0.000000 0.500000
O O15 0.082328 0.030333 0.351318
O O16 0.624114 0.341072 0.750000
O O17 0.555948 0.361426 0.917739
#
# Coordination Sequence:
#
# PCOD9439920 Si02
#       8
#     4   8   8   8   8   8   8   8
#     4  12  22  44  70 104 138 186 232 294 350 436
#     4  11  25  47  67 101 148 182 239 299 356 434
#     4  11  21  44  70  99 141 182 239 301 353 434
#     4  11  22  45  66 105 137 181 238 300 357 435
#     4  10  25  43  71 102 136 186 240 289 359 426
#     4  11  25  45  69 100 140 190 237 291 367 429
#     4  11  24  44  70 101 145 180 239 295 357 438
#     4  11  25  43  71 105 140 189 236 292 366 430
#
# _framework density 24.700668
#
# number of rings (size 3 to 8) (size 9 to 14) (size 15 to 20)
#    0.000    1.067    5.333    0.400    5.600    2.667 
#    4.800    0.000    0.000    0.000    0.000    0.000 
#    0.000    0.000    0.000    0.000    0.000    0.000 
#
# Total GULP energy -334652.902394 kJ/mol
# GULP energy per Si atom -5577.548373 kJ/mol
# Density = 2.464445 g / cm^3
# Si number density = 24.700668 Si / 1000 Ang^3
#
#
#
# Elastic Constant Matrix: (Units=GPa)
#
#
# Indices 1 2 3 4 5 6 
#
# 1 146.9296 21.2653 -4.4612 0.0000 0.0000 0.0000
# 2 21.2653 94.0265 -9.2989 0.0000 0.0000 0.0000
# 3 -4.4612 -9.2989 77.8149 0.0000 0.0000 0.0000
# 4 0.0000 0.0000 0.0000 -23.0180 0.0000 0.0000
# 5 0.0000 0.0000 0.0000 0.0000 10.8374 0.0000
# 6 0.0000 0.0000 0.0000 0.0000 0.0000 29.1541
#
#
#
# Elastic Compliance Matrix: (Units=1/GPa)
#
#
# Indices 1 2 3 4 5 6 
#
# 1 0.007040 -0.001571 0.000216 0.000000 0.000000 0.000000
# 2 -0.001571 0.011113 0.001238 0.000000 0.000000 0.000000
# 3 0.000216 0.001238 0.013011 0.000000 0.000000 0.000000
# 4 0.000000 0.000000 0.000000 -0.043444 0.000000 0.000000
# 5 0.000000 0.000000 0.000000 0.000000 0.092273 0.000000
# 6 0.000000 0.000000 0.000000 0.000000 0.000000 0.034301
#
#
# Mechanical properties :
#
#
# Convention : Reuss Voigt Hill
#
# Bulk Modulus (GPa) = 32.33080 37.08681 34.70880
# Shear Modulus (GPa) = 40.05212 24.14574 32.09893
#
# Velocity S-wave (km/s) = 4.03115 3.12995 3.60879
# Velocity P-wave (km/s) = 5.89783 5.30181 5.60774
#
# Compressibility (1/GPa) = 0.03093026
#
# Stress axis : x y z
#
# Youngs Moduli (GPa) = 142.04785 89.98479 76.85614
#
# Poissons Ratio (x) = 0.14135 -0.01659
# Poissons Ratio (y) = 0.22313 -0.09514
# Poissons Ratio (z) = -0.03067 -0.11140
#
# Static dielectric constant tensor:
#      x y z
#    x 1.985740 0.000000 0.000000 
#    y 0.000000 2.036800 0.000000 
#    z 0.000000 0.000000 2.023620 
# 
# From -- ./inp_files/22594.got.cif
#   From: 2010.05.17/outbox.cif.g08.bks.cpg/sg57_12_cif.got.tgz:22594.got - 2010.06.03 13:58:18.
