data_PCOD9439265
_publ_section_title
;
Structure prediction by ZEFSAII (Michael W. Deem and Ramdas Pophale) SiO2 
 PCOD9439265
Probable space group: P B C M
;
_chemical_formula_sum "Si O2"
_cell_formula_units_Z 48
_cell_length_a 7.299657
_cell_length_b 27.160266
_cell_length_c 11.135508
_cell_angle_alpha 90.000000
_cell_angle_beta 90.000000
_cell_angle_gamma 90.000000
_cell_volume 2207.732785
_symmetry_space_group_name_H-M "P B C M"
_symmetry_group_IT_number 57
_symmetry_cell_setting 'orthorhombic'
loop_
_space_group_symop_operation_xyz
x,y,z
-x,-y,1/2+z
x,1/2-y,-z
-x,1/2+y,1/2-z
-x,-y,-z
x,y,1/2-z
-x,1/2+y,z
x,1/2-y,1/2+z
loop_
_atom_site_type_symbol
_atom_site_label
_atom_site_fract_x
_atom_site_fract_y
_atom_site_fract_z
Si Si1 0.893123 0.802550 0.250000
Si Si2 0.806194 0.078316 0.007736
Si Si3 0.060707 0.156834 0.389991
Si Si4 0.210516 0.879555 0.250000
Si Si5 0.944007 0.750000 0.500000
Si Si6 0.691809 0.527353 0.978343
Si Si7 0.355953 0.400401 0.250000
Si Si8 0.420065 0.112511 0.111149
O O1 0.859679 0.770292 0.371888
O O2 0.769410 0.851887 0.250000
O O3 0.099962 0.827362 0.250000
O O4 0.608101 0.102226 0.041613
O O5 0.952927 0.107902 0.082571
O O6 0.816746 0.020423 0.034839
O O7 0.843837 0.090385 0.869031
O O8 0.065381 0.165391 0.250000
O O9 0.957164 0.200980 0.455819
O O10 0.273710 0.153366 0.432084
O O11 0.433148 0.881312 0.250000
O O12 0.682700 0.564260 0.865055
O O13 0.500000 0.500000 0.000000
O O14 0.698151 0.562550 0.093705
O O15 0.463433 0.120940 0.250000
#
# Coordination Sequence:
#
# PCOD9439265 Si02
#       8
#     4   8   8   4   4   8   4   8
#     4  12  28  50  75 101 142 180 244 300 369 420
#     4  11  24  39  64  95 139 176 229 272 343 404
#     4  11  24  44  66  96 128 171 226 288 353 412
#     4  12  24  42  68  99 137 188 222 292 342 413
#     4  12  24  48  76  96 130 182 224 310 362 414
#     4  10  22  36  65  96 137 184 220 269 333 415
#     4  12  24  48  67 102 147 188 232 288 353 419
#     4  10  22  40  63  93 132 172 219 275 334 406
#
# _framework density 21.741762000000001
#
# number of rings (size 3 to 8) (size 9 to 14) (size 15 to 20)
#    0.000    1.000    5.833    1.500    7.000    0.667 
#    0.000    3.333    0.000    0.000    0.000    0.000 
#    0.000    0.000    0.000    0.000    0.000    0.000 
#
# Total GULP energy -267338.793859 kJ/mol
# GULP energy per Si atom -5569.558205 kJ/mol
# Density = 2.169228 g / cm^3
# Si number density = 21.741762 Si / 1000 Ang^3
#
#
#
# Elastic Constant Matrix: (Units=GPa)
#
#
# Indices 1 2 3 4 5 6 
#
# 1 88.8363 44.7030 12.8148 0.0000 0.0000 0.0000
# 2 44.7030 88.8801 39.7579 0.0000 0.0000 0.0000
# 3 12.8148 39.7579 118.7632 0.0000 0.0000 0.0000
# 4 0.0000 0.0000 0.0000 41.6371 0.0000 0.0000
# 5 0.0000 0.0000 0.0000 0.0000 12.5896 0.0000
# 6 0.0000 0.0000 0.0000 0.0000 0.0000 9.0416
#
#
#
# Elastic Compliance Matrix: (Units=1/GPa)
#
#
# Indices 1 2 3 4 5 6 
#
# 1 0.015188 -0.008122 0.001080 0.000000 0.000000 0.000000
# 2 -0.008122 0.017576 -0.005008 0.000000 0.000000 0.000000
# 3 0.001080 -0.005008 0.009980 0.000000 0.000000 0.000000
# 4 0.000000 0.000000 0.000000 0.024017 0.000000 0.000000
# 5 0.000000 0.000000 0.000000 0.000000 0.079431 0.000000
# 6 0.000000 0.000000 0.000000 0.000000 0.000000 0.110600
#
#
# Mechanical properties :
#
#
# Convention : Reuss Voigt Hill
#
# Bulk Modulus (GPa) = 53.63322 54.55902 54.09612
# Shear Modulus (GPa) = 17.41519 25.93392 21.67456
#
# Velocity S-wave (km/s) = 2.83327 3.45746 3.16081
# Velocity P-wave (km/s) = 5.95190 6.40994 6.18516
#
# Compressibility (1/GPa) = 0.01864516
#
# Stress axis : x y z
#
# Youngs Moduli (GPa) = 65.84180 56.89532 100.20136
#
# Poissons Ratio (x) = 0.46211 -0.10824
# Poissons Ratio (y) = 0.53477 0.50176
# Poissons Ratio (z) = -0.07112 0.28490
#
# Static dielectric constant tensor:
#      x y z
#    x 2.031410 0.000000 0.000000 
#    y 0.000000 1.746980 0.000000 
#    z 0.000000 0.000000 1.800560 
# 
# From -- ./inp_files/12088.got.cif
#   From: 2010.05.17/outbox.cif.g08.bks.cpg/sg57_7_cif.got.tgz:12088.got - 2010.06.03 13:58:18.
