data_PCOD9439509
_publ_section_title
;
Structure prediction by ZEFSAII (Michael W. Deem and Ramdas Pophale) SiO2 
 PCOD9439509
Probable space group: P B C M
;
_chemical_formula_sum "Si O2"
_cell_formula_units_Z 40
_cell_length_a 8.489000
_cell_length_b 15.743281
_cell_length_c 13.514671
_cell_angle_alpha 90.000000
_cell_angle_beta 90.000000
_cell_angle_gamma 90.000000
_cell_volume 1806.164319
_symmetry_space_group_name_H-M "P B C M"
_symmetry_group_IT_number 57
_symmetry_cell_setting 'orthorhombic'
loop_
_space_group_symop_operation_xyz
x,y,z
-x,-y,1/2+z
x,1/2-y,-z
-x,1/2+y,1/2-z
-x,-y,-z
x,y,1/2-z
-x,1/2+y,z
x,1/2-y,1/2+z
loop_
_atom_site_type_symbol
_atom_site_label
_atom_site_fract_x
_atom_site_fract_y
_atom_site_fract_z
Si Si1 0.020436 0.676836 0.864054
Si Si2 0.790030 0.671447 0.362869
Si Si3 0.695634 0.132185 0.485734
Si Si4 0.532592 0.273186 0.137102
Si Si5 0.834853 0.541370 0.533959
O O1 0.074677 0.672070 0.750000
O O2 0.154193 0.655875 0.944676
O O3 0.941804 0.768900 0.880529
O O4 0.882417 0.606949 0.880349
O O5 0.797514 0.639508 0.250000
O O6 0.638409 0.731558 0.371811
O O7 0.778850 0.596932 0.441205
O O8 0.654722 0.200072 0.400380
O O9 0.554294 0.147857 0.563682
O O10 0.721534 0.037985 0.445639
O O11 0.560172 0.295932 0.250000
O O12 0.000000 0.500000 0.500000
#
# Coordination Sequence:
#
# PCOD9439509 Si02
#       5
#     8   8   8   8   8
#     4  10  22  41  66  93 125 170 222 267 318 379
#     4  10  23  43  66  92 127 172 217 262 317 388
#     4  10  23  40  63  97 127 170 211 269 322 387
#     4  10  23  42  63  91 128 172 213 256 323 392
#     4  10  23  38  64  96 126 162 213 269 325 369
#
# _framework density 22.146377999999999
#
# number of rings (size 3 to 8) (size 9 to 14) (size 15 to 20)
#    0.000    2.000    0.000    1.200   16.800    5.600 
#    0.000    0.000    0.000    0.000    0.000    0.000 
#    0.000    0.000    0.000    0.000    0.000    0.000 
#
# Total GULP energy -223499.521294 kJ/mol
# GULP energy per Si atom -5587.488032 kJ/mol
# Density = 2.209597 g / cm^3
# Si number density = 22.146378 Si / 1000 Ang^3
#
#
#
# Elastic Constant Matrix: (Units=GPa)
#
#
# Indices 1 2 3 4 5 6 
#
# 1 58.7983 8.5313 15.9582 0.0000 0.0000 0.0000
# 2 8.5313 51.5984 -13.2948 0.0000 0.0000 0.0000
# 3 15.9582 -13.2948 58.4991 0.0000 0.0000 0.0000
# 4 0.0000 0.0000 0.0000 11.0098 0.0000 0.0000
# 5 0.0000 0.0000 0.0000 0.0000 30.2891 0.0000
# 6 0.0000 0.0000 0.0000 0.0000 0.0000 30.5001
#
#
#
# Elastic Compliance Matrix: (Units=1/GPa)
#
#
# Indices 1 2 3 4 5 6 
#
# 1 0.019455 -0.004869 -0.006414 0.000000 0.000000 0.000000
# 2 -0.004869 0.021805 0.006284 0.000000 0.000000 0.000000
# 3 -0.006414 0.006284 0.020272 0.000000 0.000000 0.000000
# 4 0.000000 0.000000 0.000000 0.090828 0.000000 0.000000
# 5 0.000000 0.000000 0.000000 0.000000 0.033015 0.000000
# 6 0.000000 0.000000 0.000000 0.000000 0.000000 0.032787
#
#
# Mechanical properties :
#
#
# Convention : Reuss Voigt Hill
#
# Bulk Modulus (GPa) = 19.40513 21.25391 20.32952
# Shear Modulus (GPa) = 20.38017 24.87323 22.62670
#
# Velocity S-wave (km/s) = 3.03685 3.35495 3.19985
# Velocity P-wave (km/s) = 4.59106 4.96240 4.78034
#
# Compressibility (1/GPa) = 0.05153277
#
# Stress axis : x y z
#
# Youngs Moduli (GPa) = 51.40198 45.86197 49.32925
#
# Poissons Ratio (x) = 0.22331 0.31638
# Poissons Ratio (y) = 0.25028 -0.30997
# Poissons Ratio (z) = 0.32968 -0.28818
#
# Static dielectric constant tensor:
#      x y z
#    x 1.911570 0.000000 0.000000 
#    y 0.000000 1.813640 0.000000 
#    z 0.000000 0.000000 1.790210 
# 
# From -- ./inp_files/15908.got.cif
#   From: 2010.05.17/outbox.cif.g08.bks.cpg/sg57_8_cif.got.tgz:15908.got - 2010.06.03 13:58:18.
