data_PCOD9439556
_publ_section_title
;
Structure prediction by ZEFSAII (Michael W. Deem and Ramdas Pophale) SiO2 
 PCOD9439556
Probable space group: P B C M
;
_chemical_formula_sum "Si O2"
_cell_formula_units_Z 48
_cell_length_a 6.724548
_cell_length_b 14.099794
_cell_length_c 21.753137
_cell_angle_alpha 90.000000
_cell_angle_beta 90.000000
_cell_angle_gamma 90.000000
_cell_volume 2062.518062
_symmetry_space_group_name_H-M "P B C M"
_symmetry_group_IT_number 57
_symmetry_cell_setting 'orthorhombic'
loop_
_space_group_symop_operation_xyz
x,y,z
-x,-y,1/2+z
x,1/2-y,-z
-x,1/2+y,1/2-z
-x,-y,-z
x,y,1/2-z
-x,1/2+y,z
x,1/2-y,1/2+z
loop_
_atom_site_type_symbol
_atom_site_label
_atom_site_fract_x
_atom_site_fract_y
_atom_site_fract_z
Si Si1 0.681714 0.527746 0.547322
Si Si2 0.942450 0.375355 0.416581
Si Si3 0.527193 0.208828 0.563556
Si Si4 0.980561 0.719384 0.317381
Si Si5 0.247247 0.022030 0.181043
Si Si6 0.372154 0.876772 0.644108
O O1 0.500000 0.500000 0.500000
O O2 0.579354 0.613577 0.583941
O O3 0.722446 0.435842 0.587869
O O4 0.898188 0.576995 0.537037
O O5 0.755859 0.322706 0.447523
O O6 0.035415 0.296059 0.371291
O O7 0.843926 0.454410 0.371251
O O8 0.443150 0.250000 0.500000
O O9 0.510535 0.290624 0.612961
O O10 0.936806 0.761023 0.250000
O O11 0.203417 0.675860 0.318115
O O12 0.852105 0.625070 0.325372
O O13 0.206808 0.984650 0.250000
O O14 0.479949 0.048651 0.175103
#
# Coordination Sequence:
#
# PCOD9439556 Si02
#       6
#     8   8   8   8   8   8
#     4  12  24  43  66  96 133 177 226 280 342 407
#     4  11  24  42  66  98 133 172 226 282 333 405
#     4  11  24  43  64  95 130 176 227 276 336 403
#     4  10  22  42  67  95 132 175 223 278 343 405
#     4  11  22  40  67  97 130 174 222 272 343 407
#     4  11  22  42  65  94 134 171 222 284 334 403
#
# _framework density 23.272523
#
# number of rings (size 3 to 8) (size 9 to 14) (size 15 to 20)
#    0.000    1.000    5.000    2.000    0.000    1.333 
#    6.000    0.000    0.000    0.000    0.000    0.000 
#    0.000    0.000    0.000    0.000    0.000    0.000 
#
# Total GULP energy -267780.748267 kJ/mol
# GULP energy per Si atom -5578.765589 kJ/mol
# Density = 2.321955 g / cm^3
# Si number density = 23.272523 Si / 1000 Ang^3
#
#
#
# Elastic Constant Matrix: (Units=GPa)
#
#
# Indices 1 2 3 4 5 6 
#
# 1 60.0365 6.1509 19.1500 0.0000 0.0000 0.0000
# 2 6.1509 99.0359 29.1143 0.0000 0.0000 0.0000
# 3 19.1500 29.1143 59.1786 0.0000 0.0000 0.0000
# 4 0.0000 0.0000 0.0000 24.1332 0.0000 0.0000
# 5 0.0000 0.0000 0.0000 0.0000 25.1693 0.0000
# 6 0.0000 0.0000 0.0000 0.0000 0.0000 46.8122
#
#
#
# Elastic Compliance Matrix: (Units=1/GPa)
#
#
# Indices 1 2 3 4 5 6 
#
# 1 0.018617 0.000719 -0.006378 0.000000 0.000000 0.000000
# 2 0.000719 0.011832 -0.006054 0.000000 0.000000 0.000000
# 3 -0.006378 -0.006054 0.021940 0.000000 0.000000 0.000000
# 4 0.000000 0.000000 0.000000 0.041437 0.000000 0.000000
# 5 0.000000 0.000000 0.000000 0.000000 0.039731 0.000000
# 6 0.000000 0.000000 0.000000 0.000000 0.000000 0.021362
#
#
# Mechanical properties :
#
#
# Convention : Reuss Voigt Hill
#
# Bulk Modulus (GPa) = 34.52609 36.34240 35.43424
# Shear Modulus (GPa) = 26.59568 30.14532 28.37050
#
# Velocity S-wave (km/s) = 3.38419 3.60296 3.49529
# Velocity P-wave (km/s) = 5.48982 5.74093 5.61678
#
# Compressibility (1/GPa) = 0.02896360
#
# Stress axis : x y z
#
# Youngs Moduli (GPa) = 53.71339 84.51379 45.57837
#
# Poissons Ratio (x) = -0.06074 0.29070
# Poissons Ratio (y) = -0.03861 0.27592
# Poissons Ratio (z) = 0.34259 0.51163
#
# Static dielectric constant tensor:
#      x y z
#    x 1.987460 0.000000 0.000000 
#    y 0.000000 1.811640 0.000000 
#    z 0.000000 0.000000 1.867550 
# 
# From -- ./inp_files/27957.got.cif
#   From: 2010.05.17/outbox.cif.g08.bks.cpg/sg57_14_cif.got.tgz:27957.got - 2010.06.03 13:58:18.
