data_PCOD9439533
_publ_section_title
;
Structure prediction by ZEFSAII (Michael W. Deem and Ramdas Pophale) SiO2 
 PCOD9439533
Probable space group: P B C M
;
_chemical_formula_sum "Si O2"
_cell_formula_units_Z 64
_cell_length_a 7.430880
_cell_length_b 24.222046
_cell_length_c 14.679537
_cell_angle_alpha 90.000000
_cell_angle_beta 90.000000
_cell_angle_gamma 90.000000
_cell_volume 2642.186264
_symmetry_space_group_name_H-M "P B C M"
_symmetry_group_IT_number 57
_symmetry_cell_setting 'orthorhombic'
loop_
_space_group_symop_operation_xyz
x,y,z
-x,-y,1/2+z
x,1/2-y,-z
-x,1/2+y,1/2-z
-x,-y,-z
x,y,1/2-z
-x,1/2+y,z
x,1/2-y,1/2+z
loop_
_atom_site_type_symbol
_atom_site_label
_atom_site_fract_x
_atom_site_fract_y
_atom_site_fract_z
Si Si1 0.845293 0.570707 0.650789
Si Si2 0.238541 0.896470 0.491452
Si Si3 0.849008 0.922747 0.954207
Si Si4 0.688471 0.197070 0.640289
Si Si5 0.209967 0.310156 0.854072
Si Si6 0.254937 0.524521 0.650651
Si Si7 0.726695 0.805479 0.356393
Si Si8 0.637958 0.321329 0.649006
O O1 0.765421 0.555149 0.750000
O O2 0.770868 0.556239 0.550986
O O3 0.828911 0.637032 0.643266
O O4 0.050411 0.548970 0.653893
O O5 0.203002 0.845253 0.422098
O O6 0.344445 0.939724 0.428627
O O7 0.330994 0.868677 0.576917
O O8 0.063380 0.927388 0.530771
O O9 0.832076 0.859243 0.923414
O O10 0.767346 0.961217 0.876682
O O11 0.706394 0.185919 0.750000
O O12 0.478524 0.188050 0.609331
O O13 0.726180 0.261977 0.626152
O O14 0.139627 0.319637 0.750000
O O15 0.168930 0.248589 0.890216
O O16 0.426176 0.309959 0.848034
O O17 0.335937 0.532161 0.750000
O O18 0.700162 0.791605 0.250000
O O19 0.698652 0.337677 0.750000
#
# Coordination Sequence:
#
# PCOD9439533 Si02
#       8
#     8   8   8   8   8   8   8   8
#     4   9  18  34  55  83 116 149 193 248 296 350
#     4  11  21  36  58  90 117 151 202 245 299 365
#     4  11  23  38  60  85 117 156 209 250 298 349
#     4   9  18  35  59  85 121 162 194 235 294 363
#     4   9  19  38  61  86 118 161 205 245 294 355
#     4  10  22  42  63  82 116 162 202 251 310 357
#     4   8  16  33  58  87 116 153 201 243 292 353
#     4   9  20  38  59  85 123 164 195 236 301 362
#
# _framework density 24.222363999999999
#
# number of rings (size 3 to 8) (size 9 to 14) (size 15 to 20)
#    0.000    2.500    0.000    4.125    1.750    2.000 
#    9.000    1.250    2.750    0.000    0.000    0.000 
#    0.000    0.000    0.000    0.000    0.000    0.000 
#
# Total GULP energy -357149.436276 kJ/mol
# GULP energy per Si atom -5580.459942 kJ/mol
# Density = 2.416723 g / cm^3
# Si number density = 24.222364 Si / 1000 Ang^3
#
#
#
# Elastic Constant Matrix: (Units=GPa)
#
#
# Indices 1 2 3 4 5 6 
#
# 1 56.3064 -4.8758 2.1607 0.0000 0.0000 0.0000
# 2 -4.8758 74.7051 11.1846 0.0000 0.0000 0.0000
# 3 2.1607 11.1846 72.8171 0.0000 0.0000 0.0000
# 4 0.0000 0.0000 0.0000 40.6136 0.0000 0.0000
# 5 0.0000 0.0000 0.0000 0.0000 262.9573 0.0000
# 6 0.0000 0.0000 0.0000 0.0000 0.0000 41.2119
#
#
#
# Elastic Compliance Matrix: (Units=1/GPa)
#
#
# Indices 1 2 3 4 5 6 
#
# 1 0.017898 0.001277 -0.000727 0.000000 0.000000 0.000000
# 2 0.001277 0.013792 -0.002156 0.000000 0.000000 0.000000
# 3 -0.000727 -0.002156 0.014086 0.000000 0.000000 0.000000
# 4 0.000000 0.000000 0.000000 0.024622 0.000000 0.000000
# 5 0.000000 0.000000 0.000000 0.000000 0.003803 0.000000
# 6 0.000000 0.000000 0.000000 0.000000 0.000000 0.024265
#
#
# Mechanical properties :
#
#
# Convention : Reuss Voigt Hill
#
# Bulk Modulus (GPa) = 23.49436 24.52971 24.01203
# Shear Modulus (GPa) = 43.15283 81.98053 62.56668
#
# Velocity S-wave (km/s) = 4.22539 5.82395 5.08785
# Velocity P-wave (km/s) = 5.79015 7.44134 6.66706
#
# Compressibility (1/GPa) = 0.04256341
#
# Stress axis : x y z
#
# Youngs Moduli (GPa) = 55.87073 72.50501 70.99333
#
# Poissons Ratio (x) = -0.09259 0.05163
# Poissons Ratio (y) = -0.07135 0.15309
# Poissons Ratio (z) = 0.04063 0.15635
#
# Static dielectric constant tensor:
#      x y z
#    x 1.972730 0.000000 0.000000 
#    y 0.000000 1.954150 0.000000 
#    z 0.000000 0.000000 2.013570 
# 
# From -- ./inp_files/16943.got.cif
#   From: 2010.05.17/outbox.cif.g08.bks.cpg/sg57_9_cif.got.tgz:16943.got - 2010.06.03 13:58:18.
