data_PCOD9439188
_publ_section_title
;
Structure prediction by ZEFSAII (Michael W. Deem and Ramdas Pophale) SiO2 
 PCOD9439188
Probable space group: P B C M
;
_chemical_formula_sum "Si O2"
_cell_formula_units_Z 40
_cell_length_a 24.406442
_cell_length_b 5.514927
_cell_length_c 15.243221
_cell_angle_alpha 90.000000
_cell_angle_beta 90.000000
_cell_angle_gamma 90.000000
_cell_volume 2051.733674
_symmetry_space_group_name_H-M "P B C M"
_symmetry_group_IT_number 57
_symmetry_cell_setting 'orthorhombic'
loop_
_space_group_symop_operation_xyz
x,y,z
-x,-y,1/2+z
x,1/2-y,-z
-x,1/2+y,1/2-z
-x,-y,-z
x,y,1/2-z
-x,1/2+y,z
x,1/2-y,1/2+z
loop_
_atom_site_type_symbol
_atom_site_label
_atom_site_fract_x
_atom_site_fract_y
_atom_site_fract_z
Si Si1 0.193552 0.219086 0.250000
Si Si2 0.691975 0.250000 0.500000
Si Si3 0.534307 0.952256 0.750000
Si Si4 0.033497 0.749758 0.103902
Si Si5 0.874584 0.221168 0.250000
Si Si6 0.386539 0.360458 0.588680
Si Si7 0.274208 0.144115 0.901957
O O1 0.154988 0.458769 0.250000
O O2 0.232801 0.247584 0.165917
O O3 0.163736 0.960004 0.250000
O O4 0.650570 0.423547 0.448445
O O5 0.729791 0.361394 0.576095
O O6 0.496049 0.711940 0.750000
O O7 0.571821 0.931619 0.836588
O O8 0.086468 0.738039 0.164889
O O9 0.998388 0.503797 0.121861
O O10 0.046486 0.750000 0.000000
O O11 0.413103 0.250000 0.500000
O O12 0.338093 0.183645 0.623762
O O13 0.266535 0.250000 0.000000
#
# Coordination Sequence:
#
# PCOD9439188 Si02
#       7
#     4   4   4   8   4   8   8
#     4  12  27  38  60  94 136 169 196 248 324 376
#     4   8  18  38  70  84 112 162 218 258 294 344
#     4  12  29  41  60  96 129 161 196 252 324 380
#     4  10  21  41  69  89 115 164 219 259 301 356
#     4  12  26  39  58  96 135 164 196 258 320 368
#     4   9  21  42  66  89 117 160 215 257 298 363
#     4   9  21  40  65  90 116 167 215 253 296 366
#
# _framework density 19.495706999999999
#
# number of rings (size 3 to 8) (size 9 to 14) (size 15 to 20)
#    0.000    2.400    0.000    2.400   11.200    3.200 
#    0.000    0.000    0.000    0.000    0.000    0.000 
#    0.000    0.000    0.000    0.000    0.000    0.000 
#
# Total GULP energy -222799.497950 kJ/mol
# GULP energy per Si atom -5569.987449 kJ/mol
# Density = 1.945133 g / cm^3
# Si number density = 19.495707 Si / 1000 Ang^3
#
#
#
# Elastic Constant Matrix: (Units=GPa)
#
#
# Indices 1 2 3 4 5 6 
#
# 1 64.5074 20.8482 44.9333 0.0000 0.0000 0.0000
# 2 20.8482 89.4316 16.1022 0.0000 0.0000 0.0000
# 3 44.9333 16.1022 90.2881 0.0000 0.0000 0.0000
# 4 0.0000 0.0000 0.0000 17.6628 0.0000 0.0000
# 5 0.0000 0.0000 0.0000 0.0000 -63.2117 0.0000
# 6 0.0000 0.0000 0.0000 0.0000 0.0000 28.3532
#
#
#
# Elastic Compliance Matrix: (Units=1/GPa)
#
#
# Indices 1 2 3 4 5 6 
#
# 1 0.024849 -0.003685 -0.011710 0.000000 0.000000 0.000000
# 2 -0.003685 0.012099 -0.000324 0.000000 0.000000 0.000000
# 3 -0.011710 -0.000324 0.016961 0.000000 0.000000 0.000000
# 4 0.000000 0.000000 0.000000 0.056616 0.000000 0.000000
# 5 0.000000 0.000000 0.000000 0.000000 -0.015820 0.000000
# 6 0.000000 0.000000 0.000000 0.000000 0.000000 0.035269
#
#
# Mechanical properties :
#
#
# Convention : Reuss Voigt Hill
#
# Bulk Modulus (GPa) = 44.49810 45.33272 44.91541
# Shear Modulus (GPa) = 29.60292 7.38375 18.49333
#
# Velocity S-wave (km/s) = 3.90093 1.94823 3.08325
# Velocity P-wave (km/s) = 6.56992 5.32578 5.98029
#
# Compressibility (1/GPa) = 0.02247287
#
# Stress axis : x y z
#
# Youngs Moduli (GPa) = 40.24253 82.65128 58.95912
#
# Poissons Ratio (x) = 0.30453 0.69039
# Poissons Ratio (y) = 0.14827 0.01911
# Poissons Ratio (z) = 0.47122 0.02679
#
# Static dielectric constant tensor:
#      x y z
#    x 1.656140 0.000000 0.000000 
#    y 0.000000 1.920300 0.000000 
#    z 0.000000 0.000000 1.663300 
# 
# From -- ./inp_files/19453.got.cif
#   From: 2010.05.17/outbox.cif.g08.bks.cpg/sg57_10_cif.got.tgz:19453.got - 2010.06.03 13:58:18.
