data_PCOD9439677
_publ_section_title
;
Structure prediction by ZEFSAII (Michael W. Deem and Ramdas Pophale) SiO2 
 PCOD9439677
Probable space group: P B C M
;
_chemical_formula_sum "Si O2"
_cell_formula_units_Z 48
_cell_length_a 31.438516
_cell_length_b 9.282410
_cell_length_c 8.579720
_cell_angle_alpha 90.000000
_cell_angle_beta 90.000000
_cell_angle_gamma 90.000000
_cell_volume 2503.778465
_symmetry_space_group_name_H-M "P B C M"
_symmetry_group_IT_number 57
_symmetry_cell_setting 'orthorhombic'
loop_
_space_group_symop_operation_xyz
x,y,z
-x,-y,1/2+z
x,1/2-y,-z
-x,1/2+y,1/2-z
-x,-y,-z
x,y,1/2-z
-x,1/2+y,z
x,1/2-y,1/2+z
loop_
_atom_site_type_symbol
_atom_site_label
_atom_site_fract_x
_atom_site_fract_y
_atom_site_fract_z
Si Si1 0.712467 0.088714 0.936591
Si Si2 0.791728 0.911480 0.437740
Si Si3 0.459801 0.411517 0.936580
Si Si4 0.040432 0.087456 0.937514
Si Si5 0.875591 0.088051 0.437828
Si Si6 0.380365 0.911658 0.936759
O O1 0.710805 0.092746 0.750000
O O2 0.721090 0.250000 0.000000
O O3 0.666382 0.044978 0.003031
O O4 0.749318 0.983774 0.994755
O O5 0.796584 0.750000 0.500000
O O6 0.789607 0.909985 0.250000
O O7 0.832416 0.007186 0.486090
O O8 0.460247 0.411950 0.750000
O O9 0.462348 0.250000 0.000000
O O10 0.500000 0.500000 0.000000
O O11 0.416898 0.485906 0.998163
O O12 0.039108 0.090603 0.750000
O O13 0.083332 0.004185 0.987291
O O14 0.040206 0.250000 0.000000
O O15 0.000000 0.000000 0.000000
O O16 0.877345 0.250000 0.500000
O O17 0.875868 0.093679 0.250000
O O18 0.380878 0.909978 0.750000
O O19 0.387988 0.750000 0.000000
#
# Coordination Sequence:
#
# PCOD9439677 Si02
#       6
#     8   8   8   8   8   8
#     4  11  22  39  62  90 121 158 199 245 295 353
#     4  11  23  40  60  87 119 156 198 246 298 354
#     4  12  25  43  64  91 123 160 202 249 300 356
#     4  11  23  40  61  89 121 158 199 246 297 354
#     4  10  23  40  61  87 118 154 198 245 297 354
#     4  11  22  40  64  92 123 160 201 247 298 355
#
# _framework density 19.171025
#
# number of rings (size 3 to 8) (size 9 to 14) (size 15 to 20)
#    0.000    1.000    0.000    8.500    0.000    6.000 
#    0.000    3.333    0.000    0.000    0.000    0.000 
#    0.000    0.000    0.000    0.000    0.000    0.000 
#
# Total GULP energy -268644.674845 kJ/mol
# GULP energy per Si atom -5596.764059 kJ/mol
# Density = 1.912739 g / cm^3
# Si number density = 19.171025 Si / 1000 Ang^3
#
#
#
# Elastic Constant Matrix: (Units=GPa)
#
#
# Indices 1 2 3 4 5 6 
#
# 1 180.2976 138.4717 73.3865 0.0000 0.0000 0.0000
# 2 138.4717 187.6612 67.7002 0.0000 0.0000 0.0000
# 3 73.3865 67.7002 153.6828 0.0000 0.0000 0.0000
# 4 0.0000 0.0000 0.0000 40.9695 0.0000 0.0000
# 5 0.0000 0.0000 0.0000 0.0000 32.1406 0.0000
# 6 0.0000 0.0000 0.0000 0.0000 0.0000 49.2805
#
#
#
# Elastic Compliance Matrix: (Units=1/GPa)
#
#
# Indices 1 2 3 4 5 6 
#
# 1 0.013537 -0.009103 -0.002454 0.000000 0.000000 0.000000
# 2 -0.009103 0.012457 -0.001141 0.000000 0.000000 0.000000
# 3 -0.002454 -0.001141 0.008181 0.000000 0.000000 0.000000
# 4 0.000000 0.000000 0.000000 0.024408 0.000000 0.000000
# 5 0.000000 0.000000 0.000000 0.000000 0.031113 0.000000
# 6 0.000000 0.000000 0.000000 0.000000 0.000000 0.020292
#
#
# Mechanical properties :
#
#
# Convention : Reuss Voigt Hill
#
# Bulk Modulus (GPa) = 113.90087 120.08425 116.99256
# Shear Modulus (GPa) = 36.15049 40.61699 38.38374
#
# Velocity S-wave (km/s) = 4.34716 4.60789 4.47942
# Velocity P-wave (km/s) = 9.20538 9.54382 9.37613
#
# Compressibility (1/GPa) = 0.00877956
#
# Stress axis : x y z
#
# Youngs Moduli (GPa) = 73.87430 80.27428 122.23138
#
# Poissons Ratio (x) = 0.73074 0.29994
# Poissons Ratio (y) = 0.67248 0.13944
# Poissons Ratio (z) = 0.18128 0.09157
#
# Static dielectric constant tensor:
#      x y z
#    x 1.647850 0.000000 0.000000 
#    y 0.000000 1.624740 0.000000 
#    z 0.000000 0.000000 1.644480 
# 
# From -- ./inp_files/9985.got.cif
#   From: 2010.05.17/outbox.cif.g08.bks.cpg/sg57_5_cif.got.tgz:9985.got - 2010.06.03 13:58:18.
