data_PCOD9439068
_publ_section_title
;
Structure prediction by ZEFSAII (Michael W. Deem and Ramdas Pophale) SiO2 
 PCOD9439068
Probable space group: P B C M
;
_chemical_formula_sum "Si O2"
_cell_formula_units_Z 48
_cell_length_a 8.905336
_cell_length_b 9.501955
_cell_length_c 26.877719
_cell_angle_alpha 90.000000
_cell_angle_beta 90.000000
_cell_angle_gamma 90.000000
_cell_volume 2274.341566
_symmetry_space_group_name_H-M "P B C M"
_symmetry_group_IT_number 57
_symmetry_cell_setting 'orthorhombic'
loop_
_space_group_symop_operation_xyz
x,y,z
-x,-y,1/2+z
x,1/2-y,-z
-x,1/2+y,1/2-z
-x,-y,-z
x,y,1/2-z
-x,1/2+y,z
x,1/2-y,1/2+z
loop_
_atom_site_type_symbol
_atom_site_label
_atom_site_fract_x
_atom_site_fract_y
_atom_site_fract_z
Si Si1 0.670606 0.690960 0.868819
Si Si2 0.367970 0.697798 0.808241
Si Si3 0.175056 0.478315 0.870005
Si Si4 0.147467 0.926661 0.851355
Si Si5 0.178938 0.724079 0.943879
Si Si6 0.481135 0.365692 0.033993
O O1 0.531318 0.720996 0.832472
O O2 0.741111 0.837399 0.886806
O O3 0.792813 0.585208 0.847181
O O4 0.606065 0.606709 0.915926
O O5 0.381843 0.672267 0.750000
O O6 0.288845 0.568042 0.836406
O O7 0.257296 0.828784 0.819135
O O8 0.125419 0.583257 0.914829
O O9 0.028518 0.431279 0.839528
O O10 0.153438 0.854078 0.906497
O O11 0.357859 0.697668 0.949981
O O12 0.120338 0.750000 0.000000
O O13 0.401283 0.250000 0.000000
O O14 0.500000 0.500000 0.000000
#
# Coordination Sequence:
#
# PCOD9439068 Si02
#       6
#     8   8   8   8   8   8
#     4  12  22  40  70  97 129 171 218 276 316 384
#     4  11  26  46  69  95 126 166 220 277 332 393
#     4  11  24  43  67  96 134 174 214 268 331 389
#     4  11  24  43  65  95 135 169 213 266 330 388
#     4  10  21  40  62  93 137 176 217 262 315 384
#     4  11  21  34  61  95 128 167 215 260 312 367
#
# _framework density 21.10501
#
# number of rings (size 3 to 8) (size 9 to 14) (size 15 to 20)
#    0.000    1.000    3.333    6.000    0.000    4.000 
#    0.000    5.000    0.000    0.000    0.000    0.000 
#    0.000    0.000    0.000    0.000    0.000    0.000 
#
# Total GULP energy -268181.533770 kJ/mol
# GULP energy per Si atom -5587.115287 kJ/mol
# Density = 2.105697 g / cm^3
# Si number density = 21.105010 Si / 1000 Ang^3
#
#
#
# Elastic Constant Matrix: (Units=GPa)
#
#
# Indices 1 2 3 4 5 6 
#
# 1 78.4191 16.8367 4.9858 0.0000 0.0000 0.0000
# 2 16.8367 121.0310 24.8088 0.0000 0.0000 0.0000
# 3 4.9858 24.8088 80.6461 0.0000 0.0000 0.0000
# 4 0.0000 0.0000 0.0000 9.7630 0.0000 0.0000
# 5 0.0000 0.0000 0.0000 0.0000 3.0773 0.0000
# 6 0.0000 0.0000 0.0000 0.0000 0.0000 24.4967
#
#
#
# Elastic Compliance Matrix: (Units=1/GPa)
#
#
# Indices 1 2 3 4 5 6 
#
# 1 0.013150 -0.001775 -0.000267 0.000000 0.000000 0.000000
# 2 -0.001775 0.009058 -0.002677 0.000000 0.000000 0.000000
# 3 -0.000267 -0.002677 0.013240 0.000000 0.000000 0.000000
# 4 0.000000 0.000000 0.000000 0.102428 0.000000 0.000000
# 5 0.000000 0.000000 0.000000 0.000000 0.324963 0.000000
# 6 0.000000 0.000000 0.000000 0.000000 0.000000 0.040822
#
#
# Mechanical properties :
#
#
# Convention : Reuss Voigt Hill
#
# Bulk Modulus (GPa) = 38.44537 41.48432 39.96484
# Shear Modulus (GPa) = 9.58282 23.03171 16.30727
#
# Velocity S-wave (km/s) = 2.13317 3.30705 2.78271
# Velocity P-wave (km/s) = 4.93183 5.85499 5.41313
#
# Compressibility (1/GPa) = 0.02601093
#
# Stress axis : x y z
#
# Youngs Moduli (GPa) = 76.04576 110.40107 75.52989
#
# Poissons Ratio (x) = 0.19591 0.02017
# Poissons Ratio (y) = 0.13495 0.20217
# Poissons Ratio (z) = 0.02031 0.29551
#
# Static dielectric constant tensor:
#      x y z
#    x 1.769650 0.000000 0.000000 
#    y 0.000000 1.766180 0.000000 
#    z 0.000000 0.000000 1.773330 
# 
# From -- ./inp_files/29480.got.cif
#   From: 2010.05.17/outbox.cif.g08.bks.cpg/sg57_15_cif.got.tgz:29480.got - 2010.06.03 13:58:18.
