data_PCOD9439401
_publ_section_title
;
Structure prediction by ZEFSAII (Michael W. Deem and Ramdas Pophale) SiO2 
 PCOD9439401
Probable space group: P B C M
;
_chemical_formula_sum "Si O2"
_cell_formula_units_Z 28
_cell_length_a 7.537977
_cell_length_b 17.451612
_cell_length_c 9.632144
_cell_angle_alpha 90.000000
_cell_angle_beta 90.000000
_cell_angle_gamma 90.000000
_cell_volume 1267.107097
_symmetry_space_group_name_H-M "P B C M"
_symmetry_group_IT_number 57
_symmetry_cell_setting 'orthorhombic'
loop_
_space_group_symop_operation_xyz
x,y,z
-x,-y,1/2+z
x,1/2-y,-z
-x,1/2+y,1/2-z
-x,-y,-z
x,y,1/2-z
-x,1/2+y,z
x,1/2-y,1/2+z
loop_
_atom_site_type_symbol
_atom_site_label
_atom_site_fract_x
_atom_site_fract_y
_atom_site_fract_z
Si Si1 0.639843 0.817308 0.405513
Si Si2 0.293605 0.750000 0.000000
Si Si3 0.842072 0.407866 0.904753
Si Si4 0.744860 0.543387 0.409157
O O1 0.727225 0.750000 0.500000
O O2 0.714072 0.824306 0.250000
O O3 0.435876 0.789784 0.397668
O O4 0.650252 0.894626 0.493624
O O5 0.183376 0.818495 0.934629
O O6 0.773950 0.425479 0.750000
O O7 0.049228 0.429661 0.907623
O O8 0.745974 0.460934 0.017803
O O9 0.681227 0.542359 0.250000
#
# Coordination Sequence:
#
# PCOD9439401 Si02
#       4
#     8   4   8   8
#     4  10  22  40  61  88 121 160 201 247 300 361
#     4  10  24  38  62  90 122 160 204 252 302 364
#     4  10  22  42  64  91 123 160 204 253 302 359
#     4  10  22  40  65  93 122 160 204 251 304 361
#
# _framework density 22.097581000000002
#
# number of rings (size 3 to 8) (size 9 to 14) (size 15 to 20)
#    0.857    1.143    0.000    2.571    2.000    4.571 
#    0.000    0.000    0.000    0.000    0.000    0.000 
#    0.000    0.000    0.000    0.000    0.000    0.000 
#
# Total GULP energy -156290.993970 kJ/mol
# GULP energy per Si atom -5581.821213 kJ/mol
# Density = 2.204729 g / cm^3
# Si number density = 22.097581 Si / 1000 Ang^3
#
#
#
# Elastic Constant Matrix: (Units=GPa)
#
#
# Indices 1 2 3 4 5 6 
#
# 1 36.0342 41.1293 33.4047 0.0000 0.0000 0.0000
# 2 41.1293 155.3591 77.5616 0.0000 0.0000 0.0000
# 3 33.4047 77.5616 206.1607 0.0000 0.0000 0.0000
# 4 0.0000 0.0000 0.0000 20.3799 0.0000 0.0000
# 5 0.0000 0.0000 0.0000 0.0000 7.3914 0.0000
# 6 0.0000 0.0000 0.0000 0.0000 0.0000 40.2901
#
#
#
# Elastic Compliance Matrix: (Units=1/GPa)
#
#
# Indices 1 2 3 4 5 6 
#
# 1 0.041397 -0.009371 -0.003182 0.000000 0.000000 0.000000
# 2 -0.009371 0.010046 -0.002261 0.000000 0.000000 0.000000
# 3 -0.003182 -0.002261 0.006217 0.000000 0.000000 0.000000
# 4 0.000000 0.000000 0.000000 0.049068 0.000000 0.000000
# 5 0.000000 0.000000 0.000000 0.000000 0.135292 0.000000
# 6 0.000000 0.000000 0.000000 0.000000 0.000000 0.024820
#
#
# Mechanical properties :
#
#
# Convention : Reuss Voigt Hill
#
# Bulk Modulus (GPa) = 35.67350 77.97168 56.82259
# Shear Modulus (GPa) = 16.34987 29.97618 23.16302
#
# Velocity S-wave (km/s) = 2.72305 3.68711 3.24113
# Velocity P-wave (km/s) = 5.10542 7.31356 6.30688
#
# Compressibility (1/GPa) = 0.02803201
#
# Stress axis : x y z
#
# Youngs Moduli (GPa) = 24.15636 99.53839 160.85046
#
# Poissons Ratio (x) = 0.93273 0.51186
# Poissons Ratio (y) = 0.22636 0.36373
# Poissons Ratio (z) = 0.07687 0.22509
#
# Static dielectric constant tensor:
#      x y z
#    x 1.848340 0.000000 0.000000 
#    y 0.000000 1.779340 0.000000 
#    z 0.000000 0.000000 1.810490 
# 
# From -- ./inp_files/1110.got.cif
#   From: 2010.05.17/outbox.cif.g08.bks.cpg/sg57_1_cif.got.tgz:1110.got - 2010.06.03 13:58:18.
