data_PCOD9439415
_publ_section_title
;
Structure prediction by ZEFSAII (Michael W. Deem and Ramdas Pophale) SiO2 
 PCOD9439415
Probable space group: P B C M
;
_chemical_formula_sum "Si O2"
_cell_formula_units_Z 40
_cell_length_a 12.563354
_cell_length_b 19.204124
_cell_length_c 8.734736
_cell_angle_alpha 90.000000
_cell_angle_beta 90.000000
_cell_angle_gamma 90.000000
_cell_volume 2107.414103
_symmetry_space_group_name_H-M "P B C M"
_symmetry_group_IT_number 57
_symmetry_cell_setting 'orthorhombic'
loop_
_space_group_symop_operation_xyz
x,y,z
-x,-y,1/2+z
x,1/2-y,-z
-x,1/2+y,1/2-z
-x,-y,-z
x,y,1/2-z
-x,1/2+y,z
x,1/2-y,1/2+z
loop_
_atom_site_type_symbol
_atom_site_label
_atom_site_fract_x
_atom_site_fract_y
_atom_site_fract_z
Si Si1 0.317091 0.599130 0.566629
Si Si2 0.304437 0.051923 0.565740
Si Si3 0.055436 0.431026 0.433258
Si Si4 0.464851 0.173929 0.565787
Si Si5 0.109674 0.672841 0.432649
O O1 0.304686 0.601805 0.750000
O O2 0.336009 0.520035 0.514356
O O3 0.418017 0.646303 0.521982
O O4 0.210620 0.627902 0.488581
O O5 0.314472 0.043160 0.750000
O O6 0.180741 0.067037 0.531660
O O7 0.378867 0.115997 0.517933
O O8 0.042556 0.430411 0.250000
O O9 0.000000 0.500000 0.500000
O O10 0.995234 0.365355 0.504692
O O11 0.444093 0.250000 0.500000
O O12 0.461655 0.177750 0.750000
O O13 0.118790 0.750000 0.500000
O O14 0.108066 0.674998 0.250000
#
# Coordination Sequence:
#
# PCOD9439415 Si02
#       5
#     8   8   8   8   8
#     4  11  22  38  63  92 122 158 205 253 304 369
#     4  10  22  40  63  90 123 160 202 251 304 365
#     4  11  22  39  63  91 124 162 204 251 304 364
#     4  10  23  41  60  88 123 161 202 250 307 365
#     4  12  25  41  62  90 125 163 205 258 312 365
#
# _framework density 18.980608
#
# number of rings (size 3 to 8) (size 9 to 14) (size 15 to 20)
#    0.000    1.200    2.000    4.200    0.000    5.600 
#    0.000    2.000    0.000    0.000    0.000    0.000 
#    0.000    0.000    0.000    0.000    0.000    0.000 
#
# Total GULP energy -223738.680354 kJ/mol
# GULP energy per Si atom -5593.467009 kJ/mol
# Density = 1.893741 g / cm^3
# Si number density = 18.980608 Si / 1000 Ang^3
#
#
#
# Elastic Constant Matrix: (Units=GPa)
#
#
# Indices 1 2 3 4 5 6 
#
# 1 34.9212 14.8888 23.6006 0.0000 0.0000 0.0000
# 2 14.8888 132.0876 28.6057 0.0000 0.0000 0.0000
# 3 23.6006 28.6057 56.7333 0.0000 0.0000 0.0000
# 4 0.0000 0.0000 0.0000 41.6214 0.0000 0.0000
# 5 0.0000 0.0000 0.0000 0.0000 16.7449 0.0000
# 6 0.0000 0.0000 0.0000 0.0000 0.0000 31.1757
#
#
#
# Elastic Compliance Matrix: (Units=1/GPa)
#
#
# Indices 1 2 3 4 5 6 
#
# 1 0.039956 -0.001015 -0.016110 0.000000 0.000000 0.000000
# 2 -0.001015 0.008525 -0.003876 0.000000 0.000000 0.000000
# 3 -0.016110 -0.003876 0.026282 0.000000 0.000000 0.000000
# 4 0.000000 0.000000 0.000000 0.024026 0.000000 0.000000
# 5 0.000000 0.000000 0.000000 0.000000 0.059720 0.000000
# 6 0.000000 0.000000 0.000000 0.000000 0.000000 0.032076
#
#
# Mechanical properties :
#
#
# Convention : Reuss Voigt Hill
#
# Bulk Modulus (GPa) = 30.52363 39.77025 35.14694
# Shear Modulus (GPa) = 20.53335 28.35153 24.44244
#
# Velocity S-wave (km/s) = 3.29265 3.86905 3.59243
# Velocity P-wave (km/s) = 5.52918 6.39984 5.98037
#
# Compressibility (1/GPa) = 0.03276150
#
# Stress axis : x y z
#
# Youngs Moduli (GPa) = 25.02757 117.30842 38.04875
#
# Poissons Ratio (x) = 0.11907 0.61295
# Poissons Ratio (y) = 0.02540 0.14747
# Poissons Ratio (z) = 0.40318 0.45468
#
# Static dielectric constant tensor:
#      x y z
#    x 1.645370 0.000000 0.000000 
#    y 0.000000 1.702360 0.000000 
#    z 0.000000 0.000000 1.637160 
# 
# From -- ./inp_files/2627.got.cif
#   From: 2010.05.17/outbox.cif.g08.bks.cpg/sg57_2_cif.got.tgz:2627.got - 2010.06.03 13:58:18.
