data_PCOD9439164
_publ_section_title
;
Structure prediction by ZEFSAII (Michael W. Deem and Ramdas Pophale) SiO2 
 PCOD9439164
Probable space group: P B C M
;
_chemical_formula_sum "Si O2"
_cell_formula_units_Z 64
_cell_length_a 14.839964
_cell_length_b 23.585395
_cell_length_c 9.102395
_cell_angle_alpha 90.000000
_cell_angle_beta 90.000000
_cell_angle_gamma 90.000000
_cell_volume 3185.896621
_symmetry_space_group_name_H-M "P B C M"
_symmetry_group_IT_number 57
_symmetry_cell_setting 'orthorhombic'
loop_
_space_group_symop_operation_xyz
x,y,z
-x,-y,1/2+z
x,1/2-y,-z
-x,1/2+y,1/2-z
-x,-y,-z
x,y,1/2-z
-x,1/2+y,z
x,1/2-y,1/2+z
loop_
_atom_site_type_symbol
_atom_site_label
_atom_site_fract_x
_atom_site_fract_y
_atom_site_fract_z
Si Si1 0.451543 0.648257 0.418433
Si Si2 0.199592 0.359794 0.923149
Si Si3 0.129703 0.896128 0.077798
Si Si4 0.717008 0.196648 0.579141
Si Si5 0.221877 0.010100 0.074388
Si Si6 0.624668 0.811526 0.074551
Si Si7 0.996928 0.809928 0.576259
Si Si8 0.591206 0.483030 0.582083
O O1 0.467640 0.666277 0.250000
O O2 0.376693 0.685910 0.497456
O O3 0.543732 0.650865 0.509082
O O4 0.411754 0.585090 0.416082
O O5 0.224592 0.353783 0.750000
O O6 0.185626 0.426718 0.951460
O O7 0.107790 0.325734 0.947909
O O8 0.280432 0.336942 0.022025
O O9 0.103465 0.898288 0.250000
O O10 0.220542 0.858515 0.067708
O O11 0.155383 0.959372 0.026338
O O12 0.055836 0.861278 0.988456
O O13 0.762667 0.250000 0.500000
O O14 0.702596 0.208961 0.750000
O O15 0.234561 0.002815 0.250000
O O16 0.318828 0.003701 0.998169
O O17 0.619586 0.807784 0.250000
O O18 0.614394 0.750000 0.000000
O O19 0.017092 0.750000 0.500000
O O20 0.013150 0.805069 0.750000
O O21 0.500000 0.500000 0.500000
O O22 0.589971 0.503918 0.750000
#
# Coordination Sequence:
#
# PCOD9439164 Si02
#       8
#     8   8   8   8   8   8   8   8
#     4  11  23  39  58  85 121 161 204 253 308 366
#     4  10  23  43  66  93 126 164 207 259 316 371
#     4  10  22  40  64  93 126 165 205 252 309 368
#     4  11  22  37  58  86 120 159 202 248 301 361
#     4  10  21  41  65  91 127 166 207 255 310 371
#     4  12  25  41  63  90 123 163 210 262 316 376
#     4  11  24  42  66  95 126 163 208 259 315 376
#     4  11  23  37  58  87 122 165 211 257 305 362
#
# _framework density 20.088538
#
# number of rings (size 3 to 8) (size 9 to 14) (size 15 to 20)
#    0.000    1.250    1.250    4.500    0.000   10.000 
#    0.000    0.000    0.000    0.000    0.000    0.000 
#    0.000    0.000    0.000    0.000    0.000    0.000 
#
# Total GULP energy -357920.359779 kJ/mol
# GULP energy per Si atom -5592.505622 kJ/mol
# Density = 2.004282 g / cm^3
# Si number density = 20.088538 Si / 1000 Ang^3
#
#
#
# Elastic Constant Matrix: (Units=GPa)
#
#
# Indices 1 2 3 4 5 6 
#
# 1 73.5486 4.4666 48.5496 0.0000 0.0000 0.0000
# 2 4.4666 46.3558 23.4617 0.0000 0.0000 0.0000
# 3 48.5496 23.4617 106.2580 0.0000 0.0000 0.0000
# 4 0.0000 0.0000 0.0000 23.9513 0.0000 0.0000
# 5 0.0000 0.0000 0.0000 0.0000 9.7278 0.0000
# 6 0.0000 0.0000 0.0000 0.0000 0.0000 28.9291
#
#
#
# Elastic Compliance Matrix: (Units=1/GPa)
#
#
# Indices 1 2 3 4 5 6 
#
# 1 0.019835 0.003012 -0.009728 0.000000 0.000000 0.000000
# 2 0.003012 0.024744 -0.006840 0.000000 0.000000 0.000000
# 3 -0.009728 -0.006840 0.015366 0.000000 0.000000 0.000000
# 4 0.000000 0.000000 0.000000 0.041751 0.000000 0.000000
# 5 0.000000 0.000000 0.000000 0.000000 0.102798 0.000000
# 6 0.000000 0.000000 0.000000 0.000000 0.000000 0.034567
#
#
# Mechanical properties :
#
#
# Convention : Reuss Voigt Hill
#
# Bulk Modulus (GPa) = 30.45615 42.12426 36.29021
# Shear Modulus (GPa) = 18.04298 22.50061 20.27179
#
# Velocity S-wave (km/s) = 3.00020 3.35038 3.18011
# Velocity P-wave (km/s) = 5.21493 5.99846 5.62037
#
# Compressibility (1/GPa) = 0.03283409
#
# Stress axis : x y z
#
# Youngs Moduli (GPa) = 50.41652 40.41422 65.07934
#
# Poissons Ratio (x) = -0.12174 0.63307
# Poissons Ratio (y) = -0.15187 0.44512
# Poissons Ratio (z) = 0.49044 0.27642
#
# Static dielectric constant tensor:
#      x y z
#    x 1.676970 0.000000 0.000000 
#    y 0.000000 1.769880 0.000000 
#    z 0.000000 0.000000 1.683300 
# 
# From -- ./inp_files/5694.got.cif
#   From: 2010.05.17/outbox.cif.g08.bks.cpg/sg57_3_cif.got.tgz:5694.got - 2010.06.03 13:58:18.
