data_PCOD9439573
_publ_section_title
;
Structure prediction by ZEFSAII (Michael W. Deem and Ramdas Pophale) SiO2 
 PCOD9439573
Probable space group: P B C M
;
_chemical_formula_sum "Si O2"
_cell_formula_units_Z 40
_cell_length_a 18.278272
_cell_length_b 9.226652
_cell_length_c 10.616900
_cell_angle_alpha 90.000000
_cell_angle_beta 90.000000
_cell_angle_gamma 90.000000
_cell_volume 1790.511041
_symmetry_space_group_name_H-M "P B C M"
_symmetry_group_IT_number 57
_symmetry_cell_setting 'orthorhombic'
loop_
_space_group_symop_operation_xyz
x,y,z
-x,-y,1/2+z
x,1/2-y,-z
-x,1/2+y,1/2-z
-x,-y,-z
x,y,1/2-z
-x,1/2+y,z
x,1/2-y,1/2+z
loop_
_atom_site_type_symbol
_atom_site_label
_atom_site_fract_x
_atom_site_fract_y
_atom_site_fract_z
Si Si1 0.046196 0.641175 0.385124
Si Si2 0.445242 0.367832 0.250000
Si Si3 0.660419 0.580293 0.520514
Si Si4 0.404666 0.030192 0.250000
Si Si5 0.116828 0.136463 0.386634
Si Si6 0.802606 0.080333 0.474044
O O1 0.047977 0.750000 0.500000
O O2 0.047094 0.718707 0.250000
O O3 0.122752 0.557613 0.394194
O O4 0.965766 0.570622 0.391354
O O5 0.404409 0.423103 0.123346
O O6 0.436874 0.194036 0.250000
O O7 0.528388 0.418943 0.250000
O O8 0.679649 0.750000 0.500000
O O9 0.638874 0.518760 0.382401
O O10 0.729369 0.493000 0.574571
O O11 0.124641 0.250000 0.500000
O O12 0.124887 0.207176 0.250000
O O13 0.175416 0.009877 0.401889
O O14 0.792386 0.250000 0.500000
#
# Coordination Sequence:
#
# PCOD9439573 Si02
#       6
#     8   4   8   4   8   8
#     4   9  20  39  63  91 126 171 224 280 337 394
#     4  10  22  42  70 100 129 162 207 256 311 386
#     4  10  23  43  65  94 132 172 213 257 314 389
#     4  10  22  42  70  98 129 164 205 258 315 380
#     4  10  22  43  69  94 125 173 228 280 338 404
#     4  11  24  39  60  92 134 173 218 273 329 378
#
# _framework density 22.339991000000001
#
# number of rings (size 3 to 8) (size 9 to 14) (size 15 to 20)
#    0.000    2.000    0.000    1.800    2.800    5.600 
#    3.600    9.000    0.000    0.000    0.000    0.000 
#    0.000    0.000    0.000    0.000    0.000    0.000 
#
# Total GULP energy -223274.509551 kJ/mol
# GULP energy per Si atom -5581.862739 kJ/mol
# Density = 2.228914 g / cm^3
# Si number density = 22.339991 Si / 1000 Ang^3
#
#
#
# Elastic Constant Matrix: (Units=GPa)
#
#
# Indices 1 2 3 4 5 6 
#
# 1 88.6498 34.4452 5.5287 0.0000 0.0000 0.0000
# 2 34.4452 72.1997 26.9838 0.0000 0.0000 0.0000
# 3 5.5287 26.9838 133.7082 0.0000 0.0000 0.0000
# 4 0.0000 0.0000 0.0000 19.0288 0.0000 0.0000
# 5 0.0000 0.0000 0.0000 0.0000 -16.9546 0.0000
# 6 0.0000 0.0000 0.0000 0.0000 0.0000 36.3907
#
#
#
# Elastic Compliance Matrix: (Units=1/GPa)
#
#
# Indices 1 2 3 4 5 6 
#
# 1 0.013931 -0.006956 0.000828 0.000000 0.000000 0.000000
# 2 -0.006956 0.018453 -0.003436 0.000000 0.000000 0.000000
# 3 0.000828 -0.003436 0.008138 0.000000 0.000000 0.000000
# 4 0.000000 0.000000 0.000000 0.052552 0.000000 0.000000
# 5 0.000000 0.000000 0.000000 0.000000 -0.058981 0.000000
# 6 0.000000 0.000000 0.000000 0.000000 0.000000 0.027480
#
#
# Mechanical properties :
#
#
# Convention : Reuss Voigt Hill
#
# Bulk Modulus (GPa) = 46.74230 47.60812 47.17521
# Shear Modulus (GPa) = 56.92573 22.86631 39.89602
#
# Velocity S-wave (km/s) = 5.05340 3.20278 4.23052
# Velocity P-wave (km/s) = 7.41739 5.91896 6.71013
#
# Compressibility (1/GPa) = 0.02139390
#
# Stress axis : x y z
#
# Youngs Moduli (GPa) = 71.78023 54.19085 122.87629
#
# Poissons Ratio (x) = 0.37694 -0.10171
# Poissons Ratio (y) = 0.49929 0.42226
# Poissons Ratio (z) = -0.05941 0.18623
#
# Static dielectric constant tensor:
#      x y z
#    x 1.831160 0.000000 0.000000 
#    y 0.000000 1.829250 0.000000 
#    z 0.000000 0.000000 1.885890 
# 
# From -- ./inp_files/14044.got.cif
#   From: 2010.05.17/outbox.cif.g08.bks.cpg/sg57_8_cif.got.tgz:14044.got - 2010.06.03 13:58:18.
