data_PCOD9439805
_publ_section_title
;
Structure prediction by ZEFSAII (Michael W. Deem and Ramdas Pophale) SiO2 
 PCOD9439805
Probable space group: P B C M
;
_chemical_formula_sum "Si O2"
_cell_formula_units_Z 40
_cell_length_a 12.337213
_cell_length_b 8.971716
_cell_length_c 15.766389
_cell_angle_alpha 90.000000
_cell_angle_beta 90.000000
_cell_angle_gamma 90.000000
_cell_volume 1745.118080
_symmetry_space_group_name_H-M "P B C M"
_symmetry_group_IT_number 57
_symmetry_cell_setting 'orthorhombic'
loop_
_space_group_symop_operation_xyz
x,y,z
-x,-y,1/2+z
x,1/2-y,-z
-x,1/2+y,1/2-z
-x,-y,-z
x,y,1/2-z
-x,1/2+y,z
x,1/2-y,1/2+z
loop_
_atom_site_type_symbol
_atom_site_label
_atom_site_fract_x
_atom_site_fract_y
_atom_site_fract_z
Si Si1 0.636955 0.082686 0.417489
Si Si2 0.542244 0.777785 0.152890
Si Si3 0.942866 0.011812 0.847649
Si Si4 0.872058 0.319520 0.594296
Si Si5 0.272002 0.112431 0.064885
O O1 0.551864 0.215389 0.407420
O O2 0.751302 0.135547 0.379080
O O3 0.581581 0.942989 0.370395
O O4 0.671156 0.017328 0.509342
O O5 0.506611 0.770340 0.250000
O O6 0.644987 0.671510 0.135132
O O7 0.950294 0.964350 0.750000
O O8 0.924687 0.188269 0.851348
O O9 0.838856 0.940357 0.893595
O O10 0.050185 0.961315 0.897366
O O11 0.867936 0.250000 0.500000
O O12 0.253695 0.250000 0.000000
#
# Coordination Sequence:
#
# PCOD9439805 Si02
#       5
#     8   8   8   8   8
#     4  11  26  47  74 105 145 194 249 295 357 441
#     4  11  25  44  72 105 148 190 241 305 367 422
#     4  12  27  46  74 110 147 184 240 307 367 425
#     4  12  27  49  78 105 146 196 245 294 363 448
#     4  10  23  45  73 104 141 195 243 294 357 442
#
# _framework density 22.921085999999999
#
# number of rings (size 3 to 8) (size 9 to 14) (size 15 to 20)
#    0.000    0.800    2.000    3.600    8.400    5.600 
#    0.000    0.000    0.000    0.000    0.000    0.000 
#    0.000    0.000    0.000    0.000    0.000    0.000 
#
# Total GULP energy -224075.825022 kJ/mol
# GULP energy per Si atom -5601.895626 kJ/mol
# Density = 2.286892 g / cm^3
# Si number density = 22.921086 Si / 1000 Ang^3
#
#
#
# Elastic Constant Matrix: (Units=GPa)
#
#
# Indices 1 2 3 4 5 6 
#
# 1 126.7563 60.4326 6.4111 0.0000 0.0000 0.0000
# 2 60.4326 115.1006 19.4297 0.0000 0.0000 0.0000
# 3 6.4111 19.4297 89.1408 0.0000 0.0000 0.0000
# 4 0.0000 0.0000 0.0000 24.2780 0.0000 0.0000
# 5 0.0000 0.0000 0.0000 0.0000 -27.0400 0.0000
# 6 0.0000 0.0000 0.0000 0.0000 0.0000 44.0328
#
#
#
# Elastic Compliance Matrix: (Units=1/GPa)
#
#
# Indices 1 2 3 4 5 6 
#
# 1 0.010542 -0.005614 0.000465 0.000000 0.000000 0.000000
# 2 -0.005614 0.012009 -0.002214 0.000000 0.000000 0.000000
# 3 0.000465 -0.002214 0.011667 0.000000 0.000000 0.000000
# 4 0.000000 0.000000 0.000000 0.041190 0.000000 0.000000
# 5 0.000000 0.000000 0.000000 0.000000 -0.036982 0.000000
# 6 0.000000 0.000000 0.000000 0.000000 0.000000 0.022710
#
#
# Mechanical properties :
#
#
# Convention : Reuss Voigt Hill
#
# Bulk Modulus (GPa) = 51.29699 55.94940 53.62320
# Shear Modulus (GPa) = 60.71058 24.56912 42.63985
#
# Velocity S-wave (km/s) = 5.15211 3.27754 4.31779
# Velocity P-wave (km/s) = 7.60400 6.22781 6.95005
#
# Compressibility (1/GPa) = 0.01949432
#
# Stress axis : x y z
#
# Youngs Moduli (GPa) = 94.85934 83.27024 85.70974
#
# Poissons Ratio (x) = 0.46744 -0.03989
# Poissons Ratio (y) = 0.53249 0.18975
# Poissons Ratio (z) = -0.04415 0.18435
#
# Static dielectric constant tensor:
#      x y z
#    x 1.802430 0.000000 0.000000 
#    y 0.000000 1.905710 0.000000 
#    z 0.000000 0.000000 1.827650 
# 
# From -- ./inp_files/21572.got.cif
#   From: 2010.05.17/outbox.cif.g08.bks.cpg/sg57_11_cif.got.tgz:21572.got - 2010.06.03 13:58:18.
