data_PCOD9439659
_publ_section_title
;
Structure prediction by ZEFSAII (Michael W. Deem and Ramdas Pophale) SiO2 
 PCOD9439659
Probable space group: P B C M
;
_chemical_formula_sum "Si O2"
_cell_formula_units_Z 60
_cell_length_a 17.805393
_cell_length_b 9.632027
_cell_length_c 19.220900
_cell_angle_alpha 90.000000
_cell_angle_beta 90.000000
_cell_angle_gamma 90.000000
_cell_volume 3296.423294
_symmetry_space_group_name_H-M "P B C M"
_symmetry_group_IT_number 57
_symmetry_cell_setting 'orthorhombic'
loop_
_space_group_symop_operation_xyz
x,y,z
-x,-y,1/2+z
x,1/2-y,-z
-x,1/2+y,1/2-z
-x,-y,-z
x,y,1/2-z
-x,1/2+y,z
x,1/2-y,1/2+z
loop_
_atom_site_type_symbol
_atom_site_label
_atom_site_fract_x
_atom_site_fract_y
_atom_site_fract_z
Si Si1 0.000000 1.000000 0.359090
Si Si2 0.425364 0.914846 0.581417
Si Si3 0.157022 0.414662 0.080102
Si Si4 0.276457 0.584422 0.332149
Si Si5 0.723543 0.084422 0.832149
Si Si6 0.574636 0.414847 0.418583
Si Si7 0.157022 0.414663 0.580102
Si Si8 0.973186 0.250000 0.750000
O O1 0.023731 0.871792 0.310373
O O2 0.928581 0.954730 0.404277
O O3 0.071419 0.045270 0.404277
O O4 0.976269 0.128208 0.310373
O O5 0.354849 0.949639 0.629823
O O6 0.439880 0.750000 0.587957
O O7 0.407291 0.942777 0.500000
O O8 0.500000 1.000000 0.599320
O O9 0.210634 0.499273 0.131483
O O10 0.166353 0.250000 0.091528
O O11 0.176221 0.446267 0.000000
O O12 0.279940 0.555654 0.250000
O O13 0.263390 0.750000 0.340763
O O14 0.720060 0.055654 0.750000
O O15 0.645151 0.050361 0.870177
O O16 0.789366 0.999273 0.868517
#
# Coordination Sequence:
#
# PCOD9439659 Si02
#       8
#     8   8   8   8   8   8   8   4
#     4  11  23  42  62  90 118 158 194 244 292 352
#     4   9  18  35  58  84 115 152 192 235 285 343
#     4  11  25  42  60  85 119 154 197 245 293 347
#     4  10  23  39  60  87 118 154 196 242 292 347
#     4  10  23  39  60  87 118 154 196 242 292 347
#     4   9  18  35  58  84 115 152 192 235 285 343
#     4  11  25  42  60  85 119 154 197 245 293 347
#     4  10  24  38  66  90 120 150 192 246 296 350
#
# _framework density 18.201546
#
# number of rings (size 3 to 8) (size 9 to 14) (size 15 to 20)
#    0.000    1.867    1.333    1.200    5.600    3.733 
#    0.000    2.667    0.000    0.000    0.000    0.000 
#    0.000    0.000    0.000    0.000    0.000    0.000 
#
# Total GULP energy -334043.399362 kJ/mol
# GULP energy per Si atom -5567.389989 kJ/mol
# Density = 1.816012 g / cm^3
# Si number density = 18.201546 Si / 1000 Ang^3
#
#
#
# Elastic Constant Matrix: (Units=GPa)
#
#
# Indices 1 2 3 4 5 6 
#
# 1 133.9739 40.7870 85.5504 0.0000 0.0000 0.0000
# 2 40.7870 62.7546 58.9372 0.0000 0.0000 0.0000
# 3 85.5504 58.9372 123.0256 0.0000 0.0000 0.0000
# 4 0.0000 0.0000 0.0000 14.8042 0.0000 0.0000
# 5 0.0000 0.0000 0.0000 0.0000 -7.0742 0.0000
# 6 0.0000 0.0000 0.0000 0.0000 0.0000 21.1363
#
#
#
# Elastic Compliance Matrix: (Units=1/GPa)
#
#
# Indices 1 2 3 4 5 6 
#
# 1 0.013426 0.000077 -0.009373 0.000000 0.000000 0.000000
# 2 0.000077 0.028969 -0.013932 0.000000 0.000000 0.000000
# 3 -0.009373 -0.013932 0.021320 0.000000 0.000000 0.000000
# 4 0.000000 0.000000 0.000000 0.067548 0.000000 0.000000
# 5 0.000000 0.000000 0.000000 0.000000 -0.141358 0.000000
# 6 0.000000 0.000000 0.000000 0.000000 0.000000 0.047312
#
#
# Mechanical properties :
#
#
# Convention : Reuss Voigt Hill
#
# Bulk Modulus (GPa) = 57.93738 76.70038 67.31888
# Shear Modulus (GPa) = 55.91138 14.73855 35.32496
#
# Velocity S-wave (km/s) = 5.54839 2.84868 4.41019
# Velocity P-wave (km/s) = 8.54086 7.28361 7.93717
#
# Compressibility (1/GPa) = 0.01726001
#
# Stress axis : x y z
#
# Youngs Moduli (GPa) = 74.48207 34.51931 46.90346
#
# Poissons Ratio (x) = -0.00265 0.43963
# Poissons Ratio (y) = -0.00571 0.65344
# Poissons Ratio (z) = 0.69812 0.48091
#
# Static dielectric constant tensor:
#      x y z
#    x 1.605170 0.000000 0.000000 
#    y 0.000000 1.601340 0.000000 
#    z 0.000000 0.000000 1.608530 
# 
# From -- ./inp_files/22896.got.cif
#   From: 2010.05.17/outbox.cif.g08.bks.cpg/sg57_12_cif.got.tgz:22896.got - 2010.06.03 13:58:18.
