data_PCOD9439961
_publ_section_title
;
Structure prediction by ZEFSAII (Michael W. Deem and Ramdas Pophale) SiO2 
 PCOD9439961
Probable space group: P B C M
;
_chemical_formula_sum "Si O2"
_cell_formula_units_Z 64
_cell_length_a 9.149961
_cell_length_b 29.507558
_cell_length_c 14.504848
_cell_angle_alpha 90.000000
_cell_angle_beta 90.000000
_cell_angle_gamma 90.000000
_cell_volume 3916.207497
_symmetry_space_group_name_H-M "P B C M"
_symmetry_group_IT_number 57
_symmetry_cell_setting 'orthorhombic'
loop_
_space_group_symop_operation_xyz
x,y,z
-x,-y,1/2+z
x,1/2-y,-z
-x,1/2+y,1/2-z
-x,-y,-z
x,y,1/2-z
-x,1/2+y,z
x,1/2-y,1/2+z
loop_
_atom_site_type_symbol
_atom_site_label
_atom_site_fract_x
_atom_site_fract_y
_atom_site_fract_z
Si Si1 0.674616 0.992880 1.000000
Si Si2 0.219675 0.935599 0.642600
Si Si3 0.957175 0.378973 0.500000
Si Si4 0.533477 0.141595 0.357383
Si Si5 0.706935 0.614400 0.500000
Si Si6 0.780325 0.064401 0.857400
Si Si7 0.533477 0.141595 0.857383
Si Si8 0.285955 0.803071 0.000000
O O1 0.742098 0.018660 0.088296
O O2 0.708294 0.940076 1.000000
O O3 0.742098 0.018660 0.911704
O O4 0.500000 0.000000 0.000000
O O5 0.188031 0.942391 0.750000
O O6 0.092776 0.909011 0.588041
O O7 0.361632 0.902699 0.634063
O O8 0.907224 0.409011 0.411959
O O9 0.859483 0.333707 0.500000
O O10 0.127485 0.369234 0.500000
O O11 0.512525 0.151219 0.250000
O O12 0.385248 0.131123 0.411783
O O13 0.619458 0.180935 0.411619
O O14 0.614752 0.631123 0.588216
O O15 0.811970 0.057609 0.750000
O O16 0.638369 0.097301 0.865937
O O17 0.512524 0.151220 0.750000
O O18 0.619458 0.180936 0.911619
O O19 0.258044 0.750000 0.000000
#
# Coordination Sequence:
#
# PCOD9439961 Si02
#       8
#     8   8   8   8   8   8   8   8
#     4  11  18  30  48  74 100 136 186 222 250 287
#     4   9  18  33  50  69  99 139 181 216 245 291
#     4   9  20  35  49  72 106 136 163 205 262 313
#     4   9  18  33  53  76 100 128 164 207 253 297
#     4  11  20  32  49  75 109 139 166 211 260 301
#     4   9  18  33  50  69  99 139 181 216 245 291
#     4   9  18  33  53  76 100 128 164 207 253 297
#     4   9  18  36  59  76  92 123 165 202 244 307
#
# _framework density 16.342341999999999
#
# number of rings (size 3 to 8) (size 9 to 14) (size 15 to 20)
#    0.000    2.500    2.500    1.500    0.000    5.000 
#    0.000    3.750    0.000    0.000    0.000    0.000 
#    0.000    0.000    0.000    0.000    0.000    0.000 
#
# Total GULP energy -356953.936850 kJ/mol
# GULP energy per Si atom -5577.405263 kJ/mol
# Density = 1.630515 g / cm^3
# Si number density = 16.342342 Si / 1000 Ang^3
#
#
#
# Elastic Constant Matrix: (Units=GPa)
#
#
# Indices 1 2 3 4 5 6 
#
# 1 105.9577 22.3784 50.2346 0.0000 0.0000 0.0000
# 2 22.3784 95.2392 33.2863 0.0000 0.0000 0.0000
# 3 50.2346 33.2863 148.8436 0.0000 0.0000 0.0000
# 4 0.0000 0.0000 0.0000 8.4083 0.0000 0.0000
# 5 0.0000 0.0000 0.0000 0.0000 6.9530 0.0000
# 6 0.0000 0.0000 0.0000 0.0000 0.0000 8.8182
#
#
#
# Elastic Compliance Matrix: (Units=1/GPa)
#
#
# Indices 1 2 3 4 5 6 
#
# 1 0.011417 -0.001449 -0.003529 0.000000 0.000000 0.000000
# 2 -0.001449 0.011574 -0.002099 0.000000 0.000000 0.000000
# 3 -0.003529 -0.002099 0.008379 0.000000 0.000000 0.000000
# 4 0.000000 0.000000 0.000000 0.118931 0.000000 0.000000
# 5 0.000000 0.000000 0.000000 0.000000 0.143822 0.000000
# 6 0.000000 0.000000 0.000000 0.000000 0.000000 0.113402
#
#
# Mechanical properties :
#
#
# Convention : Reuss Voigt Hill
#
# Bulk Modulus (GPa) = 58.08924 62.42658 60.25791
# Shear Modulus (GPa) = 11.69813 21.11197 16.40505
#
# Velocity S-wave (km/s) = 2.67838 3.59814 3.17178
# Velocity P-wave (km/s) = 6.72215 7.45281 7.09689
#
# Compressibility (1/GPa) = 0.01721489
#
# Stress axis : x y z
#
# Youngs Moduli (GPa) = 87.58896 86.39990 119.34600
#
# Poissons Ratio (x) = 0.12521 0.42119
# Poissons Ratio (y) = 0.12694 0.25054
# Poissons Ratio (z) = 0.30911 0.18137
#
# Static dielectric constant tensor:
#      x y z
#    x 1.537590 0.000000 0.000000 
#    y 0.000000 1.524440 0.000000 
#    z 0.000000 0.000000 1.546590 
# 
# From -- ./inp_files/17058.got.cif
#   From: 2010.05.17/outbox.cif.g08.bks.cpg/sg57_9_cif.got.tgz:17058.got - 2010.06.03 13:58:18.
