data_PCOD9439403
_publ_section_title
;
Structure prediction by ZEFSAII (Michael W. Deem and Ramdas Pophale) SiO2 
 PCOD9439403
Probable space group: P B C M
;
_chemical_formula_sum "Si O2"
_cell_formula_units_Z 32
_cell_length_a 8.353806
_cell_length_b 9.397185
_cell_length_c 18.015398
_cell_angle_alpha 90.000000
_cell_angle_beta 90.000000
_cell_angle_gamma 90.000000
_cell_volume 1414.249466
_symmetry_space_group_name_H-M "P B C M"
_symmetry_group_IT_number 57
_symmetry_cell_setting 'orthorhombic'
loop_
_space_group_symop_operation_xyz
x,y,z
-x,-y,1/2+z
x,1/2-y,-z
-x,1/2+y,1/2-z
-x,-y,-z
x,y,1/2-z
-x,1/2+y,z
x,1/2-y,1/2+z
loop_
_atom_site_type_symbol
_atom_site_label
_atom_site_fract_x
_atom_site_fract_y
_atom_site_fract_z
Si Si1 0.489736 0.949341 0.584876
Si Si2 0.155893 0.786209 0.915318
Si Si3 0.997637 0.545716 0.835390
Si Si4 0.660475 0.711883 0.835571
O O1 0.332540 0.850282 0.589937
O O2 0.632995 0.849685 0.613328
O O3 0.500000 0.000000 0.500000
O O4 0.455216 0.085821 0.635788
O O5 0.136097 0.644214 0.867471
O O6 0.039612 0.907656 0.883611
O O7 0.117288 0.750000 0.000000
O O8 0.024455 0.505035 0.750000
O O9 0.837194 0.643569 0.839430
O O10 0.625830 0.748452 0.750000
#
# Coordination Sequence:
#
# PCOD9439403 Si02
#       4
#     8   8   8   8
#     4  11  23  41  63  92 126 161 205 257 311 371
#     4  11  23  40  63  91 124 164 207 254 310 371
#     4  10  23  41  61  89 124 160 203 256 308 365
#     4  10  22  40  62  88 121 161 204 253 309 369
#
# _framework density 22.626843000000001
#
# number of rings (size 3 to 8) (size 9 to 14) (size 15 to 20)
#    0.000    1.500    0.000    4.500    0.000   11.000 
#    0.000    0.000    0.000    0.000    0.000    0.000 
#    0.000    0.000    0.000    0.000    0.000    0.000 
#
# Total GULP energy -179255.019114 kJ/mol
# GULP energy per Si atom -5601.719347 kJ/mol
# Density = 2.257534 g / cm^3
# Si number density = 22.626843 Si / 1000 Ang^3
#
#
#
# Elastic Constant Matrix: (Units=GPa)
#
#
# Indices 1 2 3 4 5 6 
#
# 1 50.3844 35.7821 25.8252 0.0000 0.0000 0.0000
# 2 35.7821 122.6537 58.4149 0.0000 0.0000 0.0000
# 3 25.8252 58.4149 134.1007 0.0000 0.0000 0.0000
# 4 0.0000 0.0000 0.0000 48.9539 0.0000 0.0000
# 5 0.0000 0.0000 0.0000 0.0000 -46.5849 0.0000
# 6 0.0000 0.0000 0.0000 0.0000 0.0000 56.6060
#
#
#
# Elastic Compliance Matrix: (Units=1/GPa)
#
#
# Indices 1 2 3 4 5 6 
#
# 1 0.025497 -0.006435 -0.002107 0.000000 0.000000 0.000000
# 2 -0.006435 0.011911 -0.003949 0.000000 0.000000 0.000000
# 3 -0.002107 -0.003949 0.009583 0.000000 0.000000 0.000000
# 4 0.000000 0.000000 0.000000 0.020427 0.000000 0.000000
# 5 0.000000 0.000000 0.000000 0.000000 -0.021466 0.000000
# 6 0.000000 0.000000 0.000000 0.000000 0.000000 0.017666
#
#
# Mechanical properties :
#
#
# Convention : Reuss Voigt Hill
#
# Bulk Modulus (GPa) = 45.43601 60.79814 53.11707
# Shear Modulus (GPa) = 52.11686 24.26944 38.19315
#
# Velocity S-wave (km/s) = 4.80450 3.27860 4.11293
# Velocity P-wave (km/s) = 7.13455 6.42344 6.78831
#
# Compressibility (1/GPa) = 0.02200898
#
# Stress axis : x y z
#
# Youngs Moduli (GPa) = 39.21968 83.95460 104.34858
#
# Poissons Ratio (x) = 0.54023 0.21989
# Poissons Ratio (y) = 0.25237 0.41211
# Poissons Ratio (z) = 0.08265 0.33157
#
# Static dielectric constant tensor:
#      x y z
#    x 1.893910 0.000000 0.000000 
#    y 0.000000 1.819740 0.000000 
#    z 0.000000 0.000000 1.779560 
# 
# From -- ./inp_files/17267.got.cif
#   From: 2010.05.17/outbox.cif.g08.bks.cpg/sg57_9_cif.got.tgz:17267.got - 2010.06.03 13:58:18.
