data_PCOD9439817
_publ_section_title
;
Structure prediction by ZEFSAII (Michael W. Deem and Ramdas Pophale) SiO2 
 PCOD9439817
Probable space group: P B C M
;
_chemical_formula_sum "Si O2"
_cell_formula_units_Z 36
_cell_length_a 8.605367
_cell_length_b 20.112810
_cell_length_c 10.367435
_cell_angle_alpha 90.000000
_cell_angle_beta 90.000000
_cell_angle_gamma 90.000000
_cell_volume 1794.376070
_symmetry_space_group_name_H-M "P B C M"
_symmetry_group_IT_number 57
_symmetry_cell_setting 'orthorhombic'
loop_
_space_group_symop_operation_xyz
x,y,z
-x,-y,1/2+z
x,1/2-y,-z
-x,1/2+y,1/2-z
-x,-y,-z
x,y,1/2-z
-x,1/2+y,z
x,1/2-y,1/2+z
loop_
_atom_site_type_symbol
_atom_site_label
_atom_site_fract_x
_atom_site_fract_y
_atom_site_fract_z
Si Si1 0.197463 0.644718 0.102429
Si Si2 0.525592 0.176010 0.250000
Si Si3 0.814441 0.001393 0.003643
Si Si4 0.952474 0.750000 0.500000
Si Si5 0.660269 0.934028 0.250000
Si Si6 0.370892 0.031086 0.250000
Si Si7 0.254823 0.217656 0.750000
O O1 0.150485 0.624749 0.250000
O O2 0.358257 0.683674 0.128231
O O3 0.229859 0.578467 0.023417
O O4 0.064395 0.689637 0.042340
O O5 0.465616 0.100076 0.250000
O O6 0.385443 0.225947 0.250000
O O7 0.750176 0.960425 0.124350
O O8 0.736387 0.973435 0.875422
O O9 0.000000 0.000000 0.000000
O O10 0.849694 0.772157 0.377864
O O11 0.665752 0.854619 0.250000
O O12 0.493208 0.970184 0.250000
#
# Coordination Sequence:
#
# PCOD9439817 Si02
#       7
#     8   4   8   4   4   4   4
#     4  10  23  48  70  98 143 192 227 281 359 424
#     4  10  25  47  70 103 146 193 228 287 371 418
#     4  12  25  44  74 104 141 183 237 295 353 416
#     4  12  26  48  74 104 150 180 244 286 352 424
#     4  12  25  47  67 107 143 177 244 289 351 423
#     4  12  27  43  74 105 143 183 238 298 352 419
#     4  12  29  43  73 111 136 189 234 306 340 418
#
# _framework density 20.062683
#
# number of rings (size 3 to 8) (size 9 to 14) (size 15 to 20)
#    0.667    0.000    4.444    2.667    6.222    3.556 
#    0.000    0.000    0.000    0.000    0.000    0.000 
#    0.000    0.000    0.000    0.000    0.000    0.000 
#
# Total GULP energy -201277.864251 kJ/mol
# GULP energy per Si atom -5591.051785 kJ/mol
# Density = 2.001702 g / cm^3
# Si number density = 20.062683 Si / 1000 Ang^3
#
#
#
# Elastic Constant Matrix: (Units=GPa)
#
#
# Indices 1 2 3 4 5 6 
#
# 1 144.8761 44.3976 70.0205 0.0000 0.0000 0.0000
# 2 44.3976 114.8057 29.2992 0.0000 0.0000 0.0000
# 3 70.0205 29.2992 145.4753 0.0000 0.0000 0.0000
# 4 0.0000 0.0000 0.0000 53.1200 0.0000 0.0000
# 5 0.0000 0.0000 0.0000 0.0000 -4.1216 0.0000
# 6 0.0000 0.0000 0.0000 0.0000 0.0000 28.1286
#
#
#
# Elastic Compliance Matrix: (Units=1/GPa)
#
#
# Indices 1 2 3 4 5 6 
#
# 1 0.009733 -0.002707 -0.004139 0.000000 0.000000 0.000000
# 2 -0.002707 0.009936 -0.000698 0.000000 0.000000 0.000000
# 3 -0.004139 -0.000698 0.009007 0.000000 0.000000 0.000000
# 4 0.000000 0.000000 0.000000 0.018825 0.000000 0.000000
# 5 0.000000 0.000000 0.000000 0.000000 -0.242626 0.000000
# 6 0.000000 0.000000 0.000000 0.000000 0.000000 0.035551
#
#
# Mechanical properties :
#
#
# Convention : Reuss Voigt Hill
#
# Bulk Modulus (GPa) = 73.60585 76.95463 75.28024
# Shear Modulus (GPa) = -35.72543 32.85473 -1.43535
#
# Velocity S-wave (km/s) = -4.22440 4.05112 -0.84675
# Velocity P-wave (km/s) = 3.60187 7.76676 6.05376
#
# Compressibility (1/GPa) = 0.01358588
#
# Stress axis : x y z
#
# Youngs Moduli (GPa) = 102.74617 100.64913 111.02590
#
# Poissons Ratio (x) = 0.27250 0.45957
# Poissons Ratio (y) = 0.27818 0.07748
# Poissons Ratio (z) = 0.42530 0.07024
#
# Static dielectric constant tensor:
#      x y z
#    x 1.699900 0.000000 0.000000 
#    y 0.000000 1.817690 0.000000 
#    z 0.000000 0.000000 1.700310 
# 
# From -- ./inp_files/1381.got.cif
#   From: 2010.05.17/outbox.cif.g08.bks.cpg/sg57_1_cif.got.tgz:1381.got - 2010.06.03 13:58:18.
