data_PCOD9439365
_publ_section_title
;
Structure prediction by ZEFSAII (Michael W. Deem and Ramdas Pophale) SiO2 
 PCOD9439365
Probable space group: P B C M
;
_chemical_formula_sum "Si O2"
_cell_formula_units_Z 28
_cell_length_a 12.051297
_cell_length_b 8.938116
_cell_length_c 9.711187
_cell_angle_alpha 90.000000
_cell_angle_beta 90.000000
_cell_angle_gamma 90.000000
_cell_volume 1046.049156
_symmetry_space_group_name_H-M "P B C M"
_symmetry_group_IT_number 57
_symmetry_cell_setting 'orthorhombic'
loop_
_space_group_symop_operation_xyz
x,y,z
-x,-y,1/2+z
x,1/2-y,-z
-x,1/2+y,1/2-z
-x,-y,-z
x,y,1/2-z
-x,1/2+y,z
x,1/2-y,1/2+z
loop_
_atom_site_type_symbol
_atom_site_label
_atom_site_fract_x
_atom_site_fract_y
_atom_site_fract_z
Si Si1 0.494048 0.396994 0.750000
Si Si2 0.206995 0.501682 0.520432
Si Si3 0.361121 0.250000 0.500000
Si Si4 0.348195 0.835825 0.250000
Si Si5 0.913823 0.707470 0.250000
Si Si6 0.047299 0.750000 0.000000
O O1 0.433990 0.329993 0.615223
O O2 0.618629 0.336700 0.750000
O O3 0.464166 0.570859 0.750000
O O4 0.282994 0.382419 0.439475
O O5 0.283815 0.609216 0.615482
O O6 0.142885 0.397883 0.629821
O O7 0.123763 0.613729 0.445993
O O8 0.977101 0.803137 0.129048
#
# Coordination Sequence:
#
# PCOD9439365 Si02
#       6
#     4   8   4   4   4   4
#     4  10  22  39  62  90 120 164 206 252 317 376
#     4  10  23  41  62  93 129 164 210 264 317 377
#     4  10  23  41  62  90 128 164 200 259 323 374
#     4   9  21  40  61  90 126 160 203 259 314 375
#     4  11  23  41  63  94 128 164 211 267 317 371
#     4  12  25  41  68  96 124 172 220 261 317 386
#
# _framework density 26.767388
#
# number of rings (size 3 to 8) (size 9 to 14) (size 15 to 20)
#    0.000    1.714    0.000    4.286    0.000   11.429 
#    0.000    0.000    0.000    0.000    0.000    0.000 
#    0.000    0.000    0.000    0.000    0.000    0.000 
#
# Total GULP energy -155917.144672 kJ/mol
# GULP energy per Si atom -5568.469453 kJ/mol
# Density = 2.670646 g / cm^3
# Si number density = 26.767388 Si / 1000 Ang^3
#
#
#
# Elastic Constant Matrix: (Units=GPa)
#
#
# Indices 1 2 3 4 5 6 
#
# 1 57.4596 38.2541 -12.9972 0.0000 0.0000 0.0000
# 2 38.2541 112.5242 1.5253 0.0000 0.0000 0.0000
# 3 -12.9972 1.5253 87.1201 0.0000 0.0000 0.0000
# 4 0.0000 0.0000 0.0000 24.7172 0.0000 0.0000
# 5 0.0000 0.0000 0.0000 0.0000 -8.5041 0.0000
# 6 0.0000 0.0000 0.0000 0.0000 0.0000 55.9677
#
#
#
# Elastic Compliance Matrix: (Units=1/GPa)
#
#
# Indices 1 2 3 4 5 6 
#
# 1 0.023609 -0.008076 0.003663 0.000000 0.000000 0.000000
# 2 -0.008076 0.011652 -0.001409 0.000000 0.000000 0.000000
# 3 0.003663 -0.001409 0.012050 0.000000 0.000000 0.000000
# 4 0.000000 0.000000 0.000000 0.040458 0.000000 0.000000
# 5 0.000000 0.000000 0.000000 0.000000 -0.117591 0.000000
# 6 0.000000 0.000000 0.000000 0.000000 0.000000 0.017867
#
#
# Mechanical properties :
#
#
# Convention : Reuss Voigt Hill
#
# Bulk Modulus (GPa) = 28.03652 34.51870 31.27761
# Shear Modulus (GPa) = 431.95275 29.79094 230.87184
#
# Velocity S-wave (km/s) = 12.71704 3.33972 9.29723
# Velocity P-wave (km/s) = 15.03754 5.27214 11.26772
#
# Compressibility (1/GPa) = 0.03566777
#
# Stress axis : x y z
#
# Youngs Moduli (GPa) = 42.35725 85.82555 82.99014
#
# Poissons Ratio (x) = 0.69311 -0.30403
# Poissons Ratio (y) = 0.34207 0.11692
# Poissons Ratio (z) = -0.15518 0.12091
#
# Static dielectric constant tensor:
#      x y z
#    x 2.257720 0.000000 0.000000 
#    y 0.000000 2.073350 0.000000 
#    z 0.000000 0.000000 1.843370 
# 
# From -- ./inp_files/12413.got.cif
#   From: 2010.05.17/outbox.cif.g08.bks.cpg/sg57_7_cif.got.tgz:12413.got - 2010.06.03 13:58:18.
