data_PCOD9439921
_publ_section_title
;
Structure prediction by ZEFSAII (Michael W. Deem and Ramdas Pophale) SiO2 
 PCOD9439921
Probable space group: P B C M
;
_chemical_formula_sum "Si O2"
_cell_formula_units_Z 64
_cell_length_a 15.575631
_cell_length_b 12.161149
_cell_length_c 17.679224
_cell_angle_alpha 90.000000
_cell_angle_beta 90.000000
_cell_angle_gamma 90.000000
_cell_volume 3348.755638
_symmetry_space_group_name_H-M "P B C M"
_symmetry_group_IT_number 57
_symmetry_cell_setting 'orthorhombic'
loop_
_space_group_symop_operation_xyz
x,y,z
-x,-y,1/2+z
x,1/2-y,-z
-x,1/2+y,1/2-z
-x,-y,-z
x,y,1/2-z
-x,1/2+y,z
x,1/2-y,1/2+z
loop_
_atom_site_type_symbol
_atom_site_label
_atom_site_fract_x
_atom_site_fract_y
_atom_site_fract_z
Si Si1 0.740151 0.066599 0.082610
Si Si2 0.323566 0.970986 0.088878
Si Si3 0.895556 0.264048 0.588068
Si Si4 0.404239 0.741066 0.091831
Si Si5 0.078085 0.313489 0.658803
Si Si6 0.755260 0.828211 0.340911
Si Si7 0.596727 0.798296 0.584954
Si Si8 0.154285 0.537682 0.662100
O O1 0.825982 0.138465 0.095367
O O2 0.660100 0.141447 0.111002
O O3 0.748471 0.949268 0.122750
O O4 0.721378 0.047987 0.993102
O O5 0.366541 0.858184 0.115802
O O6 0.250765 0.002981 0.148563
O O7 0.388740 0.071159 0.080583
O O8 0.914019 0.250000 0.500000
O O9 0.855397 0.151481 0.618945
O O10 0.984753 0.280523 0.630849
O O11 0.501877 0.724549 0.116805
O O12 0.405709 0.750000 0.000000
O O13 0.079674 0.314071 0.750000
O O14 0.156368 0.233650 0.634723
O O15 0.095801 0.438383 0.632724
O O16 0.755697 0.835948 0.250000
O O17 0.673335 0.758372 0.368745
O O18 0.601257 0.750000 0.500000
O O19 0.136135 0.555927 0.750000
#
# Coordination Sequence:
#
# PCOD9439921 Si02
#       8
#     8   8   8   8   8   8   8   8
#     4  11  22  41  64  90 130 161 207 265 315 370
#     4  11  20  40  66  92 126 162 213 262 305 367
#     4  12  24  41  67  96 124 159 207 267 315 365
#     4   9  21  37  62  96 125 161 208 259 313 375
#     4  10  25  44  61  88 126 168 211 252 314 388
#     4  11  25  43  61  89 130 169 206 260 319 375
#     4  11  22  37  68  95 122 169 212 255 313 376
#     4  11  23  42  65  88 124 171 210 252 313 379
#
# _framework density 19.111575999999999
#
# number of rings (size 3 to 8) (size 9 to 14) (size 15 to 20)
#    0.000    1.250    5.000    0.750    3.500    4.500 
#    0.000    1.250    0.000    0.000    0.000    0.000 
#    0.000    0.000    0.000    0.000    0.000    0.000 
#
# Total GULP energy -357392.649090 kJ/mol
# GULP energy per Si atom -5584.260142 kJ/mol
# Density = 1.906808 g / cm^3
# Si number density = 19.111576 Si / 1000 Ang^3
#
#
#
# Elastic Constant Matrix: (Units=GPa)
#
#
# Indices 1 2 3 4 5 6 
#
# 1 126.9566 41.4929 13.0293 0.0000 0.0000 0.0000
# 2 41.4929 123.3827 27.9839 0.0000 0.0000 0.0000
# 3 13.0293 27.9839 26.7260 0.0000 0.0000 0.0000
# 4 0.0000 0.0000 0.0000 10.6101 0.0000 0.0000
# 5 0.0000 0.0000 0.0000 0.0000 88.4312 0.0000
# 6 0.0000 0.0000 0.0000 0.0000 0.0000 -119.6689
#
#
#
# Elastic Compliance Matrix: (Units=1/GPa)
#
#
# Indices 1 2 3 4 5 6 
#
# 1 0.008900 -0.002635 -0.001580 0.000000 0.000000 0.000000
# 2 -0.002635 0.011409 -0.010662 0.000000 0.000000 0.000000
# 3 -0.001580 -0.010662 0.049351 0.000000 0.000000 0.000000
# 4 0.000000 0.000000 0.000000 0.094250 0.000000 0.000000
# 5 0.000000 0.000000 0.000000 0.000000 0.011308 0.000000
# 6 0.000000 0.000000 0.000000 0.000000 0.000000 -0.008356
#
#
# Mechanical properties :
#
#
# Convention : Reuss Voigt Hill
#
# Bulk Modulus (GPa) = 25.05848 49.11973 37.08910
# Shear Modulus (GPa) = 23.81905 8.84509 16.33207
#
# Velocity S-wave (km/s) = 3.53415 2.15364 2.92646
# Velocity P-wave (km/s) = 5.45837 5.65169 5.55587
#
# Compressibility (1/GPa) = 0.03990664
#
# Stress axis : x y z
#
# Youngs Moduli (GPa) = 112.36024 87.65030 20.26320
#
# Poissons Ratio (x) = 0.23092 0.03202
# Poissons Ratio (y) = 0.29602 0.21604
# Poissons Ratio (z) = 0.17756 0.93449
#
# Static dielectric constant tensor:
#      x y z
#    x 1.654260 0.000000 0.000000 
#    y 0.000000 1.661460 0.000000 
#    z 0.000000 0.000000 1.650460 
# 
# From -- ./inp_files/22635.got.cif
#   From: 2010.05.17/outbox.cif.g08.bks.cpg/sg57_12_cif.got.tgz:22635.got - 2010.06.03 13:58:18.
