data_PCOD9439735
_publ_section_title
;
Structure prediction by ZEFSAII (Michael W. Deem and Ramdas Pophale) SiO2 
 PCOD9439735
Probable space group: P B C M
;
_chemical_formula_sum "Si O2"
_cell_formula_units_Z 40
_cell_length_a 9.148651
_cell_length_b 14.851025
_cell_length_c 14.658434
_cell_angle_alpha 90.000000
_cell_angle_beta 90.000000
_cell_angle_gamma 90.000000
_cell_volume 1991.595176
_symmetry_space_group_name_H-M "P B C M"
_symmetry_group_IT_number 57
_symmetry_cell_setting 'orthorhombic'
loop_
_space_group_symop_operation_xyz
x,y,z
-x,-y,1/2+z
x,1/2-y,-z
-x,1/2+y,1/2-z
-x,-y,-z
x,y,1/2-z
-x,1/2+y,z
x,1/2-y,1/2+z
loop_
_atom_site_type_symbol
_atom_site_label
_atom_site_fract_x
_atom_site_fract_y
_atom_site_fract_z
Si Si1 0.358194 0.334822 0.433778
Si Si2 0.105287 0.566885 0.250000
Si Si3 0.157525 0.502030 0.452037
Si Si4 0.725461 0.255263 0.250000
Si Si5 0.241784 0.044111 0.250000
Si Si6 0.314005 0.897413 0.400870
Si Si7 0.372745 0.239685 0.250000
O O1 0.375930 0.250000 0.500000
O O2 0.244628 0.409175 0.467919
O O3 0.514896 0.381278 0.416901
O O4 0.313871 0.292020 0.337571
O O5 0.150417 0.518111 0.343837
O O6 0.180211 0.665168 0.250000
O O7 0.929564 0.566695 0.250000
O O8 0.241637 0.583307 0.502158
O O9 0.000000 0.500000 0.500000
O O10 0.750926 0.315476 0.159196
O O11 0.549971 0.240047 0.250000
O O12 0.326143 0.137069 0.250000
O O13 0.284816 0.984307 0.337552
#
# Coordination Sequence:
#
# PCOD9439735 Si02
#       7
#     8   4   8   4   4   8   4
#     4  11  25  44  70 102 131 176 228 283 338 399
#     4  12  27  42  66 100 137 181 225 265 352 400
#     4  12  26  45  68  99 138 181 222 277 343 419
#     4   9  24  42  68 100 133 179 224 284 335 400
#     4  11  22  44  68  98 136 180 221 277 336 407
#     4  10  23  45  68  97 134 176 228 278 337 397
#     4  10  23  42  68  98 136 170 228 282 335 393
#
# _framework density 20.084402999999998
#
# number of rings (size 3 to 8) (size 9 to 14) (size 15 to 20)
#    0.000    1.200    2.000    3.000    8.400    1.600 
#    0.000    0.000    0.000    0.000    0.000    0.000 
#    0.000    0.000    0.000    0.000    0.000    0.000 
#
# Total GULP energy -223613.974850 kJ/mol
# GULP energy per Si atom -5590.349371 kJ/mol
# Density = 2.003869 g / cm^3
# Si number density = 20.084403 Si / 1000 Ang^3
#
#
#
# Elastic Constant Matrix: (Units=GPa)
#
#
# Indices 1 2 3 4 5 6 
#
# 1 76.4160 57.7597 22.6465 0.0000 0.0000 0.0000
# 2 57.7597 101.1845 11.9923 0.0000 0.0000 0.0000
# 3 22.6465 11.9923 102.6407 0.0000 0.0000 0.0000
# 4 0.0000 0.0000 0.0000 -610.2312 0.0000 0.0000
# 5 0.0000 0.0000 0.0000 0.0000 45.0379 0.0000
# 6 0.0000 0.0000 0.0000 0.0000 0.0000 -181.8322
#
#
#
# Elastic Compliance Matrix: (Units=1/GPa)
#
#
# Indices 1 2 3 4 5 6 
#
# 1 0.024403 -0.013479 -0.003809 0.000000 0.000000 0.000000
# 2 -0.013479 0.017467 0.000933 0.000000 0.000000 0.000000
# 3 -0.003809 0.000933 0.010474 0.000000 0.000000 0.000000
# 4 0.000000 0.000000 0.000000 -0.001639 0.000000 0.000000
# 5 0.000000 0.000000 0.000000 0.000000 0.022204 0.000000
# 6 0.000000 0.000000 0.000000 0.000000 0.000000 -0.005500
#
#
# Mechanical properties :
#
#
# Convention : Reuss Voigt Hill
#
# Bulk Modulus (GPa) = 50.93236 51.67090 51.30163
# Shear Modulus (GPa) = 46.87614 -136.88226 -45.00306
#
# Velocity S-wave (km/s) = 4.83635 -8.26447 -4.73874
# Velocity P-wave (km/s) = 7.52338 8.07997 2.08383
#
# Compressibility (1/GPa) = 0.01963388
#
# Stress axis : x y z
#
# Youngs Moduli (GPa) = 40.97803 57.25240 95.47255
#
# Poissons Ratio (x) = 0.77169 0.36370
# Poissons Ratio (y) = 0.55233 -0.08909
# Poissons Ratio (z) = 0.15611 -0.05343
#
# Static dielectric constant tensor:
#      x y z
#    x 1.690320 0.000000 0.000000 
#    y 0.000000 1.685580 0.000000 
#    z 0.000000 0.000000 1.732380 
# 
# From -- ./inp_files/15991.got.cif
#   From: 2010.05.17/outbox.cif.g08.bks.cpg/sg57_8_cif.got.tgz:15991.got - 2010.06.03 13:58:18.
