data_PCOD9439398
_publ_section_title
;
Structure prediction by ZEFSAII (Michael W. Deem and Ramdas Pophale) SiO2 
 PCOD9439398
Probable space group: P B C M
;
_chemical_formula_sum "Si O2"
_cell_formula_units_Z 48
_cell_length_a 12.689854
_cell_length_b 8.980445
_cell_length_c 22.675403
_cell_angle_alpha 90.000000
_cell_angle_beta 90.000000
_cell_angle_gamma 90.000000
_cell_volume 2584.101078
_symmetry_space_group_name_H-M "P B C M"
_symmetry_group_IT_number 57
_symmetry_cell_setting 'orthorhombic'
loop_
_space_group_symop_operation_xyz
x,y,z
-x,-y,1/2+z
x,1/2-y,-z
-x,1/2+y,1/2-z
-x,-y,-z
x,y,1/2-z
-x,1/2+y,z
x,1/2-y,1/2+z
loop_
_atom_site_type_symbol
_atom_site_label
_atom_site_fract_x
_atom_site_fract_y
_atom_site_fract_z
Si Si1 0.291343 0.614583 0.624105
Si Si2 0.893930 0.194631 0.433704
Si Si3 0.632518 0.364905 0.250000
Si Si4 0.892599 0.661059 0.937085
Si Si5 0.490188 0.861360 0.454906
Si Si6 0.313197 0.235689 0.120769
Si Si7 0.591787 0.713932 0.250000
O O1 0.206965 0.727739 0.596577
O O2 0.299159 0.655632 0.692159
O O3 0.409458 0.623755 0.598119
O O4 0.275361 0.437064 0.615289
O O5 0.887151 0.250000 0.500000
O O6 0.003038 0.264131 0.409688
O O7 0.905401 0.016907 0.440268
O O8 0.594761 0.535748 0.250000
O O9 0.528307 0.266275 0.250000
O O10 0.790591 0.677096 0.896636
O O11 0.875115 0.750000 0.000000
O O12 0.435967 0.750000 0.500000
O O13 0.596229 0.789674 0.426185
O O14 0.500000 0.000000 0.500000
O O15 0.354250 0.261062 0.187760
#
# Coordination Sequence:
#
# PCOD9439398 Si02
#       7
#     8   8   4   8   8   8   4
#     4  11  23  40  61  88 126 164 211 254 310 366
#     4  11  23  40  64  93 123 162 200 251 309 371
#     4  10  22  40  61  86 121 170 209 257 301 369
#     4  11  23  40  65  92 126 159 202 251 311 369
#     4  12  24  35  57  90 126 162 198 252 312 370
#     4  11  23  40  60  87 125 163 208 258 306 369
#     4  10  22  40  61  84 119 168 211 255 305 361
#
# _framework density 18.575123999999999
#
# number of rings (size 3 to 8) (size 9 to 14) (size 15 to 20)
#    0.000    1.000    3.333    5.000    4.667    1.333 
#    0.000    0.833    0.000    0.000    0.000    0.000 
#    0.000    0.000    0.000    0.000    0.000    0.000 
#
# Total GULP energy -267292.365665 kJ/mol
# GULP energy per Si atom -5568.590951 kJ/mol
# Density = 1.853285 g / cm^3
# Si number density = 18.575124 Si / 1000 Ang^3
#
#
#
# Elastic Constant Matrix: (Units=GPa)
#
#
# Indices 1 2 3 4 5 6 
#
# 1 55.3318 5.4426 -15.2431 0.0000 0.0000 0.0000
# 2 5.4426 85.2582 -5.8476 0.0000 0.0000 0.0000
# 3 -15.2431 -5.8476 37.5517 0.0000 0.0000 0.0000
# 4 0.0000 0.0000 0.0000 20.3744 0.0000 0.0000
# 5 0.0000 0.0000 0.0000 0.0000 -0.8729 0.0000
# 6 0.0000 0.0000 0.0000 0.0000 0.0000 24.5957
#
#
#
# Elastic Compliance Matrix: (Units=1/GPa)
#
#
# Indices 1 2 3 4 5 6 
#
# 1 0.020395 -0.000742 0.008163 0.000000 0.000000 0.000000
# 2 -0.000742 0.011883 0.001549 0.000000 0.000000 0.000000
# 3 0.008163 0.001549 0.030185 0.000000 0.000000 0.000000
# 4 0.000000 0.000000 0.000000 0.049081 0.000000 0.000000
# 5 0.000000 0.000000 0.000000 0.000000 -1.145605 0.000000
# 6 0.000000 0.000000 0.000000 0.000000 0.000000 0.040658
#
#
# Mechanical properties :
#
#
# Convention : Reuss Voigt Hill
#
# Bulk Modulus (GPa) = 12.43743 16.31617 14.37680
# Shear Modulus (GPa) = -5.07850 21.73875 8.33012
#
# Velocity S-wave (km/s) = -1.65528 3.42470 2.11998
# Velocity P-wave (km/s) = 1.74843 4.94379 3.70797
#
# Compressibility (1/GPa) = 0.08040244
#
# Stress axis : x y z
#
# Youngs Moduli (GPa) = 49.03264 84.15595 33.12930
#
# Poissons Ratio (x) = 0.06245 -0.27044
# Poissons Ratio (y) = 0.03638 -0.05132
# Poissons Ratio (z) = -0.40026 -0.13037
#
# Static dielectric constant tensor:
#      x y z
#    x 1.667380 0.000000 0.000000 
#    y 0.000000 1.731750 0.000000 
#    z 0.000000 0.000000 1.649610 
# 
# From -- ./inp_files/27140.got.cif
#   From: 2010.05.17/outbox.cif.g08.bks.cpg/sg57_14_cif.got.tgz:27140.got - 2010.06.03 13:58:18.
