data_PCOD9439038
_publ_section_title
;
Structure prediction by ZEFSAII (Michael W. Deem and Ramdas Pophale) SiO2 
 PCOD9439038
Probable space group: P B C M
;
_chemical_formula_sum "Si O2"
_cell_formula_units_Z 40
_cell_length_a 8.017630
_cell_length_b 16.550467
_cell_length_c 14.372877
_cell_angle_alpha 90.000000
_cell_angle_beta 90.000000
_cell_angle_gamma 90.000000
_cell_volume 1907.216398
_symmetry_space_group_name_H-M "P B C M"
_symmetry_group_IT_number 57
_symmetry_cell_setting 'orthorhombic'
loop_
_space_group_symop_operation_xyz
x,y,z
-x,-y,1/2+z
x,1/2-y,-z
-x,1/2+y,1/2-z
-x,-y,-z
x,y,1/2-z
-x,1/2+y,z
x,1/2-y,1/2+z
loop_
_atom_site_type_symbol
_atom_site_label
_atom_site_fract_x
_atom_site_fract_y
_atom_site_fract_z
Si Si1 0.449118 0.236111 0.638756
Si Si2 0.800543 0.175695 0.564064
Si Si3 0.869791 0.868535 0.355891
Si Si4 0.249032 0.507182 0.025382
Si Si5 0.561687 0.928179 0.862290
O O1 0.455001 0.231346 0.750000
O O2 0.613236 0.191380 0.600552
O O3 0.277743 0.191618 0.609215
O O4 0.454600 0.331993 0.616943
O O5 0.846053 0.250000 0.500000
O O6 0.804720 0.096142 0.501702
O O7 0.946461 0.169065 0.639299
O O8 0.828914 0.889364 0.250000
O O9 0.869331 0.948541 0.417828
O O10 0.405425 0.522232 0.095494
O O11 0.293148 0.463313 0.927807
O O12 0.579318 0.938560 0.750000
#
# Coordination Sequence:
#
# PCOD9439038 Si02
#       5
#     8   8   8   8   8
#     4  10  22  43  69  95 132 178 218 269 329 390
#     4  12  25  42  67  98 131 176 223 276 329 397
#     4  11  26  45  68  98 134 176 223 273 330 398
#     4  11  23  40  67  96 134 178 217 278 338 387
#     4  10  21  39  67 102 134 174 226 272 330 399
#
# _framework density 20.972974000000001
#
# number of rings (size 3 to 8) (size 9 to 14) (size 15 to 20)
#    0.000    1.200    2.000    4.200    2.800    3.200 
#    0.000    0.000    0.000    0.000    0.000    0.000 
#    0.000    0.000    0.000    0.000    0.000    0.000 
#
# Total GULP energy -223384.867728 kJ/mol
# GULP energy per Si atom -5584.621693 kJ/mol
# Density = 2.092524 g / cm^3
# Si number density = 20.972974 Si / 1000 Ang^3
#
#
#
# Elastic Constant Matrix: (Units=GPa)
#
#
# Indices 1 2 3 4 5 6 
#
# 1 76.2821 40.4089 39.8949 0.0000 0.0000 0.0000
# 2 40.4089 123.4300 57.2958 0.0000 0.0000 0.0000
# 3 39.8949 57.2958 112.4239 0.0000 0.0000 0.0000
# 4 0.0000 0.0000 0.0000 37.0749 0.0000 0.0000
# 5 0.0000 0.0000 0.0000 0.0000 -20.5655 0.0000
# 6 0.0000 0.0000 0.0000 0.0000 0.0000 -511.5830
#
#
#
# Elastic Compliance Matrix: (Units=1/GPa)
#
#
# Indices 1 2 3 4 5 6 
#
# 1 0.017287 -0.003683 -0.004257 0.000000 0.000000 0.000000
# 2 -0.003683 0.011397 -0.004501 0.000000 0.000000 0.000000
# 3 -0.004257 -0.004501 0.012700 0.000000 0.000000 0.000000
# 4 0.000000 0.000000 0.000000 0.026972 0.000000 0.000000
# 5 0.000000 0.000000 0.000000 0.000000 -0.048625 0.000000
# 6 0.000000 0.000000 0.000000 0.000000 0.000000 -0.001955
#
#
# Mechanical properties :
#
#
# Convention : Reuss Voigt Hill
#
# Bulk Modulus (GPa) = 60.60649 65.25947 62.93298
# Shear Modulus (GPa) = 103.82038 -87.37895 8.22072
#
# Velocity S-wave (km/s) = 7.04340 -6.46166 1.98196
# Velocity P-wave (km/s) = 9.75223 4.94846 5.94217
#
# Compressibility (1/GPa) = 0.01649988
#
# Stress axis : x y z
#
# Youngs Moduli (GPa) = 57.84734 87.74149 78.74158
#
# Poissons Ratio (x) = 0.32317 0.33523
# Poissons Ratio (y) = 0.21306 0.35445
# Poissons Ratio (z) = 0.24628 0.39496
#
# Static dielectric constant tensor:
#      x y z
#    x 1.855880 0.000000 0.000000 
#    y 0.000000 1.730980 0.000000 
#    z 0.000000 0.000000 1.277850 
# 
# From -- ./inp_files/15889.got.cif
#   From: 2010.05.17/outbox.cif.g08.bks.cpg/sg57_8_cif.got.tgz:15889.got - 2010.06.03 13:58:18.
