data_PCOD9439722
_publ_section_title
;
Structure prediction by ZEFSAII (Michael W. Deem and Ramdas Pophale) SiO2 
 PCOD9439722
Probable space group: P B C M
;
_chemical_formula_sum "Si O2"
_cell_formula_units_Z 40
_cell_length_a 11.437150
_cell_length_b 10.162332
_cell_length_c 16.171393
_cell_angle_alpha 90.000000
_cell_angle_beta 90.000000
_cell_angle_gamma 90.000000
_cell_volume 1879.570532
_symmetry_space_group_name_H-M "P B C M"
_symmetry_group_IT_number 57
_symmetry_cell_setting 'orthorhombic'
loop_
_space_group_symop_operation_xyz
x,y,z
-x,-y,1/2+z
x,1/2-y,-z
-x,1/2+y,1/2-z
-x,-y,-z
x,y,1/2-z
-x,1/2+y,z
x,1/2-y,1/2+z
loop_
_atom_site_type_symbol
_atom_site_label
_atom_site_fract_x
_atom_site_fract_y
_atom_site_fract_z
Si Si1 0.629750 0.319299 0.588447
Si Si2 0.226868 0.904835 0.344495
Si Si3 0.627415 0.844507 0.650806
Si Si4 0.007617 0.126454 0.942034
Si Si5 0.241227 0.071081 0.651944
O O1 0.641500 0.250000 0.500000
O O2 0.674308 0.206969 0.651052
O O3 0.496432 0.357321 0.606462
O O4 0.709003 0.447526 0.601426
O O5 0.189439 0.925626 0.250000
O O6 0.116685 0.858159 0.397194
O O7 0.282978 0.041247 0.375821
O O8 0.610176 0.860612 0.750000
O O9 0.681077 0.700781 0.636111
O O10 0.110309 0.103968 0.876215
O O11 0.033719 0.250000 0.000000
O O12 0.000000 0.000000 0.000000
O O13 0.246549 0.041546 0.750000
#
# Coordination Sequence:
#
# PCOD9439722 Si02
#       5
#     8   8   8   8   8
#     4  12  25  40  63  96 131 168 212 268 330 386
#     4  11  23  42  66  92 126 169 218 266 322 391
#     4  10  23  42  65  93 125 166 216 267 319 386
#     4  12  25  42  65  94 130 164 208 268 326 380
#     4  11  24  44  68  93 127 173 221 265 321 394
#
# _framework density 21.281457
#
# number of rings (size 3 to 8) (size 9 to 14) (size 15 to 20)
#    0.000    0.800    0.000    7.800    0.000    8.800 
#    0.000    6.000    0.000    0.000    0.000    0.000 
#    0.000    0.000    0.000    0.000    0.000    0.000 
#
# Total GULP energy -224026.868986 kJ/mol
# GULP energy per Si atom -5600.671725 kJ/mol
# Density = 2.123302 g / cm^3
# Si number density = 21.281457 Si / 1000 Ang^3
#
#
#
# Elastic Constant Matrix: (Units=GPa)
#
#
# Indices 1 2 3 4 5 6 
#
# 1 94.7451 9.8705 29.1505 0.0000 0.0000 0.0000
# 2 9.8705 108.0792 20.7038 0.0000 0.0000 0.0000
# 3 29.1505 20.7038 53.2622 0.0000 0.0000 0.0000
# 4 0.0000 0.0000 0.0000 30.5886 0.0000 0.0000
# 5 0.0000 0.0000 0.0000 0.0000 26.6313 0.0000
# 6 0.0000 0.0000 0.0000 0.0000 0.0000 34.5001
#
#
#
# Elastic Compliance Matrix: (Units=1/GPa)
#
#
# Indices 1 2 3 4 5 6 
#
# 1 0.012695 0.000185 -0.007020 0.000000 0.000000 0.000000
# 2 0.000185 0.010000 -0.003988 0.000000 0.000000 0.000000
# 3 -0.007020 -0.003988 0.024168 0.000000 0.000000 0.000000
# 4 0.000000 0.000000 0.000000 0.032692 0.000000 0.000000
# 5 0.000000 0.000000 0.000000 0.000000 0.037550 0.000000
# 6 0.000000 0.000000 0.000000 0.000000 0.000000 0.028985
#
#
# Mechanical properties :
#
#
# Convention : Reuss Voigt Hill
#
# Bulk Modulus (GPa) = 39.65750 41.72620 40.69185
# Shear Modulus (GPa) = 28.38630 31.43478 29.91054
#
# Velocity S-wave (km/s) = 3.65615 3.84747 3.75303
# Velocity P-wave (km/s) = 6.04140 6.27589 6.15976
#
# Compressibility (1/GPa) = 0.02521591
#
# Stress axis : x y z
#
# Youngs Moduli (GPa) = 78.76963 100.00427 41.37775
#
# Poissons Ratio (x) = -0.01854 0.29048
# Poissons Ratio (y) = -0.01460 0.16503
# Poissons Ratio (z) = 0.55298 0.39886
#
# Static dielectric constant tensor:
#      x y z
#    x 1.738180 0.000000 0.000000 
#    y 0.000000 1.723480 0.000000 
#    z 0.000000 0.000000 1.978720 
# 
# From -- ./inp_files/21578.got.cif
#   From: 2010.05.17/outbox.cif.g08.bks.cpg/sg57_11_cif.got.tgz:21578.got - 2010.06.03 13:58:18.
