data_PCOD9439315
_publ_section_title
;
Structure prediction by ZEFSAII (Michael W. Deem and Ramdas Pophale) SiO2 
 PCOD9439315
Probable space group: P B C M
;
_chemical_formula_sum "Si O2"
_cell_formula_units_Z 52
_cell_length_a 11.892598
_cell_length_b 10.908444
_cell_length_c 23.282978
_cell_angle_alpha 90.000000
_cell_angle_beta 90.000000
_cell_angle_gamma 90.000000
_cell_volume 3020.494666
_symmetry_space_group_name_H-M "P B C M"
_symmetry_group_IT_number 57
_symmetry_cell_setting 'orthorhombic'
loop_
_space_group_symop_operation_xyz
x,y,z
-x,-y,1/2+z
x,1/2-y,-z
-x,1/2+y,1/2-z
-x,-y,-z
x,y,1/2-z
-x,1/2+y,z
x,1/2-y,1/2+z
loop_
_atom_site_type_symbol
_atom_site_label
_atom_site_fract_x
_atom_site_fract_y
_atom_site_fract_z
Si Si1 0.455324 0.044383 0.061135
Si Si2 0.323852 0.584524 0.373499
Si Si3 0.289377 0.634907 0.625082
Si Si4 0.085112 0.861537 0.045632
Si Si5 0.590634 0.410238 0.750000
Si Si6 0.340005 0.250000 0.000000
Si Si7 0.605212 0.379561 0.250000
Si Si8 0.161321 0.058146 0.546702
O O1 0.560471 0.029993 0.102726
O O2 0.355353 0.962928 0.086273
O O3 0.413393 0.181944 0.048358
O O4 0.500000 0.000000 0.000000
O O5 0.331108 0.728065 0.388016
O O6 0.332291 0.570493 0.305642
O O7 0.215948 0.525824 0.403917
O O8 0.161523 0.640479 0.602482
O O9 0.319891 0.609821 0.691797
O O10 0.954468 0.874175 0.062256
O O11 0.099061 0.750000 0.000000
O O12 0.127266 0.977107 0.008331
O O13 0.488811 0.510929 0.750000
O O14 0.557290 0.262982 0.750000
O O15 0.258850 0.150623 0.971433
#
# Coordination Sequence:
#
# PCOD9439315 Si02
#       8
#     8   8   8   8   4   4   4   8
#     4  12  22  33  55  87 122 153 188 240 307 362
#     4  11  22  39  58  86 119 159 197 245 300 364
#     4  11  22  39  61  85 117 160 204 244 296 364
#     4  11  21  39  61  85 117 159 201 242 306 359
#     4  10  22  38  63  86 118 164 205 247 299 366
#     4  12  22  34  50  94 122 150 190 242 308 368
#     4  10  22  42  63  88 120 166 209 247 299 360
#     4  11  23  36  58  87 119 153 194 246 301 364
#
# _framework density 17.215724000000002
#
# number of rings (size 3 to 8) (size 9 to 14) (size 15 to 20)
#    0.000    0.923    6.923    0.923    0.000    0.000 
#    0.000    0.769    0.000    0.000    0.000    0.000 
#    0.000    0.000    0.000    0.000    0.000    0.000 
#
# Total GULP energy -289885.752528 kJ/mol
# GULP energy per Si atom -5574.726010 kJ/mol
# Density = 1.717654 g / cm^3
# Si number density = 17.215724 Si / 1000 Ang^3
#
#
#
# Elastic Constant Matrix: (Units=GPa)
#
#
# Indices 1 2 3 4 5 6 
#
# 1 88.9469 14.9985 34.1241 0.0000 0.0000 0.0000
# 2 14.9985 61.4456 26.5125 0.0000 0.0000 0.0000
# 3 34.1241 26.5125 88.1997 0.0000 0.0000 0.0000
# 4 0.0000 0.0000 0.0000 25.4861 0.0000 0.0000
# 5 0.0000 0.0000 0.0000 0.0000 -5.4048 0.0000
# 6 0.0000 0.0000 0.0000 0.0000 0.0000 34.2454
#
#
#
# Elastic Compliance Matrix: (Units=1/GPa)
#
#
# Indices 1 2 3 4 5 6 
#
# 1 0.013276 -0.001177 -0.004783 0.000000 0.000000 0.000000
# 2 -0.001177 0.018804 -0.005197 0.000000 0.000000 0.000000
# 3 -0.004783 -0.005197 0.014751 0.000000 0.000000 0.000000
# 4 0.000000 0.000000 0.000000 0.039237 0.000000 0.000000
# 5 0.000000 0.000000 0.000000 0.000000 -0.185021 0.000000
# 6 0.000000 0.000000 0.000000 0.000000 0.000000 0.029201
#
#
# Mechanical properties :
#
#
# Convention : Reuss Voigt Hill
#
# Bulk Modulus (GPa) = 40.78750 43.31805 42.05278
# Shear Modulus (GPa) = -127.33528 21.72915 -52.80306
#
# Velocity S-wave (km/s) = -8.60959 3.55656 -5.54419
# Velocity P-wave (km/s) = 8.66545 6.48706 4.06251
#
# Compressibility (1/GPa) = 0.02451731
#
# Stress axis : x y z
#
# Youngs Moduli (GPa) = 75.32408 53.17932 67.79423
#
# Poissons Ratio (x) = 0.06259 0.32423
# Poissons Ratio (y) = 0.08866 0.35234
# Poissons Ratio (z) = 0.36025 0.27638
#
# Static dielectric constant tensor:
#      x y z
#    x 1.589410 0.000000 0.000000 
#    y 0.000000 1.635180 0.000000 
#    z 0.000000 0.000000 1.564940 
# 
# From -- ./inp_files/25082.got.cif
#   From: 2010.05.17/outbox.cif.g08.bks.cpg/sg57_13_cif.got.tgz:25082.got - 2010.06.03 13:58:18.
