data_PCOD9439667
_publ_section_title
;
Structure prediction by ZEFSAII (Michael W. Deem and Ramdas Pophale) SiO2 
 PCOD9439667
Probable space group: P B C M
;
_chemical_formula_sum "Si O2"
_cell_formula_units_Z 36
_cell_length_a 11.306266
_cell_length_b 17.965690
_cell_length_c 9.184584
_cell_angle_alpha 90.000000
_cell_angle_beta 90.000000
_cell_angle_gamma 90.000000
_cell_volume 1865.617431
_symmetry_space_group_name_H-M "P B C M"
_symmetry_group_IT_number 57
_symmetry_cell_setting 'orthorhombic'
loop_
_space_group_symop_operation_xyz
x,y,z
-x,-y,1/2+z
x,1/2-y,-z
-x,1/2+y,1/2-z
-x,-y,-z
x,y,1/2-z
-x,1/2+y,z
x,1/2-y,1/2+z
loop_
_atom_site_type_symbol
_atom_site_label
_atom_site_fract_x
_atom_site_fract_y
_atom_site_fract_z
Si Si1 0.737947 0.250000 0.000000
Si Si2 0.293150 0.415569 0.993287
Si Si3 0.740599 0.020379 0.250000
Si Si4 0.654329 0.802571 0.250000
Si Si5 0.119727 0.829969 0.750000
Si Si6 0.594673 0.170056 0.750000
Si Si7 0.158633 0.169507 0.250000
Si Si8 0.542948 0.509722 0.250000
O O1 0.820906 0.293897 0.890454
O O2 0.663534 0.193617 0.896988
O O3 0.197930 0.378086 0.889182
O O4 0.392626 0.453646 0.890840
O O5 0.238370 0.475125 0.102302
O O6 0.339135 0.352577 0.104424
O O7 0.830944 0.087141 0.250000
O O8 0.596391 0.030625 0.250000
O O9 0.520013 0.775476 0.250000
O O10 0.757980 0.742563 0.250000
O O11 0.980123 0.817644 0.750000
O O12 0.562390 0.081001 0.750000
#
# Coordination Sequence:
#
# PCOD9439667 Si02
#       8
#     4   8   4   4   4   4   4   4
#     4  10  26  42  62  98 126 174 212 262 334 392
#     4  10  23  39  64  98 126 168 215 266 324 379
#     4  11  22  39  66  96 132 166 213 258 335 388
#     4  11  24  37  66  98 124 170 207 274 323 380
#     4  11  26  45  66  88 130 179 218 267 310 386
#     4  11  23  40  67  96 136 159 211 266 336 393
#     4  11  26  43  64  90 130 175 228 265 312 370
#     4  11  21  38  67  96 134 167 201 270 334 395
#
# _framework density 19.296559999999999
#
# number of rings (size 3 to 8) (size 9 to 14) (size 15 to 20)
#    0.000    1.333    2.222    2.667    9.333    2.667 
#    0.000    0.000    0.000    0.000    0.000    0.000 
#    0.000    0.000    0.000    0.000    0.000    0.000 
#
# Total GULP energy -200930.926383 kJ/mol
# GULP energy per Si atom -5581.414622 kJ/mol
# Density = 1.925264 g / cm^3
# Si number density = 19.296560 Si / 1000 Ang^3
#
#
#
# Elastic Constant Matrix: (Units=GPa)
#
#
# Indices 1 2 3 4 5 6 
#
# 1 147.0578 63.3072 59.1139 0.0000 0.0000 0.0000
# 2 63.3072 91.3015 47.0393 0.0000 0.0000 0.0000
# 3 59.1139 47.0393 156.5564 0.0000 0.0000 0.0000
# 4 0.0000 0.0000 0.0000 -9.9741 0.0000 0.0000
# 5 0.0000 0.0000 0.0000 0.0000 -47.5707 0.0000
# 6 0.0000 0.0000 0.0000 0.0000 0.0000 31.8722
#
#
#
# Elastic Compliance Matrix: (Units=1/GPa)
#
#
# Indices 1 2 3 4 5 6 
#
# 1 0.010219 -0.006032 -0.002046 0.000000 0.000000 0.000000
# 2 -0.006032 0.016519 -0.002686 0.000000 0.000000 0.000000
# 3 -0.002046 -0.002686 0.007967 0.000000 0.000000 0.000000
# 4 0.000000 0.000000 0.000000 -0.100260 0.000000 0.000000
# 5 0.000000 0.000000 0.000000 0.000000 -0.021021 0.000000
# 6 0.000000 0.000000 0.000000 0.000000 0.000000 0.031375
#
#
# Mechanical properties :
#
#
# Convention : Reuss Voigt Hill
#
# Bulk Modulus (GPa) = 75.88669 81.53738 78.71204
# Shear Modulus (GPa) = -170.76056 9.89583 -80.43237
#
# Velocity S-wave (km/s) = -9.41726 2.26703 -6.46318
# Velocity P-wave (km/s) = 8.87888 7.01421 3.84938
#
# Compressibility (1/GPa) = 0.01317754
#
# Stress axis : x y z
#
# Youngs Moduli (GPa) = 97.85537 60.53768 125.51533
#
# Poissons Ratio (x) = 0.36513 0.25685
# Poissons Ratio (y) = 0.59022 0.33711
# Poissons Ratio (z) = 0.20025 0.16259
#
# Static dielectric constant tensor:
#      x y z
#    x 1.659850 0.000000 0.000000 
#    y 0.000000 1.734510 0.000000 
#    z 0.000000 0.000000 1.692650 
# 
# From -- ./inp_files/1405.got.cif
#   From: 2010.05.17/outbox.cif.g08.bks.cpg/sg57_1_cif.got.tgz:1405.got - 2010.06.03 13:58:18.
