data_PCOD9439225
_publ_section_title
;
Structure prediction by ZEFSAII (Michael W. Deem and Ramdas Pophale) SiO2 
 PCOD9439225
Probable space group: P B C M
;
_chemical_formula_sum "Si O2"
_cell_formula_units_Z 48
_cell_length_a 18.830815
_cell_length_b 9.467726
_cell_length_c 14.522431
_cell_angle_alpha 90.000000
_cell_angle_beta 90.000000
_cell_angle_gamma 90.000000
_cell_volume 2589.131564
_symmetry_space_group_name_H-M "P B C M"
_symmetry_group_IT_number 57
_symmetry_cell_setting 'orthorhombic'
loop_
_space_group_symop_operation_xyz
x,y,z
-x,-y,1/2+z
x,1/2-y,-z
-x,1/2+y,1/2-z
-x,-y,-z
x,y,1/2-z
-x,1/2+y,z
x,1/2-y,1/2+z
loop_
_atom_site_type_symbol
_atom_site_label
_atom_site_fract_x
_atom_site_fract_y
_atom_site_fract_z
Si Si1 0.332690 0.841199 0.250000
Si Si2 0.345090 0.497340 0.250000
Si Si3 0.808611 0.869055 0.250000
Si Si4 0.582230 0.629546 0.565735
Si Si5 0.929088 0.899448 0.108144
Si Si6 0.069243 0.434390 0.607050
Si Si7 0.189861 0.470266 0.750000
Si Si8 0.579066 0.133826 0.931287
O O1 0.340509 0.668911 0.250000
O O2 0.374825 0.887988 0.341098
O O3 0.256031 0.921272 0.250000
O O4 0.265066 0.445710 0.250000
O O5 0.381289 0.430662 0.157998
O O6 0.856923 0.916797 0.164143
O O7 0.793411 0.699356 0.250000
O O8 0.616708 0.750000 0.500000
O O9 0.502080 0.678241 0.592730
O O10 0.575524 0.503609 0.493387
O O11 0.943371 0.732565 0.120611
O O12 0.919171 0.945233 0.002374
O O13 0.999029 0.983279 0.138283
O O14 0.137838 0.486797 0.662220
O O15 0.610942 0.250000 0.000000
#
# Coordination Sequence:
#
# PCOD9439225 Si02
#       8
#     4   4   4   8   8   8   4   8
#     4  12  25  40  62  88 132 166 203 254 312 376
#     4  12  25  42  58  94 128 162 209 254 310 372
#     4  10  23  38  52  82 122 156 199 244 300 358
#     4  10  23  41  68  93 119 157 209 259 309 370
#     4   9  18  35  58  82 111 147 193 253 294 349
#     4   9  18  35  58  84 110 146 199 244 297 351
#     4  10  23  38  54  84 118 162 197 236 302 368
#     4  10  21  43  65  91 121 158 202 258 314 360
#
# _framework density 18.539034999999998
#
# number of rings (size 3 to 8) (size 9 to 14) (size 15 to 20)
#    0.000    2.000    1.667    1.000    2.333    2.667 
#    3.000    0.000    0.000    0.000    0.000    0.000 
#    0.000    0.000    0.000    0.000    0.000    0.000 
#
# Total GULP energy -267400.674080 kJ/mol
# GULP energy per Si atom -5570.847377 kJ/mol
# Density = 1.849684 g / cm^3
# Si number density = 18.539035 Si / 1000 Ang^3
#
#
#
# Elastic Constant Matrix: (Units=GPa)
#
#
# Indices 1 2 3 4 5 6 
#
# 1 124.5772 38.0600 82.6008 0.0000 0.0000 0.0000
# 2 38.0600 57.8088 51.2169 0.0000 0.0000 0.0000
# 3 82.6008 51.2169 140.2828 0.0000 0.0000 0.0000
# 4 0.0000 0.0000 0.0000 25.0278 0.0000 0.0000
# 5 0.0000 0.0000 0.0000 0.0000 16.4795 0.0000
# 6 0.0000 0.0000 0.0000 0.0000 0.0000 44.2842
#
#
#
# Elastic Compliance Matrix: (Units=1/GPa)
#
#
# Indices 1 2 3 4 5 6 
#
# 1 0.013451 -0.002718 -0.006928 0.000000 0.000000 0.000000
# 2 -0.002718 0.026118 -0.007935 0.000000 0.000000 0.000000
# 3 -0.006928 -0.007935 0.014105 0.000000 0.000000 0.000000
# 4 0.000000 0.000000 0.000000 0.039956 0.000000 0.000000
# 5 0.000000 0.000000 0.000000 0.000000 0.060682 0.000000
# 6 0.000000 0.000000 0.000000 0.000000 0.000000 0.022581
#
#
# Mechanical properties :
#
#
# Convention : Reuss Voigt Hill
#
# Bulk Modulus (GPa) = 54.01941 74.04715 64.03328
# Shear Modulus (GPa) = 22.91204 27.21103 25.06154
#
# Velocity S-wave (km/s) = 3.51932 3.83530 3.68071
# Velocity P-wave (km/s) = 6.76133 7.72274 7.25797
#
# Compressibility (1/GPa) = 0.01851186
#
# Stress axis : x y z
#
# Youngs Moduli (GPa) = 74.34365 38.28726 70.89749
#
# Poissons Ratio (x) = 0.10406 0.49117
# Poissons Ratio (y) = 0.20207 0.56260
# Poissons Ratio (z) = 0.51504 0.30382
#
# Static dielectric constant tensor:
#      x y z
#    x 1.621320 0.000000 0.000000 
#    y 0.000000 1.756180 0.000000 
#    z 0.000000 0.000000 1.644320 
# 
# From -- ./inp_files/19031.got.cif
#   From: 2010.05.17/outbox.cif.g08.bks.cpg/sg57_10_cif.got.tgz:19031.got - 2010.06.03 13:58:18.
