data_PCOD9439369
_publ_section_title
;
Structure prediction by ZEFSAII (Michael W. Deem and Ramdas Pophale) SiO2 
 PCOD9439369
Probable space group: P B C M
;
_chemical_formula_sum "Si O2"
_cell_formula_units_Z 48
_cell_length_a 9.803313
_cell_length_b 13.940474
_cell_length_c 15.639635
_cell_angle_alpha 90.000000
_cell_angle_beta 90.000000
_cell_angle_gamma 90.000000
_cell_volume 2137.356779
_symmetry_space_group_name_H-M "P B C M"
_symmetry_group_IT_number 57
_symmetry_cell_setting 'orthorhombic'
loop_
_space_group_symop_operation_xyz
x,y,z
-x,-y,1/2+z
x,1/2-y,-z
-x,1/2+y,1/2-z
-x,-y,-z
x,y,1/2-z
-x,1/2+y,z
x,1/2-y,1/2+z
loop_
_atom_site_type_symbol
_atom_site_label
_atom_site_fract_x
_atom_site_fract_y
_atom_site_fract_z
Si Si1 0.787366 0.468792 0.928774
Si Si2 0.704697 0.396893 0.392658
Si Si3 0.894344 0.234122 0.397945
Si Si4 0.156709 0.162471 0.850986
Si Si5 0.506628 0.048833 0.154628
Si Si6 0.536067 0.727601 0.648143
O O1 0.841283 0.373072 0.880758
O O2 0.867205 0.564157 0.902792
O O3 0.628103 0.484733 0.906021
O O4 0.784129 0.443341 0.028206
O O5 0.807410 0.318806 0.352882
O O6 0.629804 0.485812 0.348289
O O7 0.572993 0.328491 0.409533
O O8 0.874760 0.250000 0.500000
O O9 0.049909 0.255397 0.375571
O O10 0.146432 0.142451 0.750000
O O11 0.310136 0.196517 0.869013
O O12 0.564436 0.040486 0.250000
O O13 0.477045 0.159250 0.136288
O O14 0.507204 0.706526 0.750000
#
# Coordination Sequence:
#
# PCOD9439369 Si02
#       6
#     8   8   8   8   8   8
#     4  11  23  42  66  95 130 173 220 273 336 395
#     4  11  22  41  66  95 130 168 226 272 329 395
#     4  10  25  45  65  94 131 176 223 273 328 401
#     4  11  25  43  64  96 135 173 217 273 335 394
#     4  11  22  37  63  97 130 168 215 275 330 391
#     4  10  22  39  62  96 132 167 220 277 326 392
#
# _framework density 22.457643999999998
#
# number of rings (size 3 to 8) (size 9 to 14) (size 15 to 20)
#    0.000    1.333    3.333    1.500    0.000    8.000 
#    0.000    1.667    0.000    0.000    0.000    0.000 
#    0.000    0.000    0.000    0.000    0.000    0.000 
#
# Total GULP energy -268131.575158 kJ/mol
# GULP energy per Si atom -5586.074482 kJ/mol
# Density = 2.240653 g / cm^3
# Si number density = 22.457644 Si / 1000 Ang^3
#
#
#
# Elastic Constant Matrix: (Units=GPa)
#
#
# Indices 1 2 3 4 5 6 
#
# 1 76.2288 6.3868 4.1196 0.0000 0.0000 0.0000
# 2 6.3868 84.9583 4.5155 0.0000 0.0000 0.0000
# 3 4.1196 4.5155 25.8152 0.0000 0.0000 0.0000
# 4 0.0000 0.0000 0.0000 9.7417 0.0000 0.0000
# 5 0.0000 0.0000 0.0000 0.0000 95.1540 0.0000
# 6 0.0000 0.0000 0.0000 0.0000 0.0000 29.2699
#
#
#
# Elastic Compliance Matrix: (Units=1/GPa)
#
#
# Indices 1 2 3 4 5 6 
#
# 1 0.013300 -0.000895 -0.001966 0.000000 0.000000 0.000000
# 2 -0.000895 0.011941 -0.001946 0.000000 0.000000 0.000000
# 3 -0.001966 -0.001946 0.039391 0.000000 0.000000 0.000000
# 4 0.000000 0.000000 0.000000 0.102651 0.000000 0.000000
# 5 0.000000 0.000000 0.000000 0.000000 0.010509 0.000000
# 6 0.000000 0.000000 0.000000 0.000000 0.000000 0.034165
#
#
# Mechanical properties :
#
#
# Convention : Reuss Voigt Hill
#
# Bulk Modulus (GPa) = 18.17589 24.11624 21.14606
# Shear Modulus (GPa) = 20.84109 38.29847 29.56978
#
# Velocity S-wave (km/s) = 3.04964 4.13409 3.63256
# Velocity P-wave (km/s) = 4.52895 5.79219 5.19908
#
# Compressibility (1/GPa) = 0.05501794
#
# Stress axis : x y z
#
# Youngs Moduli (GPa) = 75.18995 83.74359 25.38651
#
# Poissons Ratio (x) = 0.07498 0.04990
# Poissons Ratio (y) = 0.06732 0.04940
# Poissons Ratio (z) = 0.14781 0.16295
#
# Static dielectric constant tensor:
#      x y z
#    x 1.803650 0.000000 0.000000 
#    y 0.000000 1.833970 0.000000 
#    z 0.000000 0.000000 1.863940 
# 
# From -- ./inp_files/20978.got.cif
#   From: 2010.05.17/outbox.cif.g08.bks.cpg/sg57_11_cif.got.tgz:20978.got - 2010.06.03 13:58:18.
