data_PCOD9439149
_publ_section_title
;
Structure prediction by ZEFSAII (Michael W. Deem and Ramdas Pophale) SiO2 
 PCOD9439149
Probable space group: P B C M
;
_chemical_formula_sum "Si O2"
_cell_formula_units_Z 48
_cell_length_a 5.091581
_cell_length_b 12.757190
_cell_length_c 31.120328
_cell_angle_alpha 90.000000
_cell_angle_beta 90.000000
_cell_angle_gamma 90.000000
_cell_volume 2021.398070
_symmetry_space_group_name_H-M "P B C M"
_symmetry_group_IT_number 57
_symmetry_cell_setting 'orthorhombic'
loop_
_space_group_symop_operation_xyz
x,y,z
-x,-y,1/2+z
x,1/2-y,-z
-x,1/2+y,1/2-z
-x,-y,-z
x,y,1/2-z
-x,1/2+y,z
x,1/2-y,1/2+z
loop_
_atom_site_type_symbol
_atom_site_label
_atom_site_fract_x
_atom_site_fract_y
_atom_site_fract_z
Si Si1 0.553876 0.327264 0.971483
Si Si2 0.800460 0.947356 0.032979
Si Si3 0.041358 0.507875 0.118633
Si Si4 0.442553 0.357591 0.617119
Si Si5 0.311009 0.266231 0.202625
Si Si6 0.811643 0.403168 0.297351
O O1 0.621293 0.448792 0.960065
O O2 0.523577 0.284687 0.923144
O O3 0.737349 0.250000 0.000000
O O4 0.338625 0.352820 0.008617
O O5 0.913231 0.924397 0.080317
O O6 0.000000 0.000000 0.000000
O O7 0.316431 0.564649 0.127701
O O8 0.908191 0.468120 0.162101
O O9 0.825383 0.588411 0.100605
O O10 0.372134 0.301742 0.661363
O O11 0.362484 0.218773 0.250000
O O12 0.010386 0.304082 0.201763
O O13 0.512406 0.364490 0.199276
O O14 0.847540 0.452945 0.250000
#
# Coordination Sequence:
#
# PCOD9439149 Si02
#       6
#     8   8   8   8   8   8
#     4  10  23  39  60  89 121 165 211 251 313 381
#     4  10  21  41  59  85 127 160 204 267 309 361
#     4  11  23  39  63  88 121 160 203 254 310 365
#     4  11  23  40  59  92 121 155 209 250 304 373
#     4  10  22  40  61  89 125 158 200 256 306 366
#     4  10  22  40  62  90 120 160 205 246 311 378
#
# _framework density 23.745941999999999
#
# number of rings (size 3 to 8) (size 9 to 14) (size 15 to 20)
#    0.000    1.667    1.667    2.000    2.333    3.333 
#    0.000    0.000    0.000    0.000    0.000    0.000 
#    0.000    0.000    0.000    0.000    0.000    0.000 
#
# Total GULP energy -267589.024503 kJ/mol
# GULP energy per Si atom -5574.771344 kJ/mol
# Density = 2.369190 g / cm^3
# Si number density = 23.745942 Si / 1000 Ang^3
#
#
#
# Elastic Constant Matrix: (Units=GPa)
#
#
# Indices 1 2 3 4 5 6 
#
# 1 49.0541 -7.2828 -21.4860 0.0000 0.0000 0.0000
# 2 -7.2828 31.4925 25.1246 0.0000 0.0000 0.0000
# 3 -21.4860 25.1246 152.0453 0.0000 0.0000 0.0000
# 4 0.0000 0.0000 0.0000 35.5219 0.0000 0.0000
# 5 0.0000 0.0000 0.0000 0.0000 29.5524 0.0000
# 6 0.0000 0.0000 0.0000 0.0000 0.0000 22.9319
#
#
#
# Elastic Compliance Matrix: (Units=1/GPa)
#
#
# Indices 1 2 3 4 5 6 
#
# 1 0.021974 0.003000 0.002610 0.000000 0.000000 0.000000
# 2 0.003000 0.036985 -0.005688 0.000000 0.000000 0.000000
# 3 0.002610 -0.005688 0.007886 0.000000 0.000000 0.000000
# 4 0.000000 0.000000 0.000000 0.028152 0.000000 0.000000
# 5 0.000000 0.000000 0.000000 0.000000 0.033838 0.000000
# 6 0.000000 0.000000 0.000000 0.000000 0.000000 0.043607
#
#
# Mechanical properties :
#
#
# Convention : Reuss Voigt Hill
#
# Bulk Modulus (GPa) = 14.99529 25.03374 20.01452
# Shear Modulus (GPa) = 25.66371 33.35031 29.50701
#
# Velocity S-wave (km/s) = 3.29106 3.75168 3.52890
# Velocity P-wave (km/s) = 4.55742 5.41591 5.00510
#
# Compressibility (1/GPa) = 0.06668760
#
# Stress axis : x y z
#
# Youngs Moduli (GPa) = 45.50836 27.03812 126.81344
#
# Poissons Ratio (x) = -0.08111 -0.33092
# Poissons Ratio (y) = -0.13651 0.72127
# Poissons Ratio (z) = -0.11876 0.15378
#
# Static dielectric constant tensor:
#      x y z
#    x 2.009460 0.000000 0.000000 
#    y 0.000000 -7.033580 0.000000 
#    z 0.000000 0.000000 1.515560 
# 
# From -- ./inp_files/27942.got.cif
#   From: 2010.05.17/outbox.cif.g08.bks.cpg/sg57_14_cif.got.tgz:27942.got - 2010.06.03 13:58:18.
