data_PCOD9439135
_publ_section_title
;
Structure prediction by ZEFSAII (Michael W. Deem and Ramdas Pophale) SiO2 
 PCOD9439135
Probable space group: P B C M
;
_chemical_formula_sum "Si O2"
_cell_formula_units_Z 48
_cell_length_a 10.216817
_cell_length_b 14.028640
_cell_length_c 17.161673
_cell_angle_alpha 90.000000
_cell_angle_beta 90.000000
_cell_angle_gamma 90.000000
_cell_volume 2459.749085
_symmetry_space_group_name_H-M "P B C M"
_symmetry_group_IT_number 57
_symmetry_cell_setting 'orthorhombic'
loop_
_space_group_symop_operation_xyz
x,y,z
-x,-y,1/2+z
x,1/2-y,-z
-x,1/2+y,1/2-z
-x,-y,-z
x,y,1/2-z
-x,1/2+y,z
x,1/2-y,1/2+z
loop_
_atom_site_type_symbol
_atom_site_label
_atom_site_fract_x
_atom_site_fract_y
_atom_site_fract_z
Si Si1 0.486144 0.961060 0.587580
Si Si2 0.362820 0.784678 0.658186
Si Si3 0.128829 0.641905 0.843641
Si Si4 0.382576 0.151552 0.838888
Si Si5 0.871203 0.738072 0.908916
Si Si6 0.771535 0.566748 0.343631
O O1 0.386362 0.874299 0.602229
O O2 0.628193 0.928206 0.618014
O O3 0.500000 0.000000 0.500000
O O4 0.436108 0.048109 0.640032
O O5 0.346214 0.813359 0.750000
O O6 0.242972 0.716725 0.634602
O O7 0.494580 0.722108 0.654464
O O8 0.125824 0.640688 0.750000
O O9 0.165332 0.534315 0.867995
O O10 0.991159 0.679047 0.874154
O O11 0.334299 0.155357 0.750000
O O12 0.264671 0.183295 0.893557
O O13 0.854782 0.841810 0.869384
O O14 0.891854 0.750000 0.000000
O O15 0.756501 0.567664 0.250000
#
# Coordination Sequence:
#
# PCOD9439135 Si02
#       6
#     8   8   8   8   8   8
#     4  12  24  37  63  99 136 168 210 273 335 383
#     4  10  21  40  67  94 122 167 225 267 310 383
#     4  10  23  43  67  95 125 170 224 268 316 388
#     4  11  22  40  66  93 122 168 225 265 307 385
#     4  12  26  42  64  97 136 171 210 269 336 390
#     4  11  22  43  69  91 126 176 221 264 325 389
#
# _framework density 19.514185000000001
#
# number of rings (size 3 to 8) (size 9 to 14) (size 15 to 20)
#    0.000    1.000    3.333    4.000    0.000    3.333 
#    0.000    1.667    0.000    0.000    0.000    0.000 
#    0.000    0.000    0.000    0.000    0.000    0.000 
#
# Total GULP energy -268409.725749 kJ/mol
# GULP energy per Si atom -5591.869286 kJ/mol
# Density = 1.946977 g / cm^3
# Si number density = 19.514185 Si / 1000 Ang^3
#
#
#
# Elastic Constant Matrix: (Units=GPa)
#
#
# Indices 1 2 3 4 5 6 
#
# 1 55.1050 -4.1253 -7.3183 0.0000 0.0000 0.0000
# 2 -4.1253 42.8979 -2.6037 0.0000 0.0000 0.0000
# 3 -7.3183 -2.6037 21.9552 0.0000 0.0000 0.0000
# 4 0.0000 0.0000 0.0000 0.4410 0.0000 0.0000
# 5 0.0000 0.0000 0.0000 0.0000 7.8883 0.0000
# 6 0.0000 0.0000 0.0000 0.0000 0.0000 27.3632
#
#
#
# Elastic Compliance Matrix: (Units=1/GPa)
#
#
# Indices 1 2 3 4 5 6 
#
# 1 0.019201 0.002251 0.006667 0.000000 0.000000 0.000000
# 2 0.002251 0.023744 0.003566 0.000000 0.000000 0.000000
# 3 0.006667 0.003566 0.048193 0.000000 0.000000 0.000000
# 4 0.000000 0.000000 0.000000 2.267450 0.000000 0.000000
# 5 0.000000 0.000000 0.000000 0.000000 0.126771 0.000000
# 6 0.000000 0.000000 0.000000 0.000000 0.000000 0.036545
#
#
# Mechanical properties :
#
#
# Convention : Reuss Voigt Hill
#
# Bulk Modulus (GPa) = 8.61275 10.20708 9.40992
# Shear Modulus (GPa) = 1.97189 16.07220 9.02204
#
# Velocity S-wave (km/s) = 1.00632 2.87298 2.15252
# Velocity P-wave (km/s) = 2.40279 4.03080 3.31819
#
# Compressibility (1/GPa) = 0.11610688
#
# Stress axis : x y z
#
# Youngs Moduli (GPa) = 52.08025 42.11576 20.75009
#
# Poissons Ratio (x) = -0.09481 -0.13835
# Poissons Ratio (y) = -0.11724 -0.07400
# Poissons Ratio (z) = -0.34723 -0.15019
#
# Static dielectric constant tensor:
#      x y z
#    x 1.650270 0.000000 0.000000 
#    y 0.000000 1.684710 0.000000 
#    z 0.000000 0.000000 1.670410 
# 
# From -- ./inp_files/20903.got.cif
#   From: 2010.05.17/outbox.cif.g08.bks.cpg/sg57_11_cif.got.tgz:20903.got - 2010.06.03 13:58:18.
