data_PCOD9439940
_publ_section_title
;
Structure prediction by ZEFSAII (Michael W. Deem and Ramdas Pophale) SiO2 
 PCOD9439940
Probable space group: P B C M
;
_chemical_formula_sum "Si O2"
_cell_formula_units_Z 32
_cell_length_a 12.822666
_cell_length_b 5.943255
_cell_length_c 18.036354
_cell_angle_alpha 90.000000
_cell_angle_beta 90.000000
_cell_angle_gamma 90.000000
_cell_volume 1374.521208
_symmetry_space_group_name_H-M "P B C M"
_symmetry_group_IT_number 57
_symmetry_cell_setting 'orthorhombic'
loop_
_space_group_symop_operation_xyz
x,y,z
-x,-y,1/2+z
x,1/2-y,-z
-x,1/2+y,1/2-z
-x,-y,-z
x,y,1/2-z
-x,1/2+y,z
x,1/2-y,1/2+z
loop_
_atom_site_type_symbol
_atom_site_label
_atom_site_fract_x
_atom_site_fract_y
_atom_site_fract_z
Si Si1 0.772722 0.350181 0.425046
Si Si2 0.639519 0.025687 0.163148
Si Si3 0.423712 0.367276 0.922101
Si Si4 0.053443 0.425743 0.662283
O O1 0.820191 0.250000 0.500000
O O2 0.739830 0.159621 0.365875
O O3 0.659158 0.446255 0.445636
O O4 0.847434 0.533565 0.389642
O O5 0.626638 0.059526 0.250000
O O6 0.530839 0.086248 0.121037
O O7 0.644666 0.769892 0.137753
O O8 0.448708 0.250000 0.000000
O O9 0.078692 0.430035 0.750000
O O10 0.007401 0.170681 0.649151
#
# Coordination Sequence:
#
# PCOD9439940 Si02
#       4
#     8   8   8   8
#     4  12  26  44  69  99 137 184 232 288 357 430
#     4  12  25  40  64  99 138 187 239 285 342 418
#     4  12  24  42  65  97 144 187 229 287 348 423
#     4  10  25  49  75 105 141 183 237 303 367 428
#
# _framework density 23.280833999999999
#
# number of rings (size 3 to 8) (size 9 to 14) (size 15 to 20)
#    0.000    0.500    5.000    3.000    3.500    4.000 
#    0.000    0.000    0.000    0.000    0.000    0.000 
#    0.000    0.000    0.000    0.000    0.000    0.000 
#
# Total GULP energy -178462.661347 kJ/mol
# GULP energy per Si atom -5576.958167 kJ/mol
# Density = 2.322785 g / cm^3
# Si number density = 23.280834 Si / 1000 Ang^3
#
#
#
# Elastic Constant Matrix: (Units=GPa)
#
#
# Indices 1 2 3 4 5 6 
#
# 1 58.4526 16.8416 38.2574 0.0000 0.0000 0.0000
# 2 16.8416 57.3470 17.8893 0.0000 0.0000 0.0000
# 3 38.2574 17.8893 138.9312 0.0000 0.0000 0.0000
# 4 0.0000 0.0000 0.0000 29.8792 0.0000 0.0000
# 5 0.0000 0.0000 0.0000 0.0000 29.0833 0.0000
# 6 0.0000 0.0000 0.0000 0.0000 0.0000 41.3908
#
#
#
# Elastic Compliance Matrix: (Units=1/GPa)
#
#
# Indices 1 2 3 4 5 6 
#
# 1 0.022056 -0.004775 -0.005459 0.000000 0.000000 0.000000
# 2 -0.004775 0.019201 -0.001158 0.000000 0.000000 0.000000
# 3 -0.005459 -0.001158 0.008850 0.000000 0.000000 0.000000
# 4 0.000000 0.000000 0.000000 0.033468 0.000000 0.000000
# 5 0.000000 0.000000 0.000000 0.000000 0.034384 0.000000
# 6 0.000000 0.000000 0.000000 0.000000 0.000000 0.024160
#
#
# Mechanical properties :
#
#
# Convention : Reuss Voigt Hill
#
# Bulk Modulus (GPa) = 36.59608 44.52304 40.55956
# Shear Modulus (GPa) = 28.73397 32.18684 30.46041
#
# Velocity S-wave (km/s) = 3.51698 3.72230 3.62109
# Velocity P-wave (km/s) = 5.67853 6.13513 5.91124
#
# Compressibility (1/GPa) = 0.02732533
#
# Stress axis : x y z
#
# Youngs Moduli (GPa) = 45.33835 52.08056 112.99348
#
# Poissons Ratio (x) = 0.24866 0.61682
# Poissons Ratio (y) = 0.21647 0.13080
# Poissons Ratio (z) = 0.24750 0.06029
#
# Static dielectric constant tensor:
#      x y z
#    x 1.846490 0.000000 0.000000 
#    y 0.000000 2.382900 0.000000 
#    z 0.000000 0.000000 1.805290 
# 
# From -- ./inp_files/24788.got.cif
#   From: 2010.05.17/outbox.cif.g08.bks.cpg/sg57_13_cif.got.tgz:24788.got - 2010.06.03 13:58:18.
