data_PCOD9439756
_publ_section_title
;
Structure prediction by ZEFSAII (Michael W. Deem and Ramdas Pophale) SiO2 
 PCOD9439756
Probable space group: P B C M
;
_chemical_formula_sum "Si O2"
_cell_formula_units_Z 48
_cell_length_a 7.857885
_cell_length_b 19.814697
_cell_length_c 15.854577
_cell_angle_alpha 90.000000
_cell_angle_beta 90.000000
_cell_angle_gamma 90.000000
_cell_volume 2468.583170
_symmetry_space_group_name_H-M "P B C M"
_symmetry_group_IT_number 57
_symmetry_cell_setting 'orthorhombic'
loop_
_space_group_symop_operation_xyz
x,y,z
-x,-y,1/2+z
x,1/2-y,-z
-x,1/2+y,1/2-z
-x,-y,-z
x,y,1/2-z
-x,1/2+y,z
x,1/2-y,1/2+z
loop_
_atom_site_type_symbol
_atom_site_label
_atom_site_fract_x
_atom_site_fract_y
_atom_site_fract_z
Si Si1 0.146875 0.400440 0.653384
Si Si2 0.906604 0.518790 0.651249
Si Si3 0.532513 0.194699 0.928955
Si Si4 0.814046 0.752677 0.398127
Si Si5 0.883781 0.353384 0.349189
Si Si6 0.638266 0.942161 0.492338
O O1 0.205041 0.412551 0.750000
O O2 0.136072 0.320419 0.637543
O O3 0.266938 0.429995 0.580724
O O4 0.971232 0.442030 0.644047
O O5 0.857812 0.530922 0.750000
O O6 0.765008 0.537291 0.583309
O O7 0.063909 0.569435 0.631306
O O8 0.378317 0.225879 0.872580
O O9 0.709829 0.172813 0.888765
O O10 0.449665 0.128200 0.968911
O O11 0.570583 0.250000 0.000000
O O12 0.810781 0.750000 0.500000
O O13 0.954378 0.807657 0.373862
O O14 0.862235 0.348886 0.250000
O O15 0.500000 0.000000 0.500000
#
# Coordination Sequence:
#
# PCOD9439756 Si02
#       6
#     8   8   8   8   8   8
#     4  11  23  42  67  98 133 175 223 281 341 402
#     4  10  23  43  66  96 136 179 229 281 340 403
#     4  11  23  42  62  96 131 171 224 274 335 404
#     4  11  21  43  68  90 132 175 220 273 336 404
#     4  11  23  39  66  96 126 173 222 275 334 401
#     4  12  24  41  67  97 133 183 224 276 342 401
#
# _framework density 19.444351000000001
#
# number of rings (size 3 to 8) (size 9 to 14) (size 15 to 20)
#    0.000    1.000    5.000    2.500    0.000    5.333 
#    0.000    0.000    0.000    0.000    0.000    0.000 
#    0.000    0.000    0.000    0.000    0.000    0.000 
#
# Total GULP energy -268101.330342 kJ/mol
# GULP energy per Si atom -5585.444382 kJ/mol
# Density = 1.940010 g / cm^3
# Si number density = 19.444351 Si / 1000 Ang^3
#
#
#
# Elastic Constant Matrix: (Units=GPa)
#
#
# Indices 1 2 3 4 5 6 
#
# 1 113.4467 35.7095 55.6357 0.0000 0.0000 0.0000
# 2 35.7095 114.1609 38.2303 0.0000 0.0000 0.0000
# 3 55.6357 38.2303 81.5596 0.0000 0.0000 0.0000
# 4 0.0000 0.0000 0.0000 27.4017 0.0000 0.0000
# 5 0.0000 0.0000 0.0000 0.0000 134.1726 0.0000
# 6 0.0000 0.0000 0.0000 0.0000 0.0000 54.1339
#
#
#
# Elastic Compliance Matrix: (Units=1/GPa)
#
#
# Indices 1 2 3 4 5 6 
#
# 1 0.013417 -0.001343 -0.008523 0.000000 0.000000 0.000000
# 2 -0.001343 0.010525 -0.004018 0.000000 0.000000 0.000000
# 3 -0.008523 -0.004018 0.019958 0.000000 0.000000 0.000000
# 4 0.000000 0.000000 0.000000 0.036494 0.000000 0.000000
# 5 0.000000 0.000000 0.000000 0.000000 0.007453 0.000000
# 6 0.000000 0.000000 0.000000 0.000000 0.000000 0.018473
#
#
# Mechanical properties :
#
#
# Convention : Reuss Voigt Hill
#
# Bulk Modulus (GPa) = 61.98246 63.14646 62.56446
# Shear Modulus (GPa) = 35.85131 55.11443 45.48287
#
# Velocity S-wave (km/s) = 4.29860 5.32975 4.84170
# Velocity P-wave (km/s) = 7.52219 8.39172 7.96882
#
# Compressibility (1/GPa) = 0.01613360
#
# Stress axis : x y z
#
# Youngs Moduli (GPa) = 74.53115 95.01221 50.10463
#
# Poissons Ratio (x) = 0.12757 0.42705
# Poissons Ratio (y) = 0.10007 0.20130
# Poissons Ratio (z) = 0.63524 0.38172
#
# Static dielectric constant tensor:
#      x y z
#    x 1.677400 0.000000 0.000000 
#    y 0.000000 1.682780 0.000000 
#    z 0.000000 0.000000 1.692830 
# 
# From -- ./inp_files/16309.got.cif
#   From: 2010.05.17/outbox.cif.g08.bks.cpg/sg57_9_cif.got.tgz:16309.got - 2010.06.03 13:58:18.
