data_PCOD9439048
_publ_section_title
;
Structure prediction by ZEFSAII (Michael W. Deem and Ramdas Pophale) SiO2 
 PCOD9439048
Probable space group: P B C M
;
_chemical_formula_sum "Si O2"
_cell_formula_units_Z 48
_cell_length_a 7.092497
_cell_length_b 14.498491
_cell_length_c 22.722717
_cell_angle_alpha 90.000000
_cell_angle_beta 90.000000
_cell_angle_gamma 90.000000
_cell_volume 2336.588440
_symmetry_space_group_name_H-M "P B C M"
_symmetry_group_IT_number 57
_symmetry_cell_setting 'orthorhombic'
loop_
_space_group_symop_operation_xyz
x,y,z
-x,-y,1/2+z
x,1/2-y,-z
-x,1/2+y,1/2-z
-x,-y,-z
x,y,1/2-z
-x,1/2+y,z
x,1/2-y,1/2+z
loop_
_atom_site_type_symbol
_atom_site_label
_atom_site_fract_x
_atom_site_fract_y
_atom_site_fract_z
Si Si1 0.500433 0.711918 0.621876
Si Si2 0.101523 0.578187 0.463191
Si Si3 0.791009 0.636449 0.373058
Si Si4 0.421094 0.467706 0.250000
Si Si5 0.693137 0.250000 0.000000
Si Si6 0.426273 0.504554 0.121423
Si Si7 0.517792 0.260686 0.250000
Si Si8 0.765845 0.587044 0.250000
O O1 0.703099 0.761448 0.629917
O O2 0.419141 0.753445 0.561505
O O3 0.516971 0.602419 0.614127
O O4 0.392498 0.734644 0.683939
O O5 0.185875 0.657614 0.503803
O O6 0.269196 0.534755 0.424535
O O7 0.000000 0.500000 0.500000
O O8 0.947217 0.625204 0.421654
O O9 0.610923 0.568979 0.383872
O O10 0.872161 0.603583 0.310316
O O11 0.351529 0.509746 0.188829
O O12 0.400011 0.357242 0.250000
O O13 0.646683 0.492301 0.250000
O O14 0.395232 0.167538 0.250000
#
# Coordination Sequence:
#
# PCOD9439048 Si02
#       8
#     8   8   8   4   4   8   4   4
#     4  10  21  39  69  88 127 162 205 256 313 371
#     4  12  28  41  59  90 127 163 213 256 304 377
#     4  10  21  41  63  91 124 162 197 259 311 361
#     4   8  16  33  65  91 119 151 203 253 303 379
#     4  12  26  42  62  98 122 168 220 248 314 382
#     4  10  21  42  65  94 121 164 205 253 318 368
#     4   8  16  34  59  96 115 157 201 251 310 367
#     4   8  16  33  62  89 118 152 202 244 307 374
#
# _framework density 20.542770000000001
#
# number of rings (size 3 to 8) (size 9 to 14) (size 15 to 20)
#    0.000    2.000    1.667    1.000    4.667    2.000 
#    0.000    0.833    0.000    1.000    0.000    0.000 
#    0.000    0.000    0.000    0.000    0.000    0.000 
#
# Total GULP energy -267679.038220 kJ/mol
# GULP energy per Si atom -5576.646630 kJ/mol
# Density = 2.049601 g / cm^3
# Si number density = 20.542770 Si / 1000 Ang^3
#
#
#
# Elastic Constant Matrix: (Units=GPa)
#
#
# Indices 1 2 3 4 5 6 
#
# 1 24.3864 -6.1392 18.9850 0.0000 0.0000 0.0000
# 2 -6.1392 76.4772 -9.2271 0.0000 0.0000 0.0000
# 3 18.9850 -9.2271 112.8510 0.0000 0.0000 0.0000
# 4 0.0000 0.0000 0.0000 34.2635 0.0000 0.0000
# 5 0.0000 0.0000 0.0000 0.0000 -7.9499 0.0000
# 6 0.0000 0.0000 0.0000 0.0000 0.0000 22.5421
#
#
#
# Elastic Compliance Matrix: (Units=1/GPa)
#
#
# Indices 1 2 3 4 5 6 
#
# 1 0.047813 0.002896 -0.007807 0.000000 0.000000 0.000000
# 2 0.002896 0.013382 0.000607 0.000000 0.000000 0.000000
# 3 -0.007807 0.000607 0.010224 0.000000 0.000000 0.000000
# 4 0.000000 0.000000 0.000000 0.029186 0.000000 0.000000
# 5 0.000000 0.000000 0.000000 0.000000 -0.125787 0.000000
# 6 0.000000 0.000000 0.000000 0.000000 0.000000 0.044361
#
#
# Mechanical properties :
#
#
# Convention : Reuss Voigt Hill
#
# Bulk Modulus (GPa) = 15.92063 24.55025 20.23544
# Shear Modulus (GPa) = 102.62006 23.77752 63.19879
#
# Velocity S-wave (km/s) = 7.07551 3.40584 5.55259
# Velocity P-wave (km/s) = 8.63233 5.23862 7.14004
#
# Compressibility (1/GPa) = 0.06281157
#
# Stress axis : x y z
#
# Youngs Moduli (GPa) = 20.91469 74.73002 97.80697
#
# Poissons Ratio (x) = -0.21644 0.76357
# Poissons Ratio (y) = -0.06057 -0.05936
# Poissons Ratio (z) = 0.16328 -0.04535
#
# Static dielectric constant tensor:
#      x y z
#    x 1.693180 0.000000 0.000000 
#    y 0.000000 1.714120 0.000000 
#    z 0.000000 0.000000 1.763820 
# 
# From -- ./inp_files/24289.got.cif
#   From: 2010.05.17/outbox.cif.g08.bks.cpg/sg57_13_cif.got.tgz:24289.got - 2010.06.03 13:58:18.
