data_PCOD9439306
_publ_section_title
;
Structure prediction by ZEFSAII (Michael W. Deem and Ramdas Pophale) SiO2 
 PCOD9439306
Probable space group: P B C M
;
_chemical_formula_sum "Si O2"
_cell_formula_units_Z 64
_cell_length_a 12.055277
_cell_length_b 31.350616
_cell_length_c 8.876262
_cell_angle_alpha 90.000000
_cell_angle_beta 90.000000
_cell_angle_gamma 90.000000
_cell_volume 3354.697656
_symmetry_space_group_name_H-M "P B C M"
_symmetry_group_IT_number 57
_symmetry_cell_setting 'orthorhombic'
loop_
_space_group_symop_operation_xyz
x,y,z
-x,-y,1/2+z
x,1/2-y,-z
-x,1/2+y,1/2-z
-x,-y,-z
x,y,1/2-z
-x,1/2+y,z
x,1/2-y,1/2+z
loop_
_atom_site_type_symbol
_atom_site_label
_atom_site_fract_x
_atom_site_fract_y
_atom_site_fract_z
Si Si1 0.029072 0.793389 0.928806
Si Si2 0.048463 0.957034 0.430233
Si Si3 0.501128 0.953611 0.574006
Si Si4 0.493335 0.294893 0.068667
Si Si5 0.097786 0.373076 0.069846
Si Si6 0.256822 0.820904 0.070029
Si Si7 0.643830 0.621212 0.931637
Si Si8 0.256774 0.586269 0.426801
O O1 0.027572 0.790870 0.750000
O O2 0.982310 0.750000 0.000000
O O3 0.155009 0.798585 0.987265
O O4 0.962297 0.834490 0.985851
O O5 0.061089 0.960990 0.250000
O O6 0.164631 0.945256 0.507468
O O7 0.966139 0.917238 0.460219
O O8 0.000000 0.000000 0.500000
O O9 0.527974 0.957644 0.750000
O O10 0.585639 0.920509 0.498327
O O11 0.378449 0.933685 0.559846
O O12 0.500000 0.000000 0.500000
O O13 0.487300 0.292520 0.250000
O O14 0.622175 0.303081 0.027459
O O15 0.421382 0.335889 0.019925
O O16 0.456123 0.250000 0.000000
O O17 0.090774 0.365219 0.250000
O O18 0.226842 0.376297 0.027697
O O19 0.243054 0.817087 0.250000
O O20 0.252576 0.870221 0.021094
O O21 0.636150 0.618899 0.750000
O O22 0.234679 0.595171 0.250000
#
# Coordination Sequence:
#
# PCOD9439306 Si02
#       8
#     8   8   8   8   8   8   8   8
#     4  12  25  41  64  92 126 165 209 258 311 372
#     4  11  24  41  64  93 128 165 207 259 310 369
#     4  11  25  42  64  94 127 164 207 256 308 367
#     4  10  22  38  61  90 122 160 200 249 305 363
#     4  10  23  43  65  89 123 165 210 258 312 368
#     4  11  21  38  63  93 127 161 204 254 311 368
#     4  10  22  43  65  89 124 164 207 257 309 366
#     4  11  23  40  64  94 127 163 205 256 313 367
#
# _framework density 19.077725000000001
#
# number of rings (size 3 to 8) (size 9 to 14) (size 15 to 20)
#    0.000    1.250    2.500    3.000    1.750    5.500 
#    0.000    1.250    0.000    0.000    0.000    0.000 
#    0.000    0.000    0.000    0.000    0.000    0.000 
#
# Total GULP energy -357928.445823 kJ/mol
# GULP energy per Si atom -5592.631966 kJ/mol
# Density = 1.903430 g / cm^3
# Si number density = 19.077725 Si / 1000 Ang^3
#
#
#
# Elastic Constant Matrix: (Units=GPa)
#
#
# Indices 1 2 3 4 5 6 
#
# 1 97.5631 30.0432 55.8056 0.0000 0.0000 0.0000
# 2 30.0432 123.0677 56.2381 0.0000 0.0000 0.0000
# 3 55.8056 56.2381 74.2942 0.0000 0.0000 0.0000
# 4 0.0000 0.0000 0.0000 39.2388 0.0000 0.0000
# 5 0.0000 0.0000 0.0000 0.0000 20.8253 0.0000
# 6 0.0000 0.0000 0.0000 0.0000 0.0000 -24.8667
#
#
#
# Elastic Compliance Matrix: (Units=1/GPa)
#
#
# Indices 1 2 3 4 5 6 
#
# 1 0.018589 0.002817 -0.016095 0.000000 0.000000 0.000000
# 2 0.002817 0.012850 -0.011843 0.000000 0.000000 0.000000
# 3 -0.016095 -0.011843 0.034515 0.000000 0.000000 0.000000
# 4 0.000000 0.000000 0.000000 0.025485 0.000000 0.000000
# 5 0.000000 0.000000 0.000000 0.000000 0.048018 0.000000
# 6 0.000000 0.000000 0.000000 0.000000 0.000000 -0.040214
#
#
# Mechanical properties :
#
#
# Convention : Reuss Voigt Hill
#
# Bulk Modulus (GPa) = 63.64989 64.34430 63.99710
# Shear Modulus (GPa) = 32.31625 17.22868 24.77247
#
# Velocity S-wave (km/s) = 4.12020 3.00839 3.60738
# Velocity P-wave (km/s) = 7.48803 6.77258 7.13927
#
# Compressibility (1/GPa) = 0.01571095
#
# Stress axis : x y z
#
# Youngs Moduli (GPa) = 53.79618 77.82276 28.97330
#
# Poissons Ratio (x) = -0.21924 0.46633
# Poissons Ratio (y) = -0.15155 0.34313
# Poissons Ratio (z) = 0.86586 0.92165
#
# Static dielectric constant tensor:
#      x y z
#    x 1.649480 0.000000 0.000000 
#    y 0.000000 1.639720 0.000000 
#    z 0.000000 0.000000 1.636010 
# 
# From -- ./inp_files/3824.got.cif
#   From: 2010.05.17/outbox.cif.g08.bks.cpg/sg57_2_cif.got.tgz:3824.got - 2010.06.03 13:58:18.
