data_PCOD9439554
_publ_section_title
;
Structure prediction by ZEFSAII (Michael W. Deem and Ramdas Pophale) SiO2 
 PCOD9439554
Probable space group: P B C M
;
_chemical_formula_sum "Si O2"
_cell_formula_units_Z 64
_cell_length_a 12.111228
_cell_length_b 19.302867
_cell_length_c 14.197219
_cell_angle_alpha 90.000000
_cell_angle_beta 90.000000
_cell_angle_gamma 90.000000
_cell_volume 3319.046065
_symmetry_space_group_name_H-M "P B C M"
_symmetry_group_IT_number 57
_symmetry_cell_setting 'orthorhombic'
loop_
_space_group_symop_operation_xyz
x,y,z
-x,-y,1/2+z
x,1/2-y,-z
-x,1/2+y,1/2-z
-x,-y,-z
x,y,1/2-z
-x,1/2+y,z
x,1/2-y,1/2+z
loop_
_atom_site_type_symbol
_atom_site_label
_atom_site_fract_x
_atom_site_fract_y
_atom_site_fract_z
Si Si1 0.268813 0.751598 0.613015
Si Si2 0.052150 0.927685 0.972578
Si Si3 0.732605 0.409743 0.857505
Si Si4 0.914217 0.686488 0.136858
Si Si5 0.048844 0.675460 0.854935
Si Si6 0.504826 0.080775 0.473321
Si Si7 0.342088 0.321085 0.636482
Si Si8 0.493283 0.310631 0.143164
O O1 0.265866 0.750000 0.500000
O O2 0.241655 0.828192 0.646408
O O3 0.173598 0.702539 0.649259
O O4 0.389596 0.728578 0.643490
O O5 0.169998 0.939963 0.922133
O O6 0.979382 0.878798 0.904629
O O7 0.054069 0.884210 0.068803
O O8 0.000000 0.000000 0.000000
O O9 0.728142 0.436904 0.750000
O O10 0.615922 0.412469 0.911315
O O11 0.918506 0.682689 0.250000
O O12 0.785904 0.684085 0.107998
O O13 0.973668 0.759367 0.112564
O O14 0.012031 0.654270 0.750000
O O15 0.405603 0.115240 0.412928
O O16 0.504888 0.127922 0.567795
O O17 0.500000 0.000000 0.500000
O O18 0.348351 0.329803 0.750000
O O19 0.404551 0.248427 0.615479
O O20 0.468514 0.334641 0.250000
#
# Coordination Sequence:
#
# PCOD9439554 Si02
#       8
#     8   8   8   8   8   8   8   8
#     4  12  18  37  69  96 121 151 202 266 319 360
#     4  12  26  41  64  92 133 169 209 256 322 384
#     4  12  24  43  68  95 125 164 213 264 322 383
#     4  10  22  42  67  91 120 166 219 266 315 374
#     4  11  22  39  64  94 124 161 210 264 312 369
#     4  12  26  41  64  92 133 169 209 256 322 384
#     4  10  22  42  67  91 120 166 219 266 315 374
#     4  11  22  39  64  94 124 161 210 264 312 369
#
# _framework density 19.28265
#
# number of rings (size 3 to 8) (size 9 to 14) (size 15 to 20)
#    0.000    0.750    5.000    2.625    1.750    4.000 
#    0.000    0.000    0.000    0.000    0.000    0.000 
#    0.000    0.000    0.000    0.000    0.000    0.000 
#
# Total GULP energy -357575.979165 kJ/mol
# GULP energy per Si atom -5587.124674 kJ/mol
# Density = 1.923876 g / cm^3
# Si number density = 19.282650 Si / 1000 Ang^3
#
#
#
# Elastic Constant Matrix: (Units=GPa)
#
#
# Indices 1 2 3 4 5 6 
#
# 1 94.9160 -3.7126 22.2461 0.0000 0.0000 0.0000
# 2 -3.7126 53.5151 21.1046 0.0000 0.0000 0.0000
# 3 22.2461 21.1046 123.1698 0.0000 0.0000 0.0000
# 4 0.0000 0.0000 0.0000 -15.9617 0.0000 0.0000
# 5 0.0000 0.0000 0.0000 0.0000 79.6684 0.0000
# 6 0.0000 0.0000 0.0000 0.0000 0.0000 19.1607
#
#
#
# Elastic Compliance Matrix: (Units=1/GPa)
#
#
# Indices 1 2 3 4 5 6 
#
# 1 0.011140 0.001680 -0.002300 0.000000 0.000000 0.000000
# 2 0.001680 0.020294 -0.003781 0.000000 0.000000 0.000000
# 3 -0.002300 -0.003781 0.009182 0.000000 0.000000 0.000000
# 4 0.000000 0.000000 0.000000 -0.062650 0.000000 0.000000
# 5 0.000000 0.000000 0.000000 0.000000 0.012552 0.000000
# 6 0.000000 0.000000 0.000000 0.000000 0.000000 0.052190
#
#
# Mechanical properties :
#
#
# Convention : Reuss Voigt Hill
#
# Bulk Modulus (GPa) = 31.43184 38.98633 35.20909
# Shear Modulus (GPa) = 80.49598 32.03766 56.26682
#
# Velocity S-wave (km/s) = 6.46807 4.08054 5.40771
# Velocity P-wave (km/s) = 8.49218 6.51639 7.56903
#
# Compressibility (1/GPa) = 0.03181487
#
# Stress axis : x y z
#
# Youngs Moduli (GPa) = 89.76342 49.27604 108.90791
#
# Poissons Ratio (x) = -0.08278 0.25048
# Poissons Ratio (y) = -0.15079 0.41174
# Poissons Ratio (z) = 0.20645 0.18630
#
# Static dielectric constant tensor:
#      x y z
#    x 1.685150 0.000000 0.000000 
#    y 0.000000 1.628270 0.000000 
#    z 0.000000 0.000000 1.740830 
# 
# From -- ./inp_files/17978.got.cif
#   From: 2010.05.17/outbox.cif.g08.bks.cpg/sg57_9_cif.got.tgz:17978.got - 2010.06.03 13:58:18.
