data_PCOD9439889
_publ_section_title
;
Structure prediction by ZEFSAII (Michael W. Deem and Ramdas Pophale) SiO2 
 PCOD9439889
Probable space group: P B C M
;
_chemical_formula_sum "Si O2"
_cell_formula_units_Z 60
_cell_length_a 13.331298
_cell_length_b 9.345362
_cell_length_c 23.908192
_cell_angle_alpha 90.000000
_cell_angle_beta 90.000000
_cell_angle_gamma 90.000000
_cell_volume 2978.621364
_symmetry_space_group_name_H-M "P B C M"
_symmetry_group_IT_number 57
_symmetry_cell_setting 'orthorhombic'
loop_
_space_group_symop_operation_xyz
x,y,z
-x,-y,1/2+z
x,1/2-y,-z
-x,1/2+y,1/2-z
-x,-y,-z
x,y,1/2-z
-x,1/2+y,z
x,1/2-y,1/2+z
loop_
_atom_site_type_symbol
_atom_site_label
_atom_site_fract_x
_atom_site_fract_y
_atom_site_fract_z
Si Si1 0.368360 0.502657 0.188365
Si Si2 0.489410 0.244517 0.355584
Si Si3 0.327764 0.345875 0.945869
Si Si4 0.022101 0.739810 0.163848
Si Si5 0.203304 0.593822 0.399694
Si Si6 0.647493 0.174508 0.946525
Si Si7 0.050001 0.002532 0.250000
Si Si8 0.119911 0.193859 0.939566
O O1 0.321809 0.513361 0.250000
O O2 0.449009 0.628408 0.179153
O O3 0.428549 0.356086 0.181377
O O4 0.287240 0.517943 0.139232
O O5 0.409808 0.174870 0.397917
O O6 0.571270 0.323210 0.394664
O O7 0.323952 0.512902 0.960378
O O8 0.219374 0.287924 0.927150
O O9 0.353314 0.250000 0.000000
O O10 0.960473 0.628050 0.201442
O O11 0.959086 0.786056 0.109589
O O12 0.120772 0.659514 0.141410
O O13 0.050007 0.876483 0.201199
O O14 0.259070 0.723155 0.431266
O O15 0.154928 0.471935 0.438743
O O16 0.597600 0.250000 0.000000
O O17 0.083570 0.250000 0.000000
#
# Coordination Sequence:
#
# PCOD9439889 Si02
#       8
#     8   8   8   8   8   8   4   8
#     4  11  24  42  66  92 128 175 223 277 330 394
#     4  11  22  41  65  92 129 170 221 270 331 393
#     4  11  23  39  65  96 135 170 220 268 328 408
#     4  11  24  46  72 100 135 181 231 283 347 402
#     4  11  25  44  66  98 134 178 220 274 343 405
#     4  11  24  39  65  97 130 175 216 268 329 403
#     4  10  24  44  72  96 130 172 238 286 324 410
#     4  11  24  43  69 102 139 181 224 282 348 417
#
# _framework density 20.143547000000002
#
# number of rings (size 3 to 8) (size 9 to 14) (size 15 to 20)
#    0.000    1.067    4.000    2.400    5.600    2.133 
#    0.000    0.000    2.933    0.000    0.000    0.000 
#    0.000    0.000    0.000    0.000    0.000    0.000 
#
# Total GULP energy -334289.192042 kJ/mol
# GULP energy per Si atom -5571.486534 kJ/mol
# Density = 2.009770 g / cm^3
# Si number density = 20.143547 Si / 1000 Ang^3
#
#
#
# Elastic Constant Matrix: (Units=GPa)
#
#
# Indices 1 2 3 4 5 6 
#
# 1 45.3793 4.3329 15.5127 0.0000 0.0000 0.0000
# 2 4.3329 120.0921 31.3861 0.0000 0.0000 0.0000
# 3 15.5127 31.3861 110.2298 0.0000 0.0000 0.0000
# 4 0.0000 0.0000 0.0000 34.9288 0.0000 0.0000
# 5 0.0000 0.0000 0.0000 0.0000 0.5555 0.0000
# 6 0.0000 0.0000 0.0000 0.0000 0.0000 2.9062
#
#
#
# Elastic Compliance Matrix: (Units=1/GPa)
#
#
# Indices 1 2 3 4 5 6 
#
# 1 0.023150 0.000018 -0.003263 0.000000 0.000000 0.000000
# 2 0.000018 0.008996 -0.002564 0.000000 0.000000 0.000000
# 3 -0.003263 -0.002564 0.010261 0.000000 0.000000 0.000000
# 4 0.000000 0.000000 0.000000 0.028630 0.000000 0.000000
# 5 0.000000 0.000000 0.000000 0.000000 1.800020 0.000000
# 6 0.000000 0.000000 0.000000 0.000000 0.000000 0.344091
#
#
# Mechanical properties :
#
#
# Convention : Reuss Voigt Hill
#
# Bulk Modulus (GPa) = 32.47917 42.01829 37.24873
# Shear Modulus (GPa) = 2.23511 22.64274 12.43892
#
# Velocity S-wave (km/s) = 1.05451 3.35635 2.48768
# Velocity P-wave (km/s) = 4.20018 5.99373 5.17525
#
# Compressibility (1/GPa) = 0.03078897
#
# Stress axis : x y z
#
# Youngs Moduli (GPa) = 43.19609 111.15524 97.45433
#
# Poissons Ratio (x) = -0.00195 0.31799
# Poissons Ratio (y) = -0.00076 0.24988
# Poissons Ratio (z) = 0.14095 0.28501
#
# Static dielectric constant tensor:
#      x y z
#    x 1.709170 0.000000 0.000000 
#    y 0.000000 1.699650 0.000000 
#    z 0.000000 0.000000 1.730750 
# 
# From -- ./inp_files/27444.got.cif
#   From: 2010.05.17/outbox.cif.g08.bks.cpg/sg57_14_cif.got.tgz:27444.got - 2010.06.03 13:58:18.
