data_PCOD9439376
_publ_section_title
;
Structure prediction by ZEFSAII (Michael W. Deem and Ramdas Pophale) SiO2 
 PCOD9439376
Probable space group: P B C M
;
_chemical_formula_sum "Si O2"
_cell_formula_units_Z 64
_cell_length_a 5.289065
_cell_length_b 29.334387
_cell_length_c 18.511471
_cell_angle_alpha 90.000000
_cell_angle_beta 90.000000
_cell_angle_gamma 90.000000
_cell_volume 2872.082115
_symmetry_space_group_name_H-M "P B C M"
_symmetry_group_IT_number 57
_symmetry_cell_setting 'orthorhombic'
loop_
_space_group_symop_operation_xyz
x,y,z
-x,-y,1/2+z
x,1/2-y,-z
-x,1/2+y,1/2-z
-x,-y,-z
x,y,1/2-z
-x,1/2+y,z
x,1/2-y,1/2+z
loop_
_atom_site_type_symbol
_atom_site_label
_atom_site_fract_x
_atom_site_fract_y
_atom_site_fract_z
Si Si1 0.441195 0.780893 0.389020
Si Si2 0.255662 0.144858 0.172758
Si Si3 0.099036 0.896635 0.917854
Si Si4 0.546921 0.185509 0.050294
Si Si5 0.440036 0.950409 0.831201
Si Si6 0.596641 0.026066 0.572278
Si Si7 0.066476 0.326823 0.333567
Si Si8 0.110752 0.414707 0.436817
O O1 0.502215 0.800892 0.468651
O O2 0.347709 0.729632 0.407512
O O3 0.206003 0.805014 0.350846
O O4 0.702388 0.791195 0.347176
O O5 0.289875 0.167558 0.250000
O O6 0.314711 0.174279 0.102777
O O7 0.419395 0.098438 0.170951
O O8 0.977597 0.126594 0.157894
O O9 0.284750 0.859795 0.952869
O O10 0.223730 0.943145 0.891273
O O11 0.881419 0.904228 0.976870
O O12 0.354260 0.961060 0.750000
O O13 0.616390 0.989467 0.863422
O O14 0.858167 0.053945 0.566909
O O15 0.364704 0.060228 0.587259
O O16 0.500000 0.000000 0.500000
O O17 0.076884 0.341569 0.250000
O O18 0.089033 0.369409 0.388643
#
# Coordination Sequence:
#
# PCOD9439376 Si02
#       8
#     8   8   8   8   8   8   8   8
#     4  11  25  46  72 104 135 181 235 291 341 409
#     4  10  22  39  63  97 138 179 221 275 352 425
#     4  11  21  40  67  97 134 178 222 285 340 424
#     4  10  24  41  70 100 136 176 235 282 345 415
#     4  10  23  40  61  92 135 177 219 280 353 412
#     4  12  25  43  67 103 130 174 232 291 335 412
#     4  12  27  48  71 101 142 188 233 288 354 407
#     4  12  26  43  73  96 135 179 235 282 342 404
#
# _framework density 22.283486
#
# number of rings (size 3 to 8) (size 9 to 14) (size 15 to 20)
#    0.000    1.000    2.500    3.375    5.250    3.500 
#    0.000    0.000    0.000    0.000    0.000    0.000 
#    0.000    0.000    0.000    0.000    0.000    0.000 
#
# Total GULP energy -357263.416382 kJ/mol
# GULP energy per Si atom -5582.240881 kJ/mol
# Density = 2.223277 g / cm^3
# Si number density = 22.283486 Si / 1000 Ang^3
#
#
#
# Elastic Constant Matrix: (Units=GPa)
#
#
# Indices 1 2 3 4 5 6 
#
# 1 83.3536 11.2256 9.7811 0.0000 0.0000 0.0000
# 2 11.2256 46.0354 12.0855 0.0000 0.0000 0.0000
# 3 9.7811 12.0855 95.6723 0.0000 0.0000 0.0000
# 4 0.0000 0.0000 0.0000 13.2725 0.0000 0.0000
# 5 0.0000 0.0000 0.0000 0.0000 21.4114 0.0000
# 6 0.0000 0.0000 0.0000 0.0000 0.0000 25.3831
#
#
#
# Elastic Compliance Matrix: (Units=1/GPa)
#
#
# Indices 1 2 3 4 5 6 
#
# 1 0.012483 -0.002802 -0.000922 0.000000 0.000000 0.000000
# 2 -0.002802 0.023096 -0.002631 0.000000 0.000000 0.000000
# 3 -0.000922 -0.002631 0.010879 0.000000 0.000000 0.000000
# 4 0.000000 0.000000 0.000000 0.075344 0.000000 0.000000
# 5 0.000000 0.000000 0.000000 0.000000 0.046704 0.000000
# 6 0.000000 0.000000 0.000000 0.000000 0.000000 0.039396
#
#
# Mechanical properties :
#
#
# Convention : Reuss Voigt Hill
#
# Bulk Modulus (GPa) = 29.63160 32.36061 30.99611
# Shear Modulus (GPa) = 21.56456 24.81132 23.18794
#
# Velocity S-wave (km/s) = 3.11422 3.34044 3.22932
# Velocity P-wave (km/s) = 5.12422 5.42511 5.27681
#
# Compressibility (1/GPa) = 0.03374776
#
# Stress axis : x y z
#
# Youngs Moduli (GPa) = 80.11135 43.29685 91.92016
#
# Poissons Ratio (x) = 0.12131 0.08477
# Poissons Ratio (y) = 0.22445 0.24186
# Poissons Ratio (z) = 0.07388 0.11392
#
# Static dielectric constant tensor:
#      x y z
#    x 1.876560 0.000000 0.000000 
#    y 0.000000 1.882000 0.000000 
#    z 0.000000 0.000000 1.808920 
# 
# From -- ./inp_files/20331.got.cif
#   From: 2010.05.17/outbox.cif.g08.bks.cpg/sg57_11_cif.got.tgz:20331.got - 2010.06.03 13:58:18.
