data_PCOD9439628
_publ_section_title
;
Structure prediction by ZEFSAII (Michael W. Deem and Ramdas Pophale) SiO2 
 PCOD9439628
Probable space group: P B C M
;
_chemical_formula_sum "Si O2"
_cell_formula_units_Z 64
_cell_length_a 8.298552
_cell_length_b 12.463580
_cell_length_c 28.724311
_cell_angle_alpha 90.000000
_cell_angle_beta 90.000000
_cell_angle_gamma 90.000000
_cell_volume 2970.945914
_symmetry_space_group_name_H-M "P B C M"
_symmetry_group_IT_number 57
_symmetry_cell_setting 'orthorhombic'
loop_
_space_group_symop_operation_xyz
x,y,z
-x,-y,1/2+z
x,1/2-y,-z
-x,1/2+y,1/2-z
-x,-y,-z
x,y,1/2-z
-x,1/2+y,z
x,1/2-y,1/2+z
loop_
_atom_site_type_symbol
_atom_site_label
_atom_site_fract_x
_atom_site_fract_y
_atom_site_fract_z
Si Si1 0.144014 0.643314 0.028680
Si Si2 0.286138 0.970338 0.055406
Si Si3 0.488615 0.326534 0.544173
Si Si4 0.930644 0.758824 0.198120
Si Si5 0.059918 0.092634 0.383112
Si Si6 0.308303 0.786839 0.802076
Si Si7 0.764584 0.974628 0.165177
Si Si8 0.492851 0.327277 0.116430
O O1 0.321922 0.649232 0.051960
O O2 0.011545 0.638061 0.068604
O O3 0.114768 0.750000 0.000000
O O4 0.166378 0.558164 0.986774
O O5 0.389339 0.872644 0.076033
O O6 0.401421 0.062104 0.036490
O O7 0.199344 0.014163 0.101121
O O8 0.471042 0.250000 0.500000
O O9 0.408277 0.268844 0.588433
O O10 0.892403 0.715521 0.250000
O O11 0.889275 0.678834 0.155754
O O12 0.126102 0.760653 0.195217
O O13 0.842616 0.873659 0.192955
O O14 0.913087 0.021575 0.363874
O O15 0.370803 0.766295 0.750000
O O16 0.412780 0.727276 0.840989
O O17 0.298265 0.916553 0.809564
O O18 0.623983 0.920388 0.134531
#
# Coordination Sequence:
#
# PCOD9439628 Si02
#       8
#     8   8   8   8   8   8   8   8
#     4  11  23  41  65  90 133 177 215 274 327 394
#     4  12  24  41  63  94 132 172 223 269 333 388
#     4  11  23  40  63  91 125 175 223 267 325 396
#     4  10  22  44  69  94 127 169 215 269 332 395
#     4  11  25  41  64  98 131 170 224 273 325 397
#     4  10  23  43  67  96 130 167 215 267 323 394
#     4  11  24  40  70  94 134 171 218 265 338 386
#     4  12  23  42  65  94 131 171 217 273 329 387
#
# _framework density 21.541962000000002
#
# number of rings (size 3 to 8) (size 9 to 14) (size 15 to 20)
#    0.000    1.000    2.500    5.625    3.500    2.000 
#    0.000    0.625    0.000    0.000    0.000    0.000 
#    0.000    0.000    0.000    0.000    0.000    0.000 
#
# Total GULP energy -357397.445993 kJ/mol
# GULP energy per Si atom -5584.335094 kJ/mol
# Density = 2.149293 g / cm^3
# Si number density = 21.541962 Si / 1000 Ang^3
#
#
#
# Elastic Constant Matrix: (Units=GPa)
#
#
# Indices 1 2 3 4 5 6 
#
# 1 24.5243 28.0195 30.0268 0.0000 0.0000 0.0000
# 2 28.0195 99.9196 47.9631 0.0000 0.0000 0.0000
# 3 30.0268 47.9631 118.6723 0.0000 0.0000 0.0000
# 4 0.0000 0.0000 0.0000 29.3667 0.0000 0.0000
# 5 0.0000 0.0000 0.0000 0.0000 -4.7749 0.0000
# 6 0.0000 0.0000 0.0000 0.0000 0.0000 34.8018
#
#
#
# Elastic Compliance Matrix: (Units=1/GPa)
#
#
# Indices 1 2 3 4 5 6 
#
# 1 0.072495 -0.014298 -0.012564 0.000000 0.000000 0.000000
# 2 -0.014298 0.015237 -0.002541 0.000000 0.000000 0.000000
# 3 -0.012564 -0.002541 0.012632 0.000000 0.000000 0.000000
# 4 0.000000 0.000000 0.000000 0.034052 0.000000 0.000000
# 5 0.000000 0.000000 0.000000 0.000000 -0.209427 0.000000
# 6 0.000000 0.000000 0.000000 0.000000 0.000000 0.028734
#
#
# Mechanical properties :
#
#
# Convention : Reuss Voigt Hill
#
# Bulk Modulus (GPa) = 24.06224 50.57056 37.31640
# Shear Modulus (GPa) = 189.52600 21.01916 105.27258
#
# Velocity S-wave (km/s) = 9.38994 3.12706 6.99819
# Velocity P-wave (km/s) = 11.34704 6.04684 9.09175
#
# Compressibility (1/GPa) = 0.04155890
#
# Stress axis : x y z
#
# Youngs Moduli (GPa) = 13.79408 65.62965 79.16183
#
# Poissons Ratio (x) = 0.93838 0.99459
# Poissons Ratio (y) = 0.19723 0.20111
# Poissons Ratio (z) = 0.17331 0.16673
#
# Static dielectric constant tensor:
#      x y z
#    x 1.788590 0.000000 0.000000 
#    y 0.000000 1.804930 0.000000 
#    z 0.000000 0.000000 1.786730 
# 
# From -- ./inp_files/29602.got.cif
#   From: 2010.05.17/outbox.cif.g08.bks.cpg/sg57_15_cif.got.tgz:29602.got - 2010.06.03 13:58:18.
