data_PCOD9439544
_publ_section_title
;
Structure prediction by ZEFSAII (Michael W. Deem and Ramdas Pophale) SiO2 
 PCOD9439544
Probable space group: P B C M
;
_chemical_formula_sum "Si O2"
_cell_formula_units_Z 56
_cell_length_a 15.545630
_cell_length_b 10.752727
_cell_length_c 14.766765
_cell_angle_alpha 90.000000
_cell_angle_beta 90.000000
_cell_angle_gamma 90.000000
_cell_volume 2468.381655
_symmetry_space_group_name_H-M "P B C M"
_symmetry_group_IT_number 57
_symmetry_cell_setting 'orthorhombic'
loop_
_space_group_symop_operation_xyz
x,y,z
-x,-y,1/2+z
x,1/2-y,-z
-x,1/2+y,1/2-z
-x,-y,-z
x,y,1/2-z
-x,1/2+y,z
x,1/2-y,1/2+z
loop_
_atom_site_type_symbol
_atom_site_label
_atom_site_fract_x
_atom_site_fract_y
_atom_site_fract_z
Si Si1 0.378708 0.705893 0.354851
Si Si2 0.967787 0.036267 0.250000
Si Si3 0.894375 0.746013 0.250000
Si Si4 0.570629 0.710345 0.147100
Si Si5 0.946321 0.383030 0.958601
Si Si6 0.761137 0.796021 0.402578
Si Si7 0.243470 0.551333 0.467920
Si Si8 0.321809 0.986201 0.152808
O O1 0.382114 0.654413 0.250000
O O2 0.475702 0.724943 0.390934
O O3 0.319527 0.632399 0.425142
O O4 0.337399 0.840991 0.346853
O O5 0.938326 0.092452 0.150989
O O6 0.058464 0.112054 0.250000
O O7 0.949360 0.882549 0.250000
O O8 0.830053 0.745200 0.333853
O O9 0.565263 0.757427 0.250000
O O10 0.659397 0.766488 0.109640
O O11 0.590085 0.563067 0.147423
O O12 0.847010 0.386950 0.988970
O O13 0.980243 0.250000 0.000000
O O14 0.000000 0.500000 0.000000
O O15 0.788307 0.750000 0.500000
O O16 0.770063 0.943357 0.395773
O O17 0.271963 0.487726 0.561566
O O18 0.282631 0.023088 0.250000
#
# Coordination Sequence:
#
# PCOD9439544 Si02
#       8
#     8   4   4   8   8   8   8   8
#     4  10  24  41  69 103 147 193 243 305 367 445
#     4  12  28  52  82 117 151 209 251 318 402 468
#     4  12  28  52  82 113 155 191 257 314 384 474
#     4  10  22  42  66 103 142 193 246 299 365 442
#     4  12  29  52  79 115 155 197 256 325 386 473
#     4  12  26  46  75 109 146 196 244 312 376 455
#     4  12  26  46  73 105 148 190 246 306 378 442
#     4  10  22  44  65  96 140 189 244 300 365 438
#
# _framework density 22.686928999999999
#
# number of rings (size 3 to 8) (size 9 to 14) (size 15 to 20)
#    0.000    0.857    3.571    2.143    6.000    1.714 
#    2.571    0.000    0.000    0.000    0.000    0.000 
#    0.000    0.000    0.000    0.000    0.000    0.000 
#
# Total GULP energy -311978.707641 kJ/mol
# GULP energy per Si atom -5571.048351 kJ/mol
# Density = 2.263529 g / cm^3
# Si number density = 22.686929 Si / 1000 Ang^3
#
#
#
# Elastic Constant Matrix: (Units=GPa)
#
#
# Indices 1 2 3 4 5 6 
#
# 1 128.6249 36.6450 41.7764 0.0000 0.0000 0.0000
# 2 36.6450 93.7477 16.5883 0.0000 0.0000 0.0000
# 3 41.7764 16.5883 123.3586 0.0000 0.0000 0.0000
# 4 0.0000 0.0000 0.0000 9.0695 0.0000 0.0000
# 5 0.0000 0.0000 0.0000 0.0000 19.7940 0.0000
# 6 0.0000 0.0000 0.0000 0.0000 0.0000 13.3991
#
#
#
# Elastic Compliance Matrix: (Units=1/GPa)
#
#
# Indices 1 2 3 4 5 6 
#
# 1 0.009619 -0.003261 -0.002819 0.000000 0.000000 0.000000
# 2 -0.003261 0.012033 -0.000514 0.000000 0.000000 0.000000
# 3 -0.002819 -0.000514 0.009130 0.000000 0.000000 0.000000
# 4 0.000000 0.000000 0.000000 0.110259 0.000000 0.000000
# 5 0.000000 0.000000 0.000000 0.000000 0.050520 0.000000
# 6 0.000000 0.000000 0.000000 0.000000 0.000000 0.074632
#
#
# Mechanical properties :
#
#
# Convention : Reuss Voigt Hill
#
# Bulk Modulus (GPa) = 56.83689 59.52784 58.18236
# Shear Modulus (GPa) = 17.52872 25.16729 21.34801
#
# Velocity S-wave (km/s) = 2.78265 3.33427 3.07087
# Velocity P-wave (km/s) = 5.95242 6.41241 6.18669
#
# Compressibility (1/GPa) = 0.01759421
#
# Stress axis : x y z
#
# Youngs Moduli (GPa) = 103.95766 83.10752 109.52632
#
# Poissons Ratio (x) = 0.27104 0.30877
# Poissons Ratio (y) = 0.33903 0.05625
# Poissons Ratio (z) = 0.29307 0.04268
#
# Static dielectric constant tensor:
#      x y z
#    x 1.843310 0.000000 0.000000 
#    y 0.000000 1.915290 0.000000 
#    z 0.000000 0.000000 2.034670 
# 
# From -- ./inp_files/18597.got.cif
#   From: 2010.05.17/outbox.cif.g08.bks.cpg/sg57_10_cif.got.tgz:18597.got - 2010.06.03 13:58:18.
