data_PCOD9439499
_publ_section_title
;
Structure prediction by ZEFSAII (Michael W. Deem and Ramdas Pophale) SiO2 
 PCOD9439499
Probable space group: P B C M
;
_chemical_formula_sum "Si O2"
_cell_formula_units_Z 48
_cell_length_a 10.092140
_cell_length_b 29.413541
_cell_length_c 8.664183
_cell_angle_alpha 90.000000
_cell_angle_beta 90.000000
_cell_angle_gamma 90.000000
_cell_volume 2571.924373
_symmetry_space_group_name_H-M "P B C M"
_symmetry_group_IT_number 57
_symmetry_cell_setting 'orthorhombic'
loop_
_space_group_symop_operation_xyz
x,y,z
-x,-y,1/2+z
x,1/2-y,-z
-x,1/2+y,1/2-z
-x,-y,-z
x,y,1/2-z
-x,1/2+y,z
x,1/2-y,1/2+z
loop_
_atom_site_type_symbol
_atom_site_label
_atom_site_fract_x
_atom_site_fract_y
_atom_site_fract_z
Si Si1 0.132176 0.977576 0.565947
Si Si2 0.618976 0.970015 0.566073
Si Si3 0.789064 0.379028 0.435214
Si Si4 0.020907 0.800904 0.565077
Si Si5 0.477780 0.124287 0.934813
Si Si6 0.715532 0.699405 0.435240
O O1 0.126682 0.975200 0.750000
O O2 0.159699 0.927053 0.501197
O O3 0.250201 0.010162 0.511109
O O4 0.000000 0.000000 0.500000
O O5 0.627368 0.974526 0.750000
O O6 0.587671 0.918777 0.518043
O O7 0.500000 0.000000 0.500000
O O8 0.798005 0.380362 0.250000
O O9 0.877539 0.337582 0.497582
O O10 0.633591 0.372996 0.476638
O O11 0.043177 0.750000 0.500000
O O12 0.033217 0.799488 0.750000
O O13 0.868088 0.814269 0.527903
O O14 0.470075 0.118469 0.750000
O O15 0.393066 0.167417 0.987431
O O16 0.699285 0.750000 0.500000
O O17 0.701215 0.698761 0.250000
#
# Coordination Sequence:
#
# PCOD9439499 Si02
#       6
#     8   8   8   8   8   8
#     4  12  26  44  66  93 128 168 212 263 316 374
#     4  12  24  42  66  93 128 168 212 258 313 374
#     4  11  24  42  64  92 127 165 211 259 312 375
#     4  10  22  41  65  92 124 162 207 257 316 377
#     4  11  24  41  64  93 126 166 211 257 313 374
#     4  10  22  41  65  93 125 161 207 258 314 377
#
# _framework density 18.663067999999999
#
# number of rings (size 3 to 8) (size 9 to 14) (size 15 to 20)
#    0.000    1.000    1.667    5.000    2.333    4.667 
#    0.000    0.000    0.000    0.000    0.000    0.000 
#    0.000    0.000    0.000    0.000    0.000    0.000 
#
# Total GULP energy -268467.229821 kJ/mol
# GULP energy per Si atom -5593.067288 kJ/mol
# Density = 1.862059 g / cm^3
# Si number density = 18.663068 Si / 1000 Ang^3
#
#
#
# Elastic Constant Matrix: (Units=GPa)
#
#
# Indices 1 2 3 4 5 6 
#
# 1 179.3364 102.5552 69.7397 0.0000 0.0000 0.0000
# 2 102.5552 127.3320 55.2435 0.0000 0.0000 0.0000
# 3 69.7397 55.2435 110.3074 0.0000 0.0000 0.0000
# 4 0.0000 0.0000 0.0000 42.3428 0.0000 0.0000
# 5 0.0000 0.0000 0.0000 0.0000 34.1270 0.0000
# 6 0.0000 0.0000 0.0000 0.0000 0.0000 46.1542
#
#
#
# Elastic Compliance Matrix: (Units=1/GPa)
#
#
# Indices 1 2 3 4 5 6 
#
# 1 0.011191 -0.007594 -0.003272 0.000000 0.000000 0.000000
# 2 -0.007594 0.015187 -0.002804 0.000000 0.000000 0.000000
# 3 -0.003272 -0.002804 0.012539 0.000000 0.000000 0.000000
# 4 0.000000 0.000000 0.000000 0.023617 0.000000 0.000000
# 5 0.000000 0.000000 0.000000 0.000000 0.029302 0.000000
# 6 0.000000 0.000000 0.000000 0.000000 0.000000 0.021666
#
#
# Mechanical properties :
#
#
# Convention : Reuss Voigt Hill
#
# Bulk Modulus (GPa) = 86.39119 96.89472 91.64296
# Shear Modulus (GPa) = 34.55368 37.15396 35.85382
#
# Velocity S-wave (km/s) = 4.30751 4.46665 4.38780
# Velocity P-wave (km/s) = 8.43386 8.86746 8.65338
#
# Compressibility (1/GPa) = 0.01157525
#
# Stress axis : x y z
#
# Youngs Moduli (GPa) = 89.35499 65.84790 79.75133
#
# Poissons Ratio (x) = 0.50005 0.26097
# Poissons Ratio (y) = 0.67856 0.22366
# Poissons Ratio (z) = 0.29240 0.18467
#
# Static dielectric constant tensor:
#      x y z
#    x 1.620820 0.000000 0.000000 
#    y 0.000000 1.571700 0.000000 
#    z 0.000000 0.000000 1.622410 
# 
# From -- ./inp_files/2077.got.cif
#   From: 2010.05.17/outbox.cif.g08.bks.cpg/sg57_2_cif.got.tgz:2077.got - 2010.06.03 13:58:18.
