data_PCOD9439598
_publ_section_title
;
Structure prediction by ZEFSAII (Michael W. Deem and Ramdas Pophale) SiO2 
 PCOD9439598
Probable space group: P B C M
;
_chemical_formula_sum "Si O2"
_cell_formula_units_Z 56
_cell_length_a 5.323953
_cell_length_b 14.579599
_cell_length_c 29.628213
_cell_angle_alpha 90.000000
_cell_angle_beta 90.000000
_cell_angle_gamma 90.000000
_cell_volume 2299.774479
_symmetry_space_group_name_H-M "P B C M"
_symmetry_group_IT_number 57
_symmetry_cell_setting 'orthorhombic'
loop_
_space_group_symop_operation_xyz
x,y,z
-x,-y,1/2+z
x,1/2-y,-z
-x,1/2+y,1/2-z
-x,-y,-z
x,y,1/2-z
-x,1/2+y,z
x,1/2-y,1/2+z
loop_
_atom_site_type_symbol
_atom_site_label
_atom_site_fract_x
_atom_site_fract_y
_atom_site_fract_z
Si Si1 0.902729 0.209144 0.096394
Si Si2 0.418702 0.286728 0.359621
Si Si3 0.554132 0.344822 0.982233
Si Si4 0.793403 0.006052 0.539557
Si Si5 0.072282 0.476175 0.635497
Si Si6 0.249054 0.443027 0.300180
Si Si7 0.438110 0.118000 0.299984
O O1 0.669282 0.270214 0.112398
O O2 0.807402 0.181483 0.045763
O O3 0.168716 0.256678 0.111100
O O4 0.896032 0.111201 0.122541
O O5 0.397521 0.386961 0.338055
O O6 0.455843 0.222370 0.315214
O O7 0.361125 0.410348 0.955160
O O8 0.440931 0.250000 0.000000
O O9 0.616832 0.411457 0.023882
O O10 0.905611 0.026107 0.588072
O O11 0.000000 0.000000 0.500000
O O12 0.015345 0.547409 0.675391
O O13 0.304852 0.423995 0.656463
O O14 0.251980 0.403204 0.250000
O O15 0.329512 0.549080 0.295920
O O16 0.313085 0.112916 0.250000
#
# Coordination Sequence:
#
# PCOD9439598 Si02
#       7
#     8   8   8   8   8   8   8
#     4  11  24  47  70 104 144 192 237 302 364 439
#     4  11  25  44  71 104 146 187 241 301 365 433
#     4  11  26  45  71 106 147 190 251 304 374 449
#     4  11  25  45  72 105 146 195 242 317 369 441
#     4  11  23  44  72  98 144 187 246 294 374 433
#     4  11  25  43  71 108 143 190 249 300 366 448
#     4  10  22  43  68  99 141 189 234 298 368 433
#
# _framework density 24.350213
#
# number of rings (size 3 to 8) (size 9 to 14) (size 15 to 20)
#    0.000    1.143    2.857    2.571    4.000    1.714 
#    0.000    1.429    0.000    0.000    0.000    0.000 
#    0.000    0.000    0.000    0.000    0.000    0.000 
#
# Total GULP energy -312219.362616 kJ/mol
# GULP energy per Si atom -5575.345761 kJ/mol
# Density = 2.429479 g / cm^3
# Si number density = 24.350213 Si / 1000 Ang^3
#
#
#
# Elastic Constant Matrix: (Units=GPa)
#
#
# Indices 1 2 3 4 5 6 
#
# 1 83.3020 19.5096 16.0059 0.0000 0.0000 0.0000
# 2 19.5096 86.3734 8.4338 0.0000 0.0000 0.0000
# 3 16.0059 8.4338 106.5407 0.0000 0.0000 0.0000
# 4 0.0000 0.0000 0.0000 38.8209 0.0000 0.0000
# 5 0.0000 0.0000 0.0000 0.0000 28.2306 0.0000
# 6 0.0000 0.0000 0.0000 0.0000 0.0000 17.4235
#
#
#
# Elastic Compliance Matrix: (Units=1/GPa)
#
#
# Indices 1 2 3 4 5 6 
#
# 1 0.012985 -0.002764 -0.001732 0.000000 0.000000 0.000000
# 2 -0.002764 0.012256 -0.000555 0.000000 0.000000 0.000000
# 3 -0.001732 -0.000555 0.009690 0.000000 0.000000 0.000000
# 4 0.000000 0.000000 0.000000 0.025759 0.000000 0.000000
# 5 0.000000 0.000000 0.000000 0.000000 0.035423 0.000000
# 6 0.000000 0.000000 0.000000 0.000000 0.000000 0.057394
#
#
# Mechanical properties :
#
#
# Convention : Reuss Voigt Hill
#
# Bulk Modulus (GPa) = 40.27469 40.45720 40.36594
# Shear Modulus (GPa) = 29.08931 32.37946 30.73439
#
# Velocity S-wave (km/s) = 3.46008 3.65052 3.55657
# Velocity P-wave (km/s) = 5.70426 5.86678 5.78609
#
# Compressibility (1/GPa) = 0.02482949
#
# Stress axis : x y z
#
# Youngs Moduli (GPa) = 77.01446 81.59207 103.19698
#
# Poissons Ratio (x) = 0.22550 0.17873
# Poissons Ratio (y) = 0.21285 0.05727
# Poissons Ratio (z) = 0.13338 0.04528
#
# Static dielectric constant tensor:
#      x y z
#    x 2.032720 0.000000 0.000000 
#    y 0.000000 2.036760 0.000000 
#    z 0.000000 0.000000 2.111410 
# 
# From -- ./inp_files/29187.got.cif
#   From: 2010.05.17/outbox.cif.g08.bks.cpg/sg57_15_cif.got.tgz:29187.got - 2010.06.03 13:58:18.
