data_PCOD9439691
_publ_section_title
;
Structure prediction by ZEFSAII (Michael W. Deem and Ramdas Pophale) SiO2 
 PCOD9439691
Probable space group: P B C M
;
_chemical_formula_sum "Si O2"
_cell_formula_units_Z 40
_cell_length_a 12.974143
_cell_length_b 18.462110
_cell_length_c 8.680224
_cell_angle_alpha 90.000000
_cell_angle_beta 90.000000
_cell_angle_gamma 90.000000
_cell_volume 2079.174534
_symmetry_space_group_name_H-M "P B C M"
_symmetry_group_IT_number 57
_symmetry_cell_setting 'orthorhombic'
loop_
_space_group_symop_operation_xyz
x,y,z
-x,-y,1/2+z
x,1/2-y,-z
-x,1/2+y,1/2-z
-x,-y,-z
x,y,1/2-z
-x,1/2+y,z
x,1/2-y,1/2+z
loop_
_atom_site_type_symbol
_atom_site_label
_atom_site_fract_x
_atom_site_fract_y
_atom_site_fract_z
Si Si1 0.289933 0.593033 0.934610
Si Si2 0.130792 0.330195 0.066304
Si Si3 0.314598 0.425139 0.564716
Si Si4 0.091846 0.669332 0.065834
Si Si5 0.488782 0.829072 0.565259
O O1 0.284198 0.599406 0.750000
O O2 0.314870 0.509818 0.974947
O O3 0.182170 0.617708 0.007065
O O4 0.381012 0.643543 0.997279
O O5 0.123436 0.325839 0.250000
O O6 0.153184 0.250000 0.000000
O O7 0.220191 0.384237 0.015013
O O8 0.020262 0.352934 0.997332
O O9 0.302374 0.418939 0.750000
O O10 0.420865 0.385264 0.522562
O O11 0.089756 0.672179 0.250000
O O12 0.111568 0.750000 0.000000
O O13 0.514039 0.750000 0.500000
O O14 0.481865 0.825769 0.750000
#
# Coordination Sequence:
#
# PCOD9439691 Si02
#       5
#     8   8   8   8   8
#     4  11  23  40  61  87 120 155 194 242 295 348
#     4  11  22  38  62  89 119 155 197 243 291 345
#     4  10  23  41  61  87 120 156 195 241 292 348
#     4  11  22  39  62  87 118 155 198 244 291 346
#     4  11  23  40  62  88 117 153 197 241 290 347
#
# _framework density 19.238405
#
# number of rings (size 3 to 8) (size 9 to 14) (size 15 to 20)
#    0.000    1.200    0.000    7.800    0.000    5.600 
#    0.000    0.000    0.000    0.000    0.000    0.000 
#    0.000    0.000    0.000    0.000    0.000    0.000 
#
# Total GULP energy -223811.467623 kJ/mol
# GULP energy per Si atom -5595.286691 kJ/mol
# Density = 1.919462 g / cm^3
# Si number density = 19.238405 Si / 1000 Ang^3
#
#
#
# Elastic Constant Matrix: (Units=GPa)
#
#
# Indices 1 2 3 4 5 6 
#
# 1 45.8943 -0.1435 9.9435 0.0000 0.0000 0.0000
# 2 -0.1435 25.3246 7.7542 0.0000 0.0000 0.0000
# 3 9.9435 7.7542 69.1833 0.0000 0.0000 0.0000
# 4 0.0000 0.0000 0.0000 25.7312 0.0000 0.0000
# 5 0.0000 0.0000 0.0000 0.0000 17.0866 0.0000
# 6 0.0000 0.0000 0.0000 0.0000 0.0000 -23.9648
#
#
#
# Elastic Compliance Matrix: (Units=1/GPa)
#
#
# Indices 1 2 3 4 5 6 
#
# 1 0.022522 0.001159 -0.003367 0.000000 0.000000 0.000000
# 2 0.001159 0.040950 -0.004756 0.000000 0.000000 0.000000
# 3 -0.003367 -0.004756 0.015471 0.000000 0.000000 0.000000
# 4 0.000000 0.000000 0.000000 0.038863 0.000000 0.000000
# 5 0.000000 0.000000 0.000000 0.000000 0.058525 0.000000
# 6 0.000000 0.000000 0.000000 0.000000 0.000000 -0.041728
#
#
# Mechanical properties :
#
#
# Convention : Reuss Voigt Hill
#
# Bulk Modulus (GPa) = 15.38118 19.50118 17.44118
# Shear Modulus (GPa) = 29.37624 11.96047 20.66835
#
# Velocity S-wave (km/s) = 3.91187 2.49609 3.28125
# Velocity P-wave (km/s) = 5.33067 4.29720 4.84159
#
# Compressibility (1/GPa) = 0.06501451
#
# Stress axis : x y z
#
# Youngs Moduli (GPa) = 44.40046 24.41989 64.63551
#
# Poissons Ratio (x) = -0.02829 0.21762
# Poissons Ratio (y) = -0.05144 0.30743
# Poissons Ratio (z) = 0.14949 0.11615
#
# Static dielectric constant tensor:
#      x y z
#    x 1.639140 0.000000 0.000000 
#    y 0.000000 1.646620 0.000000 
#    z 0.000000 0.000000 1.644650 
# 
# From -- ./inp_files/2617.got.cif
#   From: 2010.05.17/outbox.cif.g08.bks.cpg/sg57_2_cif.got.tgz:2617.got - 2010.06.03 13:58:18.
