data_PCOD9439363
_publ_section_title
;
Structure prediction by ZEFSAII (Michael W. Deem and Ramdas Pophale) SiO2 
 PCOD9439363
Probable space group: P B C M
;
_chemical_formula_sum "Si O2"
_cell_formula_units_Z 64
_cell_length_a 14.785312
_cell_length_b 26.238066
_cell_length_c 8.361625
_cell_angle_alpha 90.000000
_cell_angle_beta 90.000000
_cell_angle_gamma 90.000000
_cell_volume 3243.792013
_symmetry_space_group_name_H-M "P B C M"
_symmetry_group_IT_number 57
_symmetry_cell_setting 'orthorhombic'
loop_
_space_group_symop_operation_xyz
x,y,z
-x,-y,1/2+z
x,1/2-y,-z
-x,1/2+y,1/2-z
-x,-y,-z
x,y,1/2-z
-x,1/2+y,z
x,1/2-y,1/2+z
loop_
_atom_site_type_symbol
_atom_site_label
_atom_site_fract_x
_atom_site_fract_y
_atom_site_fract_z
Si Si1 0.381047 0.598719 0.558802
Si Si2 0.714475 0.995107 0.557224
Si Si3 0.703538 0.692898 0.056947
Si Si4 0.908223 0.807366 0.943187
Si Si5 0.733372 0.306680 0.559085
Si Si6 0.912858 0.136814 0.445234
Si Si7 0.585780 0.597516 0.443962
Si Si8 0.904149 0.020479 0.441200
O O1 0.375567 0.599387 0.750000
O O2 0.324666 0.549477 0.499684
O O3 0.338097 0.650806 0.494590
O O4 0.484703 0.593049 0.507509
O O5 0.713477 0.995261 0.750000
O O6 0.817664 0.989602 0.502846
O O7 0.648918 0.949563 0.504245
O O8 0.703634 0.693041 0.250000
O O9 0.806190 0.679636 0.003659
O O10 0.633055 0.650175 0.003528
O O11 0.682775 0.750000 0.000000
O O12 0.908275 0.808142 0.750000
O O13 0.988946 0.843725 0.998873
O O14 0.927122 0.750000 0.000000
O O15 0.713543 0.250000 0.500000
O O16 0.735145 0.305877 0.750000
O O17 0.832113 0.326128 0.501385
O O18 0.912974 0.136986 0.250000
O O19 0.894445 0.079142 0.497420
O O20 0.582654 0.597248 0.250000
O O21 0.903289 0.020107 0.250000
O O22 0.000000 0.000000 0.500000
#
# Coordination Sequence:
#
# PCOD9439363 Si02
#       8
#     8   8   8   8   8   8   8   8
#     4  11  23  40  61  89 120 153 195 253 309 360
#     4  10  22  41  64  89 119 155 200 249 301 361
#     4   9  19  35  57  82 113 150 188 234 288 346
#     4   9  17  32  53  79 108 143 184 226 275 334
#     4  11  22  39  61  89 121 160 205 250 305 366
#     4   9  19  35  58  83 114 154 194 236 290 353
#     4  10  22  39  62  88 114 156 202 246 303 365
#     4  11  23  39  60  89 123 161 197 240 298 357
#
# _framework density 19.729994999999999
#
# number of rings (size 3 to 8) (size 9 to 14) (size 15 to 20)
#    0.000    2.000    1.250    1.875    1.750    2.000 
#    0.000    3.125    0.000    0.000    0.000    0.000 
#    0.000    0.000    0.000    0.000    0.000    0.000 
#
# Total GULP energy -357492.211346 kJ/mol
# GULP energy per Si atom -5585.815802 kJ/mol
# Density = 1.968509 g / cm^3
# Si number density = 19.729995 Si / 1000 Ang^3
#
#
#
# Elastic Constant Matrix: (Units=GPa)
#
#
# Indices 1 2 3 4 5 6 
#
# 1 144.3014 68.8194 17.3770 0.0000 0.0000 0.0000
# 2 68.8194 109.8127 20.2681 0.0000 0.0000 0.0000
# 3 17.3770 20.2681 18.6539 0.0000 0.0000 0.0000
# 4 0.0000 0.0000 0.0000 22.2844 0.0000 0.0000
# 5 0.0000 0.0000 0.0000 0.0000 26.0136 0.0000
# 6 0.0000 0.0000 0.0000 0.0000 0.0000 20.6253
#
#
#
# Elastic Compliance Matrix: (Units=1/GPa)
#
#
# Indices 1 2 3 4 5 6 
#
# 1 0.010029 -0.005705 -0.003144 0.000000 0.000000 0.000000
# 2 -0.005705 0.014636 -0.010588 0.000000 0.000000 0.000000
# 3 -0.003144 -0.010588 0.068041 0.000000 0.000000 0.000000
# 4 0.000000 0.000000 0.000000 0.044874 0.000000 0.000000
# 5 0.000000 0.000000 0.000000 0.000000 0.038441 0.000000
# 6 0.000000 0.000000 0.000000 0.000000 0.000000 0.048484
#
#
# Mechanical properties :
#
#
# Convention : Reuss Voigt Hill
#
# Bulk Modulus (GPa) = 18.57623 53.96635 36.27129
# Shear Modulus (GPa) = 17.77305 24.87157 21.32231
#
# Velocity S-wave (km/s) = 3.00461 3.55434 3.29097
# Velocity P-wave (km/s) = 4.63385 6.65254 5.73275
#
# Compressibility (1/GPa) = 0.05383224
#
# Stress axis : x y z
#
# Youngs Moduli (GPa) = 99.70688 68.32457 14.69700
#
# Poissons Ratio (x) = 0.38980 0.04621
# Poissons Ratio (y) = 0.56884 0.15561
# Poissons Ratio (z) = 0.31348 0.72342
#
# Static dielectric constant tensor:
#      x y z
#    x 1.676630 0.000000 0.000000 
#    y 0.000000 1.680010 0.000000 
#    z 0.000000 0.000000 1.686190 
# 
# From -- ./inp_files/5613.got.cif
#   From: 2010.05.17/outbox.cif.g08.bks.cpg/sg57_3_cif.got.tgz:5613.got - 2010.06.03 13:58:18.
