data_PCOD9439566
_publ_section_title
;
Structure prediction by ZEFSAII (Michael W. Deem and Ramdas Pophale) SiO2 
 PCOD9439566
Probable space group: P B C M
;
_chemical_formula_sum "Si O2"
_cell_formula_units_Z 48
_cell_length_a 5.092314
_cell_length_b 14.402948
_cell_length_c 29.481961
_cell_angle_alpha 90.000000
_cell_angle_beta 90.000000
_cell_angle_gamma 90.000000
_cell_volume 2162.334787
_symmetry_space_group_name_H-M "P B C M"
_symmetry_group_IT_number 57
_symmetry_cell_setting 'orthorhombic'
loop_
_space_group_symop_operation_xyz
x,y,z
-x,-y,1/2+z
x,1/2-y,-z
-x,1/2+y,1/2-z
-x,-y,-z
x,y,1/2-z
-x,1/2+y,z
x,1/2-y,1/2+z
loop_
_atom_site_type_symbol
_atom_site_label
_atom_site_fract_x
_atom_site_fract_y
_atom_site_fract_z
Si Si1 0.470052 0.341686 0.024726
Si Si2 0.194504 0.973092 0.960545
Si Si3 0.894457 0.629541 0.119429
Si Si4 0.609417 0.254149 0.614842
Si Si5 0.373619 0.361733 0.198224
Si Si6 0.877063 0.486167 0.300638
O O1 0.320492 0.426713 0.049604
O O2 0.630709 0.299970 0.067066
O O3 0.341725 0.250000 0.000000
O O4 0.618741 0.396666 0.984456
O O5 0.028186 0.929892 0.920295
O O6 0.000000 0.000000 0.000000
O O7 0.099553 0.712752 0.126660
O O8 0.891536 0.567386 0.163734
O O9 0.602245 0.662942 0.107550
O O10 0.477914 0.201729 0.657460
O O11 0.372496 0.321175 0.250000
O O12 0.088104 0.405267 0.189000
O O13 0.585965 0.444500 0.199040
O O14 0.941138 0.519205 0.250000
#
# Coordination Sequence:
#
# PCOD9439566 Si02
#       6
#     8   8   8   8   8   8
#     4  11  24  45  65  97 133 176 231 283 341 401
#     4  11  26  41  70  94 131 185 223 284 341 412
#     4  12  26  43  66 102 135 176 232 277 349 405
#     4  12  26  42  68  98 138 176 222 292 332 409
#     4  10  22  42  68  98 133 180 227 276 342 403
#     4  10  22  42  68  96 135 178 225 281 337 408
#
# _framework density 22.198228
#
# number of rings (size 3 to 8) (size 9 to 14) (size 15 to 20)
#    0.000    1.000    1.667    4.000    7.000    2.000 
#    0.000    0.000    0.000    0.000    0.000    0.000 
#    0.000    0.000    0.000    0.000    0.000    0.000 
#
# Total GULP energy -268113.301527 kJ/mol
# GULP energy per Si atom -5585.693782 kJ/mol
# Density = 2.214770 g / cm^3
# Si number density = 22.198228 Si / 1000 Ang^3
#
#
#
# Elastic Constant Matrix: (Units=GPa)
#
#
# Indices 1 2 3 4 5 6 
#
# 1 51.4521 -2.6154 -3.0337 0.0000 0.0000 0.0000
# 2 -2.6154 72.5821 44.9270 0.0000 0.0000 0.0000
# 3 -3.0337 44.9270 99.9636 0.0000 0.0000 0.0000
# 4 0.0000 0.0000 0.0000 44.8395 0.0000 0.0000
# 5 0.0000 0.0000 0.0000 0.0000 29.5943 0.0000
# 6 0.0000 0.0000 0.0000 0.0000 0.0000 17.7588
#
#
#
# Elastic Compliance Matrix: (Units=1/GPa)
#
#
# Indices 1 2 3 4 5 6 
#
# 1 0.019482 0.000466 0.000382 0.000000 0.000000 0.000000
# 2 0.000466 0.019099 -0.008569 0.000000 0.000000 0.000000
# 3 0.000382 -0.008569 0.013867 0.000000 0.000000 0.000000
# 4 0.000000 0.000000 0.000000 0.022302 0.000000 0.000000
# 5 0.000000 0.000000 0.000000 0.000000 0.033790 0.000000
# 6 0.000000 0.000000 0.000000 0.000000 0.000000 0.056310
#
#
# Mechanical properties :
#
#
# Convention : Reuss Voigt Hill
#
# Bulk Modulus (GPa) = 27.02471 33.61709 30.32090
# Shear Modulus (GPa) = 25.95687 30.75317 28.35502
#
# Velocity S-wave (km/s) = 3.42324 3.72612 3.57789
# Velocity P-wave (km/s) = 5.27499 5.80421 5.54592
#
# Compressibility (1/GPa) = 0.03700318
#
# Stress axis : x y z
#
# Youngs Moduli (GPa) = 51.33014 52.35982 72.11560
#
# Poissons Ratio (x) = -0.02438 -0.02755
# Poissons Ratio (y) = -0.02390 0.61799
# Poissons Ratio (z) = -0.01961 0.44869
#
# Static dielectric constant tensor:
#      x y z
#    x 1.809590 0.000000 0.000000 
#    y 0.000000 2.633060 0.000000 
#    z 0.000000 0.000000 1.865510 
# 
# From -- ./inp_files/27943.got.cif
#   From: 2010.05.17/outbox.cif.g08.bks.cpg/sg57_14_cif.got.tgz:27943.got - 2010.06.03 13:58:18.
