data_PCOD9439838
_publ_section_title
;
Structure prediction by ZEFSAII (Michael W. Deem and Ramdas Pophale) SiO2 
 PCOD9439838
Probable space group: P B C M
;
_chemical_formula_sum "Si O2"
_cell_formula_units_Z 32
_cell_length_a 5.298484
_cell_length_b 9.366524
_cell_length_c 27.623134
_cell_angle_alpha 90.000000
_cell_angle_beta 90.000000
_cell_angle_gamma 90.000000
_cell_volume 1370.891323
_symmetry_space_group_name_H-M "P B C M"
_symmetry_group_IT_number 57
_symmetry_cell_setting 'orthorhombic'
loop_
_space_group_symop_operation_xyz
x,y,z
-x,-y,1/2+z
x,1/2-y,-z
-x,1/2+y,1/2-z
-x,-y,-z
x,y,1/2-z
-x,1/2+y,z
x,1/2-y,1/2+z
loop_
_atom_site_type_symbol
_atom_site_label
_atom_site_fract_x
_atom_site_fract_y
_atom_site_fract_z
Si Si1 0.126616 0.452396 0.388786
Si Si2 0.253091 0.585268 0.483023
Si Si3 0.212897 0.171227 0.138747
Si Si4 0.283197 0.618156 0.192785
O O1 0.250461 0.565494 0.424936
O O2 0.842808 0.512673 0.382726
O O3 0.182763 0.290982 0.402575
O O4 0.245578 0.468857 0.335389
O O5 0.251893 0.750000 0.500000
O O6 0.500000 0.500000 0.500000
O O7 0.000000 0.500000 0.500000
O O8 0.463755 0.177860 0.169490
O O9 0.968440 0.196094 0.173486
O O10 0.293895 0.609807 0.250000
#
# Coordination Sequence:
#
# PCOD9439838 Si02
#       4
#     8   8   8   8
#     4  10  26  44  72  95 143 172 233 277 357 404
#     4  12  28  46  77 107 144 187 245 300 367 435
#     4  10  24  41  67  95 135 175 221 277 343 404
#     4  10  24  41  66  97 135 177 229 278 340 409
#
# _framework density 23.342476000000001
#
# number of rings (size 3 to 8) (size 9 to 14) (size 15 to 20)
#    1.500    0.000    0.000    3.000   10.500    2.000 
#    0.000    0.000    0.000    0.000    0.000    0.000 
#    0.000    0.000    0.000    0.000    0.000    0.000 
#
# Total GULP energy -178335.798737 kJ/mol
# GULP energy per Si atom -5572.993711 kJ/mol
# Density = 2.328935 g / cm^3
# Si number density = 23.342476 Si / 1000 Ang^3
#
#
#
# Elastic Constant Matrix: (Units=GPa)
#
#
# Indices 1 2 3 4 5 6 
#
# 1 175.6817 43.3441 24.8503 0.0000 0.0000 0.0000
# 2 43.3441 118.2708 -5.7218 0.0000 0.0000 0.0000
# 3 24.8503 -5.7218 75.6759 0.0000 0.0000 0.0000
# 4 0.0000 0.0000 0.0000 25.1617 0.0000 0.0000
# 5 0.0000 0.0000 0.0000 0.0000 26.1919 0.0000
# 6 0.0000 0.0000 0.0000 0.0000 0.0000 26.6628
#
#
#
# Elastic Compliance Matrix: (Units=1/GPa)
#
#
# Indices 1 2 3 4 5 6 
#
# 1 0.006659 -0.002556 -0.002380 0.000000 0.000000 0.000000
# 2 -0.002556 0.009467 0.001555 0.000000 0.000000 0.000000
# 3 -0.002380 0.001555 0.014113 0.000000 0.000000 0.000000
# 4 0.000000 0.000000 0.000000 0.039743 0.000000 0.000000
# 5 0.000000 0.000000 0.000000 0.000000 0.038180 0.000000
# 6 0.000000 0.000000 0.000000 0.000000 0.000000 0.037505
#
#
# Mechanical properties :
#
#
# Convention : Reuss Voigt Hill
#
# Bulk Modulus (GPa) = 42.59237 54.95264 48.77250
# Shear Modulus (GPa) = 31.20026 36.08035 33.64030
#
# Velocity S-wave (km/s) = 3.65996 3.93580 3.80038
# Velocity P-wave (km/s) = 6.01222 6.65184 6.34010
#
# Compressibility (1/GPa) = 0.02347839
#
# Stress axis : x y z
#
# Youngs Moduli (GPa) = 150.16604 105.63007 70.85483
#
# Poissons Ratio (x) = 0.26995 0.16863
# Poissons Ratio (y) = 0.38377 -0.11018
# Poissons Ratio (z) = 0.35740 -0.16426
#
# Static dielectric constant tensor:
#      x y z
#    x 1.927060 0.000000 0.000000 
#    y 0.000000 2.069060 0.000000 
#    z 0.000000 0.000000 1.921440 
# 
# From -- ./inp_files/29014.got.cif
#   From: 2010.05.17/outbox.cif.g08.bks.cpg/sg57_15_cif.got.tgz:29014.got - 2010.06.03 13:58:18.
