data_PCOD9439292
_publ_section_title
;
Structure prediction by ZEFSAII (Michael W. Deem and Ramdas Pophale) SiO2 
 PCOD9439292
Probable space group: P B C M
;
_chemical_formula_sum "Si O2"
_cell_formula_units_Z 56
_cell_length_a 21.146051
_cell_length_b 15.430674
_cell_length_c 7.601720
_cell_angle_alpha 90.000000
_cell_angle_beta 90.000000
_cell_angle_gamma 90.000000
_cell_volume 2480.424659
_symmetry_space_group_name_H-M "P B C M"
_symmetry_group_IT_number 57
_symmetry_cell_setting 'orthorhombic'
loop_
_space_group_symop_operation_xyz
x,y,z
-x,-y,1/2+z
x,1/2-y,-z
-x,1/2+y,1/2-z
-x,-y,-z
x,y,1/2-z
-x,1/2+y,z
x,1/2-y,1/2+z
loop_
_atom_site_type_symbol
_atom_site_label
_atom_site_fract_x
_atom_site_fract_y
_atom_site_fract_z
Si Si1 0.798205 0.601015 0.036374
Si Si2 0.068483 0.905837 0.965357
Si Si3 0.572924 0.992678 0.951718
Si Si4 0.795112 0.103951 0.041999
Si Si5 0.337671 0.344831 0.961067
Si Si6 0.658372 0.153688 0.040897
Si Si7 0.933612 0.888569 0.544857
O O1 0.800752 0.603905 0.250000
O O2 0.734291 0.645686 0.971596
O O3 0.865448 0.637860 0.969037
O O4 0.792642 0.499842 0.984734
O O5 0.067910 0.908348 0.750000
O O6 0.135735 0.867329 0.025536
O O7 0.002622 0.863449 0.027647
O O8 0.067708 0.006048 0.029067
O O9 0.571113 0.967924 0.750000
O O10 0.616435 0.918387 0.037272
O O11 0.610700 0.081922 0.971209
O O12 0.500000 0.000000 0.000000
O O13 0.795312 0.122399 0.250000
O O14 0.729890 0.141671 0.967845
O O15 0.332147 0.354693 0.750000
O O16 0.362865 0.250000 0.000000
O O17 0.661154 0.141320 0.250000
O O18 0.636383 0.250000 0.000000
O O19 0.933978 0.864366 0.750000
#
# Coordination Sequence:
#
# PCOD9439292 Si02
#       7
#     8   8   8   8   8   8   8
#     4   9  16  29  49  75 106 143 186 232 283 336
#     4   8  13  22  37  64  99 135 178 228 278 330
#     4  11  24  44  67  92 121 152 186 232 283 343
#     4   9  17  29  49  76 107 144 188 235 284 335
#     4  10  22  38  59  86 117 151 189 230 277 331
#     4  11  23  39  61  89 119 156 197 239 288 342
#     4   8  13  21  38  64  97 136 178 225 278 332
#
# _framework density 22.576778999999998
#
# number of rings (size 3 to 8) (size 9 to 14) (size 15 to 20)
#    0.000    2.571    1.429    0.857    0.000    2.857 
#    0.000    1.429    0.000    0.857    0.000    0.000 
#    0.000    0.000    0.000    0.000    0.000    0.000 
#
# Total GULP energy -312371.674547 kJ/mol
# GULP energy per Si atom -5578.065617 kJ/mol
# Density = 2.252539 g / cm^3
# Si number density = 22.576779 Si / 1000 Ang^3
#
#
#
# Elastic Constant Matrix: (Units=GPa)
#
#
# Indices 1 2 3 4 5 6 
#
# 1 221.8631 63.6894 10.0663 0.0000 0.0000 0.0000
# 2 63.6894 77.5617 -26.9535 0.0000 0.0000 0.0000
# 3 10.0663 -26.9535 48.8913 0.0000 0.0000 0.0000
# 4 0.0000 0.0000 0.0000 13.6404 0.0000 0.0000
# 5 0.0000 0.0000 0.0000 0.0000 5.7664 0.0000
# 6 0.0000 0.0000 0.0000 0.0000 0.0000 -27.1076
#
#
#
# Elastic Compliance Matrix: (Units=1/GPa)
#
#
# Indices 1 2 3 4 5 6 
#
# 1 0.006977 -0.007704 -0.005684 0.000000 0.000000 0.000000
# 2 -0.007704 0.024456 0.015068 0.000000 0.000000 0.000000
# 3 -0.005684 0.015068 0.029931 0.000000 0.000000 0.000000
# 4 0.000000 0.000000 0.000000 0.073312 0.000000 0.000000
# 5 0.000000 0.000000 0.000000 0.000000 0.173417 0.000000
# 6 0.000000 0.000000 0.000000 0.000000 0.000000 -0.036890
#
#
# Mechanical properties :
#
#
# Convention : Reuss Voigt Hill
#
# Bulk Modulus (GPa) = 15.45009 49.10228 32.27618
# Shear Modulus (GPa) = 17.27621 18.56077 17.91849
#
# Velocity S-wave (km/s) = 2.76926 2.87037 2.82027
# Velocity P-wave (km/s) = 4.13319 5.72552 4.99324
#
# Compressibility (1/GPa) = 0.06472455
#
# Stress axis : x y z
#
# Youngs Moduli (GPa) = 143.33360 40.89056 33.41033
#
# Poissons Ratio (x) = 0.31502 0.18989
# Poissons Ratio (y) = 1.10425 -0.50344
# Poissons Ratio (z) = 0.81466 -0.61616
#
# Static dielectric constant tensor:
#      x y z
#    x 1.943740 0.000000 0.000000 
#    y 0.000000 1.827590 0.000000 
#    z 0.000000 0.000000 2.567040 
# 
# From -- ./inp_files/8054.got.cif
#   From: 2010.05.17/outbox.cif.g08.bks.cpg/sg57_5_cif.got.tgz:8054.got - 2010.06.03 13:58:18.
