data_PCOD9439396
_publ_section_title
;
Structure prediction by ZEFSAII (Michael W. Deem and Ramdas Pophale) SiO2 
 PCOD9439396
Probable space group: P B C M
;
_chemical_formula_sum "Si O2"
_cell_formula_units_Z 64
_cell_length_a 24.651011
_cell_length_b 14.996364
_cell_length_c 8.690620
_cell_angle_alpha 90.000000
_cell_angle_beta 90.000000
_cell_angle_gamma 90.000000
_cell_volume 3212.709589
_symmetry_space_group_name_H-M "P B C M"
_symmetry_group_IT_number 57
_symmetry_cell_setting 'orthorhombic'
loop_
_space_group_symop_operation_xyz
x,y,z
-x,-y,1/2+z
x,1/2-y,-z
-x,1/2+y,1/2-z
-x,-y,-z
x,y,1/2-z
-x,1/2+y,z
x,1/2-y,1/2+z
loop_
_atom_site_type_symbol
_atom_site_label
_atom_site_fract_x
_atom_site_fract_y
_atom_site_fract_z
Si Si1 0.410100 0.336389 0.431769
Si Si2 0.315665 0.028665 0.566543
Si Si3 0.517210 0.404949 0.566859
Si Si4 0.882844 0.968239 0.564928
Si Si5 0.362667 0.846012 0.936175
Si Si6 0.221176 0.349393 0.566983
Si Si7 0.025352 0.344974 0.065040
Si Si8 0.903129 0.344890 0.565405
O O1 0.380445 0.250000 0.500000
O O2 0.418298 0.327339 0.250000
O O3 0.373400 0.422777 0.458745
O O4 0.467137 0.344269 0.516978
O O5 0.305742 0.029667 0.750000
O O6 0.270082 0.087665 0.487723
O O7 0.323353 0.926777 0.515215
O O8 0.500000 0.500000 0.500000
O O9 0.520270 0.411993 0.750000
O O10 0.575703 0.370019 0.512314
O O11 0.887694 0.973953 0.750000
O O12 0.834124 0.901028 0.524380
O O13 0.936948 0.924544 0.494272
O O14 0.873616 0.066704 0.496420
O O15 0.362901 0.843948 0.750000
O O16 0.347390 0.750000 0.000000
O O17 0.223844 0.250000 0.500000
O O18 0.222856 0.341745 0.750000
O O19 0.023568 0.342804 0.250000
O O20 0.046710 0.250000 0.000000
O O21 0.964795 0.353766 0.997801
O O22 0.882445 0.250000 0.500000
O O23 0.903415 0.342549 0.750000
#
# Coordination Sequence:
#
# PCOD9439396 Si02
#       8
#     8   8   8   8   8   8   8   8
#     4  11  22  37  56  84 117 152 193 236 289 349
#     4  10  22  42  63  84 117 152 194 246 294 350
#     4  11  21  36  57  84 119 156 195 237 290 349
#     4  11  23  40  60  87 122 159 203 252 301 361
#     4  10  22  40  60  87 118 154 195 241 292 347
#     4  11  25  43  66  93 120 152 194 243 300 358
#     4  11  21  35  57  88 125 165 207 250 301 360
#     4  11  22  38  60  88 123 164 206 249 300 354
#
# _framework density 19.92088
#
# number of rings (size 3 to 8) (size 9 to 14) (size 15 to 20)
#    0.000    1.250    1.250    6.000    0.000    7.500 
#    0.000    0.625    0.000    1.500    0.000    0.000 
#    0.000    0.000    0.000    0.000    0.000    0.000 
#
# Total GULP energy -357773.587031 kJ/mol
# GULP energy per Si atom -5590.212297 kJ/mol
# Density = 1.987554 g / cm^3
# Si number density = 19.920880 Si / 1000 Ang^3
#
#
#
# Elastic Constant Matrix: (Units=GPa)
#
#
# Indices 1 2 3 4 5 6 
#
# 1 56.8806 42.7206 27.2537 0.0000 0.0000 0.0000
# 2 42.7206 189.3863 50.4065 0.0000 0.0000 0.0000
# 3 27.2537 50.4065 75.8719 0.0000 0.0000 0.0000
# 4 0.0000 0.0000 0.0000 39.5004 0.0000 0.0000
# 5 0.0000 0.0000 0.0000 0.0000 18.3629 0.0000
# 6 0.0000 0.0000 0.0000 0.0000 0.0000 23.2547
#
#
#
# Elastic Compliance Matrix: (Units=1/GPa)
#
#
# Indices 1 2 3 4 5 6 
#
# 1 0.023146 -0.003654 -0.005886 0.000000 0.000000 0.000000
# 2 -0.003654 0.006991 -0.003332 0.000000 0.000000 0.000000
# 3 -0.005886 -0.003332 0.017508 0.000000 0.000000 0.000000
# 4 0.000000 0.000000 0.000000 0.025316 0.000000 0.000000
# 5 0.000000 0.000000 0.000000 0.000000 0.054457 0.000000
# 6 0.000000 0.000000 0.000000 0.000000 0.000000 0.043002
#
#
# Mechanical properties :
#
#
# Convention : Reuss Voigt Hill
#
# Bulk Modulus (GPa) = 45.66260 62.54449 54.10355
# Shear Modulus (GPa) = 24.57407 29.67415 27.12411
#
# Velocity S-wave (km/s) = 3.51605 3.86372 3.69398
# Velocity P-wave (km/s) = 6.28134 7.16722 6.73885
#
# Compressibility (1/GPa) = 0.02189976
#
# Stress axis : x y z
#
# Youngs Moduli (GPa) = 43.20466 143.03225 57.11596
#
# Poissons Ratio (x) = 0.52270 0.33620
# Poissons Ratio (y) = 0.15789 0.19032
# Poissons Ratio (z) = 0.25431 0.47661
#
# Static dielectric constant tensor:
#      x y z
#    x 2.079140 0.000000 0.000000 
#    y 0.000000 1.759670 0.000000 
#    z 0.000000 0.000000 1.662330 
# 
# From -- ./inp_files/9462.got.cif
#   From: 2010.05.17/outbox.cif.g08.bks.cpg/sg57_5_cif.got.tgz:9462.got - 2010.06.03 13:58:18.
