data_PCOD9439420
_publ_section_title
;
Structure prediction by ZEFSAII (Michael W. Deem and Ramdas Pophale) SiO2 
 PCOD9439420
Probable space group: P B C M
;
_chemical_formula_sum "Si O2"
_cell_formula_units_Z 56
_cell_length_a 13.871592
_cell_length_b 9.686878
_cell_length_c 22.149356
_cell_angle_alpha 90.000000
_cell_angle_beta 90.000000
_cell_angle_gamma 90.000000
_cell_volume 2976.262553
_symmetry_space_group_name_H-M "P B C M"
_symmetry_group_IT_number 57
_symmetry_cell_setting 'orthorhombic'
loop_
_space_group_symop_operation_xyz
x,y,z
-x,-y,1/2+z
x,1/2-y,-z
-x,1/2+y,1/2-z
-x,-y,-z
x,y,1/2-z
-x,1/2+y,z
x,1/2-y,1/2+z
loop_
_atom_site_type_symbol
_atom_site_label
_atom_site_fract_x
_atom_site_fract_y
_atom_site_fract_z
Si Si1 0.591033 0.196565 0.430802
Si Si2 0.300213 0.940265 0.131380
Si Si3 0.904366 0.352928 0.321344
Si Si4 0.608455 0.924454 0.750000
Si Si5 0.408733 0.410748 0.250000
Si Si6 0.908867 0.028211 0.178500
Si Si7 0.703574 0.544528 0.871406
Si Si8 0.364865 0.312396 0.566188
O O1 0.599624 0.250000 0.500000
O O2 0.631394 0.311231 0.384507
O O3 0.478093 0.169764 0.418160
O O4 0.652685 0.059597 0.418154
O O5 0.192220 0.889955 0.142891
O O6 0.334910 0.025866 0.190095
O O7 0.311970 0.043642 0.075405
O O8 0.885734 0.379411 0.250000
O O9 0.996602 0.442945 0.339240
O O10 0.926278 0.191172 0.327733
O O11 0.511866 0.016003 0.750000
O O12 0.590002 0.758324 0.750000
O O13 0.352608 0.465623 0.308369
O O14 0.890259 0.999569 0.250000
O O15 0.814633 0.988669 0.140765
O O16 0.686197 0.699622 0.892520
O O17 0.361615 0.250000 0.500000
#
# Coordination Sequence:
#
# PCOD9439420 Si02
#       8
#     8   8   8   4   4   8   8   8
#     4  11  24  43  66  91 126 175 223 258 300 370
#     4  12  23  40  64  93 130 165 207 263 319 374
#     4  10  22  40  63  92 124 161 204 253 314 384
#     4  12  26  38  59  94 133 172 205 256 324 384
#     4  12  26  38  59  94 133 172 205 256 324 384
#     4  10  22  40  63  92 124 161 204 253 314 384
#     4  12  23  40  64  93 130 165 207 263 319 374
#     4  11  24  41  62  91 126 173 221 256 296 366
#
# _framework density 18.815543999999999
#
# number of rings (size 3 to 8) (size 9 to 14) (size 15 to 20)
#    0.000    0.857    4.286    3.429    4.000    2.286 
#    0.000    0.000    0.000    5.143    0.000    0.000 
#    0.000    0.000    0.000    0.000    0.000    0.000 
#
# Total GULP energy -313027.331953 kJ/mol
# GULP energy per Si atom -5589.773785 kJ/mol
# Density = 1.877272 g / cm^3
# Si number density = 18.815544 Si / 1000 Ang^3
#
#
#
# Elastic Constant Matrix: (Units=GPa)
#
#
# Indices 1 2 3 4 5 6 
#
# 1 114.6690 35.9368 34.2637 0.0000 0.0000 0.0000
# 2 35.9368 43.6264 16.3185 0.0000 0.0000 0.0000
# 3 34.2637 16.3185 42.4765 0.0000 0.0000 0.0000
# 4 0.0000 0.0000 0.0000 31.6863 0.0000 0.0000
# 5 0.0000 0.0000 0.0000 0.0000 21.0359 0.0000
# 6 0.0000 0.0000 0.0000 0.0000 0.0000 31.6665
#
#
#
# Elastic Compliance Matrix: (Units=1/GPa)
#
#
# Indices 1 2 3 4 5 6 
#
# 1 0.013671 -0.008334 -0.007826 0.000000 0.000000 0.000000
# 2 -0.008334 0.031849 -0.005513 0.000000 0.000000 0.000000
# 3 -0.007826 -0.005513 0.031973 0.000000 0.000000 0.000000
# 4 0.000000 0.000000 0.000000 0.031559 0.000000 0.000000
# 5 0.000000 0.000000 0.000000 0.000000 0.047538 0.000000
# 6 0.000000 0.000000 0.000000 0.000000 0.000000 0.031579
#
#
# Mechanical properties :
#
#
# Convention : Reuss Voigt Hill
#
# Bulk Modulus (GPa) = 29.28493 41.53444 35.40969
# Shear Modulus (GPa) = 20.58472 24.49458 22.53965
#
# Velocity S-wave (km/s) = 3.31120 3.61200 3.46486
# Velocity P-wave (km/s) = 5.49697 6.28632 5.90485
#
# Compressibility (1/GPa) = 0.03414725
#
# Stress axis : x y z
#
# Youngs Moduli (GPa) = 73.14709 31.39802 31.27608
#
# Poissons Ratio (x) = 0.26167 0.24477
# Poissons Ratio (y) = 0.60961 0.17243
# Poissons Ratio (z) = 0.57245 0.17310
#
# Static dielectric constant tensor:
#      x y z
#    x 1.607000 0.000000 0.000000 
#    y 0.000000 1.684510 0.000000 
#    z 0.000000 0.000000 1.689510 
# 
# From -- ./inp_files/25427.got.cif
#   From: 2010.05.17/outbox.cif.g08.bks.cpg/sg57_13_cif.got.tgz:25427.got - 2010.06.03 13:58:18.
