data_PCOD9439050
_publ_section_title
;
Structure prediction by ZEFSAII (Michael W. Deem and Ramdas Pophale) SiO2 
 PCOD9439050
Probable space group: P B C M
;
_chemical_formula_sum "Si O2"
_cell_formula_units_Z 48
_cell_length_a 9.219573
_cell_length_b 7.723894
_cell_length_c 30.746154
_cell_angle_alpha 90.000000
_cell_angle_beta 90.000000
_cell_angle_gamma 90.000000
_cell_volume 2189.464513
_symmetry_space_group_name_H-M "P B C M"
_symmetry_group_IT_number 57
_symmetry_cell_setting 'orthorhombic'
loop_
_space_group_symop_operation_xyz
x,y,z
-x,-y,1/2+z
x,1/2-y,-z
-x,1/2+y,1/2-z
-x,-y,-z
x,y,1/2-z
-x,1/2+y,z
x,1/2-y,1/2+z
loop_
_atom_site_type_symbol
_atom_site_label
_atom_site_fract_x
_atom_site_fract_y
_atom_site_fract_z
Si Si1 0.085650 0.940077 0.070100
Si Si2 0.198565 0.046280 0.515358
Si Si3 0.331393 0.553819 0.877096
Si Si4 0.841614 0.971206 0.698691
Si Si5 0.897382 0.862617 0.351890
Si Si6 0.353546 0.557961 0.096313
O O1 0.199172 0.049452 0.099524
O O2 0.939903 0.003699 0.045665
O O3 0.010299 0.820412 0.107668
O O4 0.184269 0.923918 0.026624
O O5 0.189242 0.250000 0.500000
O O6 0.332842 0.013564 0.547344
O O7 0.284218 0.573400 0.827216
O O8 0.324860 0.738602 0.900539
O O9 0.485936 0.473207 0.885647
O O10 0.833192 0.985845 0.750000
O O11 0.829685 0.778843 0.679927
O O12 0.997103 0.030285 0.680065
O O13 0.765584 0.965026 0.373667
#
# Coordination Sequence:
#
# PCOD9439050 Si02
#       6
#     8   8   8   8   8   8
#     4   9  22  37  63  92 129 170 218 268 328 377
#     4  10  23  38  65  95 131 173 230 279 313 388
#     4  11  25  43  65  89 130 178 215 274 341 398
#     4  11  23  43  71 102 129 164 218 276 336 408
#     4  10  21  39  70  97 132 170 211 269 335 398
#     4  11  25  43  63  93 133 179 224 267 335 398
#
# _framework density 21.923168
#
# number of rings (size 3 to 8) (size 9 to 14) (size 15 to 20)
#    0.000    1.667    0.000    3.500   18.667    0.667 
#    0.000    5.000    0.000    0.000    0.000    0.000 
#    0.000    0.000    0.000    0.000    0.000    0.000 
#
# Total GULP energy -267374.437700 kJ/mol
# GULP energy per Si atom -5570.300785 kJ/mol
# Density = 2.187327 g / cm^3
# Si number density = 21.923168 Si / 1000 Ang^3
#
#
#
# Elastic Constant Matrix: (Units=GPa)
#
#
# Indices 1 2 3 4 5 6 
#
# 1 130.3874 21.4285 60.2776 0.0000 0.0000 0.0000
# 2 21.4285 71.2828 35.8326 0.0000 0.0000 0.0000
# 3 60.2776 35.8326 209.3896 0.0000 0.0000 0.0000
# 4 0.0000 0.0000 0.0000 28.7357 0.0000 0.0000
# 5 0.0000 0.0000 0.0000 0.0000 8.0096 0.0000
# 6 0.0000 0.0000 0.0000 0.0000 0.0000 27.1315
#
#
#
# Elastic Compliance Matrix: (Units=1/GPa)
#
#
# Indices 1 2 3 4 5 6 
#
# 1 0.008998 -0.001535 -0.002328 0.000000 0.000000 0.000000
# 2 -0.001535 0.015611 -0.002230 0.000000 0.000000 0.000000
# 3 -0.002328 -0.002230 0.005827 0.000000 0.000000 0.000000
# 4 0.000000 0.000000 0.000000 0.034800 0.000000 0.000000
# 5 0.000000 0.000000 0.000000 0.000000 0.124850 0.000000
# 6 0.000000 0.000000 0.000000 0.000000 0.000000 0.036858
#
#
# Mechanical properties :
#
#
# Convention : Reuss Voigt Hill
#
# Bulk Modulus (GPa) = 54.78874 71.79303 63.29089
# Shear Modulus (GPa) = 20.39056 32.34341 26.36699
#
# Velocity S-wave (km/s) = 3.05305 3.84514 3.47176
# Velocity P-wave (km/s) = 6.12157 7.24790 6.70842
#
# Compressibility (1/GPa) = 0.01825193
#
# Stress axis : x y z
#
# Youngs Moduli (GPa) = 111.13937 64.05814 171.60371
#
# Poissons Ratio (x) = 0.09832 0.39942
# Poissons Ratio (y) = 0.17058 0.38261
# Poissons Ratio (z) = 0.25868 0.14283
#
# Static dielectric constant tensor:
#      x y z
#    x 1.929650 0.000000 0.000000 
#    y 0.000000 1.932230 0.000000 
#    z 0.000000 0.000000 1.815380 
# 
# From -- ./inp_files/29438.got.cif
#   From: 2010.05.17/outbox.cif.g08.bks.cpg/sg57_15_cif.got.tgz:29438.got - 2010.06.03 13:58:18.
