data_PCOD9439100
_publ_section_title
;
Structure prediction by ZEFSAII (Michael W. Deem and Ramdas Pophale) SiO2 
 PCOD9439100
Probable space group: P B C M
;
_chemical_formula_sum "Si O2"
_cell_formula_units_Z 48
_cell_length_a 7.187136
_cell_length_b 17.848447
_cell_length_c 15.020146
_cell_angle_alpha 90.000000
_cell_angle_beta 90.000000
_cell_angle_gamma 90.000000
_cell_volume 1926.772553
_symmetry_space_group_name_H-M "P B C M"
_symmetry_group_IT_number 57
_symmetry_cell_setting 'orthorhombic'
loop_
_space_group_symop_operation_xyz
x,y,z
-x,-y,1/2+z
x,1/2-y,-z
-x,1/2+y,1/2-z
-x,-y,-z
x,y,1/2-z
-x,1/2+y,z
x,1/2-y,1/2+z
loop_
_atom_site_type_symbol
_atom_site_label
_atom_site_fract_x
_atom_site_fract_y
_atom_site_fract_z
Si Si1 0.987418 0.082455 0.146472
Si Si2 0.747623 0.697782 0.643417
Si Si3 0.609546 0.636749 0.143790
Si Si4 0.377809 0.623459 0.652197
Si Si5 0.134459 0.751647 0.100398
Si Si6 0.672923 0.447320 0.524226
O O1 0.964225 0.060999 0.250000
O O2 0.926069 0.170315 0.135557
O O3 0.856064 0.034184 0.081624
O O4 0.207282 0.086115 0.124839
O O5 0.778113 0.697532 0.750000
O O6 0.662786 0.778538 0.619601
O O7 0.593698 0.634985 0.625261
O O8 0.948006 0.697014 0.599237
O O9 0.575443 0.632659 0.250000
O O10 0.433207 0.611767 0.088224
O O11 0.366785 0.587693 0.750000
O O12 0.287774 0.705798 0.657257
O O13 0.272568 0.584477 0.571923
O O14 0.204827 0.750000 0.000000
O O15 0.500000 0.500000 0.500000
#
# Coordination Sequence:
#
# PCOD9439100 Si02
#       6
#     8   8   8   8   8   8
#     4  10  21  40  64  91 118 150 192 242 299 357
#     4   9  20  36  59  91 122 149 182 235 299 367
#     4   9  20  39  64  91 118 148 191 244 299 356
#     4  11  24  39  56  86 125 159 192 237 298 355
#     4  11  20  34  62  94 122 149 183 236 300 365
#     4  12  26  40  59  84 116 161 212 250 283 331
#
# _framework density 24.912127999999999
#
# number of rings (size 3 to 8) (size 9 to 14) (size 15 to 20)
#    0.000    1.667    1.667    4.000    4.667    3.333 
#    0.000    0.000    0.000    2.000    0.000    0.000 
#    0.000    0.000    0.000    0.000    0.000    0.000 
#
# Total GULP energy -268512.101346 kJ/mol
# GULP energy per Si atom -5594.002111 kJ/mol
# Density = 2.485543 g / cm^3
# Si number density = 24.912128 Si / 1000 Ang^3
#
#
#
# Elastic Constant Matrix: (Units=GPa)
#
#
# Indices 1 2 3 4 5 6 
#
# 1 104.4820 8.8497 61.4391 0.0000 0.0000 0.0000
# 2 8.8497 23.9576 6.6140 0.0000 0.0000 0.0000
# 3 61.4391 6.6140 104.4096 0.0000 0.0000 0.0000
# 4 0.0000 0.0000 0.0000 61.4912 0.0000 0.0000
# 5 0.0000 0.0000 0.0000 0.0000 60.6969 0.0000
# 6 0.0000 0.0000 0.0000 0.0000 0.0000 24.1677
#
#
#
# Elastic Compliance Matrix: (Units=1/GPa)
#
#
# Indices 1 2 3 4 5 6 
#
# 1 0.014862 -0.003130 -0.008547 0.000000 0.000000 0.000000
# 2 -0.003130 0.043143 -0.000891 0.000000 0.000000 0.000000
# 3 -0.008547 -0.000891 0.014664 0.000000 0.000000 0.000000
# 4 0.000000 0.000000 0.000000 0.016262 0.000000 0.000000
# 5 0.000000 0.000000 0.000000 0.000000 0.016475 0.000000
# 6 0.000000 0.000000 0.000000 0.000000 0.000000 0.041377
#
#
# Mechanical properties :
#
#
# Convention : Reuss Voigt Hill
#
# Bulk Modulus (GPa) = 21.03866 42.96165 32.00016
# Shear Modulus (GPa) = 26.62904 39.66761 33.14833
#
# Velocity S-wave (km/s) = 3.27298 3.99469 3.65171
# Velocity P-wave (km/s) = 4.76935 6.20963 5.53652
#
# Compressibility (1/GPa) = 0.04753154
#
# Stress axis : x y z
#
# Youngs Moduli (GPa) = 67.28438 23.17891 68.19559
#
# Poissons Ratio (x) = 0.07256 0.58289
# Poissons Ratio (y) = 0.21062 0.06076
# Poissons Ratio (z) = 0.57510 0.02065
#
# Static dielectric constant tensor:
#      x y z
#    x 1.952280 0.000000 0.000000 
#    y 0.000000 2.058370 0.000000 
#    z 0.000000 0.000000 1.898830 
# 
# From -- ./inp_files/16400.got.cif
#   From: 2010.05.17/outbox.cif.g08.bks.cpg/sg57_9_cif.got.tgz:16400.got - 2010.06.03 13:58:18.
