data_PCOD9439126
_publ_section_title
;
Structure prediction by ZEFSAII (Michael W. Deem and Ramdas Pophale) SiO2 
 PCOD9439126
Probable space group: P B C M
;
_chemical_formula_sum "Si O2"
_cell_formula_units_Z 40
_cell_length_a 24.493620
_cell_length_b 8.841119
_cell_length_c 9.367733
_cell_angle_alpha 90.000000
_cell_angle_beta 90.000000
_cell_angle_gamma 90.000000
_cell_volume 2028.592035
_symmetry_space_group_name_H-M "P B C M"
_symmetry_group_IT_number 57
_symmetry_cell_setting 'orthorhombic'
loop_
_space_group_symop_operation_xyz
x,y,z
-x,-y,1/2+z
x,1/2-y,-z
-x,1/2+y,1/2-z
-x,-y,-z
x,y,1/2-z
-x,1/2+y,z
x,1/2-y,1/2+z
loop_
_atom_site_type_symbol
_atom_site_label
_atom_site_fract_x
_atom_site_fract_y
_atom_site_fract_z
Si Si1 0.550292 0.912563 0.574073
Si Si2 0.228682 0.901447 0.912382
Si Si3 0.878692 0.570310 0.519883
Si Si4 0.074499 0.578455 0.750000
Si Si5 0.042583 0.931874 0.750000
Si Si6 0.647998 0.413325 0.923717
O O1 0.547545 0.750000 0.500000
O O2 0.548044 0.911740 0.750000
O O3 0.500000 0.000000 0.500000
O O4 0.605433 0.986406 0.511398
O O5 0.231363 0.849417 0.750000
O O6 0.289078 0.963287 0.946375
O O7 0.180773 0.023110 0.925031
O O8 0.216898 0.750000 0.000000
O O9 0.882485 0.750000 0.500000
O O10 0.888900 0.469611 0.381716
O O11 0.927519 0.512775 0.619324
O O12 0.055529 0.752870 0.750000
O O13 0.020909 0.471652 0.750000
O O14 0.637323 0.408869 0.750000
O O15 0.644147 0.250000 0.000000
#
# Coordination Sequence:
#
# PCOD9439126 Si02
#       6
#     8   8   8   4   4   8
#     4  12  25  43  66  96 132 176 223 276 334 394
#     4  10  22  41  66  94 128 170 215 264 319 387
#     4  12  25  42  63  95 128 166 211 267 325 387
#     4  12  26  42  68  94 122 170 205 268 321 396
#     4  12  24  46  66  90 128 160 217 258 329 394
#     4  10  21  40  65  96 131 172 218 269 325 391
#
# _framework density 19.718111
#
# number of rings (size 3 to 8) (size 9 to 14) (size 15 to 20)
#    0.000    0.800    1.000    7.200    1.400    1.600 
#    0.000    0.000    0.000    0.000    0.000    0.000 
#    0.000    0.000    0.000    0.000    0.000    0.000 
#
# Total GULP energy -223287.128130 kJ/mol
# GULP energy per Si atom -5582.178203 kJ/mol
# Density = 1.967323 g / cm^3
# Si number density = 19.718111 Si / 1000 Ang^3
#
#
#
# Elastic Constant Matrix: (Units=GPa)
#
#
# Indices 1 2 3 4 5 6 
#
# 1 108.0692 43.1176 33.5431 0.0000 0.0000 0.0000
# 2 43.1176 100.8186 7.9065 0.0000 0.0000 0.0000
# 3 33.5431 7.9065 117.6458 0.0000 0.0000 0.0000
# 4 0.0000 0.0000 0.0000 18.6633 0.0000 0.0000
# 5 0.0000 0.0000 0.0000 0.0000 38.1930 0.0000
# 6 0.0000 0.0000 0.0000 0.0000 0.0000 34.0845
#
#
#
# Elastic Compliance Matrix: (Units=1/GPa)
#
#
# Indices 1 2 3 4 5 6 
#
# 1 0.012217 -0.004978 -0.003149 0.000000 0.000000 0.000000
# 2 -0.004978 0.012000 0.000613 0.000000 0.000000 0.000000
# 3 -0.003149 0.000613 0.009357 0.000000 0.000000 0.000000
# 4 0.000000 0.000000 0.000000 0.053581 0.000000 0.000000
# 5 0.000000 0.000000 0.000000 0.000000 0.026183 0.000000
# 6 0.000000 0.000000 0.000000 0.000000 0.000000 0.029339
#
#
# Mechanical properties :
#
#
# Convention : Reuss Voigt Hill
#
# Bulk Modulus (GPa) = 53.92112 55.07424 54.49768
# Shear Modulus (GPa) = 30.50919 34.31924 32.41422
#
# Velocity S-wave (km/s) = 3.93780 4.17645 4.05888
# Velocity P-wave (km/s) = 6.93400 7.15880 7.04730
#
# Compressibility (1/GPa) = 0.01854561
#
# Stress axis : x y z
#
# Youngs Moduli (GPa) = 81.85514 83.33582 106.87583
#
# Poissons Ratio (x) = 0.41483 0.33652
# Poissons Ratio (y) = 0.40746 -0.06550
# Poissons Ratio (z) = 0.25774 -0.05107
#
# Static dielectric constant tensor:
#      x y z
#    x 1.697700 0.000000 0.000000 
#    y 0.000000 1.686400 0.000000 
#    z 0.000000 0.000000 1.660990 
# 
# From -- ./inp_files/8976.got.cif
#   From: 2010.05.17/outbox.cif.g08.bks.cpg/sg57_5_cif.got.tgz:8976.got - 2010.06.03 13:58:18.
