data_PCOD9439737
_publ_section_title
;
Structure prediction by ZEFSAII (Michael W. Deem and Ramdas Pophale) SiO2 
 PCOD9439737
Probable space group: P B C M
;
_chemical_formula_sum "Si O2"
_cell_formula_units_Z 32
_cell_length_a 5.026102
_cell_length_b 11.265959
_cell_length_c 21.624012
_cell_angle_alpha 90.000000
_cell_angle_beta 90.000000
_cell_angle_gamma 90.000000
_cell_volume 1224.435008
_symmetry_space_group_name_H-M "P B C M"
_symmetry_group_IT_number 57
_symmetry_cell_setting 'orthorhombic'
loop_
_space_group_symop_operation_xyz
x,y,z
-x,-y,1/2+z
x,1/2-y,-z
-x,1/2+y,1/2-z
-x,-y,-z
x,y,1/2-z
-x,1/2+y,z
x,1/2-y,1/2+z
loop_
_atom_site_type_symbol
_atom_site_label
_atom_site_fract_x
_atom_site_fract_y
_atom_site_fract_z
Si Si1 0.253448 0.403024 0.443715
Si Si2 0.798957 0.884407 0.250000
Si Si3 0.227933 0.456588 0.581488
Si Si4 0.164441 0.848659 0.750000
Si Si5 0.430775 0.262274 0.649766
O O1 0.839370 0.601112 0.485156
O O2 0.464746 0.507725 0.430115
O O3 0.423802 0.291732 0.419120
O O4 0.977276 0.435027 0.408901
O O5 0.624970 0.856722 0.189400
O O6 0.975621 0.765514 0.250000
O O7 0.922201 0.013861 0.250000
O O8 0.213506 0.365645 0.638101
O O9 0.346572 0.827290 0.810847
#
# Coordination Sequence:
#
# PCOD9439737 Si02
#       5
#     8   4   8   4   8
#     4  10  23  42  70 106 148 188 245 302 376 461
#     4  11  28  46  75 102 152 196 268 324 382 459
#     4  10  23  42  69 108 146 190 243 304 377 457
#     4  11  28  50  69 114 142 210 260 330 386 459
#     4  11  25  44  73 101 147 197 254 316 386 456
#
# _framework density 26.134504
#
# number of rings (size 3 to 8) (size 9 to 14) (size 15 to 20)
#    0.000    1.500    0.000    2.250   10.500    4.000 
#    0.000    7.500    0.000    0.000    0.000    0.000 
#    0.000    0.000    0.000    0.000    0.000    0.000 
#
# Total GULP energy -178348.804692 kJ/mol
# GULP energy per Si atom -5573.400147 kJ/mol
# Density = 2.607502 g / cm^3
# Si number density = 26.134504 Si / 1000 Ang^3
#
#
#
# Elastic Constant Matrix: (Units=GPa)
#
#
# Indices 1 2 3 4 5 6 
#
# 1 66.8356 5.8918 0.9424 0.0000 0.0000 0.0000
# 2 5.8918 134.1025 19.9498 0.0000 0.0000 0.0000
# 3 0.9424 19.9498 63.8993 0.0000 0.0000 0.0000
# 4 0.0000 0.0000 0.0000 51.1725 0.0000 0.0000
# 5 0.0000 0.0000 0.0000 0.0000 28.2302 0.0000
# 6 0.0000 0.0000 0.0000 0.0000 0.0000 31.2497
#
#
#
# Elastic Compliance Matrix: (Units=1/GPa)
#
#
# Indices 1 2 3 4 5 6 
#
# 1 0.015020 -0.000657 -0.000016 0.000000 0.000000 0.000000
# 2 -0.000657 0.007849 -0.002441 0.000000 0.000000 0.000000
# 3 -0.000016 -0.002441 0.016412 0.000000 0.000000 0.000000
# 4 0.000000 0.000000 0.000000 0.019542 0.000000 0.000000
# 5 0.000000 0.000000 0.000000 0.000000 0.035423 0.000000
# 6 0.000000 0.000000 0.000000 0.000000 0.000000 0.032000
#
#
# Mechanical properties :
#
#
# Convention : Reuss Voigt Hill
#
# Bulk Modulus (GPa) = 30.25530 35.37836 32.81683
# Shear Modulus (GPa) = 34.84496 38.00070 36.42283
#
# Velocity S-wave (km/s) = 3.65539 3.81733 3.73724
# Velocity P-wave (km/s) = 5.42381 5.74419 5.58630
#
# Compressibility (1/GPa) = 0.03305207
#
# Stress axis : x y z
#
# Youngs Moduli (GPa) = 66.57667 127.40513 60.93144
#
# Poissons Ratio (x) = 0.08377 0.00099
# Poissons Ratio (y) = 0.04377 0.14872
# Poissons Ratio (z) = 0.00108 0.31097
#
# Static dielectric constant tensor:
#      x y z
#    x 2.156060 0.000000 0.000000 
#    y 0.000000 2.122290 0.000000 
#    z 0.000000 0.000000 2.176970 
# 
# From -- ./inp_files/25987.got.cif
#   From: 2010.05.17/outbox.cif.g08.bks.cpg/sg57_13_cif.got.tgz:25987.got - 2010.06.03 13:58:18.
