data_PCOD9439298
_publ_section_title
;
Structure prediction by ZEFSAII (Michael W. Deem and Ramdas Pophale) SiO2 
 PCOD9439298
Probable space group: P B C M
;
_chemical_formula_sum "Si O2"
_cell_formula_units_Z 48
_cell_length_a 10.073784
_cell_length_b 12.363885
_cell_length_c 20.479380
_cell_angle_alpha 90.000000
_cell_angle_beta 90.000000
_cell_angle_gamma 90.000000
_cell_volume 2550.729447
_symmetry_space_group_name_H-M "P B C M"
_symmetry_group_IT_number 57
_symmetry_cell_setting 'orthorhombic'
loop_
_space_group_symop_operation_xyz
x,y,z
-x,-y,1/2+z
x,1/2-y,-z
-x,1/2+y,1/2-z
-x,-y,-z
x,y,1/2-z
-x,1/2+y,z
x,1/2-y,1/2+z
loop_
_atom_site_type_symbol
_atom_site_label
_atom_site_fract_x
_atom_site_fract_y
_atom_site_fract_z
Si Si1 0.654646 0.458817 0.126064
Si Si2 0.091249 0.844250 0.952110
Si Si3 0.564742 0.681215 0.558715
Si Si4 0.190848 0.065854 0.009740
Si Si5 0.526105 0.666287 0.322677
Si Si6 0.228643 0.765761 0.825110
O O1 0.536194 0.409805 0.082299
O O2 0.588282 0.547805 0.172269
O O3 0.727495 0.358259 0.160446
O O4 0.752359 0.520056 0.077345
O O5 0.124014 0.805788 0.878929
O O6 0.156253 0.960248 0.966926
O O7 0.144369 0.750000 0.000000
O O8 0.938648 0.865163 0.972010
O O9 0.500626 0.750000 0.500000
O O10 0.698383 0.632910 0.528708
O O11 0.586461 0.759115 0.620568
O O12 0.547925 0.711692 0.250000
O O13 0.366952 0.667952 0.333608
O O14 0.184885 0.776563 0.750000
#
# Coordination Sequence:
#
# PCOD9439298 Si02
#       6
#     8   8   8   8   8   8
#     4  11  21  36  63  93 122 158 197 250 308 368
#     4  11  23  40  64  83 120 161 206 251 299 348
#     4  11  22  35  62  93 126 153 201 251 307 365
#     4  11  23  38  61  93 119 154 205 254 297 362
#     4  10  22  38  59  91 127 161 195 247 312 370
#     4  10  22  40  62  88 122 162 204 247 300 371
#
# _framework density 18.818145999999999
#
# number of rings (size 3 to 8) (size 9 to 14) (size 15 to 20)
#    0.000    1.333    3.333    2.500    4.667    0.667 
#    0.000    2.500    0.000    0.000    0.000    0.000 
#    0.000    0.000    0.000    0.000    0.000    0.000 
#
# Total GULP energy -268042.906283 kJ/mol
# GULP energy per Si atom -5584.227214 kJ/mol
# Density = 1.877532 g / cm^3
# Si number density = 18.818146 Si / 1000 Ang^3
#
#
#
# Elastic Constant Matrix: (Units=GPa)
#
#
# Indices 1 2 3 4 5 6 
#
# 1 30.1582 22.5909 22.5893 0.0000 0.0000 0.0000
# 2 22.5909 78.4634 33.0747 0.0000 0.0000 0.0000
# 3 22.5893 33.0747 131.5043 0.0000 0.0000 0.0000
# 4 0.0000 0.0000 0.0000 28.0615 0.0000 0.0000
# 5 0.0000 0.0000 0.0000 0.0000 10.8126 0.0000
# 6 0.0000 0.0000 0.0000 0.0000 0.0000 16.0281
#
#
#
# Elastic Compliance Matrix: (Units=1/GPa)
#
#
# Indices 1 2 3 4 5 6 
#
# 1 0.045042 -0.010858 -0.005006 0.000000 0.000000 0.000000
# 2 -0.010858 0.016874 -0.002379 0.000000 0.000000 0.000000
# 3 -0.005006 -0.002379 0.009063 0.000000 0.000000 0.000000
# 4 0.000000 0.000000 0.000000 0.035636 0.000000 0.000000
# 5 0.000000 0.000000 0.000000 0.000000 0.092485 0.000000
# 6 0.000000 0.000000 0.000000 0.000000 0.000000 0.062390
#
#
# Mechanical properties :
#
#
# Convention : Reuss Voigt Hill
#
# Bulk Modulus (GPa) = 28.99217 44.07065 36.53141
# Shear Modulus (GPa) = 16.15654 21.77185 18.96419
#
# Velocity S-wave (km/s) = 2.93330 3.40510 3.17797
# Velocity P-wave (km/s) = 5.18771 6.23937 5.73768
#
# Compressibility (1/GPa) = 0.03449207
#
# Stress axis : x y z
#
# Youngs Moduli (GPa) = 22.20163 59.26378 110.34419
#
# Poissons Ratio (x) = 0.64349 0.55241
# Poissons Ratio (y) = 0.24106 0.26248
# Poissons Ratio (z) = 0.11115 0.14098
#
# Static dielectric constant tensor:
#      x y z
#    x 1.653140 0.000000 0.000000 
#    y 0.000000 1.671260 0.000000 
#    z 0.000000 0.000000 1.645740 
# 
# From -- ./inp_files/21816.got.cif
#   From: 2010.05.17/outbox.cif.g08.bks.cpg/sg57_11_cif.got.tgz:21816.got - 2010.06.03 13:58:18.
