data_PCOD9439217
_publ_section_title
;
Structure prediction by ZEFSAII (Michael W. Deem and Ramdas Pophale) SiO2 
 PCOD9439217
Probable space group: P B C M
;
_chemical_formula_sum "Si O2"
_cell_formula_units_Z 40
_cell_length_a 16.205000
_cell_length_b 9.769341
_cell_length_c 13.017643
_cell_angle_alpha 90.000000
_cell_angle_beta 90.000000
_cell_angle_gamma 90.000000
_cell_volume 2060.851323
_symmetry_space_group_name_H-M "P B C M"
_symmetry_group_IT_number 57
_symmetry_cell_setting 'orthorhombic'
loop_
_space_group_symop_operation_xyz
x,y,z
-x,-y,1/2+z
x,1/2-y,-z
-x,1/2+y,1/2-z
-x,-y,-z
x,y,1/2-z
-x,1/2+y,z
x,1/2-y,1/2+z
loop_
_atom_site_type_symbol
_atom_site_label
_atom_site_fract_x
_atom_site_fract_y
_atom_site_fract_z
Si Si1 0.103431 0.800727 0.250000
Si Si2 0.732838 0.476493 0.250000
Si Si3 0.433663 0.132971 0.918257
Si Si4 0.145832 0.482236 0.250000
Si Si5 0.026850 0.375376 0.426764
Si Si6 0.697724 0.706719 0.750000
Si Si7 0.385027 0.611966 0.564781
O O1 0.177281 0.909216 0.250000
O O2 0.139506 0.646743 0.250000
O O3 0.046599 0.825517 0.149312
O O4 0.736086 0.641714 0.250000
O O5 0.683900 0.426230 0.148113
O O6 0.363886 0.187571 0.844337
O O7 0.526126 0.110760 0.876236
O O8 0.449208 0.250000 0.000000
O O9 0.399285 0.001646 0.977242
O O10 0.235182 0.413453 0.250000
O O11 0.098098 0.426857 0.350491
O O12 0.052119 0.250000 0.500000
O O13 0.000000 0.500000 0.500000
O O14 0.367429 0.750000 0.500000
#
# Coordination Sequence:
#
# PCOD9439217 Si02
#       7
#     4   4   8   4   8   4   8
#     4  11  27  44  65 103 133 159 217 262 309 396
#     4  12  26  42  61  96 136 169 208 269 328 371
#     4  10  21  43  63  89 125 170 227 264 312 375
#     4  11  27  44  65 103 131 161 217 260 313 394
#     4  11  24  47  74  93 126 173 209 258 318 379
#     4  12  26  40  65  94 136 171 208 269 320 377
#     4  10  23  41  66  90 124 174 221 270 315 376
#
# _framework density 19.409455000000001
#
# number of rings (size 3 to 8) (size 9 to 14) (size 15 to 20)
#    0.000    1.200    4.000    0.600    5.600    3.200 
#    0.000    0.000    0.000    0.000    0.000    0.000 
#    0.000    0.000    0.000    0.000    0.000    0.000 
#
# Total GULP energy -223356.929330 kJ/mol
# GULP energy per Si atom -5583.923233 kJ/mol
# Density = 1.936528 g / cm^3
# Si number density = 19.409455 Si / 1000 Ang^3
#
#
#
# Elastic Constant Matrix: (Units=GPa)
#
#
# Indices 1 2 3 4 5 6 
#
# 1 72.3284 -3.7079 10.5724 0.0000 0.0000 0.0000
# 2 -3.7079 115.9652 16.1091 0.0000 0.0000 0.0000
# 3 10.5724 16.1091 76.8247 0.0000 0.0000 0.0000
# 4 0.0000 0.0000 0.0000 22.6659 0.0000 0.0000
# 5 0.0000 0.0000 0.0000 0.0000 -2.3726 0.0000
# 6 0.0000 0.0000 0.0000 0.0000 0.0000 33.2260
#
#
#
# Elastic Compliance Matrix: (Units=1/GPa)
#
#
# Indices 1 2 3 4 5 6 
#
# 1 0.014172 0.000746 -0.002107 0.000000 0.000000 0.000000
# 2 0.000746 0.008921 -0.001973 0.000000 0.000000 0.000000
# 3 -0.002107 -0.001973 0.013720 0.000000 0.000000 0.000000
# 4 0.000000 0.000000 0.000000 0.044119 0.000000 0.000000
# 5 0.000000 0.000000 0.000000 0.000000 -0.421486 0.000000
# 6 0.000000 0.000000 0.000000 0.000000 0.000000 0.030097
#
#
# Mechanical properties :
#
#
# Convention : Reuss Voigt Hill
#
# Bulk Modulus (GPa) = 33.17278 34.56281 33.86779
# Shear Modulus (GPa) = -17.02191 26.84683 4.91246
#
# Velocity S-wave (km/s) = -2.96462 3.72315 1.59263
# Velocity P-wave (km/s) = 2.32584 6.02730 4.56825
#
# Compressibility (1/GPa) = 0.03014520
#
# Stress axis : x y z
#
# Youngs Moduli (GPa) = 70.56164 112.09204 72.88448
#
# Poissons Ratio (x) = -0.08360 0.15355
# Poissons Ratio (y) = -0.05262 0.14382
# Poissons Ratio (z) = 0.14865 0.22119
#
# Static dielectric constant tensor:
#      x y z
#    x 1.675900 0.000000 0.000000 
#    y 0.000000 1.648220 0.000000 
#    z 0.000000 0.000000 1.674460 
# 
# From -- ./inp_files/18304.got.cif
#   From: 2010.05.17/outbox.cif.g08.bks.cpg/sg57_10_cif.got.tgz:18304.got - 2010.06.03 13:58:18.
