data_PCOD9439404
_publ_section_title
;
Structure prediction by ZEFSAII (Michael W. Deem and Ramdas Pophale) SiO2 
 PCOD9439404
Probable space group: P B C M
;
_chemical_formula_sum "Si O2"
_cell_formula_units_Z 64
_cell_length_a 15.801239
_cell_length_b 24.235751
_cell_length_c 8.700228
_cell_angle_alpha 90.000000
_cell_angle_beta 90.000000
_cell_angle_gamma 90.000000
_cell_volume 3331.794891
_symmetry_space_group_name_H-M "P B C M"
_symmetry_group_IT_number 57
_symmetry_cell_setting 'orthorhombic'
loop_
_space_group_symop_operation_xyz
x,y,z
-x,-y,1/2+z
x,1/2-y,-z
-x,1/2+y,1/2-z
-x,-y,-z
x,y,1/2-z
-x,1/2+y,z
x,1/2-y,1/2+z
loop_
_atom_site_type_symbol
_atom_site_label
_atom_site_fract_x
_atom_site_fract_y
_atom_site_fract_z
Si Si1 0.500539 0.810865 0.565879
Si Si2 0.594761 0.494819 0.933792
Si Si3 0.345319 0.621568 0.565776
Si Si4 0.844243 0.387765 0.064851
Si Si5 0.833509 0.878876 0.435402
Si Si6 0.000396 0.188917 0.935522
Si Si7 0.905263 0.501428 0.933925
Si Si8 0.344342 0.108747 0.433623
O O1 0.513799 0.750000 0.500000
O O2 0.497347 0.808515 0.750000
O O3 0.413748 0.836931 0.503603
O O4 0.577405 0.851828 0.522410
O O5 0.592106 0.491038 0.750000
O O6 0.500000 0.500000 0.000000
O O7 0.634956 0.439434 0.002189
O O8 0.643970 0.549644 0.985384
O O9 0.353668 0.621119 0.750000
O O10 0.248245 0.635414 0.525652
O O11 0.849000 0.392761 0.250000
O O12 0.921758 0.349194 0.013819
O O13 0.856110 0.448314 0.995131
O O14 0.824193 0.876485 0.250000
O O15 0.860877 0.941197 0.477682
O O16 0.744730 0.865975 0.514303
O O17 0.910880 0.839265 0.480686
O O18 0.998520 0.190506 0.750000
O O19 0.993134 0.250000 0.000000
O O20 0.909752 0.499823 0.750000
O O21 0.000000 0.500000 0.000000
O O22 0.346372 0.101025 0.250000
#
# Coordination Sequence:
#
# PCOD9439404 Si02
#       8
#     8   8   8   8   8   8   8   8
#     4  11  25  44  65  88 122 163 209 260 308 363
#     4  12  23  38  63  93 128 165 202 248 306 368
#     4  11  23  40  66  95 125 163 204 253 311 366
#     4  10  22  41  62  90 126 160 198 249 303 362
#     4  10  22  40  62  88 123 161 198 248 306 362
#     4  10  22  42  62  85 120 159 204 254 303 355
#     4  11  21  36  61  91 123 161 200 245 304 364
#     4  11  24  41  63  93 125 160 204 253 306 366
#
# _framework density 19.208864999999999
#
# number of rings (size 3 to 8) (size 9 to 14) (size 15 to 20)
#    0.000    1.250    2.500    3.375    0.000    7.500 
#    0.000    3.750    0.000    0.000    0.000    0.000 
#    0.000    0.000    0.000    0.000    0.000    0.000 
#
# Total GULP energy -357921.406912 kJ/mol
# GULP energy per Si atom -5592.521983 kJ/mol
# Density = 1.916514 g / cm^3
# Si number density = 19.208865 Si / 1000 Ang^3
#
#
#
# Elastic Constant Matrix: (Units=GPa)
#
#
# Indices 1 2 3 4 5 6 
#
# 1 94.6186 -0.7129 21.6445 0.0000 0.0000 0.0000
# 2 -0.7129 73.3020 11.8312 0.0000 0.0000 0.0000
# 3 21.6445 11.8312 32.6761 0.0000 0.0000 0.0000
# 4 0.0000 0.0000 0.0000 34.5040 0.0000 0.0000
# 5 0.0000 0.0000 0.0000 0.0000 24.3856 0.0000
# 6 0.0000 0.0000 0.0000 0.0000 0.0000 3.5719
#
#
#
# Elastic Compliance Matrix: (Units=1/GPa)
#
#
# Indices 1 2 3 4 5 6 
#
# 1 0.012623 0.001564 -0.008927 0.000000 0.000000 0.000000
# 2 0.001564 0.014683 -0.006352 0.000000 0.000000 0.000000
# 3 -0.008927 -0.006352 0.038817 0.000000 0.000000 0.000000
# 4 0.000000 0.000000 0.000000 0.028982 0.000000 0.000000
# 5 0.000000 0.000000 0.000000 0.000000 0.041008 0.000000
# 6 0.000000 0.000000 0.000000 0.000000 0.000000 0.279962
#
#
# Mechanical properties :
#
#
# Convention : Reuss Voigt Hill
#
# Bulk Modulus (GPa) = 25.84599 29.56912 27.70755
# Shear Modulus (GPa) = 10.95525 23.68124 17.31824
#
# Velocity S-wave (km/s) = 2.39073 3.51497 3.00588
# Velocity P-wave (km/s) = 4.59405 5.64803 5.14808
#
# Compressibility (1/GPa) = 0.03869072
#
# Stress axis : x y z
#
# Youngs Moduli (GPa) = 79.22230 68.10771 25.76211
#
# Poissons Ratio (x) = -0.10650 0.22999
# Poissons Ratio (y) = -0.12388 0.16364
# Poissons Ratio (z) = 0.70725 0.43262
#
# Static dielectric constant tensor:
#      x y z
#    x 1.678480 0.000000 0.000000 
#    y 0.000000 1.635350 0.000000 
#    z 0.000000 0.000000 1.646070 
# 
# From -- ./inp_files/5689.got.cif
#   From: 2010.05.17/outbox.cif.g08.bks.cpg/sg57_3_cif.got.tgz:5689.got - 2010.06.03 13:58:18.
