data_PCOD9439769
_publ_section_title
;
Structure prediction by ZEFSAII (Michael W. Deem and Ramdas Pophale) SiO2 
 PCOD9439769
Probable space group: P B C M
;
_chemical_formula_sum "Si O2"
_cell_formula_units_Z 32
_cell_length_a 5.225093
_cell_length_b 8.495516
_cell_length_c 23.016148
_cell_angle_alpha 90.000000
_cell_angle_beta 90.000000
_cell_angle_gamma 90.000000
_cell_volume 1021.683615
_symmetry_space_group_name_H-M "P B C M"
_symmetry_group_IT_number 57
_symmetry_cell_setting 'orthorhombic'
loop_
_space_group_symop_operation_xyz
x,y,z
-x,-y,1/2+z
x,1/2-y,-z
-x,1/2+y,1/2-z
-x,-y,-z
x,y,1/2-z
-x,1/2+y,z
x,1/2-y,1/2+z
loop_
_atom_site_type_symbol
_atom_site_label
_atom_site_fract_x
_atom_site_fract_y
_atom_site_fract_z
Si Si1 0.571448 0.732223 0.373547
Si Si2 0.220208 0.068077 0.483050
Si Si3 0.499340 0.292319 0.250000
Si Si4 0.095394 0.556707 0.115000
Si Si5 0.001186 0.996000 0.750000
O O1 0.757875 0.608163 0.406574
O O2 0.519431 0.691378 0.307445
O O3 0.707271 0.901530 0.375140
O O4 0.283474 0.711902 0.398676
O O5 0.226464 0.250000 0.500000
O O6 0.058779 0.000192 0.543894
O O7 0.500000 0.000000 0.500000
O O8 0.251218 0.397849 0.250000
O O9 0.756344 0.390770 0.250000
O O10 0.010222 0.580265 0.184629
#
# Coordination Sequence:
#
# PCOD9439769 Si02
#       5
#     8   8   4   8   4
#     4  10  23  43  69 100 149 190 249 305 389 452
#     4  10  26  47  75 109 151 207 265 324 380 456
#     4  12  24  38  72 107 149 192 244 308 393 467
#     4  10  23  44  69 100 150 188 251 304 392 446
#     4  12  24  40  70 111 147 192 244 316 389 475
#
# _framework density 31.320851000000001
#
# number of rings (size 3 to 8) (size 9 to 14) (size 15 to 20)
#    1.500    0.000    0.000    4.500    3.500    2.000 
#    0.000    0.000    0.000    0.000    0.000    0.000 
#    0.000    0.000    0.000    0.000    0.000    0.000 
#
# Total GULP energy -179126.615788 kJ/mol
# GULP energy per Si atom -5597.706743 kJ/mol
# Density = 3.124956 g / cm^3
# Si number density = 31.320851 Si / 1000 Ang^3
#
#
#
# Elastic Constant Matrix: (Units=GPa)
#
#
# Indices 1 2 3 4 5 6 
#
# 1 337.7160 138.3148 110.0791 0.0000 0.0000 0.0000
# 2 138.3148 137.8800 72.8092 0.0000 0.0000 0.0000
# 3 110.0791 72.8092 367.2391 0.0000 0.0000 0.0000
# 4 0.0000 0.0000 0.0000 65.3950 0.0000 0.0000
# 5 0.0000 0.0000 0.0000 0.0000 74.7094 0.0000
# 6 0.0000 0.0000 0.0000 0.0000 0.0000 84.3565
#
#
#
# Elastic Compliance Matrix: (Units=1/GPa)
#
#
# Indices 1 2 3 4 5 6 
#
# 1 0.005134 -0.004844 -0.000578 0.000000 0.000000 0.000000
# 2 -0.004844 0.012672 -0.001060 0.000000 0.000000 0.000000
# 3 -0.000578 -0.001060 0.003107 0.000000 0.000000 0.000000
# 4 0.000000 0.000000 0.000000 0.015292 0.000000 0.000000
# 5 0.000000 0.000000 0.000000 0.000000 0.013385 0.000000
# 6 0.000000 0.000000 0.000000 0.000000 0.000000 0.011854
#
#
# Mechanical properties :
#
#
# Convention : Reuss Voigt Hill
#
# Bulk Modulus (GPa) = 125.84356 165.02680 145.43518
# Shear Modulus (GPa) = 64.88540 79.66766 72.27653
#
# Velocity S-wave (km/s) = 4.55646 5.04888 4.80898
# Velocity P-wave (km/s) = 8.24305 9.31621 8.79601
#
# Compressibility (1/GPa) = 0.00794637
#
# Stress axis : x y z
#
# Youngs Moduli (GPa) = 194.79226 78.91208 321.89573
#
# Poissons Ratio (x) = 0.38229 0.18617
# Poissons Ratio (y) = 0.94366 0.34131
# Poissons Ratio (z) = 0.11266 0.08367
#
# Static dielectric constant tensor:
#      x y z
#    x 2.741830 0.000000 0.000000 
#    y 0.000000 2.199380 0.000000 
#    z 0.000000 0.000000 2.765250 
# 
# From -- ./inp_files/25990.got.cif
#   From: 2010.05.17/outbox.cif.g08.bks.cpg/sg57_13_cif.got.tgz:25990.got - 2010.06.03 13:58:18.
