data_PCOD9439649
_publ_section_title
;
Structure prediction by ZEFSAII (Michael W. Deem and Ramdas Pophale) SiO2 
 PCOD9439649
Probable space group: P B C M
;
_chemical_formula_sum "Si O2"
_cell_formula_units_Z 32
_cell_length_a 13.150631
_cell_length_b 10.949196
_cell_length_c 8.766889
_cell_angle_alpha 90.000000
_cell_angle_beta 90.000000
_cell_angle_gamma 90.000000
_cell_volume 1262.334145
_symmetry_space_group_name_H-M "P B C M"
_symmetry_group_IT_number 57
_symmetry_cell_setting 'orthorhombic'
loop_
_space_group_symop_operation_xyz
x,y,z
-x,-y,1/2+z
x,1/2-y,-z
-x,1/2+y,1/2-z
-x,-y,-z
x,y,1/2-z
-x,1/2+y,z
x,1/2-y,1/2+z
loop_
_atom_site_type_symbol
_atom_site_label
_atom_site_fract_x
_atom_site_fract_y
_atom_site_fract_z
Si Si1 0.416025 0.688214 0.750000
Si Si2 0.109836 0.836270 0.750000
Si Si3 0.570362 0.464581 0.750000
Si Si4 0.036277 0.390810 0.250000
Si Si5 0.271481 0.907559 0.499938
Si Si6 0.840418 0.857180 0.574292
O O1 0.490211 0.572669 0.750000
O O2 0.467026 0.822285 0.750000
O O3 0.338148 0.673162 0.611849
O O4 0.183903 0.851396 0.606150
O O5 0.058120 0.703321 0.750000
O O6 0.037897 0.959114 0.750000
O O7 0.645221 0.472396 0.892926
O O8 0.082064 0.369622 0.426472
O O9 0.214249 0.015195 0.413613
O O10 0.771530 0.750000 0.500000
O O11 0.866833 0.820838 0.750000
#
# Coordination Sequence:
#
# PCOD9439649 Si02
#       6
#     4   4   4   4   8   8
#     4  12  24  47  76 117 160 204 266 328 403 495
#     4   9  22  48  80 109 158 212 270 333 411 467
#     4  11  26  44  76 113 162 204 260 327 408 485
#     4  10  22  47  74 111 158 206 272 344 390 481
#     4  10  23  46  74 107 157 211 265 321 406 491
#     4  11  22  43  78 109 151 208 269 333 396 472
#
# _framework density 25.349865999999999
#
# number of rings (size 3 to 8) (size 9 to 14) (size 15 to 20)
#    0.000    1.500    2.500    2.250    0.000    2.000 
#    2.250   17.500    0.000    0.000    0.000    0.000 
#    0.000    0.000    0.000    0.000    0.000    0.000 
#
# Total GULP energy -178488.697150 kJ/mol
# GULP energy per Si atom -5577.771786 kJ/mol
# Density = 2.529217 g / cm^3
# Si number density = 25.349866 Si / 1000 Ang^3
#
#
#
# Elastic Constant Matrix: (Units=GPa)
#
#
# Indices 1 2 3 4 5 6 
#
# 1 99.0416 103.9531 60.1399 0.0000 0.0000 0.0000
# 2 103.9531 193.2306 89.9162 0.0000 0.0000 0.0000
# 3 60.1399 89.9162 228.2541 0.0000 0.0000 0.0000
# 4 0.0000 0.0000 0.0000 50.0042 0.0000 0.0000
# 5 0.0000 0.0000 0.0000 0.0000 -46.3805 0.0000
# 6 0.0000 0.0000 0.0000 0.0000 0.0000 55.5026
#
#
#
# Elastic Compliance Matrix: (Units=1/GPa)
#
#
# Indices 1 2 3 4 5 6 
#
# 1 0.023599 -0.012002 -0.001490 0.000000 0.000000 0.000000
# 2 -0.012002 0.012441 -0.001739 0.000000 0.000000 0.000000
# 3 -0.001490 -0.001739 0.005458 0.000000 0.000000 0.000000
# 4 0.000000 0.000000 0.000000 0.019998 0.000000 0.000000
# 5 0.000000 0.000000 0.000000 0.000000 -0.021561 0.000000
# 6 0.000000 0.000000 0.000000 0.000000 0.000000 0.018017
#
#
# Mechanical properties :
#
#
# Convention : Reuss Voigt Hill
#
# Bulk Modulus (GPa) = 90.60262 114.28275 102.44269
# Shear Modulus (GPa) = 54.29238 29.59304 41.94271
#
# Velocity S-wave (km/s) = 4.63290 3.42041 4.07203
# Velocity P-wave (km/s) = 8.02725 7.79609 7.91251
#
# Compressibility (1/GPa) = 0.01103721
#
# Stress axis : x y z
#
# Youngs Moduli (GPa) = 42.37466 80.37809 183.20183
#
# Poissons Ratio (x) = 0.96474 0.27291
# Poissons Ratio (y) = 0.50860 0.31851
# Poissons Ratio (z) = 0.06312 0.13974
#
# Static dielectric constant tensor:
#      x y z
#    x 1.969920 0.000000 0.000000 
#    y 0.000000 2.169800 0.000000 
#    z 0.000000 0.000000 2.385510 
# 
# From -- ./inp_files/4153.got.cif
#   From: 2010.05.17/outbox.cif.g08.bks.cpg/sg57_3_cif.got.tgz:4153.got - 2010.06.03 13:58:18.
