data_PCOD9439685
_publ_section_title
;
Structure prediction by ZEFSAII (Michael W. Deem and Ramdas Pophale) SiO2 
 PCOD9439685
Probable space group: P B C M
;
_chemical_formula_sum "Si O2"
_cell_formula_units_Z 40
_cell_length_a 5.204546
_cell_length_b 13.166291
_cell_length_c 26.293304
_cell_angle_alpha 90.000000
_cell_angle_beta 90.000000
_cell_angle_gamma 90.000000
_cell_volume 1801.737276
_symmetry_space_group_name_H-M "P B C M"
_symmetry_group_IT_number 57
_symmetry_cell_setting 'orthorhombic'
loop_
_space_group_symop_operation_xyz
x,y,z
-x,-y,1/2+z
x,1/2-y,-z
-x,1/2+y,1/2-z
-x,-y,-z
x,y,1/2-z
-x,1/2+y,z
x,1/2-y,1/2+z
loop_
_atom_site_type_symbol
_atom_site_label
_atom_site_fract_x
_atom_site_fract_y
_atom_site_fract_z
Si Si1 0.971530 0.838354 0.587433
Si Si2 0.448537 0.635685 0.845139
Si Si3 0.468700 0.970211 0.923057
Si Si4 0.046640 0.264997 0.306708
Si Si5 0.599571 0.689173 0.951635
O O1 0.968009 0.816641 0.647879
O O2 0.885483 0.731971 0.560857
O O3 0.228398 0.896189 0.572916
O O4 0.734853 0.911400 0.571737
O O5 0.511899 0.524560 0.867091
O O6 0.680992 0.679063 0.812404
O O7 0.179052 0.654140 0.818597
O O8 0.451222 0.701721 0.897932
O O9 0.418822 0.068675 0.958272
O O10 0.014750 0.223722 0.250000
O O11 0.502495 0.750000 0.000000
#
# Coordination Sequence:
#
# PCOD9439685 Si02
#       5
#     8   8   8   8   8
#     4  11  22  41  65  92 132 171 211 272 320 379
#     4   9  21  40  60  90 127 160 205 267 312 375
#     4  10  23  40  64  93 132 163 216 259 323 382
#     4  11  21  40  66  89 121 169 213 261 329 382
#     4   9  22  41  66  96 132 178 215 267 328 388
#
# _framework density 22.200797999999999
#
# number of rings (size 3 to 8) (size 9 to 14) (size 15 to 20)
#    1.200    0.800    0.000    4.200    0.000    1.600 
#    0.000   20.000    0.000    0.000    0.000    0.000 
#    0.000    0.000    0.000    0.000    0.000    0.000 
#
# Total GULP energy -223209.256481 kJ/mol
# GULP energy per Si atom -5580.231412 kJ/mol
# Density = 2.215027 g / cm^3
# Si number density = 22.200798 Si / 1000 Ang^3
#
#
#
# Elastic Constant Matrix: (Units=GPa)
#
#
# Indices 1 2 3 4 5 6 
#
# 1 147.6357 60.8353 27.4546 0.0000 0.0000 0.0000
# 2 60.8353 109.2905 21.1108 0.0000 0.0000 0.0000
# 3 27.4546 21.1108 124.5846 0.0000 0.0000 0.0000
# 4 0.0000 0.0000 0.0000 20.2266 0.0000 0.0000
# 5 0.0000 0.0000 0.0000 0.0000 10.7332 0.0000
# 6 0.0000 0.0000 0.0000 0.0000 0.0000 31.9574
#
#
#
# Elastic Compliance Matrix: (Units=1/GPa)
#
#
# Indices 1 2 3 4 5 6 
#
# 1 0.008950 -0.004757 -0.001166 0.000000 0.000000 0.000000
# 2 -0.004757 0.011988 -0.000983 0.000000 0.000000 0.000000
# 3 -0.001166 -0.000983 0.008450 0.000000 0.000000 0.000000
# 4 0.000000 0.000000 0.000000 0.049440 0.000000 0.000000
# 5 0.000000 0.000000 0.000000 0.000000 0.093169 0.000000
# 6 0.000000 0.000000 0.000000 0.000000 0.000000 0.031292
#
#
# Mechanical properties :
#
#
# Convention : Reuss Voigt Hill
#
# Bulk Modulus (GPa) = 64.20183 66.70134 65.45159
# Shear Modulus (GPa) = 22.49279 30.72410 26.60845
#
# Velocity S-wave (km/s) = 3.18646 3.72414 3.46574
# Velocity P-wave (km/s) = 6.52070 6.97152 6.74987
#
# Compressibility (1/GPa) = 0.01557588
#
# Stress axis : x y z
#
# Youngs Moduli (GPa) = 111.72602 83.41905 118.33928
#
# Poissons Ratio (x) = 0.39681 0.13803
# Poissons Ratio (y) = 0.53147 0.11633
# Poissons Ratio (z) = 0.13031 0.08200
#
# Static dielectric constant tensor:
#      x y z
#    x 1.808140 0.000000 0.000000 
#    y 0.000000 1.856650 0.000000 
#    z 0.000000 0.000000 1.854660 
# 
# From -- ./inp_files/29057.got.cif
#   From: 2010.05.17/outbox.cif.g08.bks.cpg/sg57_15_cif.got.tgz:29057.got - 2010.06.03 13:58:18.
