data_PCOD9439922
_publ_section_title
;
Structure prediction by ZEFSAII (Michael W. Deem and Ramdas Pophale) SiO2 
 PCOD9439922
Probable space group: P B C M
;
_chemical_formula_sum "Si O2"
_cell_formula_units_Z 48
_cell_length_a 9.543925
_cell_length_b 14.169154
_cell_length_c 18.290837
_cell_angle_alpha 90.000000
_cell_angle_beta 90.000000
_cell_angle_gamma 90.000000
_cell_volume 2473.457872
_symmetry_space_group_name_H-M "P B C M"
_symmetry_group_IT_number 57
_symmetry_cell_setting 'orthorhombic'
loop_
_space_group_symop_operation_xyz
x,y,z
-x,-y,1/2+z
x,1/2-y,-z
-x,1/2+y,1/2-z
-x,-y,-z
x,y,1/2-z
-x,1/2+y,z
x,1/2-y,1/2+z
loop_
_atom_site_type_symbol
_atom_site_label
_atom_site_fract_x
_atom_site_fract_y
_atom_site_fract_z
Si Si1 0.599421 0.109534 0.572099
Si Si2 0.231324 0.618164 0.162382
Si Si3 0.465948 0.395258 0.915452
Si Si4 0.883956 0.587347 0.664080
Si Si5 0.106056 0.706904 0.924811
Si Si6 0.613414 0.719125 0.835098
O O1 0.504254 0.122389 0.499965
O O2 0.751836 0.150359 0.556300
O O3 0.526575 0.167737 0.636682
O O4 0.599108 0.998996 0.590480
O O5 0.241988 0.626908 0.250000
O O6 0.386532 0.608968 0.128110
O O7 0.149328 0.521041 0.145357
O O8 0.152118 0.707128 0.127720
O O9 0.370393 0.313412 0.882449
O O10 0.923351 0.591616 0.750000
O O11 0.740678 0.646652 0.655380
O O12 0.000324 0.636979 0.615231
O O13 0.047804 0.750000 0.000000
O O14 0.602157 0.743576 0.750000
#
# Coordination Sequence:
#
# PCOD9439922 Si02
#       6
#     8   8   8   8   8   8
#     4  11  23  40  63  94 129 157 210 263 313 374
#     4  11  22  42  66  90 126 170 209 262 322 367
#     4  11  22  39  65  94 126 166 207 263 315 375
#     4  10  25  44  61  91 132 169 212 262 316 375
#     4  12  24  42  65  98 127 168 215 258 317 388
#     4  11  22  39  64  92 123 166 215 259 311 371
#
# _framework density 19.406030000000001
#
# number of rings (size 3 to 8) (size 9 to 14) (size 15 to 20)
#    0.000    1.000    5.000    1.500    0.000    4.667 
#    0.000    1.667    0.000    0.000    0.000    0.000 
#    0.000    0.000    0.000    0.000    0.000    0.000 
#
# Total GULP energy -268451.795021 kJ/mol
# GULP energy per Si atom -5592.745730 kJ/mol
# Density = 1.936186 g / cm^3
# Si number density = 19.406030 Si / 1000 Ang^3
#
#
#
# Elastic Constant Matrix: (Units=GPa)
#
#
# Indices 1 2 3 4 5 6 
#
# 1 22.9455 9.3777 6.0947 0.0000 0.0000 0.0000
# 2 9.3777 116.8395 23.4729 0.0000 0.0000 0.0000
# 3 6.0947 23.4729 34.2622 0.0000 0.0000 0.0000
# 4 0.0000 0.0000 0.0000 30.8254 0.0000 0.0000
# 5 0.0000 0.0000 0.0000 0.0000 24.7282 0.0000
# 6 0.0000 0.0000 0.0000 0.0000 0.0000 28.8093
#
#
#
# Elastic Compliance Matrix: (Units=1/GPa)
#
#
# Indices 1 2 3 4 5 6 
#
# 1 0.046312 -0.002391 -0.006600 0.000000 0.000000 0.000000
# 2 -0.002391 0.010048 -0.006459 0.000000 0.000000 0.000000
# 3 -0.006600 -0.006459 0.034786 0.000000 0.000000 0.000000
# 4 0.000000 0.000000 0.000000 0.032441 0.000000 0.000000
# 5 0.000000 0.000000 0.000000 0.000000 0.040440 0.000000
# 6 0.000000 0.000000 0.000000 0.000000 0.000000 0.034711
#
#
# Mechanical properties :
#
#
# Convention : Reuss Voigt Hill
#
# Bulk Modulus (GPa) = 16.59861 27.99310 22.29586
# Shear Modulus (GPa) = 20.02255 25.87937 22.95096
#
# Velocity S-wave (km/s) = 3.21560 3.65577 3.44273
# Velocity P-wave (km/s) = 4.72850 5.68118 5.22659
#
# Compressibility (1/GPa) = 0.06024600
#
# Stress axis : x y z
#
# Youngs Moduli (GPa) = 21.59278 99.52031 28.74759
#
# Poissons Ratio (x) = 0.23797 0.18973
# Poissons Ratio (y) = 0.05163 0.18567
# Poissons Ratio (z) = 0.14251 0.64277
#
# Static dielectric constant tensor:
#      x y z
#    x 1.644770 0.000000 0.000000 
#    y 0.000000 1.672820 0.000000 
#    z 0.000000 0.000000 1.668080 
# 
# From -- ./inp_files/20939.got.cif
#   From: 2010.05.17/outbox.cif.g08.bks.cpg/sg57_11_cif.got.tgz:20939.got - 2010.06.03 13:58:18.
