data_PCOD9439964
_publ_section_title
;
Structure prediction by ZEFSAII (Michael W. Deem and Ramdas Pophale) SiO2 
 PCOD9439964
Probable space group: P B C M
;
_chemical_formula_sum "Si O2"
_cell_formula_units_Z 28
_cell_length_a 6.575516
_cell_length_b 14.204223
_cell_length_c 13.415622
_cell_angle_alpha 90.000000
_cell_angle_beta 90.000000
_cell_angle_gamma 90.000000
_cell_volume 1253.020377
_symmetry_space_group_name_H-M "P B C M"
_symmetry_group_IT_number 57
_symmetry_cell_setting 'orthorhombic'
loop_
_space_group_symop_operation_xyz
x,y,z
-x,-y,1/2+z
x,1/2-y,-z
-x,1/2+y,1/2-z
-x,-y,-z
x,y,1/2-z
-x,1/2+y,z
x,1/2-y,1/2+z
loop_
_atom_site_type_symbol
_atom_site_label
_atom_site_fract_x
_atom_site_fract_y
_atom_site_fract_z
Si Si1 0.982703 0.346709 0.750000
Si Si2 0.877376 0.866828 0.250000
Si Si3 0.692637 0.312715 0.582408
Si Si4 0.267407 0.504910 0.750000
Si Si5 0.482114 0.125274 0.896460
O O1 0.023000 0.235650 0.750000
O O2 0.199447 0.397570 0.750000
O O3 0.841410 0.367652 0.654167
O O4 0.739603 0.878999 0.348910
O O5 0.052964 0.942513 0.250000
O O6 0.816314 0.250000 0.500000
O O7 0.569733 0.228591 0.635939
O O8 0.534370 0.370935 0.513977
O O9 0.391220 0.542999 0.655775
#
# Coordination Sequence:
#
# PCOD9439964 Si02
#       5
#     4   4   8   4   8
#     4  12  21  36  69  93 113 169 206 243 313 361
#     4  11  18  41  64  84 118 166 201 238 318 359
#     4   8  18  40  61  78 124 156 196 257 296 341
#     4  11  21  37  61  93 131 151 203 255 295 362
#     4   8  19  40  58  83 124 158 194 258 292 347
#
# _framework density 22.346005000000002
#
# number of rings (size 3 to 8) (size 9 to 14) (size 15 to 20)
#    1.714    0.571    2.857    0.857    0.000    1.143 
#   25.714    1.429    0.000    0.000    0.000    0.000 
#    0.000    0.000    0.000    0.000    0.000    0.000 
#
# Total GULP energy -155988.771892 kJ/mol
# GULP energy per Si atom -5571.027568 kJ/mol
# Density = 2.229514 g / cm^3
# Si number density = 22.346005 Si / 1000 Ang^3
#
#
#
# Elastic Constant Matrix: (Units=GPa)
#
#
# Indices 1 2 3 4 5 6 
#
# 1 63.9638 6.0576 20.5252 0.0000 0.0000 0.0000
# 2 6.0576 46.5452 18.0119 0.0000 0.0000 0.0000
# 3 20.5252 18.0119 111.7327 0.0000 0.0000 0.0000
# 4 0.0000 0.0000 0.0000 5.2047 0.0000 0.0000
# 5 0.0000 0.0000 0.0000 0.0000 -2.1856 0.0000
# 6 0.0000 0.0000 0.0000 0.0000 0.0000 26.1667
#
#
#
# Elastic Compliance Matrix: (Units=1/GPa)
#
#
# Indices 1 2 3 4 5 6 
#
# 1 0.016661 -0.001049 -0.002891 0.000000 0.000000 0.000000
# 2 -0.001049 0.022980 -0.003512 0.000000 0.000000 0.000000
# 3 -0.002891 -0.003512 0.010047 0.000000 0.000000 0.000000
# 4 0.000000 0.000000 0.000000 0.192134 0.000000 0.000000
# 5 0.000000 0.000000 0.000000 0.000000 -0.457551 0.000000
# 6 0.000000 0.000000 0.000000 0.000000 0.000000 0.038216
#
#
# Mechanical properties :
#
#
# Convention : Reuss Voigt Hill
#
# Bulk Modulus (GPa) = 28.74963 34.60348 31.67656
# Shear Modulus (GPa) = -33.10981 17.68030 -7.71476
#
# Velocity S-wave (km/s) = -3.85345 2.81589 -1.86008
# Velocity P-wave (km/s) = 2.62776 5.10796 3.09727
#
# Compressibility (1/GPa) = 0.03478305
#
# Stress axis : x y z
#
# Youngs Moduli (GPa) = 60.02020 43.51607 99.53017
#
# Poissons Ratio (x) = 0.04567 0.28779
# Poissons Ratio (y) = 0.06299 0.34952
# Poissons Ratio (z) = 0.17355 0.15282
#
# Static dielectric constant tensor:
#      x y z
#    x 1.777510 0.000000 0.000000 
#    y 0.000000 1.836810 0.000000 
#    z 0.000000 0.000000 1.893790 
# 
# From -- ./inp_files/14678.got.cif
#   From: 2010.05.17/outbox.cif.g08.bks.cpg/sg57_8_cif.got.tgz:14678.got - 2010.06.03 13:58:18.
