data_PCOD9439571
_publ_section_title
;
Structure prediction by ZEFSAII (Michael W. Deem and Ramdas Pophale) SiO2 
 PCOD9439571
Probable space group: P B C M
;
_chemical_formula_sum "Si O2"
_cell_formula_units_Z 40
_cell_length_a 15.046416
_cell_length_b 10.390936
_cell_length_c 10.910296
_cell_angle_alpha 90.000000
_cell_angle_beta 90.000000
_cell_angle_gamma 90.000000
_cell_volume 1705.784910
_symmetry_space_group_name_H-M "P B C M"
_symmetry_group_IT_number 57
_symmetry_cell_setting 'orthorhombic'
loop_
_space_group_symop_operation_xyz
x,y,z
-x,-y,1/2+z
x,1/2-y,-z
-x,1/2+y,1/2-z
-x,-y,-z
x,y,1/2-z
-x,1/2+y,z
x,1/2-y,1/2+z
loop_
_atom_site_type_symbol
_atom_site_label
_atom_site_fract_x
_atom_site_fract_y
_atom_site_fract_z
Si Si1 0.633270 0.627706 0.250000
Si Si2 0.557066 0.164009 0.250000
Si Si3 0.266234 0.472503 0.511326
Si Si4 0.335686 0.092792 0.750000
Si Si5 0.058122 0.719950 0.379474
Si Si6 0.361217 0.750000 0.000000
Si Si7 0.089871 0.063386 0.613261
O O1 0.533059 0.577480 0.250000
O O2 0.690282 0.589325 0.131518
O O3 0.606612 0.778402 0.250000
O O4 0.629622 0.051132 0.250000
O O5 0.578111 0.239229 0.376854
O O6 0.294583 0.400642 0.386463
O O7 0.301869 0.619705 0.507892
O O8 0.160022 0.453473 0.496018
O O9 0.113568 0.750000 0.500000
O O10 0.104477 0.744656 0.250000
O O11 0.034735 0.569819 0.384143
O O12 0.973705 0.813822 0.387313
O O13 0.134213 0.064799 0.750000
#
# Coordination Sequence:
#
# PCOD9439571 Si02
#       7
#     4   4   8   4   8   4   8
#     4  12  27  42  71 110 138 185 245 286 357 428
#     4  10  25  44  73 102 144 181 239 296 339 428
#     4  11  24  46  69 103 145 186 237 294 359 417
#     4  10  24  44  70 100 142 190 226 296 368 404
#     4  10  22  42  68  99 133 181 239 282 358 412
#     4  10  24  44  72 104 138 194 236 284 360 420
#     4  10  22  45  72 100 140 184 235 297 346 423
#
# _framework density 23.449615000000001
#
# number of rings (size 3 to 8) (size 9 to 14) (size 15 to 20)
#    0.000    1.600    1.000    1.800    7.000    3.200 
#    3.600    0.000    0.000    0.000    0.000    0.000 
#    0.000    0.000    0.000    0.000    0.000    0.000 
#
# Total GULP energy -222868.689157 kJ/mol
# GULP energy per Si atom -5571.717229 kJ/mol
# Density = 2.339624 g / cm^3
# Si number density = 23.449615 Si / 1000 Ang^3
#
#
#
# Elastic Constant Matrix: (Units=GPa)
#
#
# Indices 1 2 3 4 5 6 
#
# 1 79.4826 5.2375 61.4513 0.0000 0.0000 0.0000
# 2 5.2375 76.7335 35.6140 0.0000 0.0000 0.0000
# 3 61.4513 35.6140 214.0874 0.0000 0.0000 0.0000
# 4 0.0000 0.0000 0.0000 27.6205 0.0000 0.0000
# 5 0.0000 0.0000 0.0000 0.0000 30.5435 0.0000
# 6 0.0000 0.0000 0.0000 0.0000 0.0000 16.6263
#
#
#
# Elastic Compliance Matrix: (Units=1/GPa)
#
#
# Indices 1 2 3 4 5 6 
#
# 1 0.016262 0.001145 -0.004858 0.000000 0.000000 0.000000
# 2 0.001145 0.014203 -0.002691 0.000000 0.000000 0.000000
# 3 -0.004858 -0.002691 0.006513 0.000000 0.000000 0.000000
# 4 0.000000 0.000000 0.000000 0.036205 0.000000 0.000000
# 5 0.000000 0.000000 0.000000 0.000000 0.032740 0.000000
# 6 0.000000 0.000000 0.000000 0.000000 0.000000 0.060146
#
#
# Mechanical properties :
#
#
# Convention : Reuss Voigt Hill
#
# Bulk Modulus (GPa) = 41.37552 63.87879 52.62715
# Shear Modulus (GPa) = 26.74726 32.82478 29.78602
#
# Velocity S-wave (km/s) = 3.38098 3.74545 3.56787
# Velocity P-wave (km/s) = 5.73795 6.78266 6.28206
#
# Compressibility (1/GPa) = 0.02416888
#
# Stress axis : x y z
#
# Youngs Moduli (GPa) = 61.49270 70.40717 153.53380
#
# Poissons Ratio (x) = -0.08061 0.74591
# Poissons Ratio (y) = -0.07040 0.41321
# Poissons Ratio (z) = 0.29875 0.18949
#
# Static dielectric constant tensor:
#      x y z
#    x 1.961670 0.000000 0.000000 
#    y 0.000000 1.893920 0.000000 
#    z 0.000000 0.000000 1.992210 
# 
# From -- ./inp_files/14058.got.cif
#   From: 2010.05.17/outbox.cif.g08.bks.cpg/sg57_8_cif.got.tgz:14058.got - 2010.06.03 13:58:18.
