data_PCOD9439232
_publ_section_title
;
Structure prediction by ZEFSAII (Michael W. Deem and Ramdas Pophale) SiO2 
 PCOD9439232
Probable space group: P B C M
;
_chemical_formula_sum "Si O2"
_cell_formula_units_Z 40
_cell_length_a 14.399350
_cell_length_b 8.488544
_cell_length_c 16.079335
_cell_angle_alpha 90.000000
_cell_angle_beta 90.000000
_cell_angle_gamma 90.000000
_cell_volume 1965.369335
_symmetry_space_group_name_H-M "P B C M"
_symmetry_group_IT_number 57
_symmetry_cell_setting 'orthorhombic'
loop_
_space_group_symop_operation_xyz
x,y,z
-x,-y,1/2+z
x,1/2-y,-z
-x,1/2+y,1/2-z
-x,-y,-z
x,y,1/2-z
-x,1/2+y,z
x,1/2-y,1/2+z
loop_
_atom_site_type_symbol
_atom_site_label
_atom_site_fract_x
_atom_site_fract_y
_atom_site_fract_z
Si Si1 0.399235 0.978992 0.343864
Si Si2 0.776946 0.439258 0.587920
Si Si3 0.572155 0.346852 0.585419
Si Si4 0.805498 0.061585 0.597726
Si Si5 0.075463 0.434797 0.750000
Si Si6 0.873033 0.930011 0.250000
O O1 0.407043 0.037279 0.250000
O O2 0.415190 0.790893 0.346918
O O3 0.295330 0.005132 0.376395
O O4 0.478803 0.059014 0.398387
O O5 0.664960 0.452077 0.584060
O O6 0.796821 0.251981 0.598955
O O7 0.820416 0.485504 0.498604
O O8 0.816159 0.529784 0.666846
O O9 0.570385 0.250000 0.500000
O O10 0.878751 0.008813 0.666850
O O11 0.966283 0.466307 0.750000
O O12 0.097636 0.250896 0.750000
#
# Coordination Sequence:
#
# PCOD9439232 Si02
#       6
#     8   8   8   8   4   4
#     4  11  22  37  59  94 129 180 215 267 318 381
#     4  10  22  43  69  98 127 182 218 277 328 398
#     4  11  22  39  61  93 133 177 225 262 324 381
#     4  10  21  43  69  93 135 173 222 269 339 385
#     4  12  26  48  69 100 131 168 213 284 332 412
#     4  12  28  44  71 100 127 168 219 274 346 400
#
# _framework density 20.352406999999999
#
# number of rings (size 3 to 8) (size 9 to 14) (size 15 to 20)
#    0.000    1.200    5.000    3.000    5.600    3.200 
#    0.000    0.000    0.000    0.000    0.000    0.000 
#    0.000    0.000    0.000    0.000    0.000    0.000 
#
# Total GULP energy -223601.612172 kJ/mol
# GULP energy per Si atom -5590.040304 kJ/mol
# Density = 2.030608 g / cm^3
# Si number density = 20.352407 Si / 1000 Ang^3
#
#
#
# Elastic Constant Matrix: (Units=GPa)
#
#
# Indices 1 2 3 4 5 6 
#
# 1 76.1054 12.8916 59.1542 0.0000 0.0000 0.0000
# 2 12.8916 27.6032 28.0654 0.0000 0.0000 0.0000
# 3 59.1542 28.0654 161.9806 0.0000 0.0000 0.0000
# 4 0.0000 0.0000 0.0000 33.9503 0.0000 0.0000
# 5 0.0000 0.0000 0.0000 0.0000 -0.6746 0.0000
# 6 0.0000 0.0000 0.0000 0.0000 0.0000 33.6714
#
#
#
# Elastic Compliance Matrix: (Units=1/GPa)
#
#
# Indices 1 2 3 4 5 6 
#
# 1 0.018452 -0.002144 -0.006367 0.000000 0.000000 0.000000
# 2 -0.002144 0.044224 -0.006879 0.000000 0.000000 0.000000
# 3 -0.006367 -0.006879 0.009691 0.000000 0.000000 0.000000
# 4 0.000000 0.000000 0.000000 0.029455 0.000000 0.000000
# 5 0.000000 0.000000 0.000000 0.000000 -1.482283 0.000000
# 6 0.000000 0.000000 0.000000 0.000000 0.000000 0.029699
#
#
# Mechanical properties :
#
#
# Convention : Reuss Voigt Hill
#
# Bulk Modulus (GPa) = 24.04694 51.76796 37.90745
# Shear Modulus (GPa) = -3.82813 24.42794 10.29991
#
# Velocity S-wave (km/s) = -1.37295 3.46822 2.25206
# Velocity P-wave (km/s) = 3.05411 6.44430 5.04265
#
# Compressibility (1/GPa) = 0.04158533
#
# Stress axis : x y z
#
# Youngs Moduli (GPa) = 54.19563 22.61235 103.19183
#
# Poissons Ratio (x) = 0.04848 0.65702
# Poissons Ratio (y) = 0.11620 0.70990
# Poissons Ratio (z) = 0.34506 0.15556
#
# Static dielectric constant tensor:
#      x y z
#    x 1.693190 0.000000 0.000000 
#    y 0.000000 1.722940 0.000000 
#    z 0.000000 0.000000 1.745960 
# 
# From -- ./inp_files/18292.got.cif
#   From: 2010.05.17/outbox.cif.g08.bks.cpg/sg57_10_cif.got.tgz:18292.got - 2010.06.03 13:58:18.
