data_PCOD9439241
_publ_section_title
;
Structure prediction by ZEFSAII (Michael W. Deem and Ramdas Pophale) SiO2 
 PCOD9439241
Probable space group: P B C M
;
_chemical_formula_sum "Si O2"
_cell_formula_units_Z 48
_cell_length_a 13.173109
_cell_length_b 9.933622
_cell_length_c 16.401759
_cell_angle_alpha 90.000000
_cell_angle_beta 90.000000
_cell_angle_gamma 90.000000
_cell_volume 2146.279817
_symmetry_space_group_name_H-M "P B C M"
_symmetry_group_IT_number 57
_symmetry_cell_setting 'orthorhombic'
loop_
_space_group_symop_operation_xyz
x,y,z
-x,-y,1/2+z
x,1/2-y,-z
-x,1/2+y,1/2-z
-x,-y,-z
x,y,1/2-z
-x,1/2+y,z
x,1/2-y,1/2+z
loop_
_atom_site_type_symbol
_atom_site_label
_atom_site_fract_x
_atom_site_fract_y
_atom_site_fract_z
Si Si1 0.716584 0.495898 0.418837
Si Si2 0.666291 0.227522 0.158950
Si Si3 0.732633 0.563936 0.890699
Si Si4 0.072099 0.028855 0.342514
Si Si5 0.057060 0.197063 0.591715
Si Si6 0.440268 0.279985 0.903574
O O1 0.707154 0.337517 0.404296
O O2 0.734911 0.534659 0.512294
O O3 0.810283 0.546477 0.365166
O O4 0.614701 0.575851 0.395297
O O5 0.686002 0.279224 0.250000
O O6 0.546125 0.218705 0.142514
O O7 0.713911 0.080039 0.149647
O O8 0.839434 0.634363 0.872198
O O9 0.639708 0.666338 0.874880
O O10 0.058477 0.983883 0.250000
O O11 0.022373 0.173634 0.357332
O O12 0.025701 0.919407 0.403228
O O13 0.074677 0.250000 0.500000
O O14 0.458915 0.250000 0.000000
#
# Coordination Sequence:
#
# PCOD9439241 Si02
#       6
#     8   8   8   8   8   8
#     4  11  23  45  69  98 134 176 233 281 338 399
#     4  12  27  40  62 103 142 181 222 276 346 408
#     4  11  23  45  73  99 129 180 236 282 330 401
#     4  12  27  45  71 104 143 178 217 287 356 405
#     4  12  25  49  74 104 133 180 237 280 334 417
#     4  10  21  44  70  97 130 175 235 283 333 399
#
# _framework density 22.364280000000001
#
# number of rings (size 3 to 8) (size 9 to 14) (size 15 to 20)
#    0.000    0.667    3.333    4.500    2.333    7.333 
#    0.000    0.000    0.000    0.000    0.000    0.000 
#    0.000    0.000    0.000    0.000    0.000    0.000 
#
# Total GULP energy -268753.552881 kJ/mol
# GULP energy per Si atom -5599.032352 kJ/mol
# Density = 2.231338 g / cm^3
# Si number density = 22.364280 Si / 1000 Ang^3
#
#
#
# Elastic Constant Matrix: (Units=GPa)
#
#
# Indices 1 2 3 4 5 6 
#
# 1 39.3793 12.7093 11.0926 0.0000 0.0000 0.0000
# 2 12.7093 109.9010 21.6821 0.0000 0.0000 0.0000
# 3 11.0926 21.6821 37.1145 0.0000 0.0000 0.0000
# 4 0.0000 0.0000 0.0000 20.2775 0.0000 0.0000
# 5 0.0000 0.0000 0.0000 0.0000 -17.3766 0.0000
# 6 0.0000 0.0000 0.0000 0.0000 0.0000 27.0777
#
#
#
# Elastic Compliance Matrix: (Units=1/GPa)
#
#
# Indices 1 2 3 4 5 6 
#
# 1 0.028039 -0.001796 -0.007331 0.000000 0.000000 0.000000
# 2 -0.001796 0.010399 -0.005538 0.000000 0.000000 0.000000
# 3 -0.007331 -0.005538 0.032370 0.000000 0.000000 0.000000
# 4 0.000000 0.000000 0.000000 0.049316 0.000000 0.000000
# 5 0.000000 0.000000 0.000000 0.000000 -0.057549 0.000000
# 6 0.000000 0.000000 0.000000 0.000000 0.000000 0.036931
#
#
# Mechanical properties :
#
#
# Convention : Reuss Voigt Hill
#
# Bulk Modulus (GPa) = 24.10946 30.81808 27.46377
# Shear Modulus (GPa) = 35.04761 15.38977 25.21869
#
# Velocity S-wave (km/s) = 3.96299 2.62609 3.36167
# Velocity P-wave (km/s) = 5.63419 4.79636 5.23207
#
# Compressibility (1/GPa) = 0.04147749
#
# Stress axis : x y z
#
# Youngs Moduli (GPa) = 35.66495 96.15859 30.89260
#
# Poissons Ratio (x) = 0.17272 0.22647
# Poissons Ratio (y) = 0.06406 0.17110
# Poissons Ratio (z) = 0.26145 0.53257
#
# Static dielectric constant tensor:
#      x y z
#    x 1.790150 0.000000 0.000000 
#    y 0.000000 1.803360 0.000000 
#    z 0.000000 0.000000 1.802240 
# 
# From -- ./inp_files/22432.got.cif
#   From: 2010.05.17/outbox.cif.g08.bks.cpg/sg57_12_cif.got.tgz:22432.got - 2010.06.03 13:58:18.
