data_PCOD9439869
_publ_section_title
;
Structure prediction by ZEFSAII (Michael W. Deem and Ramdas Pophale) SiO2 
 PCOD9439869
Probable space group: P B C M
;
_chemical_formula_sum "Si O2"
_cell_formula_units_Z 32
_cell_length_a 4.809153
_cell_length_b 31.828221
_cell_length_c 8.099510
_cell_angle_alpha 90.000000
_cell_angle_beta 90.000000
_cell_angle_gamma 90.000000
_cell_volume 1239.765952
_symmetry_space_group_name_H-M "P B C M"
_symmetry_group_IT_number 57
_symmetry_cell_setting 'orthorhombic'
loop_
_space_group_symop_operation_xyz
x,y,z
-x,-y,1/2+z
x,1/2-y,-z
-x,1/2+y,1/2-z
-x,-y,-z
x,y,1/2-z
-x,1/2+y,z
x,1/2-y,1/2+z
loop_
_atom_site_type_symbol
_atom_site_label
_atom_site_fract_x
_atom_site_fract_y
_atom_site_fract_z
Si Si1 0.647677 0.653438 0.940911
Si Si2 0.733401 0.419996 0.569994
Si Si3 0.839508 0.204556 0.443131
Si Si4 0.967691 0.949439 0.250000
Si Si5 0.469521 0.493543 0.750000
O O1 0.688416 0.642355 0.750000
O O2 0.488500 0.616119 0.032860
O O3 0.932214 0.669127 0.019612
O O4 0.434365 0.692366 0.956062
O O5 0.869570 0.412045 0.750000
O O6 0.937430 0.425741 0.415759
O O7 0.565469 0.463427 0.600124
O O8 0.944035 0.250000 0.500000
O O9 0.774308 0.205170 0.250000
O O10 0.150476 0.992774 0.250000
O O11 0.651483 0.964043 0.250000
#
# Coordination Sequence:
#
# PCOD9439869 Si02
#       5
#     8   8   8   4   4
#     4  12  25  47  70 103 142 184 231 286 347 412
#     4  10  24  43  68  99 132 181 224 281 343 407
#     4  12  26  46  73 104 140 182 231 283 346 413
#     4  12  22  48  60 102 129 180 219 292 330 414
#     4  10  26  40  72  90 139 170 233 274 350 398
#
# _framework density 25.811326000000001
#
# number of rings (size 3 to 8) (size 9 to 14) (size 15 to 20)
#    0.750    0.000    1.250    6.750    0.000    4.000 
#    0.000    0.000    0.000    0.000    0.000    0.000 
#    0.000    0.000    0.000    0.000    0.000    0.000 
#
# Total GULP energy -179683.401002 kJ/mol
# GULP energy per Si atom -5615.106281 kJ/mol
# Density = 2.575258 g / cm^3
# Si number density = 25.811326 Si / 1000 Ang^3
#
#
#
# Elastic Constant Matrix: (Units=GPa)
#
#
# Indices 1 2 3 4 5 6 
#
# 1 91.9705 11.6596 17.2460 0.0000 0.0000 0.0000
# 2 11.6596 107.3404 38.6484 0.0000 0.0000 0.0000
# 3 17.2460 38.6484 194.5398 0.0000 0.0000 0.0000
# 4 0.0000 0.0000 0.0000 50.7304 0.0000 0.0000
# 5 0.0000 0.0000 0.0000 0.0000 26.6879 0.0000
# 6 0.0000 0.0000 0.0000 0.0000 0.0000 43.3427
#
#
#
# Elastic Compliance Matrix: (Units=1/GPa)
#
#
# Indices 1 2 3 4 5 6 
#
# 1 0.011141 -0.000920 -0.000805 0.000000 0.000000 0.000000
# 2 -0.000920 0.010110 -0.001927 0.000000 0.000000 0.000000
# 3 -0.000805 -0.001927 0.005594 0.000000 0.000000 0.000000
# 4 0.000000 0.000000 0.000000 0.019712 0.000000 0.000000
# 5 0.000000 0.000000 0.000000 0.000000 0.037470 0.000000
# 6 0.000000 0.000000 0.000000 0.000000 0.000000 0.023072
#
#
# Mechanical properties :
#
#
# Convention : Reuss Voigt Hill
#
# Bulk Modulus (GPa) = 51.17454 58.77317 54.97385
# Shear Modulus (GPa) = 41.35070 45.90532 43.62801
#
# Velocity S-wave (km/s) = 4.00689 4.22180 4.11574
# Velocity P-wave (km/s) = 6.42466 6.82528 6.62800
#
# Compressibility (1/GPa) = 0.01954097
#
# Stress axis : x y z
#
# Youngs Moduli (GPa) = 89.76143 98.91277 178.74733
#
# Poissons Ratio (x) = 0.09104 0.14385
# Poissons Ratio (y) = 0.08261 0.34443
# Poissons Ratio (z) = 0.07224 0.19060
#
# Static dielectric constant tensor:
#      x y z
#    x 1.932260 0.000000 0.000000 
#    y 0.000000 2.063680 0.000000 
#    z 0.000000 0.000000 2.006110 
# 
# From -- ./inp_files/797.got.cif
#   From: 2010.05.17/outbox.cif.g08.bks.cpg/sg57_1_cif.got.tgz:797.got - 2010.06.03 13:58:18.
