data_PCOD9439063
_publ_section_title
;
Structure prediction by ZEFSAII (Michael W. Deem and Ramdas Pophale) SiO2 
 PCOD9439063
Probable space group: P B C M
;
_chemical_formula_sum "Si O2"
_cell_formula_units_Z 64
_cell_length_a 14.644703
_cell_length_b 25.784273
_cell_length_c 8.669198
_cell_angle_alpha 90.000000
_cell_angle_beta 90.000000
_cell_angle_gamma 90.000000
_cell_volume 3273.515347
_symmetry_space_group_name_H-M "P B C M"
_symmetry_group_IT_number 57
_symmetry_cell_setting 'orthorhombic'
loop_
_space_group_symop_operation_xyz
x,y,z
-x,-y,1/2+z
x,1/2-y,-z
-x,1/2+y,1/2-z
-x,-y,-z
x,y,1/2-z
-x,1/2+y,z
x,1/2-y,1/2+z
loop_
_atom_site_type_symbol
_atom_site_label
_atom_site_fract_x
_atom_site_fract_y
_atom_site_fract_z
Si Si1 0.879674 0.900154 0.934761
Si Si2 0.918030 0.099534 0.934997
Si Si3 0.406739 0.692500 0.435429
Si Si4 0.237326 0.306424 0.065980
Si Si5 0.800380 0.192150 0.064241
Si Si6 0.220248 0.992528 0.435289
Si Si7 0.594439 0.521340 0.566686
Si Si8 0.410577 0.135954 0.435695
O O1 0.875192 0.894450 0.750000
O O2 0.823447 0.951887 0.977292
O O3 0.834279 0.850016 0.012076
O O4 0.983471 0.906649 0.988403
O O5 0.927833 0.099649 0.750000
O O6 0.850232 0.052579 0.978581
O O7 0.871118 0.152286 0.991835
O O8 0.423396 0.750000 0.500000
O O9 0.408600 0.695411 0.250000
O O10 0.303904 0.676635 0.480044
O O11 0.488329 0.654712 0.483181
O O12 0.241475 0.304552 0.250000
O O13 0.213846 0.250000 0.000000
O O14 0.334990 0.324599 0.998908
O O15 0.807402 0.192184 0.250000
O O16 0.814612 0.250000 0.000000
O O17 0.231843 0.991436 0.250000
O O18 0.318699 0.987876 0.513126
O O19 0.500000 0.500000 0.500000
O O20 0.590019 0.522470 0.750000
O O21 0.608464 0.579135 0.501135
O O22 0.405116 0.134454 0.250000
#
# Coordination Sequence:
#
# PCOD9439063 Si02
#       8
#     8   8   8   8   8   8   8   8
#     4  11  23  43  68  94 127 167 208 265 322 380
#     4  11  24  41  65  97 127 163 210 262 316 385
#     4   9  20  36  58  86 119 158 201 250 300 362
#     4  12  25  42  65  96 130 173 219 269 327 388
#     4  10  21  40  62  90 125 165 209 258 316 373
#     4  10  23  44  68  95 130 167 210 260 316 381
#     4  12  26  42  64  94 130 172 214 261 317 376
#     4  11  22  40  63  92 129 166 210 263 316 382
#
# _framework density 19.550847999999998
#
# number of rings (size 3 to 8) (size 9 to 14) (size 15 to 20)
#    0.000    1.250    1.250    4.500    1.750    4.500 
#    0.000    2.500    0.000    0.000    0.000    0.000 
#    0.000    0.000    0.000    0.000    0.000    0.000 
#
# Total GULP energy -358011.390216 kJ/mol
# GULP energy per Si atom -5593.927972 kJ/mol
# Density = 1.950635 g / cm^3
# Si number density = 19.550848 Si / 1000 Ang^3
#
#
#
# Elastic Constant Matrix: (Units=GPa)
#
#
# Indices 1 2 3 4 5 6 
#
# 1 134.0465 45.8976 43.9027 0.0000 0.0000 0.0000
# 2 45.8976 84.5972 32.4141 0.0000 0.0000 0.0000
# 3 43.9027 32.4141 74.1473 0.0000 0.0000 0.0000
# 4 0.0000 0.0000 0.0000 28.1127 0.0000 0.0000
# 5 0.0000 0.0000 0.0000 0.0000 30.4822 0.0000
# 6 0.0000 0.0000 0.0000 0.0000 0.0000 81.3750
#
#
#
# Elastic Compliance Matrix: (Units=1/GPa)
#
#
# Indices 1 2 3 4 5 6 
#
# 1 0.010212 -0.003872 -0.004354 0.000000 0.000000 0.000000
# 2 -0.003872 0.015667 -0.004556 0.000000 0.000000 0.000000
# 3 -0.004354 -0.004556 0.018056 0.000000 0.000000 0.000000
# 4 0.000000 0.000000 0.000000 0.035571 0.000000 0.000000
# 5 0.000000 0.000000 0.000000 0.000000 0.032806 0.000000
# 6 0.000000 0.000000 0.000000 0.000000 0.000000 0.012289
#
#
# Mechanical properties :
#
#
# Convention : Reuss Voigt Hill
#
# Bulk Modulus (GPa) = 54.43355 59.69110 57.06233
# Shear Modulus (GPa) = 31.99187 39.36575 35.67881
#
# Velocity S-wave (km/s) = 4.04956 4.49208 4.27655
# Velocity P-wave (km/s) = 7.05463 7.58304 7.32360
#
# Compressibility (1/GPa) = 0.01837102
#
# Stress axis : x y z
#
# Youngs Moduli (GPa) = 97.92530 63.82692 55.38225
#
# Poissons Ratio (x) = 0.24715 0.24112
# Poissons Ratio (y) = 0.37919 0.25234
# Poissons Ratio (z) = 0.42634 0.29082
#
# Static dielectric constant tensor:
#      x y z
#    x 1.684420 0.000000 0.000000 
#    y 0.000000 1.654670 0.000000 
#    z 0.000000 0.000000 1.653410 
# 
# From -- ./inp_files/5706.got.cif
#   From: 2010.05.17/outbox.cif.g08.bks.cpg/sg57_3_cif.got.tgz:5706.got - 2010.06.03 13:58:18.
