data_PCOD9439082
_publ_section_title
;
Structure prediction by ZEFSAII (Michael W. Deem and Ramdas Pophale) SiO2 
 PCOD9439082
Probable space group: P B C M
;
_chemical_formula_sum "Si O2"
_cell_formula_units_Z 40
_cell_length_a 24.535426
_cell_length_b 8.692077
_cell_length_c 9.315585
_cell_angle_alpha 90.000000
_cell_angle_beta 90.000000
_cell_angle_gamma 90.000000
_cell_volume 1986.677168
_symmetry_space_group_name_H-M "P B C M"
_symmetry_group_IT_number 57
_symmetry_cell_setting 'orthorhombic'
loop_
_space_group_symop_operation_xyz
x,y,z
-x,-y,1/2+z
x,1/2-y,-z
-x,1/2+y,1/2-z
-x,-y,-z
x,y,1/2-z
-x,1/2+y,z
x,1/2-y,1/2+z
loop_
_atom_site_type_symbol
_atom_site_label
_atom_site_fract_x
_atom_site_fract_y
_atom_site_fract_z
Si Si1 0.378812 0.067956 0.023425
Si Si2 0.839552 0.583108 0.074350
Si Si3 0.576159 0.078533 0.250000
Si Si4 0.948395 0.581284 0.926886
Si Si5 0.270051 0.598720 0.911640
Si Si6 0.459570 0.933684 0.250000
O O1 0.320706 0.018378 0.085373
O O2 0.430004 0.016131 0.118125
O O3 0.380611 0.250000 0.000000
O O4 0.387192 0.966111 0.883328
O O5 0.847129 0.595508 0.250000
O O6 0.785464 0.485561 0.044009
O O7 0.831836 0.750000 0.000000
O O8 0.892226 0.512936 0.992815
O O9 0.555273 0.253449 0.250000
O O10 0.523321 0.967584 0.250000
O O11 0.949391 0.583126 0.750000
O O12 0.949044 0.750000 0.000000
O O13 0.000000 0.500000 0.000000
O O14 0.261613 0.651087 0.750000
O O15 0.282666 0.750000 0.000000
#
# Coordination Sequence:
#
# PCOD9439082 Si02
#       6
#     8   8   4   8   8   4
#     4  12  25  44  66  96 128 169 216 265 324 389
#     4  10  21  40  63  92 127 167 217 268 323 390
#     4  12  26  42  70  96 128 176 203 276 315 390
#     4  11  22  39  63  94 130 174 221 274 332 394
#     4  11  25  43  65  93 128 166 211 266 323 388
#     4  12  24  46  66  96 134 162 223 254 331 384
#
# _framework density 20.134122000000001
#
# number of rings (size 3 to 8) (size 9 to 14) (size 15 to 20)
#    0.000    0.800    1.000    8.400    1.400    2.400 
#    0.000    2.000    0.000    0.000    0.000    0.000 
#    0.000    0.000    0.000    0.000    0.000    0.000 
#
# Total GULP energy -223333.049311 kJ/mol
# GULP energy per Si atom -5583.326233 kJ/mol
# Density = 2.008830 g / cm^3
# Si number density = 20.134122 Si / 1000 Ang^3
#
#
#
# Elastic Constant Matrix: (Units=GPa)
#
#
# Indices 1 2 3 4 5 6 
#
# 1 117.2056 21.4897 27.0743 0.0000 0.0000 0.0000
# 2 21.4897 106.6315 17.5642 0.0000 0.0000 0.0000
# 3 27.0743 17.5642 112.4235 0.0000 0.0000 0.0000
# 4 0.0000 0.0000 0.0000 22.4295 0.0000 0.0000
# 5 0.0000 0.0000 0.0000 0.0000 32.0593 0.0000
# 6 0.0000 0.0000 0.0000 0.0000 0.0000 28.2976
#
#
#
# Elastic Compliance Matrix: (Units=1/GPa)
#
#
# Indices 1 2 3 4 5 6 
#
# 1 0.009275 -0.001541 -0.001993 0.000000 0.000000 0.000000
# 2 -0.001541 0.009882 -0.001173 0.000000 0.000000 0.000000
# 3 -0.001993 -0.001173 0.009558 0.000000 0.000000 0.000000
# 4 0.000000 0.000000 0.000000 0.044584 0.000000 0.000000
# 5 0.000000 0.000000 0.000000 0.000000 0.031192 0.000000
# 6 0.000000 0.000000 0.000000 0.000000 0.000000 0.035339
#
#
# Mechanical properties :
#
#
# Convention : Reuss Voigt Hill
#
# Bulk Modulus (GPa) = 51.80900 52.05743 51.93321
# Shear Modulus (GPa) = 32.11782 34.56611 33.34196
#
# Velocity S-wave (km/s) = 3.99832 4.14791 4.07380
# Velocity P-wave (km/s) = 6.86318 6.98940 6.92658
#
# Compressibility (1/GPa) = 0.01930167
#
# Stress axis : x y z
#
# Youngs Moduli (GPa) = 107.81789 101.19600 104.62336
#
# Poissons Ratio (x) = 0.15594 0.20850
# Poissons Ratio (y) = 0.16614 0.12270
# Poissons Ratio (z) = 0.21487 0.11868
#
# Static dielectric constant tensor:
#      x y z
#    x 1.714150 0.000000 0.000000 
#    y 0.000000 1.699440 0.000000 
#    z 0.000000 0.000000 1.698030 
# 
# From -- ./inp_files/9004.got.cif
#   From: 2010.05.17/outbox.cif.g08.bks.cpg/sg57_5_cif.got.tgz:9004.got - 2010.06.03 13:58:18.
