data_PCOD9439720
_publ_section_title
;
Structure prediction by ZEFSAII (Michael W. Deem and Ramdas Pophale) SiO2 
 PCOD9439720
Probable space group: P B C M
;
_chemical_formula_sum "Si O2"
_cell_formula_units_Z 64
_cell_length_a 14.841737
_cell_length_b 25.294855
_cell_length_c 8.689015
_cell_angle_alpha 90.000000
_cell_angle_beta 90.000000
_cell_angle_gamma 90.000000
_cell_volume 3262.026409
_symmetry_space_group_name_H-M "P B C M"
_symmetry_group_IT_number 57
_symmetry_cell_setting 'orthorhombic'
loop_
_space_group_symop_operation_xyz
x,y,z
-x,-y,1/2+z
x,1/2-y,-z
-x,1/2+y,1/2-z
-x,-y,-z
x,y,1/2-z
-x,1/2+y,z
x,1/2-y,1/2+z
loop_
_atom_site_type_symbol
_atom_site_label
_atom_site_fract_x
_atom_site_fract_y
_atom_site_fract_z
Si Si1 0.014408 0.667184 0.928845
Si Si2 0.823630 0.804607 0.566533
Si Si3 0.521606 0.941551 0.566251
Si Si4 0.788165 0.307381 0.565823
Si Si5 0.271476 0.086573 0.434905
Si Si6 0.234600 0.978637 0.928565
Si Si7 0.351294 0.606919 0.930965
Si Si8 0.944933 0.047928 0.929341
O O1 0.016512 0.683811 0.750000
O O2 0.005152 0.603657 0.934858
O O3 0.110771 0.681176 0.003120
O O4 0.926782 0.689984 0.010656
O O5 0.786086 0.750000 0.500000
O O6 0.822485 0.802336 0.750000
O O7 0.767557 0.856598 0.518634
O O8 0.512317 0.944538 0.750000
O O9 0.623134 0.922946 0.529779
O O10 0.450479 0.899044 0.501084
O O11 0.500000 0.000000 0.500000
O O12 0.762057 0.250000 0.500000
O O13 0.789965 0.307133 0.750000
O O14 0.715632 0.350661 0.508209
O O15 0.259436 0.081008 0.250000
O O16 0.221337 0.038914 0.520954
O O17 0.258997 0.974579 0.750000
O O18 0.308545 0.950655 0.033875
O O19 0.143586 0.947814 0.966869
O O20 0.354111 0.616623 0.750000
O O21 0.920954 0.037829 0.750000
O O22 0.000000 0.000000 0.000000
#
# Coordination Sequence:
#
# PCOD9439720 Si02
#       8
#     8   8   8   8   8   8   8   8
#     4  11  23  40  62  90 124 166 212 261 310 369
#     4  11  24  43  65  90 122 165 212 263 313 365
#     4  11  22  39  65  97 129 166 209 258 318 382
#     4  12  25  43  67  94 126 167 214 263 316 377
#     4  10  23  42  65  92 127 165 208 259 316 380
#     4  12  23  36  60  91 126 164 205 254 317 378
#     4  12  24  41  63  92 130 167 208 259 313 375
#     4  11  23  37  56  84 125 167 210 257 313 376
#
# _framework density 19.619706999999998
#
# number of rings (size 3 to 8) (size 9 to 14) (size 15 to 20)
#    0.000    0.750    2.500    6.000    0.000    5.000 
#    0.000    0.625    0.000    1.500    0.000    0.000 
#    0.000    0.000    0.000    0.000    0.000    0.000 
#
# Total GULP energy -357906.383090 kJ/mol
# GULP energy per Si atom -5592.287236 kJ/mol
# Density = 1.957505 g / cm^3
# Si number density = 19.619707 Si / 1000 Ang^3
#
#
#
# Elastic Constant Matrix: (Units=GPa)
#
#
# Indices 1 2 3 4 5 6 
#
# 1 82.2023 39.0734 28.1963 0.0000 0.0000 0.0000
# 2 39.0734 128.9192 43.6138 0.0000 0.0000 0.0000
# 3 28.1963 43.6138 96.6055 0.0000 0.0000 0.0000
# 4 0.0000 0.0000 0.0000 34.5874 0.0000 0.0000
# 5 0.0000 0.0000 0.0000 0.0000 25.3268 0.0000
# 6 0.0000 0.0000 0.0000 0.0000 0.0000 16.9564
#
#
#
# Elastic Compliance Matrix: (Units=1/GPa)
#
#
# Indices 1 2 3 4 5 6 
#
# 1 0.014789 -0.003567 -0.002706 0.000000 0.000000 0.000000
# 2 -0.003567 0.010015 -0.003480 0.000000 0.000000 0.000000
# 3 -0.002706 -0.003480 0.012713 0.000000 0.000000 0.000000
# 4 0.000000 0.000000 0.000000 0.028912 0.000000 0.000000
# 5 0.000000 0.000000 0.000000 0.000000 0.039484 0.000000
# 6 0.000000 0.000000 0.000000 0.000000 0.000000 0.058975
#
#
# Mechanical properties :
#
#
# Convention : Reuss Voigt Hill
#
# Bulk Modulus (GPa) = 55.52536 58.83265 57.17901
# Shear Modulus (GPa) = 26.26086 28.49703 27.37895
#
# Velocity S-wave (km/s) = 3.66251 3.81526 3.73967
# Velocity P-wave (km/s) = 6.80056 7.03277 6.91764
#
# Compressibility (1/GPa) = 0.01800979
#
# Stress axis : x y z
#
# Youngs Moduli (GPa) = 67.61911 99.84747 78.66250
#
# Poissons Ratio (x) = 0.35613 0.21287
# Poissons Ratio (y) = 0.24118 0.27378
# Poissons Ratio (z) = 0.18299 0.34752
#
# Static dielectric constant tensor:
#      x y z
#    x 1.567270 0.000000 0.000000 
#    y 0.000000 1.687140 0.000000 
#    z 0.000000 0.000000 1.661270 
# 
# From -- ./inp_files/5670.got.cif
#   From: 2010.05.17/outbox.cif.g08.bks.cpg/sg57_3_cif.got.tgz:5670.got - 2010.06.03 13:58:18.
