data_PCOD9439407
_publ_section_title
;
Structure prediction by ZEFSAII (Michael W. Deem and Ramdas Pophale) SiO2 
 PCOD9439407
Probable space group: P B C M
;
_chemical_formula_sum "Si O2"
_cell_formula_units_Z 48
_cell_length_a 6.540218
_cell_length_b 12.939677
_cell_length_c 27.303730
_cell_angle_alpha 90.000000
_cell_angle_beta 90.000000
_cell_angle_gamma 90.000000
_cell_volume 2310.668484
_symmetry_space_group_name_H-M "P B C M"
_symmetry_group_IT_number 57
_symmetry_cell_setting 'orthorhombic'
loop_
_space_group_symop_operation_xyz
x,y,z
-x,-y,1/2+z
x,1/2-y,-z
-x,1/2+y,1/2-z
-x,-y,-z
x,y,1/2-z
-x,1/2+y,z
x,1/2-y,1/2+z
loop_
_atom_site_type_symbol
_atom_site_label
_atom_site_fract_x
_atom_site_fract_y
_atom_site_fract_z
Si Si1 0.511108 0.158244 0.966529
Si Si2 0.010580 0.039419 0.131131
Si Si3 0.715719 0.651227 0.867922
Si Si4 0.192550 0.467693 0.967905
Si Si5 0.335877 0.920135 0.193740
Si Si6 0.959913 0.222889 0.193076
O O1 0.401399 0.191488 0.916157
O O2 0.678605 0.070793 0.954486
O O3 0.599887 0.250000 0.000000
O O4 0.340493 0.104858 0.000857
O O5 0.872794 0.940389 0.117649
O O6 0.195184 0.001418 0.165442
O O7 0.105629 0.082757 0.081314
O O8 0.888955 0.123486 0.162575
O O9 0.547352 0.599381 0.833169
O O10 0.843149 0.733397 0.836127
O O11 0.000000 0.500000 0.000000
O O12 0.365312 0.950430 0.250000
O O13 0.208303 0.813002 0.192360
O O14 0.005244 0.199387 0.250000
#
# Coordination Sequence:
#
# PCOD9439407 Si02
#       6
#     8   8   8   8   8   8
#     4  11  24  41  64  92 126 164 206 253 310 366
#     4  11  22  41  64  89 127 163 203 255 313 364
#     4  11  22  41  63  90 124 162 206 254 308 365
#     4  11  23  42  62  94 127 160 209 254 301 376
#     4  10  22  40  62  89 123 158 204 256 305 367
#     4  10  23  40  62  91 120 158 207 253 305 369
#
# _framework density 20.773209000000001
#
# number of rings (size 3 to 8) (size 9 to 14) (size 15 to 20)
#    0.000    1.333    3.333    2.000    0.000    5.333 
#    0.000    1.667    0.000    0.000    0.000    0.000 
#    0.000    0.000    0.000    0.000    0.000    0.000 
#
# Total GULP energy -268316.050830 kJ/mol
# GULP energy per Si atom -5589.917726 kJ/mol
# Density = 2.072593 g / cm^3
# Si number density = 20.773209 Si / 1000 Ang^3
#
#
#
# Elastic Constant Matrix: (Units=GPa)
#
#
# Indices 1 2 3 4 5 6 
#
# 1 50.2235 -19.3656 17.9880 0.0000 0.0000 0.0000
# 2 -19.3656 20.1729 4.4159 0.0000 0.0000 0.0000
# 3 17.9880 4.4159 128.2719 0.0000 0.0000 0.0000
# 4 0.0000 0.0000 0.0000 32.2367 0.0000 0.0000
# 5 0.0000 0.0000 0.0000 0.0000 33.0468 0.0000
# 6 0.0000 0.0000 0.0000 0.0000 0.0000 9.8829
#
#
#
# Elastic Compliance Matrix: (Units=1/GPa)
#
#
# Indices 1 2 3 4 5 6 
#
# 1 0.036033 0.035968 -0.006291 0.000000 0.000000 0.000000
# 2 0.035968 0.085851 -0.007999 0.000000 0.000000 0.000000
# 3 -0.006291 -0.007999 0.008954 0.000000 0.000000 0.000000
# 4 0.000000 0.000000 0.000000 0.031021 0.000000 0.000000
# 5 0.000000 0.000000 0.000000 0.000000 0.030260 0.000000
# 6 0.000000 0.000000 0.000000 0.000000 0.000000 0.101185
#
#
# Mechanical properties :
#
#
# Convention : Reuss Voigt Hill
#
# Bulk Modulus (GPa) = 5.74075 22.74943 14.24509
# Shear Modulus (GPa) = 16.23308 28.07529 22.15418
#
# Velocity S-wave (km/s) = 2.79846 3.68028 3.26924
# Velocity P-wave (km/s) = 3.63475 5.38836 4.59597
#
# Compressibility (1/GPa) = 0.17419337
#
# Stress axis : x y z
#
# Youngs Moduli (GPa) = 27.75215 11.64803 111.68713
#
# Poissons Ratio (x) = -0.41896 0.70266
# Poissons Ratio (y) = -0.99820 0.89344
# Poissons Ratio (z) = 0.17460 0.09318
#
# Static dielectric constant tensor:
#      x y z
#    x 1.697820 0.000000 0.000000 
#    y 0.000000 1.771510 0.000000 
#    z 0.000000 0.000000 1.724220 
# 
# From -- ./inp_files/27947.got.cif
#   From: 2010.05.17/outbox.cif.g08.bks.cpg/sg57_14_cif.got.tgz:27947.got - 2010.06.03 13:58:18.
