data_PCOD9439399
_publ_section_title
;
Structure prediction by ZEFSAII (Michael W. Deem and Ramdas Pophale) SiO2 
 PCOD9439399
Probable space group: P B C M
;
_chemical_formula_sum "Si O2"
_cell_formula_units_Z 36
_cell_length_a 6.876447
_cell_length_b 19.057321
_cell_length_c 13.511816
_cell_angle_alpha 90.000000
_cell_angle_beta 90.000000
_cell_angle_gamma 90.000000
_cell_volume 1770.678328
_symmetry_space_group_name_H-M "P B C M"
_symmetry_group_IT_number 57
_symmetry_cell_setting 'orthorhombic'
loop_
_space_group_symop_operation_xyz
x,y,z
-x,-y,1/2+z
x,1/2-y,-z
-x,1/2+y,1/2-z
-x,-y,-z
x,y,1/2-z
-x,1/2+y,z
x,1/2-y,1/2+z
loop_
_atom_site_type_symbol
_atom_site_label
_atom_site_fract_x
_atom_site_fract_y
_atom_site_fract_z
Si Si1 0.077982 0.750000 0.500000
Si Si2 0.522465 0.930921 0.364714
Si Si3 0.232364 0.166501 0.369023
Si Si4 0.784130 0.985447 0.535127
Si Si5 0.566409 0.276501 0.365955
O O1 0.232782 0.716216 0.575667
O O2 0.939714 0.799453 0.565727
O O3 0.547984 0.947465 0.250000
O O4 0.662527 0.974790 0.434688
O O5 0.554480 0.848120 0.379638
O O6 0.307682 0.952028 0.400957
O O7 0.199996 0.172902 0.250000
O O8 0.242636 0.085597 0.401335
O O9 0.431041 0.209881 0.392237
O O10 0.000000 0.000000 0.500000
O O11 0.611530 0.270607 0.250000
#
# Coordination Sequence:
#
# PCOD9439399 Si02
#       5
#     4   8   8   8   8
#     4  12  20  36  62  90 120 156 202 250 302 360
#     4  10  22  40  61  86 118 159 204 251 306 365
#     4  11  24  40  61  92 127 162 205 258 313 372
#     4  11  23  40  61  88 123 162 203 253 311 374
#     4  10  22  40  61  86 118 156 199 249 301 357
#
# _framework density 20.331192000000001
#
# number of rings (size 3 to 8) (size 9 to 14) (size 15 to 20)
#    0.000    1.333    0.000    6.000    0.000    3.556 
#    0.000    5.556    0.000    0.000    0.000    0.000 
#    0.000    0.000    0.000    0.000    0.000    0.000 
#
# Total GULP energy -201102.160286 kJ/mol
# GULP energy per Si atom -5586.171119 kJ/mol
# Density = 2.028492 g / cm^3
# Si number density = 20.331192 Si / 1000 Ang^3
#
#
#
# Elastic Constant Matrix: (Units=GPa)
#
#
# Indices 1 2 3 4 5 6 
#
# 1 88.4251 20.3515 34.8030 0.0000 0.0000 0.0000
# 2 20.3515 94.9217 31.4181 0.0000 0.0000 0.0000
# 3 34.8030 31.4181 135.1630 0.0000 0.0000 0.0000
# 4 0.0000 0.0000 0.0000 34.9489 0.0000 0.0000
# 5 0.0000 0.0000 0.0000 0.0000 33.8829 0.0000
# 6 0.0000 0.0000 0.0000 0.0000 0.0000 26.5609
#
#
#
# Elastic Compliance Matrix: (Units=1/GPa)
#
#
# Indices 1 2 3 4 5 6 
#
# 1 0.012862 -0.001800 -0.002893 0.000000 0.000000 0.000000
# 2 -0.001800 0.011665 -0.002248 0.000000 0.000000 0.000000
# 3 -0.002893 -0.002248 0.008666 0.000000 0.000000 0.000000
# 4 0.000000 0.000000 0.000000 0.028613 0.000000 0.000000
# 5 0.000000 0.000000 0.000000 0.000000 0.029513 0.000000
# 6 0.000000 0.000000 0.000000 0.000000 0.000000 0.037649
#
#
# Mechanical properties :
#
#
# Convention : Reuss Voigt Hill
#
# Bulk Modulus (GPa) = 51.78590 54.62832 53.20711
# Shear Modulus (GPa) = 33.49215 34.54102 34.01659
#
# Velocity S-wave (km/s) = 4.06313 4.12626 4.09482
# Velocity P-wave (km/s) = 6.89482 7.04478 6.97020
#
# Compressibility (1/GPa) = 0.01931028
#
# Stress axis : x y z
#
# Youngs Moduli (GPa) = 77.74770 85.72660 115.39283
#
# Poissons Ratio (x) = 0.15431 0.33388
# Poissons Ratio (y) = 0.13994 0.25940
# Poissons Ratio (z) = 0.22496 0.19271
#
# Static dielectric constant tensor:
#      x y z
#    x 1.716550 0.000000 0.000000 
#    y 0.000000 1.727320 0.000000 
#    z 0.000000 0.000000 1.728670 
# 
# From -- ./inp_files/14879.got.cif
#   From: 2010.05.17/outbox.cif.g08.bks.cpg/sg57_8_cif.got.tgz:14879.got - 2010.06.03 13:58:18.
