data_PCOD9439301
_publ_section_title
;
Structure prediction by ZEFSAII (Michael W. Deem and Ramdas Pophale) SiO2 
 PCOD9439301
Probable space group: P B C M
;
_chemical_formula_sum "Si O2"
_cell_formula_units_Z 48
_cell_length_a 13.584613
_cell_length_b 19.975101
_cell_length_c 10.137699
_cell_angle_alpha 90.000000
_cell_angle_beta 90.000000
_cell_angle_gamma 90.000000
_cell_volume 2750.905344
_symmetry_space_group_name_H-M "P B C M"
_symmetry_group_IT_number 57
_symmetry_cell_setting 'orthorhombic'
loop_
_space_group_symop_operation_xyz
x,y,z
-x,-y,1/2+z
x,1/2-y,-z
-x,1/2+y,1/2-z
-x,-y,-z
x,y,1/2-z
-x,1/2+y,z
x,1/2-y,1/2+z
loop_
_atom_site_type_symbol
_atom_site_label
_atom_site_fract_x
_atom_site_fract_y
_atom_site_fract_z
Si Si1 0.062183 0.546131 0.901555
Si Si2 0.722384 0.005192 0.516138
Si Si3 0.752495 0.641933 0.594150
Si Si4 0.364571 0.939735 0.750000
Si Si5 0.485648 0.327163 0.750000
Si Si6 0.594355 0.750000 0.500000
Si Si7 0.581054 0.974932 0.750000
Si Si8 0.027268 0.191374 0.904282
O O1 0.036285 0.529470 0.750000
O O2 0.177495 0.534358 0.924163
O O3 0.032805 0.623089 0.923182
O O4 0.000000 0.500000 0.000000
O O5 0.693610 0.043495 0.382503
O O6 0.741905 0.927874 0.480326
O O7 0.634333 0.004676 0.622089
O O8 0.749631 0.628085 0.750000
O O9 0.665697 0.692424 0.556828
O O10 0.858610 0.674263 0.565122
O O11 0.409136 0.864713 0.750000
O O12 0.463781 0.985853 0.750000
O O13 0.466430 0.283252 0.880249
O O14 0.412943 0.392924 0.750000
O O15 0.021378 0.210655 0.750000
O O16 0.993598 0.250000 0.000000
#
# Coordination Sequence:
#
# PCOD9439301 Si02
#       8
#     8   8   8   4   4   4   4   8
#     4  11  24  39  63  96 132 165 208 261 313 376
#     4  12  21  40  64  92 129 159 206 261 319 370
#     4  11  20  32  57  92 122 161 194 249 315 373
#     4  10  24  41  64  89 120 164 210 257 318 389
#     4  10  24  37  59  89 119 158 205 254 323 379
#     4  12  20  36  58  88 128 158 202 262 312 382
#     4  10  22  38  59  94 121 156 209 259 317 374
#     4  10  22  39  56  85 127 162 205 246 304 374
#
# _framework density 17.448802000000001
#
# number of rings (size 3 to 8) (size 9 to 14) (size 15 to 20)
#    0.500    0.667    6.667    0.500    1.167    0.667 
#    1.500    0.833    1.833    0.000    0.000    0.000 
#    0.000    0.000    0.000    0.000    0.000    0.000 
#
# Total GULP energy -267890.901893 kJ/mol
# GULP energy per Si atom -5581.060456 kJ/mol
# Density = 1.740909 g / cm^3
# Si number density = 17.448802 Si / 1000 Ang^3
#
#
#
# Elastic Constant Matrix: (Units=GPa)
#
#
# Indices 1 2 3 4 5 6 
#
# 1 40.9774 24.1344 23.6385 0.0000 0.0000 0.0000
# 2 24.1344 87.4517 53.4327 0.0000 0.0000 0.0000
# 3 23.6385 53.4327 101.3094 0.0000 0.0000 0.0000
# 4 0.0000 0.0000 0.0000 22.8468 0.0000 0.0000
# 5 0.0000 0.0000 0.0000 0.0000 27.7384 0.0000
# 6 0.0000 0.0000 0.0000 0.0000 0.0000 19.6182
#
#
#
# Elastic Compliance Matrix: (Units=1/GPa)
#
#
# Indices 1 2 3 4 5 6 
#
# 1 0.030152 -0.005935 -0.003905 0.000000 0.000000 0.000000
# 2 -0.005935 0.018040 -0.008130 0.000000 0.000000 0.000000
# 3 -0.003905 -0.008130 0.015070 0.000000 0.000000 0.000000
# 4 0.000000 0.000000 0.000000 0.043770 0.000000 0.000000
# 5 0.000000 0.000000 0.000000 0.000000 0.036051 0.000000
# 6 0.000000 0.000000 0.000000 0.000000 0.000000 0.050973
#
#
# Mechanical properties :
#
#
# Convention : Reuss Voigt Hill
#
# Bulk Modulus (GPa) = 36.60092 48.01665 42.30879
# Shear Modulus (GPa) = 20.91144 22.60954 21.76049
#
# Velocity S-wave (km/s) = 3.46561 3.60358 3.53527
# Velocity P-wave (km/s) = 6.08569 6.70020 6.40033
#
# Compressibility (1/GPa) = 0.02732171
#
# Stress axis : x y z
#
# Youngs Moduli (GPa) = 33.16525 55.43178 66.35795
#
# Poissons Ratio (x) = 0.32900 0.25913
# Poissons Ratio (y) = 0.19684 0.53948
# Poissons Ratio (z) = 0.12951 0.45065
#
# Static dielectric constant tensor:
#      x y z
#    x 1.583700 0.000000 0.000000 
#    y 0.000000 1.574660 0.000000 
#    z 0.000000 0.000000 1.587410 
# 
# From -- ./inp_files/4967.got.cif
#   From: 2010.05.17/outbox.cif.g08.bks.cpg/sg57_3_cif.got.tgz:4967.got - 2010.06.03 13:58:18.
