data_PCOD9439366
_publ_section_title
;
Structure prediction by ZEFSAII (Michael W. Deem and Ramdas Pophale) SiO2 
 PCOD9439366
Probable space group: P B C M
;
_chemical_formula_sum "Si O2"
_cell_formula_units_Z 44
_cell_length_a 8.856212
_cell_length_b 19.020901
_cell_length_c 13.881581
_cell_angle_alpha 90.000000
_cell_angle_beta 90.000000
_cell_angle_gamma 90.000000
_cell_volume 2338.395792
_symmetry_space_group_name_H-M "P B C M"
_symmetry_group_IT_number 57
_symmetry_cell_setting 'orthorhombic'
loop_
_space_group_symop_operation_xyz
x,y,z
-x,-y,1/2+z
x,1/2-y,-z
-x,1/2+y,1/2-z
-x,-y,-z
x,y,1/2-z
-x,1/2+y,z
x,1/2-y,1/2+z
loop_
_atom_site_type_symbol
_atom_site_label
_atom_site_fract_x
_atom_site_fract_y
_atom_site_fract_z
Si Si1 0.507487 0.226240 0.596994
Si Si2 0.487214 0.846158 0.750000
Si Si3 0.325373 0.865678 0.250000
Si Si4 0.005280 0.798034 0.250000
Si Si5 0.875166 0.365370 0.750000
Si Si6 0.714372 0.977032 0.750000
Si Si7 0.056201 0.056941 0.079611
Si Si8 0.171564 0.319162 0.445627
O O1 0.588668 0.250000 0.500000
O O2 0.476491 0.295960 0.659354
O O3 0.605012 0.173428 0.658677
O O4 0.350293 0.189729 0.569840
O O5 0.307313 0.861338 0.750000
O O6 0.593480 0.913996 0.750000
O O7 0.149594 0.848457 0.250000
O O8 0.361919 0.947167 0.250000
O O9 0.907853 0.817290 0.157045
O O10 0.057820 0.715242 0.250000
O O11 0.934930 0.406493 0.846250
O O12 0.819844 0.972293 0.655052
O O13 0.130952 0.116458 0.013334
O O14 0.000000 0.000000 0.000000
O O15 0.116097 0.250000 0.500000
#
# Coordination Sequence:
#
# PCOD9439366 Si02
#       8
#     8   4   4   4   4   4   8   8
#     4  10  22  39  62  92 125 160 217 269 306 384
#     4  11  23  43  64  95 130 176 210 261 333 387
#     4  11  24  40  59  95 127 168 207 262 319 380
#     4  12  21  38  64  96 126 158 216 271 321 362
#     4  11  24  43  66  92 130 171 212 277 323 382
#     4  11  24  44  67  88 137 177 205 259 334 389
#     4  11  25  44  65  96 129 167 221 269 321 384
#     4  11  22  38  67  93 119 168 215 262 321 377
#
# _framework density 18.816319
#
# number of rings (size 3 to 8) (size 9 to 14) (size 15 to 20)
#    0.000    1.091    3.636    4.364    2.545    5.818 
#    0.000    2.727    0.000    0.000    0.000    0.000 
#    0.000    0.000    0.000    0.000    0.000    0.000 
#
# Total GULP energy -245662.702061 kJ/mol
# GULP energy per Si atom -5583.243229 kJ/mol
# Density = 1.877349 g / cm^3
# Si number density = 18.816319 Si / 1000 Ang^3
#
#
#
# Elastic Constant Matrix: (Units=GPa)
#
#
# Indices 1 2 3 4 5 6 
#
# 1 54.9664 0.9842 25.7413 0.0000 0.0000 0.0000
# 2 0.9842 87.4424 35.2693 0.0000 0.0000 0.0000
# 3 25.7413 35.2693 155.0604 0.0000 0.0000 0.0000
# 4 0.0000 0.0000 0.0000 0.8882 0.0000 0.0000
# 5 0.0000 0.0000 0.0000 0.0000 -105.4725 0.0000
# 6 0.0000 0.0000 0.0000 0.0000 0.0000 29.1506
#
#
#
# Elastic Compliance Matrix: (Units=1/GPa)
#
#
# Indices 1 2 3 4 5 6 
#
# 1 0.019843 0.001217 -0.003571 0.000000 0.000000 0.000000
# 2 0.001217 0.012666 -0.003083 0.000000 0.000000 0.000000
# 3 -0.003571 -0.003083 0.007743 0.000000 0.000000 0.000000
# 4 0.000000 0.000000 0.000000 1.125863 0.000000 0.000000
# 5 0.000000 0.000000 0.000000 0.000000 -0.009481 0.000000
# 6 0.000000 0.000000 0.000000 0.000000 0.000000 0.034305
#
#
# Mechanical properties :
#
#
# Convention : Reuss Voigt Hill
#
# Bulk Modulus (GPa) = 34.03841 46.82877 40.43359
# Shear Modulus (GPa) = 4.12676 0.61155 2.36915
#
# Velocity S-wave (km/s) = 1.48255 0.57072 1.12331
# Velocity P-wave (km/s) = 4.58908 5.03742 4.81847
#
# Compressibility (1/GPa) = 0.02937858
#
# Stress axis : x y z
#
# Youngs Moduli (GPa) = 50.39442 78.95227 129.14650
#
# Poissons Ratio (x) = -0.09608 0.46118
# Poissons Ratio (y) = -0.06133 0.39815
# Poissons Ratio (z) = 0.17996 0.24341
#
# Static dielectric constant tensor:
#      x y z
#    x 1.642930 0.000000 0.000000 
#    y 0.000000 1.680670 0.000000 
#    z 0.000000 0.000000 1.619690 
# 
# From -- ./inp_files/16278.got.cif
#   From: 2010.05.17/outbox.cif.g08.bks.cpg/sg57_9_cif.got.tgz:16278.got - 2010.06.03 13:58:18.
