data_PCOD9439138
_publ_section_title
;
Structure prediction by ZEFSAII (Michael W. Deem and Ramdas Pophale) SiO2 
 PCOD9439138
Probable space group: P B C M
;
_chemical_formula_sum "Si O2"
_cell_formula_units_Z 60
_cell_length_a 23.057276
_cell_length_b 5.181124
_cell_length_c 21.045064
_cell_angle_alpha 90.000000
_cell_angle_beta 90.000000
_cell_angle_gamma 90.000000
_cell_volume 2514.098190
_symmetry_space_group_name_H-M "P B C M"
_symmetry_group_IT_number 57
_symmetry_cell_setting 'orthorhombic'
loop_
_space_group_symop_operation_xyz
x,y,z
-x,-y,1/2+z
x,1/2-y,-z
-x,1/2+y,1/2-z
-x,-y,-z
x,y,1/2-z
-x,1/2+y,z
x,1/2-y,1/2+z
loop_
_atom_site_type_symbol
_atom_site_label
_atom_site_fract_x
_atom_site_fract_y
_atom_site_fract_z
Si Si1 0.815896 0.031145 0.325428
Si Si2 0.960616 0.713754 0.389979
Si Si3 0.476045 0.043540 0.071694
Si Si4 0.650420 0.804575 0.608041
Si Si5 0.315522 0.702133 0.320688
Si Si6 0.966495 0.693069 0.750000
Si Si7 0.127588 0.672155 0.930442
Si Si8 0.225909 0.138195 0.433553
O O1 0.830215 0.977581 0.250000
O O2 0.755134 0.193440 0.322011
O O3 0.870203 0.161609 0.364760
O O4 0.795560 0.790552 0.370287
O O5 0.941524 0.718726 0.316466
O O6 0.904386 0.602205 0.423237
O O7 0.991399 0.986895 0.402850
O O8 0.515450 0.264783 0.102578
O O9 0.410602 0.140334 0.075439
O O10 0.500000 0.000000 0.000000
O O11 0.659377 0.512597 0.631538
O O12 0.705510 0.868782 0.564781
O O13 0.660495 0.014816 0.663712
O O14 0.332574 0.623230 0.250000
O O15 0.023233 0.885991 0.750000
O O16 0.196431 0.638257 0.934394
O O17 0.106053 0.750000 0.000000
O O18 0.204197 0.250000 0.500000
#
# Coordination Sequence:
#
# PCOD9439138 Si02
#       8
#     8   8   8   8   8   4   8   8
#     4  10  23  43  65  99 138 182 230 281 345 423
#     4  10  24  43  66  94 128 180 229 280 344 410
#     4  10  22  40  59  93 131 170 222 279 324 398
#     4  11  22  40  68  96 135 182 218 275 349 411
#     4  10  21  40  67  99 134 175 230 278 336 414
#     4   8  16  38  62  90 124 160 222 280 326 392
#     4  12  25  43  67  98 142 175 227 292 345 418
#     4  11  24  42  66 101 141 181 223 284 360 414
#
# _framework density 23.865414999999999
#
# number of rings (size 3 to 8) (size 9 to 14) (size 15 to 20)
#    0.000    1.600    2.667    1.200    4.667    1.600 
#    4.800    0.000    0.000    8.000    0.000    0.000 
#    0.000    0.000    0.000    0.000    0.000    0.000 
#
# Total GULP energy -334490.587279 kJ/mol
# GULP energy per Si atom -5574.843121 kJ/mol
# Density = 2.381110 g / cm^3
# Si number density = 23.865415 Si / 1000 Ang^3
#
#
#
# Elastic Constant Matrix: (Units=GPa)
#
#
# Indices 1 2 3 4 5 6 
#
# 1 109.7436 15.7739 42.1723 0.0000 0.0000 0.0000
# 2 15.7739 86.7787 7.5907 0.0000 0.0000 0.0000
# 3 42.1723 7.5907 124.3751 0.0000 0.0000 0.0000
# 4 0.0000 0.0000 0.0000 23.7918 0.0000 0.0000
# 5 0.0000 0.0000 0.0000 0.0000 25.1479 0.0000
# 6 0.0000 0.0000 0.0000 0.0000 0.0000 41.3851
#
#
#
# Elastic Compliance Matrix: (Units=1/GPa)
#
#
# Indices 1 2 3 4 5 6 
#
# 1 0.010704 -0.001637 -0.003529 0.000000 0.000000 0.000000
# 2 -0.001637 0.011836 -0.000167 0.000000 0.000000 0.000000
# 3 -0.003529 -0.000167 0.009247 0.000000 0.000000 0.000000
# 4 0.000000 0.000000 0.000000 0.042031 0.000000 0.000000
# 5 0.000000 0.000000 0.000000 0.000000 0.039765 0.000000
# 6 0.000000 0.000000 0.000000 0.000000 0.000000 0.024163
#
#
# Mechanical properties :
#
#
# Convention : Reuss Voigt Hill
#
# Bulk Modulus (GPa) = 47.35008 50.21902 48.78455
# Shear Modulus (GPa) = 32.16405 35.08899 33.62652
#
# Velocity S-wave (km/s) = 3.67512 3.83859 3.75775
# Velocity P-wave (km/s) = 6.15567 6.38237 6.27004
#
# Compressibility (1/GPa) = 0.02111929
#
# Stress axis : x y z
#
# Youngs Moduli (GPa) = 93.42543 84.48981 108.14147
#
# Poissons Ratio (x) = 0.13830 0.38168
# Poissons Ratio (y) = 0.15293 0.01809
# Poissons Ratio (z) = 0.32974 0.01414
#
# Static dielectric constant tensor:
#      x y z
#    x 1.931080 0.000000 0.000000 
#    y 0.000000 1.115900 0.000000 
#    z 0.000000 0.000000 -4.593010 
# 
# From -- ./inp_files/25877.got.cif
#   From: 2010.05.17/outbox.cif.g08.bks.cpg/sg57_13_cif.got.tgz:25877.got - 2010.06.03 13:58:18.
