data_PCOD9439931
_publ_section_title
;
Structure prediction by ZEFSAII (Michael W. Deem and Ramdas Pophale) SiO2 
 PCOD9439931
Probable space group: P B C M
;
_chemical_formula_sum "Si O2"
_cell_formula_units_Z 32
_cell_length_a 9.500493
_cell_length_b 10.304172
_cell_length_c 15.154878
_cell_angle_alpha 90.000000
_cell_angle_beta 90.000000
_cell_angle_gamma 90.000000
_cell_volume 1483.582447
_symmetry_space_group_name_H-M "P B C M"
_symmetry_group_IT_number 57
_symmetry_cell_setting 'orthorhombic'
loop_
_space_group_symop_operation_xyz
x,y,z
-x,-y,1/2+z
x,1/2-y,-z
-x,1/2+y,1/2-z
-x,-y,-z
x,y,1/2-z
-x,1/2+y,z
x,1/2-y,1/2+z
loop_
_atom_site_type_symbol
_atom_site_label
_atom_site_fract_x
_atom_site_fract_y
_atom_site_fract_z
Si Si1 0.406578 0.442458 0.356766
Si Si2 0.898871 0.815757 0.152092
Si Si3 0.088809 0.467624 0.914766
Si Si4 0.649738 0.114968 0.978481
O O1 0.429181 0.463919 0.250000
O O2 0.253385 0.377543 0.367283
O O3 0.402510 0.562895 0.426087
O O4 0.527319 0.359755 0.406339
O O5 0.889855 0.761534 0.250000
O O6 0.014873 0.929767 0.150625
O O7 0.926327 0.814633 0.901556
O O8 0.248065 0.510386 0.933511
O O9 0.000000 0.500000 0.000000
O O10 0.726231 0.250000 0.000000
#
# Coordination Sequence:
#
# PCOD9439931 Si02
#       4
#     8   8   8   8
#     4  10  25  45  68  97 140 184 232 289 348 412
#     4  11  25  45  68 100 138 180 229 287 346 412
#     4  12  24  43  71 100 137 180 228 284 348 414
#     4  11  25  43  70 102 136 183 235 285 347 412
#
# _framework density 21.569412
#
# number of rings (size 3 to 8) (size 9 to 14) (size 15 to 20)
#    0.000    1.000    2.500    3.000    7.000    3.000 
#    0.000    0.000    0.000    0.000    0.000    0.000 
#    0.000    0.000    0.000    0.000    0.000    0.000 
#
# Total GULP energy -178262.797733 kJ/mol
# GULP energy per Si atom -5570.712429 kJ/mol
# Density = 2.152032 g / cm^3
# Si number density = 21.569412 Si / 1000 Ang^3
#
#
#
# Elastic Constant Matrix: (Units=GPa)
#
#
# Indices 1 2 3 4 5 6 
#
# 1 75.1544 17.2136 51.2272 0.0000 0.0000 0.0000
# 2 17.2136 95.9792 50.7502 0.0000 0.0000 0.0000
# 3 51.2272 50.7502 146.8413 0.0000 0.0000 0.0000
# 4 0.0000 0.0000 0.0000 26.3181 0.0000 0.0000
# 5 0.0000 0.0000 0.0000 0.0000 25.4537 0.0000
# 6 0.0000 0.0000 0.0000 0.0000 0.0000 14.7280
#
#
#
# Elastic Compliance Matrix: (Units=1/GPa)
#
#
# Indices 1 2 3 4 5 6 
#
# 1 0.017458 0.000109 -0.006128 0.000000 0.000000 0.000000
# 2 0.000109 0.012749 -0.004444 0.000000 0.000000 0.000000
# 3 -0.006128 -0.004444 0.010484 0.000000 0.000000 0.000000
# 4 0.000000 0.000000 0.000000 0.037997 0.000000 0.000000
# 5 0.000000 0.000000 0.000000 0.000000 0.039287 0.000000
# 6 0.000000 0.000000 0.000000 0.000000 0.000000 0.067898
#
#
# Mechanical properties :
#
#
# Convention : Reuss Voigt Hill
#
# Bulk Modulus (GPa) = 50.59525 61.81744 56.20635
# Shear Modulus (GPa) = 23.43148 26.55222 24.99185
#
# Velocity S-wave (km/s) = 3.29953 3.51239 3.40762
# Velocity P-wave (km/s) = 6.16634 6.72095 6.44961
#
# Compressibility (1/GPa) = 0.01976470
#
# Stress axis : x y z
#
# Youngs Moduli (GPa) = 57.28021 78.43513 95.38318
#
# Poissons Ratio (x) = -0.00857 0.58453
# Poissons Ratio (y) = -0.00626 0.42393
# Poissons Ratio (z) = 0.35102 0.34860
#
# Static dielectric constant tensor:
#      x y z
#    x 1.872070 0.000000 0.000000 
#    y 0.000000 1.849110 0.000000 
#    z 0.000000 0.000000 2.105380 
# 
# From -- ./inp_files/12437.got.cif
#   From: 2010.05.17/outbox.cif.g08.bks.cpg/sg57_7_cif.got.tgz:12437.got - 2010.06.03 13:58:18.
