data_PCOD9439349
_publ_section_title
;
Structure prediction by ZEFSAII (Michael W. Deem and Ramdas Pophale) SiO2 
 PCOD9439349
Probable space group: P B C M
;
_chemical_formula_sum "Si O2"
_cell_formula_units_Z 56
_cell_length_a 15.568435
_cell_length_b 21.455468
_cell_length_c 8.630882
_cell_angle_alpha 90.000000
_cell_angle_beta 90.000000
_cell_angle_gamma 90.000000
_cell_volume 2882.956762
_symmetry_space_group_name_H-M "P B C M"
_symmetry_group_IT_number 57
_symmetry_cell_setting 'orthorhombic'
loop_
_space_group_symop_operation_xyz
x,y,z
-x,-y,1/2+z
x,1/2-y,-z
-x,1/2+y,1/2-z
-x,-y,-z
x,y,1/2-z
-x,1/2+y,z
x,1/2-y,1/2+z
loop_
_atom_site_type_symbol
_atom_site_label
_atom_site_fract_x
_atom_site_fract_y
_atom_site_fract_z
Si Si1 0.722976 0.514906 0.432149
Si Si2 0.056708 0.316481 0.562837
Si Si3 0.138884 0.686805 0.065336
Si Si4 0.547094 0.184270 0.564184
Si Si5 0.700770 0.113597 0.065775
Si Si6 0.916987 0.539396 0.437592
Si Si7 0.554157 0.941215 0.434306
O O1 0.724622 0.527487 0.250000
O O2 0.682598 0.447560 0.468203
O O3 0.822211 0.515438 0.487356
O O4 0.653235 0.559210 0.511443
O O5 0.092847 0.250000 0.500000
O O6 0.060146 0.312730 0.750000
O O7 0.086745 0.386455 0.520587
O O8 0.957585 0.318578 0.506628
O O9 0.134880 0.690922 0.250000
O O10 0.201679 0.631370 0.026811
O O11 0.177165 0.750000 0.000000
O O12 0.514453 0.250000 0.500000
O O13 0.555516 0.186992 0.750000
O O14 0.638229 0.168598 0.485363
O O15 0.489311 0.124417 0.522186
O O16 0.692663 0.102263 0.250000
O O17 0.923392 0.535861 0.250000
O O18 0.000000 0.500000 0.500000
O O19 0.551847 0.947367 0.250000
O O20 0.500000 0.000000 0.500000
#
# Coordination Sequence:
#
# PCOD9439349 Si02
#       7
#     8   8   8   8   8   8   8
#     4  11  23  38  59  88 119 156 202 251 307 368
#     4   9  18  35  55  77 109 150 197 246 300 357
#     4   9  18  30  47  73 105 144 187 233 289 356
#     4  11  24  40  60  88 121 157 200 250 306 366
#     4  11  21  34  55  82 115 155 196 244 304 367
#     4  10  22  39  60  88 123 160 203 257 310 364
#     4  11  23  41  65  90 119 158 203 248 298 360
#
# _framework density 19.424503000000001
#
# number of rings (size 3 to 8) (size 9 to 14) (size 15 to 20)
#    0.000    1.714    1.429    3.000    0.000    6.857 
#    0.000    3.571    0.000    3.429    0.000    0.000 
#    0.000    0.000    0.000    0.000    0.000    0.000 
#
# Total GULP energy -312133.027768 kJ/mol
# GULP energy per Si atom -5573.804067 kJ/mol
# Density = 1.938029 g / cm^3
# Si number density = 19.424503 Si / 1000 Ang^3
#
#
#
# Elastic Constant Matrix: (Units=GPa)
#
#
# Indices 1 2 3 4 5 6 
#
# 1 92.8700 42.9050 20.1256 0.0000 0.0000 0.0000
# 2 42.9050 132.0942 27.8471 0.0000 0.0000 0.0000
# 3 20.1256 27.8471 19.1385 0.0000 0.0000 0.0000
# 4 0.0000 0.0000 0.0000 28.5429 0.0000 0.0000
# 5 0.0000 0.0000 0.0000 0.0000 24.7351 0.0000
# 6 0.0000 0.0000 0.0000 0.0000 0.0000 36.9818
#
#
#
# Elastic Compliance Matrix: (Units=1/GPa)
#
#
# Indices 1 2 3 4 5 6 
#
# 1 0.014351 -0.002135 -0.011985 0.000000 0.000000 0.000000
# 2 -0.002135 0.011237 -0.014106 0.000000 0.000000 0.000000
# 3 -0.011985 -0.014106 0.085379 0.000000 0.000000 0.000000
# 4 0.000000 0.000000 0.000000 0.035035 0.000000 0.000000
# 5 0.000000 0.000000 0.000000 0.000000 0.040428 0.000000
# 6 0.000000 0.000000 0.000000 0.000000 0.000000 0.027040
#
#
# Mechanical properties :
#
#
# Convention : Reuss Voigt Hill
#
# Bulk Modulus (GPa) = 18.34344 47.31755 32.83049
# Shear Modulus (GPa) = 17.35538 28.26697 22.81117
#
# Velocity S-wave (km/s) = 2.99235 3.81888 3.43060
# Velocity P-wave (km/s) = 4.62632 6.62251 5.71229
#
# Compressibility (1/GPa) = 0.05451540
#
# Stress axis : x y z
#
# Youngs Moduli (GPa) = 69.68024 88.98821 11.71251
#
# Poissons Ratio (x) = 0.18997 0.14038
# Poissons Ratio (y) = 0.14875 0.16522
# Poissons Ratio (z) = 0.83514 1.25527
#
# Static dielectric constant tensor:
#      x y z
#    x 1.709270 0.000000 0.000000 
#    y 0.000000 1.749640 0.000000 
#    z 0.000000 0.000000 1.654360 
# 
# From -- ./inp_files/5271.got.cif
#   From: 2010.05.17/outbox.cif.g08.bks.cpg/sg57_3_cif.got.tgz:5271.got - 2010.06.03 13:58:18.
