data_PCOD9439333
_publ_section_title
;
Structure prediction by ZEFSAII (Michael W. Deem and Ramdas Pophale) SiO2 
 PCOD9439333
Probable space group: P B C M
;
_chemical_formula_sum "Si O2"
_cell_formula_units_Z 36
_cell_length_a 5.299110
_cell_length_b 15.956987
_cell_length_c 17.649136
_cell_angle_alpha 90.000000
_cell_angle_beta 90.000000
_cell_angle_gamma 90.000000
_cell_volume 1492.372631
_symmetry_space_group_name_H-M "P B C M"
_symmetry_group_IT_number 57
_symmetry_cell_setting 'orthorhombic'
loop_
_space_group_symop_operation_xyz
x,y,z
-x,-y,1/2+z
x,1/2-y,-z
-x,1/2+y,1/2-z
-x,-y,-z
x,y,1/2-z
-x,1/2+y,z
x,1/2-y,1/2+z
loop_
_atom_site_type_symbol
_atom_site_label
_atom_site_fract_x
_atom_site_fract_y
_atom_site_fract_z
Si Si1 0.653779 0.336775 0.618032
Si Si2 0.289203 0.087170 0.496733
Si Si3 0.063818 0.501884 0.375914
Si Si4 0.949191 0.250000 0.500000
Si Si5 0.095993 0.871113 0.250000
Si Si6 0.401245 0.242545 0.750000
O O1 0.538725 0.379838 0.542860
O O2 0.826958 0.409485 0.654662
O O3 0.801151 0.260391 0.579130
O O4 0.450211 0.300950 0.676325
O O5 0.289373 0.043328 0.577680
O O6 0.117724 0.168396 0.506101
O O7 0.148113 0.027900 0.436579
O O8 0.948703 0.434732 0.319533
O O9 0.869386 0.802326 0.250000
O O10 0.367098 0.824990 0.250000
#
# Coordination Sequence:
#
# PCOD9439333 Si02
#       6
#     8   8   8   4   4   4
#     4  11  24  43  70 100 140 185 236 292 355 425
#     4  10  22  41  70 100 139 179 239 288 355 419
#     4  10  24  43  69 100 138 187 233 292 352 422
#     4  10  22  38  68 102 136 184 226 300 340 426
#     4  12  29  49  72 102 150 184 244 290 359 430
#     4  12  31  45  72 104 140 190 234 294 355 422
#
# _framework density 24.122662999999999
#
# number of rings (size 3 to 8) (size 9 to 14) (size 15 to 20)
#    0.000    1.333    0.000    3.333   15.556    0.889 
#    0.000    0.000    0.000    0.000    0.000    0.000 
#    0.000    0.000    0.000    0.000    0.000    0.000 
#
# Total GULP energy -201419.390439 kJ/mol
# GULP energy per Si atom -5594.983068 kJ/mol
# Density = 2.406776 g / cm^3
# Si number density = 24.122663 Si / 1000 Ang^3
#
#
#
# Elastic Constant Matrix: (Units=GPa)
#
#
# Indices 1 2 3 4 5 6 
#
# 1 52.6937 -0.8609 -11.0192 0.0000 0.0000 0.0000
# 2 -0.8609 65.1751 34.3397 0.0000 0.0000 0.0000
# 3 -11.0192 34.3397 58.4623 0.0000 0.0000 0.0000
# 4 0.0000 0.0000 0.0000 28.0086 0.0000 0.0000
# 5 0.0000 0.0000 0.0000 0.0000 32.8022 0.0000
# 6 0.0000 0.0000 0.0000 0.0000 0.0000 -0.7487
#
#
#
# Elastic Compliance Matrix: (Units=1/GPa)
#
#
# Indices 1 2 3 4 5 6 
#
# 1 0.020033 -0.002498 0.005243 0.000000 0.000000 0.000000
# 2 -0.002498 0.022531 -0.013705 0.000000 0.000000 0.000000
# 3 0.005243 -0.013705 0.026144 0.000000 0.000000 0.000000
# 4 0.000000 0.000000 0.000000 0.035703 0.000000 0.000000
# 5 0.000000 0.000000 0.000000 0.000000 0.030486 0.000000
# 6 0.000000 0.000000 0.000000 0.000000 0.000000 -1.335666
#
#
# Mechanical properties :
#
#
# Convention : Reuss Voigt Hill
#
# Bulk Modulus (GPa) = 21.37300 24.58337 22.97818
# Shear Modulus (GPa) = -4.29829 22.27053 8.98612
#
# Velocity S-wave (km/s) = -1.33631 3.04175 1.93217
# Velocity P-wave (km/s) = 2.54920 4.74862 3.81103
#
# Compressibility (1/GPa) = 0.04678801
#
# Stress axis : x y z
#
# Youngs Moduli (GPa) = 49.91702 44.38244 38.25032
#
# Poissons Ratio (x) = 0.11086 -0.20055
# Poissons Ratio (y) = 0.12469 0.52423
# Poissons Ratio (z) = -0.26172 0.60828
#
# Static dielectric constant tensor:
#      x y z
#    x 1.941310 0.000000 0.000000 
#    y 0.000000 1.953880 0.000000 
#    z 0.000000 0.000000 1.937960 
# 
# From -- ./inp_files/20031.got.cif
#   From: 2010.05.17/outbox.cif.g08.bks.cpg/sg57_11_cif.got.tgz:20031.got - 2010.06.03 13:58:18.
