data_PCOD9439903
_publ_section_title
;
Structure prediction by ZEFSAII (Michael W. Deem and Ramdas Pophale) SiO2 
 PCOD9439903
Probable space group: P B C M
;
_chemical_formula_sum "Si O2"
_cell_formula_units_Z 48
_cell_length_a 16.480726
_cell_length_b 7.537941
_cell_length_c 16.246592
_cell_angle_alpha 90.000000
_cell_angle_beta 90.000000
_cell_angle_gamma 90.000000
_cell_volume 2018.326150
_symmetry_space_group_name_H-M "P B C M"
_symmetry_group_IT_number 57
_symmetry_cell_setting 'orthorhombic'
loop_
_space_group_symop_operation_xyz
x,y,z
-x,-y,1/2+z
x,1/2-y,-z
-x,1/2+y,1/2-z
-x,-y,-z
x,y,1/2-z
-x,1/2+y,z
x,1/2-y,1/2+z
loop_
_atom_site_type_symbol
_atom_site_label
_atom_site_fract_x
_atom_site_fract_y
_atom_site_fract_z
Si Si1 0.883012 0.738041 0.750000
Si Si2 0.617216 0.823103 0.344730
Si Si3 0.933458 0.349386 0.250000
Si Si4 0.456120 0.872277 0.434431
Si Si5 0.161626 0.790287 0.090611
Si Si6 0.325647 0.778171 0.656970
Si Si7 0.213556 0.300032 0.908372
O O1 0.832162 0.703143 0.667174
O O2 0.969778 0.646341 0.750000
O O3 0.902337 0.948474 0.750000
O O4 0.621260 0.764665 0.250000
O O5 0.531098 0.782896 0.386124
O O6 0.691997 0.745923 0.395883
O O7 0.624457 0.038013 0.344118
O O8 0.899174 0.260169 0.333427
O O9 0.409322 0.750000 0.500000
O O10 0.384627 0.885340 0.367978
O O11 0.500000 0.000000 0.500000
O O12 0.246028 0.687381 0.103032
O O13 0.192635 0.992789 0.098041
O O14 0.127688 0.750000 0.000000
O O15 0.296406 0.745592 0.750000
O O16 0.187216 0.250000 0.000000
#
# Coordination Sequence:
#
# PCOD9439903 Si02
#       7
#     4   8   4   8   8   8   8
#     4  10  24  46  70 101 140 173 224 275 335 410
#     4  11  24  42  64  93 130 175 227 274 336 398
#     4  10  24  46  70 103 138 179 220 277 335 406
#     4  12  25  42  60  92 133 172 226 279 330 393
#     4  11  24  43  69 101 137 177 225 276 342 406
#     4  11  24  42  63  91 130 176 226 276 333 398
#     4  11  24  43  68 102 136 176 224 278 338 409
#
# _framework density 23.782084000000001
#
# number of rings (size 3 to 8) (size 9 to 14) (size 15 to 20)
#    0.000    1.000    3.333    2.500    4.667    3.333 
#    0.000    3.333    0.000    0.000    0.000    0.000 
#    0.000    0.000    0.000    0.000    0.000    0.000 
#
# Total GULP energy -268229.803256 kJ/mol
# GULP energy per Si atom -5588.120901 kJ/mol
# Density = 2.372795 g / cm^3
# Si number density = 23.782084 Si / 1000 Ang^3
#
#
#
# Elastic Constant Matrix: (Units=GPa)
#
#
# Indices 1 2 3 4 5 6 
#
# 1 107.7391 6.7935 48.9134 0.0000 0.0000 0.0000
# 2 6.7935 47.8995 13.8359 0.0000 0.0000 0.0000
# 3 48.9134 13.8359 179.9012 0.0000 0.0000 0.0000
# 4 0.0000 0.0000 0.0000 37.3111 0.0000 0.0000
# 5 0.0000 0.0000 0.0000 0.0000 17.3333 0.0000
# 6 0.0000 0.0000 0.0000 0.0000 0.0000 26.0888
#
#
#
# Elastic Compliance Matrix: (Units=1/GPa)
#
#
# Indices 1 2 3 4 5 6 
#
# 1 0.010611 -0.000687 -0.002832 0.000000 0.000000 0.000000
# 2 -0.000687 0.021396 -0.001459 0.000000 0.000000 0.000000
# 3 -0.002832 -0.001459 0.006441 0.000000 0.000000 0.000000
# 4 0.000000 0.000000 0.000000 0.026802 0.000000 0.000000
# 5 0.000000 0.000000 0.000000 0.000000 0.057692 0.000000
# 6 0.000000 0.000000 0.000000 0.000000 0.000000 0.038331
#
#
# Mechanical properties :
#
#
# Convention : Reuss Voigt Hill
#
# Bulk Modulus (GPa) = 35.09764 52.73616 43.91690
# Shear Modulus (GPa) = 27.66634 33.87977 30.77305
#
# Velocity S-wave (km/s) = 3.41446 3.77847 3.60107
# Velocity P-wave (km/s) = 5.50770 6.42329 5.98304
#
# Compressibility (1/GPa) = 0.02849195
#
# Stress axis : x y z
#
# Youngs Moduli (GPa) = 94.24376 46.73804 155.25947
#
# Poissons Ratio (x) = 0.03210 0.43972
# Poissons Ratio (y) = 0.06473 0.22649
# Poissons Ratio (z) = 0.26691 0.06818
#
# Static dielectric constant tensor:
#      x y z
#    x 1.817970 0.000000 0.000000 
#    y 0.000000 2.136160 0.000000 
#    z 0.000000 0.000000 1.929250 
# 
# From -- ./inp_files/19009.got.cif
#   From: 2010.05.17/outbox.cif.g08.bks.cpg/sg57_10_cif.got.tgz:19009.got - 2010.06.03 13:58:18.
