data_PCOD9439485
_publ_section_title
;
Structure prediction by ZEFSAII (Michael W. Deem and Ramdas Pophale) SiO2 
 PCOD9439485
Probable space group: P B C M
;
_chemical_formula_sum "Si O2"
_cell_formula_units_Z 48
_cell_length_a 11.801796
_cell_length_b 12.250873
_cell_length_c 16.554933
_cell_angle_alpha 90.000000
_cell_angle_beta 90.000000
_cell_angle_gamma 90.000000
_cell_volume 2393.550355
_symmetry_space_group_name_H-M "P B C M"
_symmetry_group_IT_number 57
_symmetry_cell_setting 'orthorhombic'
loop_
_space_group_symop_operation_xyz
x,y,z
-x,-y,1/2+z
x,1/2-y,-z
-x,1/2+y,1/2-z
-x,-y,-z
x,y,1/2-z
-x,1/2+y,z
x,1/2-y,1/2+z
loop_
_atom_site_type_symbol
_atom_site_label
_atom_site_fract_x
_atom_site_fract_y
_atom_site_fract_z
Si Si1 0.207921 0.185379 0.654030
Si Si2 0.946127 0.890496 0.841264
Si Si3 0.257252 0.535121 0.608834
Si Si4 0.412311 0.156216 0.153402
Si Si5 0.830783 0.454235 0.573216
Si Si6 0.341798 0.768977 0.902887
O O1 0.207793 0.163847 0.750000
O O2 0.108910 0.273474 0.638373
O O3 0.324688 0.246626 0.633143
O O4 0.192284 0.074149 0.607148
O O5 0.993622 0.887199 0.750000
O O6 0.842009 0.976012 0.841407
O O7 0.041152 0.923068 0.904934
O O8 0.363590 0.452240 0.610883
O O9 0.202109 0.546161 0.520450
O O10 0.299674 0.654434 0.634150
O O11 0.406146 0.138139 0.250000
O O12 0.537298 0.190952 0.128502
O O13 0.749830 0.363111 0.612592
O O14 0.350339 0.750000 0.000000
#
# Coordination Sequence:
#
# PCOD9439485 Si02
#       6
#     8   8   8   8   8   8
#     4   9  21  40  60  91 126 162 210 261 318 378
#     4  10  22  41  63  90 127 166 208 263 322 377
#     4  10  23  43  63  93 127 166 210 261 320 375
#     4  10  23  41  64  92 125 168 209 256 318 377
#     4  11  23  39  64  95 122 166 214 259 316 379
#     4  10  25  41  63  92 128 161 213 262 313 372
#
# _framework density 20.053892000000001
#
# number of rings (size 3 to 8) (size 9 to 14) (size 15 to 20)
#    0.000    2.000    0.000    2.500    7.000    6.000 
#    3.000    0.000    0.000    0.000    0.000    0.000 
#    0.000    0.000    0.000    0.000    0.000    0.000 
#
# Total GULP energy -268202.172886 kJ/mol
# GULP energy per Si atom -5587.545268 kJ/mol
# Density = 2.000825 g / cm^3
# Si number density = 20.053892 Si / 1000 Ang^3
#
#
#
# Elastic Constant Matrix: (Units=GPa)
#
#
# Indices 1 2 3 4 5 6 
#
# 1 112.3805 59.9549 33.0661 0.0000 0.0000 0.0000
# 2 59.9549 123.1111 43.7315 0.0000 0.0000 0.0000
# 3 33.0661 43.7315 33.4375 0.0000 0.0000 0.0000
# 4 0.0000 0.0000 0.0000 34.0841 0.0000 0.0000
# 5 0.0000 0.0000 0.0000 0.0000 29.6064 0.0000
# 6 0.0000 0.0000 0.0000 0.0000 0.0000 10.5105
#
#
#
# Elastic Compliance Matrix: (Units=1/GPa)
#
#
# Indices 1 2 3 4 5 6 
#
# 1 0.013254 -0.003360 -0.008713 0.000000 0.000000 0.000000
# 2 -0.003360 0.016022 -0.017632 0.000000 0.000000 0.000000
# 3 -0.008713 -0.017632 0.061584 0.000000 0.000000 0.000000
# 4 0.000000 0.000000 0.000000 0.029339 0.000000 0.000000
# 5 0.000000 0.000000 0.000000 0.000000 0.033776 0.000000
# 6 0.000000 0.000000 0.000000 0.000000 0.000000 0.095143
#
#
# Mechanical properties :
#
#
# Convention : Reuss Voigt Hill
#
# Bulk Modulus (GPa) = 31.79680 60.27045 46.03363
# Shear Modulus (GPa) = 15.67334 23.65198 19.66266
#
# Velocity S-wave (km/s) = 2.79867 3.43800 3.13468
# Velocity P-wave (km/s) = 5.13162 6.77342 6.00886
#
# Compressibility (1/GPa) = 0.03144970
#
# Stress axis : x y z
#
# Youngs Moduli (GPa) = 75.44611 62.41259 16.23808
#
# Poissons Ratio (x) = 0.20970 0.14148
# Poissons Ratio (y) = 0.25349 0.28632
# Poissons Ratio (z) = 0.65737 1.10049
#
# Static dielectric constant tensor:
#      x y z
#    x 1.681430 0.000000 0.000000 
#    y 0.000000 1.688920 0.000000 
#    z 0.000000 0.000000 1.757900 
# 
# From -- ./inp_files/21819.got.cif
#   From: 2010.05.17/outbox.cif.g08.bks.cpg/sg57_11_cif.got.tgz:21819.got - 2010.06.03 13:58:18.
