data_PCOD9439790
_publ_section_title
;
Structure prediction by ZEFSAII (Michael W. Deem and Ramdas Pophale) SiO2 
 PCOD9439790
Probable space group: P B C M
;
_chemical_formula_sum "Si O2"
_cell_formula_units_Z 48
_cell_length_a 15.275238
_cell_length_b 9.361855
_cell_length_c 16.180427
_cell_angle_alpha 90.000000
_cell_angle_beta 90.000000
_cell_angle_gamma 90.000000
_cell_volume 2313.874896
_symmetry_space_group_name_H-M "P B C M"
_symmetry_group_IT_number 57
_symmetry_cell_setting 'orthorhombic'
loop_
_space_group_symop_operation_xyz
x,y,z
-x,-y,1/2+z
x,1/2-y,-z
-x,1/2+y,1/2-z
-x,-y,-z
x,y,1/2-z
-x,1/2+y,z
x,1/2-y,1/2+z
loop_
_atom_site_type_symbol
_atom_site_label
_atom_site_fract_x
_atom_site_fract_y
_atom_site_fract_z
Si Si1 0.334011 0.834380 0.659310
Si Si2 0.667900 0.903050 0.846084
Si Si3 0.093384 0.077105 0.993660
Si Si4 0.503853 0.635152 0.059580
Si Si5 0.227722 0.631022 0.928081
Si Si6 0.775517 0.886086 0.344545
O O1 0.371172 0.808599 0.750000
O O2 0.408861 0.814419 0.591225
O O3 0.247843 0.735723 0.648448
O O4 0.300175 0.995515 0.651988
O O5 0.683348 0.943936 0.750000
O O6 0.565808 0.878716 0.861291
O O7 0.728943 0.765119 0.862703
O O8 0.692531 0.021580 0.914256
O O9 0.149906 0.067898 0.909036
O O10 0.083655 0.250000 0.000000
O O11 0.149348 0.981424 0.059309
O O12 0.000000 0.000000 0.000000
O O13 0.547438 0.750000 0.000000
O O14 0.500000 0.500000 0.000000
O O15 0.226015 0.750000 0.000000
O O16 0.808912 0.881075 0.250000
#
# Coordination Sequence:
#
# PCOD9439790 Si02
#       6
#     8   8   8   8   8   8
#     4  11  23  41  63  96 139 185 228 284 341 404
#     4  11  24  43  65  94 135 189 234 283 343 402
#     4  12  26  46  75 104 134 173 217 279 341 415
#     4  12  25  37  61  96 136 179 238 291 336 390
#     4  12  23  40  69  97 136 172 233 277 343 409
#     4  10  23  44  70  97 134 181 227 276 341 407
#
# _framework density 20.744423000000001
#
# number of rings (size 3 to 8) (size 9 to 14) (size 15 to 20)
#    0.000    0.667    3.333    5.000    2.333    0.000 
#    0.000    7.500    0.000    0.000    0.000    0.000 
#    0.000    0.000    0.000    0.000    0.000    0.000 
#
# Total GULP energy -267332.734822 kJ/mol
# GULP energy per Si atom -5569.431975 kJ/mol
# Density = 2.069721 g / cm^3
# Si number density = 20.744423 Si / 1000 Ang^3
#
#
#
# Elastic Constant Matrix: (Units=GPa)
#
#
# Indices 1 2 3 4 5 6 
#
# 1 98.2054 29.3396 37.1572 0.0000 0.0000 0.0000
# 2 29.3396 124.8823 12.9164 0.0000 0.0000 0.0000
# 3 37.1572 12.9164 57.2054 0.0000 0.0000 0.0000
# 4 0.0000 0.0000 0.0000 24.1543 0.0000 0.0000
# 5 0.0000 0.0000 0.0000 0.0000 22.8946 0.0000
# 6 0.0000 0.0000 0.0000 0.0000 0.0000 29.3270
#
#
#
# Elastic Compliance Matrix: (Units=1/GPa)
#
#
# Indices 1 2 3 4 5 6 
#
# 1 0.014190 -0.002437 -0.008667 0.000000 0.000000 0.000000
# 2 -0.002437 0.008618 -0.000363 0.000000 0.000000 0.000000
# 3 -0.008667 -0.000363 0.023192 0.000000 0.000000 0.000000
# 4 0.000000 0.000000 0.000000 0.041400 0.000000 0.000000
# 5 0.000000 0.000000 0.000000 0.000000 0.043678 0.000000
# 6 0.000000 0.000000 0.000000 0.000000 0.000000 0.034098
#
#
# Mechanical properties :
#
#
# Convention : Reuss Voigt Hill
#
# Bulk Modulus (GPa) = 43.35296 48.79106 46.07201
# Shear Modulus (GPa) = 25.53638 28.66718 27.10178
#
# Velocity S-wave (km/s) = 3.51237 3.72145 3.61842
# Velocity P-wave (km/s) = 6.11498 6.48358 6.30197
#
# Compressibility (1/GPa) = 0.02306648
#
# Stress axis : x y z
#
# Youngs Moduli (GPa) = 70.47180 116.04055 43.11819
#
# Poissons Ratio (x) = 0.28284 0.37369
# Poissons Ratio (y) = 0.17177 0.01563
# Poissons Ratio (z) = 0.61076 0.04208
#
# Static dielectric constant tensor:
#      x y z
#    x 1.710500 0.000000 0.000000 
#    y 0.000000 1.797080 0.000000 
#    z 0.000000 0.000000 1.760720 
# 
# From -- ./inp_files/22492.got.cif
#   From: 2010.05.17/outbox.cif.g08.bks.cpg/sg57_12_cif.got.tgz:22492.got - 2010.06.03 13:58:18.
