data_PCOD9439727
_publ_section_title
;
Structure prediction by ZEFSAII (Michael W. Deem and Ramdas Pophale) SiO2 
 PCOD9439727
Probable space group: P B C M
;
_chemical_formula_sum "Si O2"
_cell_formula_units_Z 40
_cell_length_a 12.677851
_cell_length_b 18.719004
_cell_length_c 8.709484
_cell_angle_alpha 90.000000
_cell_angle_beta 90.000000
_cell_angle_gamma 90.000000
_cell_volume 2066.906381
_symmetry_space_group_name_H-M "P B C M"
_symmetry_group_IT_number 57
_symmetry_cell_setting 'orthorhombic'
loop_
_space_group_symop_operation_xyz
x,y,z
-x,-y,1/2+z
x,1/2-y,-z
-x,1/2+y,1/2-z
-x,-y,-z
x,y,1/2-z
-x,1/2+y,z
x,1/2-y,1/2+z
loop_
_atom_site_type_symbol
_atom_site_label
_atom_site_fract_x
_atom_site_fract_y
_atom_site_fract_z
Si Si1 0.726888 0.920296 0.433856
Si Si2 0.139503 0.829002 0.433538
Si Si3 0.334513 0.918304 0.933683
Si Si4 0.526915 0.828931 0.065914
Si Si5 0.958724 0.575267 0.432962
O O1 0.746472 0.917758 0.250000
O O2 0.642299 0.859678 0.474141
O O3 0.837504 0.914531 0.519859
O O4 0.675613 0.997616 0.467780
O O5 0.153853 0.750000 0.500000
O O6 0.139516 0.827370 0.250000
O O7 0.234366 0.878566 0.493247
O O8 0.031641 0.863351 0.495464
O O9 0.331616 0.909314 0.750000
O O10 0.439198 0.882255 0.999636
O O11 0.517644 0.827526 0.250000
O O12 0.510792 0.750000 0.000000
O O13 0.970541 0.574437 0.250000
O O14 0.000000 0.500000 0.500000
#
# Coordination Sequence:
#
# PCOD9439727 Si02
#       5
#     8   8   8   8   8
#     4  10  23  42  66  93 126 167 215 265 317 380
#     4  12  25  42  65  95 130 169 213 265 322 382
#     4  11  22  40  66  94 126 165 212 266 321 380
#     4  11  24  42  63  91 128 169 212 262 318 380
#     4  12  24  41  66  95 129 169 212 261 316 379
#
# _framework density 19.352592999999999
#
# number of rings (size 3 to 8) (size 9 to 14) (size 15 to 20)
#    0.000    0.800    2.000    6.000    0.000    3.200 
#    0.000    2.000    0.000    0.000    0.000    0.000 
#    0.000    0.000    0.000    0.000    0.000    0.000 
#
# Total GULP energy -223900.006908 kJ/mol
# GULP energy per Si atom -5597.500173 kJ/mol
# Density = 1.930855 g / cm^3
# Si number density = 19.352593 Si / 1000 Ang^3
#
#
#
# Elastic Constant Matrix: (Units=GPa)
#
#
# Indices 1 2 3 4 5 6 
#
# 1 95.6717 -8.7566 35.6263 0.0000 0.0000 0.0000
# 2 -8.7566 25.1427 8.9550 0.0000 0.0000 0.0000
# 3 35.6263 8.9550 91.7403 0.0000 0.0000 0.0000
# 4 0.0000 0.0000 0.0000 22.7186 0.0000 0.0000
# 5 0.0000 0.0000 0.0000 0.0000 38.1564 0.0000
# 6 0.0000 0.0000 0.0000 0.0000 0.0000 10.9156
#
#
#
# Elastic Compliance Matrix: (Units=1/GPa)
#
#
# Indices 1 2 3 4 5 6 
#
# 1 0.013215 0.006662 -0.005782 0.000000 0.000000 0.000000
# 2 0.006662 0.044564 -0.006937 0.000000 0.000000 0.000000
# 3 -0.005782 -0.006937 0.013823 0.000000 0.000000 0.000000
# 4 0.000000 0.000000 0.000000 0.044017 0.000000 0.000000
# 5 0.000000 0.000000 0.000000 0.000000 0.026208 0.000000
# 6 0.000000 0.000000 0.000000 0.000000 0.000000 0.091612
#
#
# Mechanical properties :
#
#
# Convention : Reuss Voigt Hill
#
# Bulk Modulus (GPa) = 16.81022 31.57823 24.19423
# Shear Modulus (GPa) = 18.84067 26.14011 22.49039
#
# Velocity S-wave (km/s) = 3.12356 3.67921 3.41271
# Velocity P-wave (km/s) = 4.65982 5.86528 5.29696
#
# Compressibility (1/GPa) = 0.05948761
#
# Stress axis : x y z
#
# Youngs Moduli (GPa) = 75.66925 22.43963 72.34317
#
# Poissons Ratio (x) = -0.14949 0.41831
# Poissons Ratio (y) = -0.50412 0.50185
# Poissons Ratio (z) = 0.43755 0.15567
#
# Static dielectric constant tensor:
#      x y z
#    x 1.649740 0.000000 0.000000 
#    y 0.000000 1.653610 0.000000 
#    z 0.000000 0.000000 1.655700 
# 
# From -- ./inp_files/2637.got.cif
#   From: 2010.05.17/outbox.cif.g08.bks.cpg/sg57_2_cif.got.tgz:2637.got - 2010.06.03 13:58:18.
