data_PCOD9439641
_publ_section_title
;
Structure prediction by ZEFSAII (Michael W. Deem and Ramdas Pophale) SiO2 
 PCOD9439641
Probable space group: P B C M
;
_chemical_formula_sum "Si O2"
_cell_formula_units_Z 32
_cell_length_a 5.211529
_cell_length_b 15.169987
_cell_length_c 15.330010
_cell_angle_alpha 90.000000
_cell_angle_beta 90.000000
_cell_angle_gamma 90.000000
_cell_volume 1211.972611
_symmetry_space_group_name_H-M "P B C M"
_symmetry_group_IT_number 57
_symmetry_cell_setting 'orthorhombic'
loop_
_space_group_symop_operation_xyz
x,y,z
-x,-y,1/2+z
x,1/2-y,-z
-x,1/2+y,1/2-z
-x,-y,-z
x,y,1/2-z
-x,1/2+y,z
x,1/2-y,1/2+z
loop_
_atom_site_type_symbol
_atom_site_label
_atom_site_fract_x
_atom_site_fract_y
_atom_site_fract_z
Si Si1 0.710314 0.901032 0.349474
Si Si2 0.062085 0.340168 0.985217
Si Si3 0.666420 0.236662 0.154305
Si Si4 0.341701 0.438159 0.846239
O O1 0.799820 0.899387 0.250000
O O2 0.935677 0.879056 0.417166
O O3 0.485870 0.827522 0.357170
O O4 0.566965 0.993090 0.366285
O O5 0.230903 0.250000 0.000000
O O6 0.156197 0.421987 0.926863
O O7 0.842925 0.296567 0.924751
O O8 0.802642 0.238520 0.250000
O O9 0.459425 0.159099 0.161091
O O10 0.232757 0.460924 0.750000
#
# Coordination Sequence:
#
# PCOD9439641 Si02
#       4
#     8   8   8   8
#     4  10  23  46  72 100 138 182 230 284 339 406
#     4  12  24  39  71  98 137 177 228 277 343 400
#     4  10  23  44  68  98 136 176 225 282 343 406
#     4  10  22  45  71  99 137 180 227 283 344 404
#
# _framework density 26.403241000000001
#
# number of rings (size 3 to 8) (size 9 to 14) (size 15 to 20)
#    0.000    1.500    2.500    1.500    3.500    2.000 
#    4.500    0.000    0.000    0.000    0.000    0.000 
#    0.000    0.000    0.000    0.000    0.000    0.000 
#
# Total GULP energy -178775.860955 kJ/mol
# GULP energy per Si atom -5586.745655 kJ/mol
# Density = 2.634315 g / cm^3
# Si number density = 26.403241 Si / 1000 Ang^3
#
#
#
# Elastic Constant Matrix: (Units=GPa)
#
#
# Indices 1 2 3 4 5 6 
#
# 1 65.1478 17.4959 69.7898 0.0000 0.0000 0.0000
# 2 17.4959 95.6162 -5.7256 0.0000 0.0000 0.0000
# 3 69.7898 -5.7256 216.7494 0.0000 0.0000 0.0000
# 4 0.0000 0.0000 0.0000 28.9719 0.0000 0.0000
# 5 0.0000 0.0000 0.0000 0.0000 89.2307 0.0000
# 6 0.0000 0.0000 0.0000 0.0000 0.0000 51.1274
#
#
#
# Elastic Compliance Matrix: (Units=1/GPa)
#
#
# Indices 1 2 3 4 5 6 
#
# 1 0.025801 -0.005227 -0.008445 0.000000 0.000000 0.000000
# 2 -0.005227 0.011534 0.001988 0.000000 0.000000 0.000000
# 3 -0.008445 0.001988 0.007385 0.000000 0.000000 0.000000
# 4 0.000000 0.000000 0.000000 0.034516 0.000000 0.000000
# 5 0.000000 0.000000 0.000000 0.000000 0.011207 0.000000
# 6 0.000000 0.000000 0.000000 0.000000 0.000000 0.019559
#
#
# Mechanical properties :
#
#
# Convention : Reuss Voigt Hill
#
# Bulk Modulus (GPa) = 46.83673 60.07039 53.45356
# Shear Modulus (GPa) = 35.59023 53.59623 44.59323
#
# Velocity S-wave (km/s) = 3.67543 4.51034 4.11412
# Velocity P-wave (km/s) = 5.98241 7.06575 6.54652
#
# Compressibility (1/GPa) = 0.02135077
#
# Stress axis : x y z
#
# Youngs Moduli (GPa) = 38.75880 86.70104 135.40190
#
# Poissons Ratio (x) = 0.45316 1.14353
# Poissons Ratio (y) = 0.20258 -0.26912
# Poissons Ratio (z) = 0.32734 -0.17233
#
# Static dielectric constant tensor:
#      x y z
#    x 2.125180 0.000000 0.000000 
#    y 0.000000 2.042650 0.000000 
#    z 0.000000 0.000000 2.236960 
# 
# From -- ./inp_files/14717.got.cif
#   From: 2010.05.17/outbox.cif.g08.bks.cpg/sg57_8_cif.got.tgz:14717.got - 2010.06.03 13:58:18.
