data_PCOD9439221
_publ_section_title
;
Structure prediction by ZEFSAII (Michael W. Deem and Ramdas Pophale) SiO2 
 PCOD9439221
Probable space group: P B C M
;
_chemical_formula_sum "Si O2"
_cell_formula_units_Z 60
_cell_length_a 8.909119
_cell_length_b 20.103018
_cell_length_c 15.219734
_cell_angle_alpha 90.000000
_cell_angle_beta 90.000000
_cell_angle_gamma 90.000000
_cell_volume 2725.857093
_symmetry_space_group_name_H-M "P B C M"
_symmetry_group_IT_number 57
_symmetry_cell_setting 'orthorhombic'
loop_
_space_group_symop_operation_xyz
x,y,z
-x,-y,1/2+z
x,1/2-y,-z
-x,1/2+y,1/2-z
-x,-y,-z
x,y,1/2-z
-x,1/2+y,z
x,1/2-y,1/2+z
loop_
_atom_site_type_symbol
_atom_site_label
_atom_site_fract_x
_atom_site_fract_y
_atom_site_fract_z
Si Si1 0.929453 0.082276 0.406725
Si Si2 0.447513 0.991545 0.144559
Si Si3 0.332318 0.381708 0.410828
Si Si4 0.090805 0.383188 0.250000
Si Si5 0.840423 0.812171 0.561819
Si Si6 0.893640 0.450341 0.111433
Si Si7 0.551237 0.749919 0.146342
Si Si8 0.400525 0.877781 0.645656
O O1 0.918780 0.069079 0.510739
O O2 0.762250 0.093523 0.373455
O O3 0.027211 0.148425 0.390958
O O4 0.009206 0.017022 0.367152
O O5 0.474051 0.985228 0.250000
O O6 0.572742 0.948503 0.094826
O O7 0.280331 0.967075 0.125680
O O8 0.476345 0.067894 0.118705
O O9 0.220461 0.378976 0.327729
O O10 0.236879 0.366126 0.497317
O O11 0.447529 0.320285 0.401113
O O12 0.960567 0.394260 0.173845
O O13 0.888846 0.750000 0.500000
O O14 0.714831 0.782389 0.626579
O O15 0.531927 0.760900 0.250000
O O16 0.434210 0.695667 0.110756
O O17 0.416354 0.871195 0.750000
#
# Coordination Sequence:
#
# PCOD9439221 Si02
#       8
#     8   8   8   4   8   8   8   8
#     4  11  24  42  59  94 130 168 209 276 319 392
#     4  11  22  39  63  97 121 165 214 267 313 389
#     4  11  22  40  71  93 128 168 218 270 324 389
#     4  12  20  42  68  94 126 168 208 266 318 394
#     4  10  23  42  64  94 125 171 218 264 325 387
#     4  11  25  38  65  94 130 163 213 264 336 379
#     4  10  21  43  64  92 124 172 217 266 321 398
#     4  10  24  40  64  89 130 171 216 262 326 381
#
# _framework density 22.011426
#
# number of rings (size 3 to 8) (size 9 to 14) (size 15 to 20)
#    0.000    1.333    3.333    1.600    6.533    1.067 
#    2.400    0.000    5.867    0.000    0.000    0.000 
#    0.000    0.000    0.000    0.000    0.000    0.000 
#
# Total GULP energy -334574.297851 kJ/mol
# GULP energy per Si atom -5576.238298 kJ/mol
# Density = 2.196133 g / cm^3
# Si number density = 22.011426 Si / 1000 Ang^3
#
#
#
# Elastic Constant Matrix: (Units=GPa)
#
#
# Indices 1 2 3 4 5 6 
#
# 1 50.5128 9.1506 -16.2383 0.0000 0.0000 0.0000
# 2 9.1506 55.3421 -16.5758 0.0000 0.0000 0.0000
# 3 -16.2383 -16.5758 38.4603 0.0000 0.0000 0.0000
# 4 0.0000 0.0000 0.0000 9.9817 0.0000 0.0000
# 5 0.0000 0.0000 0.0000 0.0000 31.6026 0.0000
# 6 0.0000 0.0000 0.0000 0.0000 0.0000 22.8969
#
#
#
# Elastic Compliance Matrix: (Units=1/GPa)
#
#
# Indices 1 2 3 4 5 6 
#
# 1 0.022956 -0.001025 0.009251 0.000000 0.000000 0.000000
# 2 -0.001025 0.020793 0.008529 0.000000 0.000000 0.000000
# 3 0.009251 0.008529 0.033582 0.000000 0.000000 0.000000
# 4 0.000000 0.000000 0.000000 0.100183 0.000000 0.000000
# 5 0.000000 0.000000 0.000000 0.000000 0.031643 0.000000
# 6 0.000000 0.000000 0.000000 0.000000 0.000000 0.043674
#
#
# Mechanical properties :
#
#
# Convention : Reuss Voigt Hill
#
# Bulk Modulus (GPa) = 9.02191 10.77646 9.89919
# Shear Modulus (GPa) = 19.51065 24.09483 21.80274
#
# Velocity S-wave (km/s) = 2.98046 3.31214 3.15067
# Velocity P-wave (km/s) = 3.99397 4.41967 4.21220
#
# Compressibility (1/GPa) = 0.11084125
#
# Stress axis : x y z
#
# Youngs Moduli (GPa) = 43.56074 48.09208 29.77752
#
# Poissons Ratio (x) = 0.04930 -0.27546
# Poissons Ratio (y) = 0.04465 -0.25397
# Poissons Ratio (z) = -0.40297 -0.41017
#
# Static dielectric constant tensor:
#      x y z
#    x 1.781550 0.000000 0.000000 
#    y 0.000000 1.845370 0.000000 
#    z 0.000000 0.000000 1.820860 
# 
# From -- ./inp_files/21252.got.cif
#   From: 2010.05.17/outbox.cif.g08.bks.cpg/sg57_11_cif.got.tgz:21252.got - 2010.06.03 13:58:18.
