data_PCOD9439223
_publ_section_title
;
Structure prediction by ZEFSAII (Michael W. Deem and Ramdas Pophale) SiO2 
 PCOD9439223
Probable space group: P B C M
;
_chemical_formula_sum "Si O2"
_cell_formula_units_Z 48
_cell_length_a 11.300425
_cell_length_b 12.046173
_cell_length_c 19.296442
_cell_angle_alpha 90.000000
_cell_angle_beta 90.000000
_cell_angle_gamma 90.000000
_cell_volume 2626.764339
_symmetry_space_group_name_H-M "P B C M"
_symmetry_group_IT_number 57
_symmetry_cell_setting 'orthorhombic'
loop_
_space_group_symop_operation_xyz
x,y,z
-x,-y,1/2+z
x,1/2-y,-z
-x,1/2+y,1/2-z
-x,-y,-z
x,y,1/2-z
-x,1/2+y,z
x,1/2-y,1/2+z
loop_
_atom_site_type_symbol
_atom_site_label
_atom_site_fract_x
_atom_site_fract_y
_atom_site_fract_z
Si Si1 0.328349 0.829222 0.669161
Si Si2 0.938822 0.889686 0.469893
Si Si3 0.191472 0.680194 0.566768
Si Si4 0.702572 0.566467 0.900202
Si Si5 0.396332 0.282580 0.669827
Si Si6 0.727832 0.925022 0.553057
O O1 0.301457 0.844686 0.750000
O O2 0.238960 0.743919 0.633300
O O3 0.462219 0.785276 0.662822
O O4 0.322575 0.946388 0.629997
O O5 0.048803 0.821216 0.440611
O O6 0.843990 0.919349 0.410697
O O7 0.150579 0.142176 0.466602
O O8 0.000000 0.000000 0.500000
O O9 0.235597 0.750000 0.500000
O O10 0.238089 0.553667 0.564909
O O11 0.650689 0.662411 0.852777
O O12 0.657540 0.579648 0.979871
O O13 0.366905 0.306832 0.750000
O O14 0.338406 0.370076 0.616728
#
# Coordination Sequence:
#
# PCOD9439223 Si02
#       6
#     8   8   8   8   8   8
#     4  11  25  42  62  92 132 174 212 264 326 380
#     4   8  18  37  66  94 119 157 206 260 312 368
#     4  11  20  39  68  94 127 160 208 261 319 377
#     4  10  21  43  64  93 124 166 218 267 312 383
#     4  11  25  41  62  91 130 175 213 264 324 383
#     4   9  21  39  63  96 119 161 218 265 311 374
#
# _framework density 18.273432
#
# number of rings (size 3 to 8) (size 9 to 14) (size 15 to 20)
#    1.000    1.000    1.667    1.000    4.667    2.667 
#    0.000    1.667    0.000    1.000    0.000    0.000 
#    0.000    0.000    0.000    0.000    0.000    0.000 
#
# Total GULP energy -267425.525371 kJ/mol
# GULP energy per Si atom -5571.365112 kJ/mol
# Density = 1.823184 g / cm^3
# Si number density = 18.273432 Si / 1000 Ang^3
#
#
#
# Elastic Constant Matrix: (Units=GPa)
#
#
# Indices 1 2 3 4 5 6 
#
# 1 82.6470 40.6173 64.8681 0.0000 0.0000 0.0000
# 2 40.6173 103.1490 49.1875 0.0000 0.0000 0.0000
# 3 64.8681 49.1875 139.1709 0.0000 0.0000 0.0000
# 4 0.0000 0.0000 0.0000 23.6825 0.0000 0.0000
# 5 0.0000 0.0000 0.0000 0.0000 55.2590 0.0000
# 6 0.0000 0.0000 0.0000 0.0000 0.0000 15.9369
#
#
#
# Elastic Compliance Matrix: (Units=1/GPa)
#
#
# Indices 1 2 3 4 5 6 
#
# 1 0.020508 -0.004230 -0.008064 0.000000 0.000000 0.000000
# 2 -0.004230 0.012532 -0.002458 0.000000 0.000000 0.000000
# 3 -0.008064 -0.002458 0.011812 0.000000 0.000000 0.000000
# 4 0.000000 0.000000 0.000000 0.042225 0.000000 0.000000
# 5 0.000000 0.000000 0.000000 0.000000 0.018097 0.000000
# 6 0.000000 0.000000 0.000000 0.000000 0.000000 0.062747
#
#
# Mechanical properties :
#
#
# Convention : Reuss Voigt Hill
#
# Bulk Modulus (GPa) = 65.14803 70.47919 67.81361
# Shear Modulus (GPa) = 24.68637 30.32861 27.50749
#
# Velocity S-wave (km/s) = 3.67951 4.07837 3.88406
# Velocity P-wave (km/s) = 7.33354 7.79939 7.57005
#
# Compressibility (1/GPa) = 0.01534966
#
# Stress axis : x y z
#
# Youngs Moduli (GPa) = 48.76263 79.79325 84.65617
#
# Poissons Ratio (x) = 0.33754 0.68263
# Poissons Ratio (y) = 0.20627 0.20806
# Poissons Ratio (z) = 0.39320 0.19611
#
# Static dielectric constant tensor:
#      x y z
#    x 1.640510 0.000000 0.000000 
#    y 0.000000 1.687100 0.000000 
#    z 0.000000 0.000000 1.611850 
# 
# From -- ./inp_files/21802.got.cif
#   From: 2010.05.17/outbox.cif.g08.bks.cpg/sg57_11_cif.got.tgz:21802.got - 2010.06.03 13:58:18.
