data_PCOD9439358
_publ_section_title
;
Structure prediction by ZEFSAII (Michael W. Deem and Ramdas Pophale) SiO2 
 PCOD9439358
Probable space group: P B C M
;
_chemical_formula_sum "Si O2"
_cell_formula_units_Z 48
_cell_length_a 11.771870
_cell_length_b 14.162059
_cell_length_c 14.151410
_cell_angle_alpha 90.000000
_cell_angle_beta 90.000000
_cell_angle_gamma 90.000000
_cell_volume 2359.236999
_symmetry_space_group_name_H-M "P B C M"
_symmetry_group_IT_number 57
_symmetry_cell_setting 'orthorhombic'
loop_
_space_group_symop_operation_xyz
x,y,z
-x,-y,1/2+z
x,1/2-y,-z
-x,1/2+y,1/2-z
-x,-y,-z
x,y,1/2-z
-x,1/2+y,z
x,1/2-y,1/2+z
loop_
_atom_site_type_symbol
_atom_site_label
_atom_site_fract_x
_atom_site_fract_y
_atom_site_fract_z
Si Si1 0.007888 0.209761 0.596167
Si Si2 0.407346 0.990374 0.138123
Si Si3 0.060928 0.914858 0.640084
Si Si4 0.784390 0.920733 0.141656
Si Si5 0.141644 0.543295 0.863473
Si Si6 0.433014 0.139945 0.521971
O O1 0.058216 0.250000 0.500000
O O2 0.947564 0.302531 0.637228
O O3 0.908983 0.133043 0.582259
O O4 0.109833 0.152938 0.644741
O O5 0.429914 0.001059 0.250000
O O6 0.272823 0.977033 0.124148
O O7 0.472668 0.901448 0.093322
O O8 0.442498 0.080418 0.075191
O O9 0.067370 0.940256 0.750000
O O10 0.163606 0.979962 0.602448
O O11 0.939853 0.956774 0.607421
O O12 0.741465 0.931207 0.250000
O O13 0.686471 0.883329 0.073373
O O14 0.126216 0.562219 0.750000
O O15 0.443548 0.250000 0.500000
#
# Coordination Sequence:
#
# PCOD9439358 Si02
#       6
#     8   8   8   8   8   8
#     4  11  22  32  56  91 126 166 206 255 313 378
#     4  10  24  46  68  92 127 168 212 268 325 385
#     4   9  19  36  57  84 121 165 204 248 308 370
#     4  10  22  39  61  91 130 167 210 264 313 376
#     4   9  20  38  59  83 118 159 203 252 307 375
#     4  11  25  44  69  97 126 161 217 267 325 388
#
# _framework density 20.345561
#
# number of rings (size 3 to 8) (size 9 to 14) (size 15 to 20)
#    0.000    2.000    0.000    3.500    7.000    3.333 
#    3.000    0.000    0.000    0.000    0.000    0.000 
#    0.000    0.000    0.000    0.000    0.000    0.000 
#
# Total GULP energy -267782.446180 kJ/mol
# GULP energy per Si atom -5578.800962 kJ/mol
# Density = 2.029925 g / cm^3
# Si number density = 20.345561 Si / 1000 Ang^3
#
#
#
# Elastic Constant Matrix: (Units=GPa)
#
#
# Indices 1 2 3 4 5 6 
#
# 1 36.5645 25.0739 22.2339 0.0000 0.0000 0.0000
# 2 25.0739 146.8407 27.8522 0.0000 0.0000 0.0000
# 3 22.2339 27.8522 96.6890 0.0000 0.0000 0.0000
# 4 0.0000 0.0000 0.0000 20.4125 0.0000 0.0000
# 5 0.0000 0.0000 0.0000 0.0000 34.0633 0.0000
# 6 0.0000 0.0000 0.0000 0.0000 0.0000 16.6526
#
#
#
# Elastic Compliance Matrix: (Units=1/GPa)
#
#
# Indices 1 2 3 4 5 6 
#
# 1 0.034553 -0.004647 -0.006607 0.000000 0.000000 0.000000
# 2 -0.004647 0.007829 -0.001187 0.000000 0.000000 0.000000
# 3 -0.006607 -0.001187 0.012204 0.000000 0.000000 0.000000
# 4 0.000000 0.000000 0.000000 0.048990 0.000000 0.000000
# 5 0.000000 0.000000 0.000000 0.000000 0.029357 0.000000
# 6 0.000000 0.000000 0.000000 0.000000 0.000000 0.060051
#
#
# Mechanical properties :
#
#
# Convention : Reuss Voigt Hill
#
# Bulk Modulus (GPa) = 33.66515 47.82380 40.74448
# Shear Modulus (GPa) = 21.95246 27.88796 24.92021
#
# Velocity S-wave (km/s) = 3.28835 3.70633 3.50358
# Velocity P-wave (km/s) = 5.56779 6.47091 6.03626
#
# Compressibility (1/GPa) = 0.02970431
#
# Stress axis : x y z
#
# Youngs Moduli (GPa) = 28.94103 127.73582 81.94358
#
# Poissons Ratio (x) = 0.59358 0.54140
# Poissons Ratio (y) = 0.13449 0.09723
# Poissons Ratio (z) = 0.19121 0.15156
#
# Static dielectric constant tensor:
#      x y z
#    x 1.699080 0.000000 0.000000 
#    y 0.000000 1.713600 0.000000 
#    z 0.000000 0.000000 1.790670 
# 
# From -- ./inp_files/17613.got.cif
#   From: 2010.05.17/outbox.cif.g08.bks.cpg/sg57_9_cif.got.tgz:17613.got - 2010.06.03 13:58:18.
