data_PCOD9439296
_publ_section_title
;
Structure prediction by ZEFSAII (Michael W. Deem and Ramdas Pophale) SiO2 
 PCOD9439296
Probable space group: P B C M
;
_chemical_formula_sum "Si O2"
_cell_formula_units_Z 24
_cell_length_a 15.579360
_cell_length_b 5.077945
_cell_length_c 14.327748
_cell_angle_alpha 90.000000
_cell_angle_beta 90.000000
_cell_angle_gamma 90.000000
_cell_volume 1133.484381
_symmetry_space_group_name_H-M "P B C M"
_symmetry_group_IT_number 57
_symmetry_cell_setting 'orthorhombic'
loop_
_space_group_symop_operation_xyz
x,y,z
-x,-y,1/2+z
x,1/2-y,-z
-x,1/2+y,1/2-z
-x,-y,-z
x,y,1/2-z
-x,1/2+y,z
x,1/2-y,1/2+z
loop_
_atom_site_type_symbol
_atom_site_label
_atom_site_fract_x
_atom_site_fract_y
_atom_site_fract_z
Si Si1 0.942943 0.028803 0.858400
Si Si2 0.445343 0.593033 0.250000
Si Si3 0.817605 0.750000 0.000000
Si Si4 0.349968 0.489367 0.059458
O O1 0.914357 0.999858 0.750000
O O2 0.873691 0.934653 0.933237
O O3 0.022439 0.824460 0.871106
O O4 0.473246 0.897034 0.250000
O O5 0.391391 0.524914 0.158845
O O6 0.751195 0.582366 0.936857
O O7 0.360309 0.750000 0.000000
O O8 0.390222 0.250000 0.000000
#
# Coordination Sequence:
#
# PCOD9439296 Si02
#       4
#     8   4   4   8
#     4  10  22  38  59  89 123 171 216 255 310 369
#     4  12  26  46  72  96 130 170 212 266 324 402
#     4  10  24  38  66  86 134 162 212 268 316 376
#     4  10  25  43  65 100 127 168 214 265 328 382
#
# _framework density 21.173649999999999
#
# number of rings (size 3 to 8) (size 9 to 14) (size 15 to 20)
#    1.000    0.667    0.000    3.000    7.000    4.000 
#    3.000    0.000    0.000    0.000    0.000    0.000 
#    0.000    0.000    0.000    0.000    0.000    0.000 
#
# Total GULP energy -134186.431261 kJ/mol
# GULP energy per Si atom -5591.101303 kJ/mol
# Density = 2.112546 g / cm^3
# Si number density = 21.173650 Si / 1000 Ang^3
#
#
#
# Elastic Constant Matrix: (Units=GPa)
#
#
# Indices 1 2 3 4 5 6 
#
# 1 53.6139 -11.7153 41.8931 0.0000 0.0000 0.0000
# 2 -11.7153 78.6556 -11.4482 0.0000 0.0000 0.0000
# 3 41.8931 -11.4482 94.1762 0.0000 0.0000 0.0000
# 4 0.0000 0.0000 0.0000 26.9064 0.0000 0.0000
# 5 0.0000 0.0000 0.0000 0.0000 39.9000 0.0000
# 6 0.0000 0.0000 0.0000 0.0000 0.0000 8.4719
#
#
#
# Elastic Compliance Matrix: (Units=1/GPa)
#
#
# Indices 1 2 3 4 5 6 
#
# 1 0.029061 0.002491 -0.012625 0.000000 0.000000 0.000000
# 2 0.002491 0.013156 0.000491 0.000000 0.000000 0.000000
# 3 -0.012625 0.000491 0.016294 0.000000 0.000000 0.000000
# 4 0.000000 0.000000 0.000000 0.037166 0.000000 0.000000
# 5 0.000000 0.000000 0.000000 0.000000 0.025063 0.000000
# 6 0.000000 0.000000 0.000000 0.000000 0.000000 0.118037
#
#
# Mechanical properties :
#
#
# Convention : Reuss Voigt Hill
#
# Bulk Modulus (GPa) = 25.49316 29.32277 27.40796
# Shear Modulus (GPa) = 18.44087 28.90340 23.67213
#
# Velocity S-wave (km/s) = 2.95436 3.69869 3.34728
# Velocity P-wave (km/s) = 4.86866 5.66738 5.28313
#
# Compressibility (1/GPa) = 0.03922622
#
# Stress axis : x y z
#
# Youngs Moduli (GPa) = 34.41059 76.01005 61.37239
#
# Poissons Ratio (x) = -0.18934 0.77480
# Poissons Ratio (y) = -0.08572 -0.03015
# Poissons Ratio (z) = 0.43442 -0.03734
#
# Static dielectric constant tensor:
#      x y z
#    x 1.782200 0.000000 0.000000 
#    y 0.000000 1.752070 0.000000 
#    z 0.000000 0.000000 1.715960 
# 
# From -- ./inp_files/18081.got.cif
#   From: 2010.05.17/outbox.cif.g08.bks.cpg/sg57_10_cif.got.tgz:18081.got - 2010.06.03 13:58:18.
