data_PCOD9439944
_publ_section_title
;
Structure prediction by ZEFSAII (Michael W. Deem and Ramdas Pophale) SiO2 
 PCOD9439944
Probable space group: P B C M
;
_chemical_formula_sum "Si O2"
_cell_formula_units_Z 48
_cell_length_a 6.098865
_cell_length_b 14.242856
_cell_length_c 24.467367
_cell_angle_alpha 90.000000
_cell_angle_beta 90.000000
_cell_angle_gamma 90.000000
_cell_volume 2125.364097
_symmetry_space_group_name_H-M "P B C M"
_symmetry_group_IT_number 57
_symmetry_cell_setting 'orthorhombic'
loop_
_space_group_symop_operation_xyz
x,y,z
-x,-y,1/2+z
x,1/2-y,-z
-x,1/2+y,1/2-z
-x,-y,-z
x,y,1/2-z
-x,1/2+y,z
x,1/2-y,1/2+z
loop_
_atom_site_type_symbol
_atom_site_label
_atom_site_fract_x
_atom_site_fract_y
_atom_site_fract_z
Si Si1 0.069069 0.514647 0.750000
Si Si2 0.528038 0.834864 0.417988
Si Si3 0.702414 0.174181 0.347990
Si Si4 0.869592 0.750000 0.500000
Si Si5 0.724903 0.208602 0.750000
Si Si6 0.872447 0.419327 0.468595
Si Si7 0.147137 0.474574 0.366186
Si Si8 0.600687 0.852225 0.750000
O O1 0.928593 0.528449 0.804084
O O2 0.245586 0.598719 0.750000
O O3 0.180183 0.411945 0.750000
O O4 0.391393 0.753299 0.388168
O O5 0.714753 0.778286 0.450219
O O6 0.383049 0.897332 0.459906
O O7 0.642058 0.909737 0.377917
O O8 0.827575 0.238524 0.302779
O O9 0.522297 0.124650 0.307399
O O10 0.814633 0.085919 0.376848
O O11 0.034701 0.665484 0.496217
O O12 0.465915 0.240646 0.750000
O O13 0.000000 0.500000 0.500000
O O14 0.963202 0.432121 0.406687
#
# Coordination Sequence:
#
# PCOD9439944 Si02
#       8
#     4   8   8   4   4   8   8   4
#     4  12  22  48  70 107 155 186 264 294 362 465
#     4  11  25  47  70 102 149 184 240 314 366 443
#     4   9  22  43  66 100 139 189 236 290 377 417
#     4  10  26  44  70 106 130 192 236 296 370 436
#     4   8  21  39  65  99 137 193 233 300 354 425
#     4  11  27  46  74 108 140 197 248 307 375 444
#     4  11  27  42  72 110 139 196 246 305 373 439
#     4   8  23  39  69  98 136 197 227 296 354 418
#
# _framework density 22.584367
#
# number of rings (size 3 to 8) (size 9 to 14) (size 15 to 20)
#    1.000    0.667    0.000    2.500   11.667    2.667 
#    9.000    0.000    0.000    0.000    0.000    0.000 
#    0.000    0.000    0.000    0.000    0.000    0.000 
#
# Total GULP energy -267246.440267 kJ/mol
# GULP energy per Si atom -5567.634172 kJ/mol
# Density = 2.253296 g / cm^3
# Si number density = 22.584367 Si / 1000 Ang^3
#
#
#
# Elastic Constant Matrix: (Units=GPa)
#
#
# Indices 1 2 3 4 5 6 
#
# 1 57.6565 21.8664 32.2259 0.0000 0.0000 0.0000
# 2 21.8664 111.4317 31.4184 0.0000 0.0000 0.0000
# 3 32.2259 31.4184 94.5517 0.0000 0.0000 0.0000
# 4 0.0000 0.0000 0.0000 25.0852 0.0000 0.0000
# 5 0.0000 0.0000 0.0000 0.0000 3.9786 0.0000
# 6 0.0000 0.0000 0.0000 0.0000 0.0000 -19.9707
#
#
#
# Elastic Compliance Matrix: (Units=1/GPa)
#
#
# Indices 1 2 3 4 5 6 
#
# 1 0.022007 -0.002431 -0.006693 0.000000 0.000000 0.000000
# 2 -0.002431 0.010170 -0.002551 0.000000 0.000000 0.000000
# 3 -0.006693 -0.002551 0.013705 0.000000 0.000000 0.000000
# 4 0.000000 0.000000 0.000000 0.039864 0.000000 0.000000
# 5 0.000000 0.000000 0.000000 0.000000 0.251343 0.000000
# 6 0.000000 0.000000 0.000000 0.000000 0.000000 -0.050073
#
#
# Mechanical properties :
#
#
# Convention : Reuss Voigt Hill
#
# Bulk Modulus (GPa) = 44.38044 48.29569 46.33807
# Shear Modulus (GPa) = 15.72935 13.69391 14.71163
#
# Velocity S-wave (km/s) = 2.64194 2.46508 2.55504
# Velocity P-wave (km/s) = 5.38517 5.43444 5.40986
#
# Compressibility (1/GPa) = 0.02253245
#
# Stress axis : x y z
#
# Youngs Moduli (GPa) = 45.44021 98.32422 72.96677
#
# Poissons Ratio (x) = 0.23907 0.48834
# Poissons Ratio (y) = 0.11049 0.18612
# Poissons Ratio (z) = 0.30412 0.25081
#
# Static dielectric constant tensor:
#      x y z
#    x 1.765850 0.000000 0.000000 
#    y 0.000000 1.804920 0.000000 
#    z 0.000000 0.000000 1.863490 
# 
# From -- ./inp_files/28003.got.cif
#   From: 2010.05.17/outbox.cif.g08.bks.cpg/sg57_15_cif.got.tgz:28003.got - 2010.06.03 13:58:18.
