data_PCOD9439866
_publ_section_title
;
Structure prediction by ZEFSAII (Michael W. Deem and Ramdas Pophale) SiO2 
 PCOD9439866
Probable space group: P B C M
;
_chemical_formula_sum "Si O2"
_cell_formula_units_Z 64
_cell_length_a 14.859535
_cell_length_b 8.727049
_cell_length_c 24.433548
_cell_angle_alpha 90.000000
_cell_angle_beta 90.000000
_cell_angle_gamma 90.000000
_cell_volume 3168.539818
_symmetry_space_group_name_H-M "P B C M"
_symmetry_group_IT_number 57
_symmetry_cell_setting 'orthorhombic'
loop_
_space_group_symop_operation_xyz
x,y,z
-x,-y,1/2+z
x,1/2-y,-z
-x,1/2+y,1/2-z
-x,-y,-z
x,y,1/2-z
-x,1/2+y,z
x,1/2-y,1/2+z
loop_
_atom_site_type_symbol
_atom_site_label
_atom_site_fract_x
_atom_site_fract_y
_atom_site_fract_z
Si Si1 0.789023 0.065870 0.006870
Si Si2 0.587598 0.981037 0.645929
Si Si3 0.106024 0.439039 0.902356
Si Si4 0.592287 0.425627 0.019210
Si Si5 0.907088 0.576133 0.896956
Si Si6 0.595197 0.862441 0.184174
Si Si7 0.225941 0.599946 0.813496
Si Si8 0.775151 0.452392 0.684567
O O1 0.843767 0.009447 0.059203
O O2 0.790390 0.250000 0.000000
O O3 0.838055 0.995899 0.954374
O O4 0.684967 0.013436 0.007359
O O5 0.598838 0.044112 0.584229
O O6 0.493688 0.041238 0.670024
O O7 0.671866 0.044408 0.679922
O O8 0.590873 0.797419 0.651645
O O9 0.095628 0.257208 0.905411
O O10 0.161690 0.493987 0.849564
O O11 0.007935 0.515146 0.901822
O O12 0.587621 0.250000 0.000000
O O13 0.500000 0.500000 0.000000
O O14 0.861823 0.536406 0.839172
O O15 0.598056 0.832733 0.250000
O O16 0.683996 0.958797 0.168311
O O17 0.199689 0.595566 0.750000
O O18 0.223131 0.775596 0.834022
O O19 0.775895 0.450711 0.750000
#
# Coordination Sequence:
#
# PCOD9439866 Si02
#       8
#     8   8   8   8   8   8   8   8
#     4  11  24  45  70  97 134 175 223 278 332 396
#     4  12  23  41  66  94 135 177 225 274 335 402
#     4  12  25  46  66 104 128 174 221 276 339 395
#     4  11  26  43  65  98 136 178 222 276 332 396
#     4  12  26  42  73  94 135 172 221 277 333 408
#     4  11  23  39  64  98 135 175 224 275 330 402
#     4  11  23  43  69  96 134 175 221 277 338 402
#     4  10  24  43  66  99 133 173 220 274 333 397
#
# _framework density 20.198578999999999
#
# number of rings (size 3 to 8) (size 9 to 14) (size 15 to 20)
#    0.000    0.750    1.250    6.375    3.500    4.000 
#    0.000    0.000    0.000    0.000    0.000    0.000 
#    0.000    0.000    0.000    0.000    0.000    0.000 
#
# Total GULP energy -358141.228671 kJ/mol
# GULP energy per Si atom -5595.956698 kJ/mol
# Density = 2.015261 g / cm^3
# Si number density = 20.198579 Si / 1000 Ang^3
#
#
#
# Elastic Constant Matrix: (Units=GPa)
#
#
# Indices 1 2 3 4 5 6 
#
# 1 140.1367 41.7853 6.4391 0.0000 0.0000 0.0000
# 2 41.7853 131.6451 18.9681 0.0000 0.0000 0.0000
# 3 6.4391 18.9681 48.4708 0.0000 0.0000 0.0000
# 4 0.0000 0.0000 0.0000 13.7586 0.0000 0.0000
# 5 0.0000 0.0000 0.0000 0.0000 18.4626 0.0000
# 6 0.0000 0.0000 0.0000 0.0000 0.0000 38.5610
#
#
#
# Elastic Compliance Matrix: (Units=1/GPa)
#
#
# Indices 1 2 3 4 5 6 
#
# 1 0.007882 -0.002491 -0.000072 0.000000 0.000000 0.000000
# 2 -0.002491 0.008838 -0.003127 0.000000 0.000000 0.000000
# 3 -0.000072 -0.003127 0.021864 0.000000 0.000000 0.000000
# 4 0.000000 0.000000 0.000000 0.072682 0.000000 0.000000
# 5 0.000000 0.000000 0.000000 0.000000 0.054163 0.000000
# 6 0.000000 0.000000 0.000000 0.000000 0.000000 0.025933
#
#
# Mechanical properties :
#
#
# Convention : Reuss Voigt Hill
#
# Bulk Modulus (GPa) = 36.76187 50.51530 43.63858
# Shear Modulus (GPa) = 23.60588 31.02711 27.31650
#
# Velocity S-wave (km/s) = 3.42232 3.92357 3.68148
# Velocity P-wave (km/s) = 5.81860 6.75200 6.30260
#
# Compressibility (1/GPa) = 0.02720210
#
# Stress axis : x y z
#
# Youngs Moduli (GPa) = 126.86983 113.15276 45.73635
#
# Poissons Ratio (x) = 0.28191 0.00330
# Poissons Ratio (y) = 0.31609 0.14304
# Poissons Ratio (z) = 0.00915 0.35388
#
# Static dielectric constant tensor:
#      x y z
#    x 1.678710 0.000000 0.000000 
#    y 0.000000 1.715260 0.000000 
#    z 0.000000 0.000000 1.735040 
# 
# From -- ./inp_files/27509.got.cif
#   From: 2010.05.17/outbox.cif.g08.bks.cpg/sg57_14_cif.got.tgz:27509.got - 2010.06.03 13:58:18.
