data_PCOD9439075
_publ_section_title
;
Structure prediction by ZEFSAII (Michael W. Deem and Ramdas Pophale) SiO2 
 PCOD9439075
Probable space group: P B C M
;
_chemical_formula_sum "Si O2"
_cell_formula_units_Z 48
_cell_length_a 9.881952
_cell_length_b 15.672415
_cell_length_c 15.297429
_cell_angle_alpha 90.000000
_cell_angle_beta 90.000000
_cell_angle_gamma 90.000000
_cell_volume 2369.174826
_symmetry_space_group_name_H-M "P B C M"
_symmetry_group_IT_number 57
_symmetry_cell_setting 'orthorhombic'
loop_
_space_group_symop_operation_xyz
x,y,z
-x,-y,1/2+z
x,1/2-y,-z
-x,1/2+y,1/2-z
-x,-y,-z
x,y,1/2-z
-x,1/2+y,z
x,1/2-y,1/2+z
loop_
_atom_site_type_symbol
_atom_site_label
_atom_site_fract_x
_atom_site_fract_y
_atom_site_fract_z
Si Si1 0.799845 0.836259 0.447231
Si Si2 0.159483 0.988162 0.011267
Si Si3 0.322974 0.756262 0.400489
Si Si4 0.461288 0.392864 0.352119
Si Si5 0.656258 0.430581 0.853000
Si Si6 0.914929 0.358774 0.151187
O O1 0.781370 0.750000 0.500000
O O2 0.685138 0.854092 0.375486
O O3 0.946799 0.839147 0.400753
O O4 0.784659 0.916089 0.513637
O O5 0.224555 0.946559 0.924052
O O6 0.168298 0.930170 0.096785
O O7 0.000000 0.000000 0.000000
O O8 0.276998 0.750000 0.500000
O O9 0.430248 0.832947 0.398123
O O10 0.385975 0.667274 0.367679
O O11 0.187815 0.779324 0.347817
O O12 0.490550 0.385937 0.250000
O O13 0.451303 0.493889 0.373682
O O14 0.693797 0.442254 0.750000
O O15 0.945443 0.385850 0.250000
#
# Coordination Sequence:
#
# PCOD9439075 Si02
#       6
#     8   8   8   8   8   8
#     4  10  21  40  63  88 125 165 206 255 320 378
#     4   9  20  37  60  88 119 159 207 253 308 379
#     4  12  23  40  66  93 126 166 211 263 315 371
#     4  10  22  41  62  90 125 164 210 257 311 379
#     4  10  21  40  64  90 124 168 209 255 318 381
#     4  11  22  39  62  90 126 163 209 268 313 365
#
# _framework density 20.26022
#
# number of rings (size 3 to 8) (size 9 to 14) (size 15 to 20)
#    0.000    1.667    1.667    3.000    2.333    4.667 
#    3.000    1.667    0.000    0.000    0.000    0.000 
#    0.000    0.000    0.000    0.000    0.000    0.000 
#
# Total GULP energy -267718.881203 kJ/mol
# GULP energy per Si atom -5577.476692 kJ/mol
# Density = 2.021411 g / cm^3
# Si number density = 20.260220 Si / 1000 Ang^3
#
#
#
# Elastic Constant Matrix: (Units=GPa)
#
#
# Indices 1 2 3 4 5 6 
#
# 1 58.4633 20.2255 -13.0423 0.0000 0.0000 0.0000
# 2 20.2255 124.6732 29.6038 0.0000 0.0000 0.0000
# 3 -13.0423 29.6038 80.4831 0.0000 0.0000 0.0000
# 4 0.0000 0.0000 0.0000 23.2643 0.0000 0.0000
# 5 0.0000 0.0000 0.0000 0.0000 12.5798 0.0000
# 6 0.0000 0.0000 0.0000 0.0000 0.0000 21.3037
#
#
#
# Elastic Compliance Matrix: (Units=1/GPa)
#
#
# Indices 1 2 3 4 5 6 
#
# 1 0.019667 -0.004325 0.004778 0.000000 0.000000 0.000000
# 2 -0.004325 0.009740 -0.004283 0.000000 0.000000 0.000000
# 3 0.004778 -0.004283 0.014775 0.000000 0.000000 0.000000
# 4 0.000000 0.000000 0.000000 0.042984 0.000000 0.000000
# 5 0.000000 0.000000 0.000000 0.000000 0.079492 0.000000
# 6 0.000000 0.000000 0.000000 0.000000 0.000000 0.046940
#
#
# Mechanical properties :
#
#
# Convention : Reuss Voigt Hill
#
# Bulk Modulus (GPa) = 27.38206 37.46597 32.42401
# Shear Modulus (GPa) = 21.41945 26.55174 23.98559
#
# Velocity S-wave (km/s) = 3.25501 3.62406 3.44448
# Velocity P-wave (km/s) = 5.26036 6.00369 5.64427
#
# Compressibility (1/GPa) = 0.03652026
#
# Stress axis : x y z
#
# Youngs Moduli (GPa) = 50.84687 102.67248 67.68293
#
# Poissons Ratio (x) = 0.44406 -0.32338
# Poissons Ratio (y) = 0.21991 0.28991
# Poissons Ratio (z) = -0.24294 0.43979
#
# Static dielectric constant tensor:
#      x y z
#    x 1.731470 0.000000 0.000000 
#    y 0.000000 1.787280 0.000000 
#    z 0.000000 0.000000 1.696170 
# 
# From -- ./inp_files/17629.got.cif
#   From: 2010.05.17/outbox.cif.g08.bks.cpg/sg57_9_cif.got.tgz:17629.got - 2010.06.03 13:58:18.
