data_PCOD9439476
_publ_section_title
;
Structure prediction by ZEFSAII (Michael W. Deem and Ramdas Pophale) SiO2 
 PCOD9439476
Probable space group: P B C M
;
_chemical_formula_sum "Si O2"
_cell_formula_units_Z 36
_cell_length_a 21.457977
_cell_length_b 5.009038
_cell_length_c 15.357647
_cell_angle_alpha 90.000000
_cell_angle_beta 90.000000
_cell_angle_gamma 90.000000
_cell_volume 1650.698599
_symmetry_space_group_name_H-M "P B C M"
_symmetry_group_IT_number 57
_symmetry_cell_setting 'orthorhombic'
loop_
_space_group_symop_operation_xyz
x,y,z
-x,-y,1/2+z
x,1/2-y,-z
-x,1/2+y,1/2-z
-x,-y,-z
x,y,1/2-z
-x,1/2+y,z
x,1/2-y,1/2+z
loop_
_atom_site_type_symbol
_atom_site_label
_atom_site_fract_x
_atom_site_fract_y
_atom_site_fract_z
Si Si1 0.362965 0.321786 0.596752
Si Si2 0.835935 0.994967 0.442077
Si Si3 0.038756 0.286291 0.145222
Si Si4 0.542327 0.873047 0.750000
Si Si5 0.286128 0.694382 0.149454
O O1 0.385441 0.250000 0.500000
O O2 0.416018 0.413025 0.663934
O O3 0.312161 0.559054 0.593493
O O4 0.330990 0.058275 0.636042
O O5 0.853445 0.250000 0.500000
O O6 0.782296 0.100221 0.378340
O O7 0.810495 0.750000 0.500000
O O8 0.896515 0.877098 0.395149
O O9 0.044618 0.295276 0.250000
O O10 0.984451 0.493801 0.119813
O O11 0.514861 0.576456 0.750000
O O12 0.286515 0.779593 0.250000
#
# Coordination Sequence:
#
# PCOD9439476 Si02
#       5
#     8   8   8   4   8
#     4  12  25  45  72 103 138 181 226 280 337 396
#     4  12  25  39  61  96 130 166 219 278 339 403
#     4  10  22  41  62  85 121 171 221 270 333 405
#     4  12  26  46  72 104 144 180 228 272 328 400
#     4  12  23  44  69  97 135 177 225 278 344 402
#
# _framework density 21.808945999999999
#
# number of rings (size 3 to 8) (size 9 to 14) (size 15 to 20)
#    0.000    0.444    2.222    7.333    0.000    3.556 
#    0.000    6.667    0.000    0.000    0.000    0.000 
#    0.000    0.000    0.000    0.000    0.000    0.000 
#
# Total GULP energy -201706.901058 kJ/mol
# GULP energy per Si atom -5602.969474 kJ/mol
# Density = 2.175931 g / cm^3
# Si number density = 21.808946 Si / 1000 Ang^3
#
#
#
# Elastic Constant Matrix: (Units=GPa)
#
#
# Indices 1 2 3 4 5 6 
#
# 1 71.0539 -14.5185 30.4809 0.0000 0.0000 0.0000
# 2 -14.5185 84.2882 3.5833 0.0000 0.0000 0.0000
# 3 30.4809 3.5833 95.1372 0.0000 0.0000 0.0000
# 4 0.0000 0.0000 0.0000 15.5560 0.0000 0.0000
# 5 0.0000 0.0000 0.0000 0.0000 -22.3405 0.0000
# 6 0.0000 0.0000 0.0000 0.0000 0.0000 34.6277
#
#
#
# Elastic Compliance Matrix: (Units=1/GPa)
#
#
# Indices 1 2 3 4 5 6 
#
# 1 0.017132 0.003189 -0.005609 0.000000 0.000000 0.000000
# 2 0.003189 0.012477 -0.001492 0.000000 0.000000 0.000000
# 3 -0.005609 -0.001492 0.012364 0.000000 0.000000 0.000000
# 4 0.000000 0.000000 0.000000 0.064284 0.000000 0.000000
# 5 0.000000 0.000000 0.000000 0.000000 -0.044762 0.000000
# 6 0.000000 0.000000 0.000000 0.000000 0.000000 0.028879
#
#
# Mechanical properties :
#
#
# Convention : Reuss Voigt Hill
#
# Bulk Modulus (GPa) = 29.28241 32.17449 30.72845
# Shear Modulus (GPa) = 45.62904 20.96424 33.29664
#
# Velocity S-wave (km/s) = 4.57904 3.10380 3.91159
# Velocity P-wave (km/s) = 6.43527 5.25639 5.87547
#
# Compressibility (1/GPa) = 0.03415019
#
# Stress axis : x y z
#
# Youngs Moduli (GPa) = 58.37162 80.14849 80.87771
#
# Poissons Ratio (x) = -0.25562 0.45363
# Poissons Ratio (y) = -0.18617 0.12065
# Poissons Ratio (z) = 0.32740 0.11956
#
# Static dielectric constant tensor:
#      x y z
#    x 1.759220 0.000000 0.000000 
#    y 0.000000 1.749620 0.000000 
#    z 0.000000 0.000000 1.802260 
# 
# From -- ./inp_files/19219.got.cif
#   From: 2010.05.17/outbox.cif.g08.bks.cpg/sg57_10_cif.got.tgz:19219.got - 2010.06.03 13:58:18.
