data_PCOD9439354
_publ_section_title
;
Structure prediction by ZEFSAII (Michael W. Deem and Ramdas Pophale) SiO2 
 PCOD9439354
Probable space group: P B C M
;
_chemical_formula_sum "Si O2"
_cell_formula_units_Z 56
_cell_length_a 13.806286
_cell_length_b 10.718257
_cell_length_c 18.098618
_cell_angle_alpha 90.000000
_cell_angle_beta 90.000000
_cell_angle_gamma 90.000000
_cell_volume 2678.221213
_symmetry_space_group_name_H-M "P B C M"
_symmetry_group_IT_number 57
_symmetry_cell_setting 'orthorhombic'
loop_
_space_group_symop_operation_xyz
x,y,z
-x,-y,1/2+z
x,1/2-y,-z
-x,1/2+y,1/2-z
-x,-y,-z
x,y,1/2-z
-x,1/2+y,z
x,1/2-y,1/2+z
loop_
_atom_site_type_symbol
_atom_site_label
_atom_site_fract_x
_atom_site_fract_y
_atom_site_fract_z
Si Si1 0.402335 0.388194 0.169139
Si Si2 0.593002 0.263595 0.165712
Si Si3 0.059861 0.279253 0.663088
Si Si4 0.737832 0.405992 0.419515
Si Si5 0.963347 0.456445 0.080420
Si Si6 0.278598 0.350883 0.831546
Si Si7 0.589067 0.061619 0.455248
O O1 0.375419 0.438721 0.250000
O O2 0.518467 0.379674 0.162987
O O3 0.363410 0.248363 0.167163
O O4 0.363752 0.459980 0.099046
O O5 0.589545 0.217926 0.250000
O O6 0.698802 0.309493 0.141599
O O7 0.558198 0.167301 0.103253
O O8 0.032126 0.270409 0.750000
O O9 0.032634 0.416865 0.630553
O O10 0.176936 0.279389 0.659130
O O11 0.019256 0.161036 0.617257
O O12 0.852544 0.408782 0.428371
O O13 0.711600 0.544248 0.391808
O O14 0.671283 0.387399 0.490802
O O15 0.000000 0.500000 0.000000
O O16 0.275514 0.411328 0.750000
O O17 0.500000 0.000000 0.500000
#
# Coordination Sequence:
#
# PCOD9439354 Si02
#       7
#     8   8   8   8   8   8   8
#     4  10  22  39  61  88 122 163 209 259 310 371
#     4  11  24  41  62  89 126 170 214 262 319 386
#     4  10  22  43  70  95 127 169 223 272 331 407
#     4  11  24  41  64  91 128 166 211 262 327 393
#     4  11  25  44  67 100 133 174 216 283 350 411
#     4   9  20  40  65  91 119 160 209 261 317 383
#     4  12  24  39  61  92 128 165 213 263 318 381
#
# _framework density 20.909400000000002
#
# number of rings (size 3 to 8) (size 9 to 14) (size 15 to 20)
#    0.000    1.429    1.429    3.000    2.000    5.714 
#    0.000    0.000    0.000    0.000    0.000    0.000 
#    0.000    0.000    0.000    0.000    0.000    0.000 
#
# Total GULP energy -312585.297040 kJ/mol
# GULP energy per Si atom -5581.880304 kJ/mol
# Density = 2.086181 g / cm^3
# Si number density = 20.909400 Si / 1000 Ang^3
#
#
#
# Elastic Constant Matrix: (Units=GPa)
#
#
# Indices 1 2 3 4 5 6 
#
# 1 83.0558 37.5872 47.7868 0.0000 0.0000 0.0000
# 2 37.5872 83.1114 57.7932 0.0000 0.0000 0.0000
# 3 47.7868 57.7932 156.1675 0.0000 0.0000 0.0000
# 4 0.0000 0.0000 0.0000 192.8727 0.0000 0.0000
# 5 0.0000 0.0000 0.0000 0.0000 10.0709 0.0000
# 6 0.0000 0.0000 0.0000 0.0000 0.0000 29.9896
#
#
#
# Elastic Compliance Matrix: (Units=1/GPa)
#
#
# Indices 1 2 3 4 5 6 
#
# 1 0.016125 -0.005199 -0.003010 0.000000 0.000000 0.000000
# 2 -0.005199 0.017878 -0.005025 0.000000 0.000000 0.000000
# 3 -0.003010 -0.005025 0.009184 0.000000 0.000000 0.000000
# 4 0.000000 0.000000 0.000000 0.005185 0.000000 0.000000
# 5 0.000000 0.000000 0.000000 0.000000 0.099296 0.000000
# 6 0.000000 0.000000 0.000000 0.000000 0.000000 0.033345
#
#
# Mechanical properties :
#
#
# Convention : Reuss Voigt Hill
#
# Bulk Modulus (GPa) = 59.81659 67.62991 63.72325
# Shear Modulus (GPa) = 23.46822 58.53115 40.99968
#
# Velocity S-wave (km/s) = 3.35382 5.29656 4.43292
# Velocity P-wave (km/s) = 6.60811 8.35579 7.53280
#
# Compressibility (1/GPa) = 0.01671777
#
# Stress axis : x y z
#
# Youngs Moduli (GPa) = 62.01567 55.93545 108.88419
#
# Poissons Ratio (x) = 0.29083 0.32774
# Poissons Ratio (y) = 0.32245 0.54715
# Poissons Ratio (z) = 0.18667 0.28108
#
# Static dielectric constant tensor:
#      x y z
#    x 1.725880 0.000000 0.000000 
#    y 0.000000 1.781620 0.000000 
#    z 0.000000 0.000000 1.760870 
# 
# From -- ./inp_files/18548.got.cif
#   From: 2010.05.17/outbox.cif.g08.bks.cpg/sg57_10_cif.got.tgz:18548.got - 2010.06.03 13:58:18.
