data_PCOD9439672
_publ_section_title
;
Structure prediction by ZEFSAII (Michael W. Deem and Ramdas Pophale) SiO2 
 PCOD9439672
Probable space group: P B C M
;
_chemical_formula_sum "Si O2"
_cell_formula_units_Z 44
_cell_length_a 9.419218
_cell_length_b 7.886230
_cell_length_c 21.793714
_cell_angle_alpha 90.000000
_cell_angle_beta 90.000000
_cell_angle_gamma 90.000000
_cell_volume 1618.883269
_symmetry_space_group_name_H-M "P B C M"
_symmetry_group_IT_number 57
_symmetry_cell_setting 'orthorhombic'
loop_
_space_group_symop_operation_xyz
x,y,z
-x,-y,1/2+z
x,1/2-y,-z
-x,1/2+y,1/2-z
-x,-y,-z
x,y,1/2-z
-x,1/2+y,z
x,1/2-y,1/2+z
loop_
_atom_site_type_symbol
_atom_site_label
_atom_site_fract_x
_atom_site_fract_y
_atom_site_fract_z
Si Si1 0.270407 0.953016 0.346983
Si Si2 0.224476 0.471657 0.325528
Si Si3 0.371951 0.250000 0.500000
Si Si4 0.835930 0.448761 0.486424
Si Si5 0.027298 0.330843 0.680756
Si Si6 0.531052 0.743788 0.865062
O O1 0.216237 0.964599 0.416486
O O2 0.124654 0.000504 0.314738
O O3 0.375515 0.794622 0.338576
O O4 0.375902 0.111238 0.333398
O O5 0.232083 0.473886 0.250000
O O6 0.376453 0.426910 0.352496
O O7 0.123122 0.623913 0.348607
O O8 0.126706 0.311455 0.347167
O O9 0.269741 0.410360 0.484614
O O10 0.465462 0.223183 0.438529
O O11 0.818544 0.250000 0.500000
O O12 0.000000 0.500000 0.500000
O O13 0.998415 0.282864 0.750000
#
# Coordination Sequence:
#
# PCOD9439672 Si02
#       6
#     8   8   4   8   8   8
#     4  10  24  38  59  88 119 159 202 249 304 366
#     4   9  19  37  61  87 118 154 198 250 303 361
#     4  10  24  42  60  90 128 160 206 256 302 370
#     4  11  24  40  63  92 121 162 203 255 307 360
#     4   9  19  37  60  88 119 154 198 252 304 359
#     4  10  23  40  58  86 121 160 201 249 304 366
#
# _framework density 27.179228999999999
#
# number of rings (size 3 to 8) (size 9 to 14) (size 15 to 20)
#    0.000    2.182    0.909    0.000    6.364    5.091 
#    0.000    0.000    0.000    0.000    0.000    0.000 
#    0.000    0.000    0.000    0.000    0.000    0.000 
#
# Total GULP energy -245987.320910 kJ/mol
# GULP energy per Si atom -5590.620930 kJ/mol
# Density = 2.711737 g / cm^3
# Si number density = 27.179229 Si / 1000 Ang^3
#
#
#
# Elastic Constant Matrix: (Units=GPa)
#
#
# Indices 1 2 3 4 5 6 
#
# 1 188.7587 31.9346 -3.8661 0.0000 0.0000 0.0000
# 2 31.9346 95.8298 1.1127 0.0000 0.0000 0.0000
# 3 -3.8661 1.1127 53.9783 0.0000 0.0000 0.0000
# 4 0.0000 0.0000 0.0000 29.5892 0.0000 0.0000
# 5 0.0000 0.0000 0.0000 0.0000 -9.9355 0.0000
# 6 0.0000 0.0000 0.0000 0.0000 0.0000 54.3244
#
#
#
# Elastic Compliance Matrix: (Units=1/GPa)
#
#
# Indices 1 2 3 4 5 6 
#
# 1 0.005625 -0.001880 0.000442 0.000000 0.000000 0.000000
# 2 -0.001880 0.011066 -0.000363 0.000000 0.000000 0.000000
# 3 0.000442 -0.000363 0.018565 0.000000 0.000000 0.000000
# 4 0.000000 0.000000 0.000000 0.033796 0.000000 0.000000
# 5 0.000000 0.000000 0.000000 0.000000 -0.100649 0.000000
# 6 0.000000 0.000000 0.000000 0.000000 0.000000 0.018408
#
#
# Mechanical properties :
#
#
# Convention : Reuss Voigt Hill
#
# Bulk Modulus (GPa) = 31.59132 44.10326 37.84729
# Shear Modulus (GPa) = 5191.31671 35.42133 2613.36902
#
# Velocity S-wave (km/s) = 43.75131 3.61397 31.04221
# Velocity P-wave (km/s) = 50.63482 5.80314 36.03860
#
# Compressibility (1/GPa) = 0.03165426
#
# Stress axis : x y z
#
# Youngs Moduli (GPa) = 177.78404 90.36910 53.86456
#
# Poissons Ratio (x) = 0.16985 -0.02379
# Poissons Ratio (y) = 0.33415 0.01954
# Poissons Ratio (z) = -0.07851 0.03278
#
# Static dielectric constant tensor:
#      x y z
#    x 2.107720 0.000000 0.000000 
#    y 0.000000 2.351220 0.000000 
#    z 0.000000 0.000000 2.176960 
# 
# From -- ./inp_files/29411.got.cif
#   From: 2010.05.17/outbox.cif.g08.bks.cpg/sg57_15_cif.got.tgz:29411.got - 2010.06.03 13:58:18.
