data_PCOD9439980
_publ_section_title
;
Structure prediction by ZEFSAII (Michael W. Deem and Ramdas Pophale) SiO2 
 PCOD9439980
Probable space group: P B C M
;
_chemical_formula_sum "Si O2"
_cell_formula_units_Z 48
_cell_length_a 15.745127
_cell_length_b 21.276255
_cell_length_c 8.029815
_cell_angle_alpha 90.000000
_cell_angle_beta 90.000000
_cell_angle_gamma 90.000000
_cell_volume 2689.966642
_symmetry_space_group_name_H-M "P B C M"
_symmetry_group_IT_number 57
_symmetry_cell_setting 'orthorhombic'
loop_
_space_group_symop_operation_xyz
x,y,z
-x,-y,1/2+z
x,1/2-y,-z
-x,1/2+y,1/2-z
-x,-y,-z
x,y,1/2-z
-x,1/2+y,z
x,1/2-y,1/2+z
loop_
_atom_site_type_symbol
_atom_site_label
_atom_site_fract_x
_atom_site_fract_y
_atom_site_fract_z
Si Si1 0.235212 0.489759 0.050884
Si Si2 0.421029 0.457238 0.451225
Si Si3 0.011495 0.316557 0.448450
Si Si4 0.616143 0.682724 0.950869
Si Si5 0.068742 0.552569 0.051482
Si Si6 0.196534 0.344293 0.449062
O O1 0.242346 0.501076 0.250000
O O2 0.331674 0.486864 0.986094
O O3 0.162520 0.535517 0.982800
O O4 0.199121 0.419340 0.030256
O O5 0.500000 0.500000 0.500000
O O6 0.416463 0.455619 0.250000
O O7 0.424927 0.383737 0.506004
O O8 0.972847 0.250000 0.500000
O O9 0.017383 0.318844 0.250000
O O10 0.962136 0.378475 0.503081
O O11 0.107988 0.319806 0.519774
O O12 0.618575 0.680685 0.750000
O O13 0.713852 0.680659 0.016117
O O14 0.577816 0.750000 0.000000
O O15 0.073825 0.549124 0.250000
O O16 0.000000 0.500000 0.000000
O O17 0.197267 0.331954 0.250000
#
# Coordination Sequence:
#
# PCOD9439980 Si02
#       6
#     8   8   8   8   8   8
#     4   8  15  30  51  72  97 132 165 199 249 303
#     4   9  18  33  53  75 100 130 164 205 254 303
#     4  11  21  33  48  70 102 138 175 215 257 301
#     4   9  17  29  47  70  99 131 161 194 241 299
#     4  11  20  33  53  75 100 135 176 212 251 300
#     4   8  14  27  46  68  97 131 162 194 238 295
#
# _framework density 17.844086999999998
#
# number of rings (size 3 to 8) (size 9 to 14) (size 15 to 20)
#    0.000    2.667    1.667    3.500    0.000    0.667 
#    0.000    2.500    0.000    1.000    0.000    2.333 
#    0.000    0.000    0.000    0.000    0.000    0.000 
#
# Total GULP energy -267396.696677 kJ/mol
# GULP energy per Si atom -5570.764514 kJ/mol
# Density = 1.780347 g / cm^3
# Si number density = 17.844087 Si / 1000 Ang^3
#
#
#
# Elastic Constant Matrix: (Units=GPa)
#
#
# Indices 1 2 3 4 5 6 
#
# 1 105.5681 84.7798 10.7701 0.0000 0.0000 0.0000
# 2 84.7798 134.7098 9.0811 0.0000 0.0000 0.0000
# 3 10.7701 9.0811 23.9907 0.0000 0.0000 0.0000
# 4 0.0000 0.0000 0.0000 25.4319 0.0000 0.0000
# 5 0.0000 0.0000 0.0000 0.0000 16.0304 0.0000
# 6 0.0000 0.0000 0.0000 0.0000 0.0000 25.9106
#
#
#
# Elastic Compliance Matrix: (Units=1/GPa)
#
#
# Indices 1 2 3 4 5 6 
#
# 1 0.019562 -0.012026 -0.004230 0.000000 0.000000 0.000000
# 2 -0.012026 0.015011 -0.000283 0.000000 0.000000 0.000000
# 3 -0.004230 -0.000283 0.043689 0.000000 0.000000 0.000000
# 4 0.000000 0.000000 0.000000 0.039321 0.000000 0.000000
# 5 0.000000 0.000000 0.000000 0.000000 0.062381 0.000000
# 6 0.000000 0.000000 0.000000 0.000000 0.000000 0.038594
#
#
# Mechanical properties :
#
#
# Convention : Reuss Voigt Hill
#
# Bulk Modulus (GPa) = 22.13186 52.61451 37.37318
# Shear Modulus (GPa) = 18.74776 24.11708 21.43242
#
# Velocity S-wave (km/s) = 3.24488 3.68032 3.46944
# Velocity P-wave (km/s) = 5.14478 6.89996 6.08598
#
# Compressibility (1/GPa) = 0.04518374
#
# Stress axis : x y z
#
# Youngs Moduli (GPa) = 51.11883 66.61655 22.88916
#
# Poissons Ratio (x) = 0.80116 0.09681
# Poissons Ratio (y) = 0.61478 0.00648
# Poissons Ratio (z) = 0.21622 0.01887
#
# Static dielectric constant tensor:
#      x y z
#    x 1.633920 0.000000 0.000000 
#    y 0.000000 1.558290 0.000000 
#    z 0.000000 0.000000 1.645310 
# 
# From -- ./inp_files/4861.got.cif
#   From: 2010.05.17/outbox.cif.g08.bks.cpg/sg57_3_cif.got.tgz:4861.got - 2010.06.03 13:58:18.
