data_PCOD9439909
_publ_section_title
;
Structure prediction by ZEFSAII (Michael W. Deem and Ramdas Pophale) SiO2 
 PCOD9439909
Probable space group: P B C M
;
_chemical_formula_sum "Si O2"
_cell_formula_units_Z 32
_cell_length_a 5.084050
_cell_length_b 13.805646
_cell_length_c 18.170601
_cell_angle_alpha 90.000000
_cell_angle_beta 90.000000
_cell_angle_gamma 90.000000
_cell_volume 1275.368946
_symmetry_space_group_name_H-M "P B C M"
_symmetry_group_IT_number 57
_symmetry_cell_setting 'orthorhombic'
loop_
_space_group_symop_operation_xyz
x,y,z
-x,-y,1/2+z
x,1/2-y,-z
-x,1/2+y,1/2-z
-x,-y,-z
x,y,1/2-z
-x,1/2+y,z
x,1/2-y,1/2+z
loop_
_atom_site_type_symbol
_atom_site_label
_atom_site_fract_x
_atom_site_fract_y
_atom_site_fract_z
Si Si1 0.511160 0.046138 0.865980
Si Si2 0.015859 0.582730 0.368844
Si Si3 0.797025 0.642877 0.976958
Si Si4 0.105032 0.803228 0.329458
O O1 0.445463 0.078247 0.950021
O O2 0.605349 0.148432 0.832142
O O3 0.030279 0.100687 0.043392
O O4 0.746104 0.971529 0.849238
O O5 0.251901 0.513090 0.345809
O O6 0.079136 0.687969 0.336597
O O7 0.967803 0.656669 0.903024
O O8 0.703482 0.750000 0.000000
O O9 0.990823 0.831077 0.250000
#
# Coordination Sequence:
#
# PCOD9439909 Si02
#       4
#     8   8   8   8
#     4  12  25  48  76 109 146 193 247 306 374 441
#     4  11  27  46  79 109 145 196 251 310 368 442
#     4  10  24  46  78 112 150 190 246 312 379 439
#     4  11  28  49  71 109 155 196 246 306 373 450
#
# _framework density 25.090779999999999
#
# number of rings (size 3 to 8) (size 9 to 14) (size 15 to 20)
#    0.000    1.000    2.500    1.500   10.500    4.000 
#    0.000    0.000    0.000    0.000    0.000    0.000 
#    0.000    0.000    0.000    0.000    0.000    0.000 
#
# Total GULP energy -178777.174595 kJ/mol
# GULP energy per Si atom -5586.786706 kJ/mol
# Density = 2.503367 g / cm^3
# Si number density = 25.090780 Si / 1000 Ang^3
#
#
#
# Elastic Constant Matrix: (Units=GPa)
#
#
# Indices 1 2 3 4 5 6 
#
# 1 169.3985 71.0269 32.4544 0.0000 0.0000 0.0000
# 2 71.0269 125.9011 31.3968 0.0000 0.0000 0.0000
# 3 32.4544 31.3968 146.0619 0.0000 0.0000 0.0000
# 4 0.0000 0.0000 0.0000 -1.5660 0.0000 0.0000
# 5 0.0000 0.0000 0.0000 0.0000 14.2169 0.0000
# 6 0.0000 0.0000 0.0000 0.0000 0.0000 41.7347
#
#
#
# Elastic Compliance Matrix: (Units=1/GPa)
#
#
# Indices 1 2 3 4 5 6 
#
# 1 0.007827 -0.004208 -0.000835 0.000000 0.000000 0.000000
# 2 -0.004208 0.010654 -0.001355 0.000000 0.000000 0.000000
# 3 -0.000835 -0.001355 0.007323 0.000000 0.000000 0.000000
# 4 0.000000 0.000000 0.000000 -0.638581 0.000000 0.000000
# 5 0.000000 0.000000 0.000000 0.000000 0.070339 0.000000
# 6 0.000000 0.000000 0.000000 0.000000 0.000000 0.023961
#
#
# Mechanical properties :
#
#
# Convention : Reuss Voigt Hill
#
# Bulk Modulus (GPa) = 76.86606 79.01310 77.93958
# Shear Modulus (GPa) = -9.97318 31.30934 10.66808
#
# Velocity S-wave (km/s) = -1.99586 3.53631 2.06422
# Velocity P-wave (km/s) = 5.03889 6.94502 6.06728
#
# Compressibility (1/GPa) = 0.01300964
#
# Stress axis : x y z
#
# Youngs Moduli (GPa) = 127.75666 93.85747 136.55181
#
# Poissons Ratio (x) = 0.39492 0.11399
# Poissons Ratio (y) = 0.53755 0.18507
# Poissons Ratio (z) = 0.10665 0.12721
#
# Static dielectric constant tensor:
#      x y z
#    x 2.033140 0.000000 0.000000 
#    y 0.000000 1.992700 0.000000 
#    z 0.000000 0.000000 1.259520 
# 
# From -- ./inp_files/19895.got.cif
#   From: 2010.05.17/outbox.cif.g08.bks.cpg/sg57_10_cif.got.tgz:19895.got - 2010.06.03 13:58:18.
