data_PCOD9439949
_publ_section_title
;
Structure prediction by ZEFSAII (Michael W. Deem and Ramdas Pophale) SiO2 
 PCOD9439949
Probable space group: P B C M
;
_chemical_formula_sum "Si O2"
_cell_formula_units_Z 44
_cell_length_a 4.831866
_cell_length_b 16.939924
_cell_length_c 22.940997
_cell_angle_alpha 90.000000
_cell_angle_beta 90.000000
_cell_angle_gamma 90.000000
_cell_volume 1877.753704
_symmetry_space_group_name_H-M "P B C M"
_symmetry_group_IT_number 57
_symmetry_cell_setting 'orthorhombic'
loop_
_space_group_symop_operation_xyz
x,y,z
-x,-y,1/2+z
x,1/2-y,-z
-x,1/2+y,1/2-z
-x,-y,-z
x,y,1/2-z
-x,1/2+y,z
x,1/2-y,1/2+z
loop_
_atom_site_type_symbol
_atom_site_label
_atom_site_fract_x
_atom_site_fract_y
_atom_site_fract_z
Si Si1 0.058287 0.873011 0.920835
Si Si2 0.253854 0.812017 0.750000
Si Si3 0.377121 0.750000 0.500000
Si Si4 0.752734 0.577883 0.250000
Si Si5 0.043513 0.273712 0.352176
Si Si6 0.583037 0.532442 0.119945
Si Si7 0.520511 0.352485 0.396411
O O1 0.322180 0.909578 0.887610
O O2 0.891708 0.808661 0.883294
O O3 0.829132 0.941092 0.924173
O O4 0.190386 0.819099 0.971201
O O5 0.068147 0.892100 0.750000
O O6 0.153946 0.757978 0.802347
O O7 0.566341 0.842068 0.750000
O O8 0.554641 0.700981 0.547319
O O9 0.685223 0.535235 0.188024
O O10 0.325243 0.320563 0.344465
O O11 0.841638 0.331190 0.387939
O O12 0.490171 0.445415 0.101248
#
# Coordination Sequence:
#
# PCOD9439949 Si02
#       7
#     8   4   4   4   8   8   8
#     4  11  23  43  68  96 132 176 228 277 332 408
#     4  12  22  38  72  96 126 186 220 270 338 414
#     4  10  26  46  70  96 136 186 236 288 342 390
#     4  12  22  40  66 102 134 174 212 280 344 408
#     4  11  22  42  65  97 130 173 227 270 329 407
#     4  12  24  42  67 101 137 173 221 280 348 406
#     4  11  26  43  66  99 139 173 226 288 333 400
#
# _framework density 23.432252999999999
#
# number of rings (size 3 to 8) (size 9 to 14) (size 15 to 20)
#    0.000    0.727    3.636    4.364    0.000    9.455 
#    0.000    0.000    0.000    0.000    0.000    0.000 
#    0.000    0.000    0.000    0.000    0.000    0.000 
#
# Total GULP energy -245584.966866 kJ/mol
# GULP energy per Si atom -5581.476520 kJ/mol
# Density = 2.337892 g / cm^3
# Si number density = 23.432253 Si / 1000 Ang^3
#
#
#
# Elastic Constant Matrix: (Units=GPa)
#
#
# Indices 1 2 3 4 5 6 
#
# 1 93.4959 26.0821 -8.7677 0.0000 0.0000 0.0000
# 2 26.0821 117.4511 40.0741 0.0000 0.0000 0.0000
# 3 -8.7677 40.0741 58.2451 0.0000 0.0000 0.0000
# 4 0.0000 0.0000 0.0000 26.8558 0.0000 0.0000
# 5 0.0000 0.0000 0.0000 0.0000 31.3099 0.0000
# 6 0.0000 0.0000 0.0000 0.0000 0.0000 36.9706
#
#
#
# Elastic Compliance Matrix: (Units=1/GPa)
#
#
# Indices 1 2 3 4 5 6 
#
# 1 0.012391 -0.004428 0.004912 0.000000 0.000000 0.000000
# 2 -0.004428 0.012708 -0.009410 0.000000 0.000000 0.000000
# 3 0.004912 -0.009410 0.024382 0.000000 0.000000 0.000000
# 4 0.000000 0.000000 0.000000 0.037236 0.000000 0.000000
# 5 0.000000 0.000000 0.000000 0.000000 0.031939 0.000000
# 6 0.000000 0.000000 0.000000 0.000000 0.000000 0.027049
#
#
# Mechanical properties :
#
#
# Convention : Reuss Voigt Hill
#
# Bulk Modulus (GPa) = 31.61556 42.66324 37.13940
# Shear Modulus (GPa) = 28.71909 33.14750 30.93329
#
# Velocity S-wave (km/s) = 3.50469 3.76521 3.63728
# Velocity P-wave (km/s) = 5.46797 6.09500 5.78998
#
# Compressibility (1/GPa) = 0.03162999
#
# Stress axis : x y z
#
# Youngs Moduli (GPa) = 80.70133 78.69033 41.01316
#
# Poissons Ratio (x) = 0.34840 -0.20144
# Poissons Ratio (y) = 0.35731 0.38593
# Poissons Ratio (z) = -0.39637 0.74047
#
# Static dielectric constant tensor:
#      x y z
#    x 1.855860 0.000000 0.000000 
#    y 0.000000 1.856170 0.000000 
#    z 0.000000 0.000000 2.107500 
# 
# From -- ./inp_files/27927.got.cif
#   From: 2010.05.17/outbox.cif.g08.bks.cpg/sg57_14_cif.got.tgz:27927.got - 2010.06.03 13:58:18.
