data_PCOD9439242
_publ_section_title
;
Structure prediction by ZEFSAII (Michael W. Deem and Ramdas Pophale) SiO2 
 PCOD9439242
Probable space group: P B C M
;
_chemical_formula_sum "Si O2"
_cell_formula_units_Z 20
_cell_length_a 4.663085
_cell_length_b 14.601464
_cell_length_c 10.288309
_cell_angle_alpha 90.000000
_cell_angle_beta 90.000000
_cell_angle_gamma 90.000000
_cell_volume 700.509023
_symmetry_space_group_name_H-M "P B C M"
_symmetry_group_IT_number 57
_symmetry_cell_setting 'orthorhombic'
loop_
_space_group_symop_operation_xyz
x,y,z
-x,-y,1/2+z
x,1/2-y,-z
-x,1/2+y,1/2-z
-x,-y,-z
x,y,1/2-z
-x,1/2+y,z
x,1/2-y,1/2+z
loop_
_atom_site_type_symbol
_atom_site_label
_atom_site_fract_x
_atom_site_fract_y
_atom_site_fract_z
Si Si1 0.373326 0.750000 0.500000
Si Si2 0.149612 0.558256 0.750000
Si Si3 0.667466 0.815938 0.250000
Si Si4 0.285460 0.555372 0.401063
O O1 0.578582 0.766098 0.378477
O O2 0.219654 0.654319 0.465329
O O3 0.477296 0.590209 0.750000
O O4 0.000258 0.502477 0.633030
O O5 0.996001 0.657338 0.750000
O O6 0.500000 0.500000 0.500000
O O7 0.400102 0.576956 0.250000
#
# Coordination Sequence:
#
# PCOD9439242 Si02
#       4
#     4   4   4   8
#     4  12  22  44  72 112 142 198 244 304 364 438
#     4  10  25  46  71 103 141 196 231 304 359 429
#     4  12  25  46  75 101 151 184 249 294 367 431
#     4  10  21  44  72 106 146 193 242 300 363 435
#
# _framework density 28.550663
#
# number of rings (size 3 to 8) (size 9 to 14) (size 15 to 20)
#    1.200    0.000    6.000    0.000    0.000    3.200 
#    0.000    4.000    0.000    0.000    0.000    0.000 
#    0.000    0.000    0.000    0.000    0.000    0.000 
#
# Total GULP energy -111873.446230 kJ/mol
# GULP energy per Si atom -5593.672311 kJ/mol
# Density = 2.848568 g / cm^3
# Si number density = 28.550663 Si / 1000 Ang^3
#
#
#
# Elastic Constant Matrix: (Units=GPa)
#
#
# Indices 1 2 3 4 5 6 
#
# 1 127.1479 26.6395 35.4709 0.0000 0.0000 0.0000
# 2 26.6395 182.9323 43.7323 0.0000 0.0000 0.0000
# 3 35.4709 43.7323 249.3497 0.0000 0.0000 0.0000
# 4 0.0000 0.0000 0.0000 60.3627 0.0000 0.0000
# 5 0.0000 0.0000 0.0000 0.0000 41.1672 0.0000
# 6 0.0000 0.0000 0.0000 0.0000 0.0000 35.5605
#
#
#
# Elastic Compliance Matrix: (Units=1/GPa)
#
#
# Indices 1 2 3 4 5 6 
#
# 1 0.008353 -0.000973 -0.001018 0.000000 0.000000 0.000000
# 2 -0.000973 0.005819 -0.000882 0.000000 0.000000 0.000000
# 3 -0.001018 -0.000882 0.004310 0.000000 0.000000 0.000000
# 4 0.000000 0.000000 0.000000 0.016567 0.000000 0.000000
# 5 0.000000 0.000000 0.000000 0.000000 0.024291 0.000000
# 6 0.000000 0.000000 0.000000 0.000000 0.000000 0.028121
#
#
# Mechanical properties :
#
#
# Convention : Reuss Voigt Hill
#
# Bulk Modulus (GPa) = 78.51728 85.67945 82.09836
# Shear Modulus (GPa) = 51.30771 57.65725 54.48248
#
# Velocity S-wave (km/s) = 4.24379 4.49873 4.37312
# Velocity P-wave (km/s) = 7.18149 7.55377 7.36998
#
# Compressibility (1/GPa) = 0.01273605
#
# Stress axis : x y z
#
# Youngs Moduli (GPa) = 119.72325 171.84790 232.02416
#
# Poissons Ratio (x) = 0.16722 0.23609
# Poissons Ratio (y) = 0.11650 0.20468
# Poissons Ratio (z) = 0.12182 0.15160
#
# Static dielectric constant tensor:
#      x y z
#    x 2.178170 0.000000 0.000000 
#    y 0.000000 2.243440 0.000000 
#    z 0.000000 0.000000 2.548370 
# 
# From -- ./inp_files/647.got.cif
#   From: 2010.05.17/outbox.cif.g08.bks.cpg/sg57_1_cif.got.tgz:647.got - 2010.06.03 13:58:18.
