data_PCOD9439899
_publ_section_title
;
Structure prediction by ZEFSAII (Michael W. Deem and Ramdas Pophale) SiO2 
 PCOD9439899
Probable space group: P B C M
;
_chemical_formula_sum "Si O2"
_cell_formula_units_Z 32
_cell_length_a 7.656793
_cell_length_b 12.052034
_cell_length_c 14.611040
_cell_angle_alpha 90.000000
_cell_angle_beta 90.000000
_cell_angle_gamma 90.000000
_cell_volume 1348.305742
_symmetry_space_group_name_H-M "P B C M"
_symmetry_group_IT_number 57
_symmetry_cell_setting 'orthorhombic'
loop_
_space_group_symop_operation_xyz
x,y,z
-x,-y,1/2+z
x,1/2-y,-z
-x,1/2+y,1/2-z
-x,-y,-z
x,y,1/2-z
-x,1/2+y,z
x,1/2-y,1/2+z
loop_
_atom_site_type_symbol
_atom_site_label
_atom_site_fract_x
_atom_site_fract_y
_atom_site_fract_z
Si Si1 0.341702 0.939223 0.357425
Si Si2 0.256468 0.025455 0.852389
Si Si3 0.184484 0.363004 0.526222
Si Si4 0.146122 0.715689 0.357281
O O1 0.300987 0.959020 0.250000
O O2 0.243785 0.827105 0.387004
O O3 0.550206 0.926012 0.363488
O O4 0.285584 0.045119 0.416007
O O5 0.190510 0.049058 0.750000
O O6 0.268487 0.893023 0.862484
O O7 0.137108 0.076649 0.930916
O O8 0.285550 0.250000 0.500000
O O9 0.021392 0.318917 0.584326
O O10 0.098127 0.728140 0.250000
#
# Coordination Sequence:
#
# PCOD9439899 Si02
#       4
#     8   8   8   8
#     4  10  24  47  74 104 142 185 238 299 355 417
#     4  10  24  46  72 102 139 186 237 293 357 419
#     4  12  27  42  68 106 144 186 233 285 354 428
#     4  10  24  45  72 103 140 182 234 295 353 421
#
# _framework density 23.73349
#
# number of rings (size 3 to 8) (size 9 to 14) (size 15 to 20)
#    0.000    1.500    0.000    2.250   10.500    2.000 
#    0.000    0.000    0.000    0.000    0.000    0.000 
#    0.000    0.000    0.000    0.000    0.000    0.000 
#
# Total GULP energy -179216.618960 kJ/mol
# GULP energy per Si atom -5600.519343 kJ/mol
# Density = 2.367947 g / cm^3
# Si number density = 23.733490 Si / 1000 Ang^3
#
#
#
# Elastic Constant Matrix: (Units=GPa)
#
#
# Indices 1 2 3 4 5 6 
#
# 1 64.9263 34.2709 41.7130 0.0000 0.0000 0.0000
# 2 34.2709 169.0319 73.7616 0.0000 0.0000 0.0000
# 3 41.7130 73.7616 117.0393 0.0000 0.0000 0.0000
# 4 0.0000 0.0000 0.0000 43.3718 0.0000 0.0000
# 5 0.0000 0.0000 0.0000 0.0000 17.6953 0.0000
# 6 0.0000 0.0000 0.0000 0.0000 0.0000 36.7378
#
#
#
# Elastic Compliance Matrix: (Units=1/GPa)
#
#
# Indices 1 2 3 4 5 6 
#
# 1 0.020186 -0.001315 -0.006366 0.000000 0.000000 0.000000
# 2 -0.001315 0.008246 -0.004728 0.000000 0.000000 0.000000
# 3 -0.006366 -0.004728 0.013793 0.000000 0.000000 0.000000
# 4 0.000000 0.000000 0.000000 0.023056 0.000000 0.000000
# 5 0.000000 0.000000 0.000000 0.000000 0.056512 0.000000
# 6 0.000000 0.000000 0.000000 0.000000 0.000000 0.027220
#
#
# Mechanical properties :
#
#
# Convention : Reuss Voigt Hill
#
# Bulk Modulus (GPa) = 57.44776 72.27651 64.86213
# Shear Modulus (GPa) = 27.83457 32.97775 30.40616
#
# Velocity S-wave (km/s) = 3.42833 3.73165 3.58320
# Velocity P-wave (km/s) = 6.31895 7.00617 6.67142
#
# Compressibility (1/GPa) = 0.01740712
#
# Stress axis : x y z
#
# Youngs Moduli (GPa) = 49.53980 121.27237 72.50207
#
# Poissons Ratio (x) = 0.15945 0.46152
# Poissons Ratio (y) = 0.06514 0.34280
# Poissons Ratio (z) = 0.31535 0.57340
#
# Static dielectric constant tensor:
#      x y z
#    x 1.883870 0.000000 0.000000 
#    y 0.000000 1.897380 0.000000 
#    z 0.000000 0.000000 1.933780 
# 
# From -- ./inp_files/15524.got.cif
#   From: 2010.05.17/outbox.cif.g08.bks.cpg/sg57_8_cif.got.tgz:15524.got - 2010.06.03 13:58:18.
