data_PCOD9439516
_publ_section_title
;
Structure prediction by ZEFSAII (Michael W. Deem and Ramdas Pophale) SiO2 
 PCOD9439516
Probable space group: P B C M
;
_chemical_formula_sum "Si O2"
_cell_formula_units_Z 48
_cell_length_a 6.940307
_cell_length_b 11.685891
_cell_length_c 24.445603
_cell_angle_alpha 90.000000
_cell_angle_beta 90.000000
_cell_angle_gamma 90.000000
_cell_volume 1982.628146
_symmetry_space_group_name_H-M "P B C M"
_symmetry_group_IT_number 57
_symmetry_cell_setting 'orthorhombic'
loop_
_space_group_symop_operation_xyz
x,y,z
-x,-y,1/2+z
x,1/2-y,-z
-x,1/2+y,1/2-z
-x,-y,-z
x,y,1/2-z
-x,1/2+y,z
x,1/2-y,1/2+z
loop_
_atom_site_type_symbol
_atom_site_label
_atom_site_fract_x
_atom_site_fract_y
_atom_site_fract_z
Si Si1 0.174946 0.033785 0.542236
Si Si2 0.250016 0.365253 0.561319
Si Si3 0.660325 0.461247 0.250000
Si Si4 0.198617 0.793910 0.561359
Si Si5 0.695026 0.084068 0.633925
Si Si6 0.283497 0.170118 0.863816
Si Si7 0.646375 0.759693 0.750000
O O1 0.294626 0.117141 0.502483
O O2 0.133498 0.098566 0.598925
O O3 0.286425 0.920504 0.559617
O O4 0.000000 0.000000 0.500000
O O5 0.262556 0.486640 0.590443
O O6 0.358199 0.272611 0.597265
O O7 0.029506 0.320822 0.566491
O O8 0.776555 0.446147 0.306446
O O9 0.523441 0.341585 0.250000
O O10 0.595536 0.600828 0.250000
O O11 0.230827 0.750000 0.500000
O O12 0.250480 0.705474 0.608123
O O13 0.464385 0.086368 0.643628
O O14 0.238657 0.228049 0.805731
#
# Coordination Sequence:
#
# PCOD9439516 Si02
#       7
#     8   8   4   8   8   8   4
#     4  10  22  41  66  96 137 187 224 280 358 437
#     4  11  22  41  66  92 137 176 223 284 359 422
#     4  10  22  46  67  99 145 189 241 300 375 407
#     4  11  23  41  66  94 136 184 222 278 360 434
#     4  11  25  41  67 100 134 179 238 296 347 433
#     4  11  24  40  68  99 134 178 241 292 359 412
#     4  10  22  42  71  97 137 195 235 304 357 433
#
# _framework density 24.210287000000001
#
# number of rings (size 3 to 8) (size 9 to 14) (size 15 to 20)
#    0.000    1.333    3.333    2.500    4.667    3.333 
#    0.000    1.667    0.000    3.000    0.000    0.000 
#    0.000    0.000    0.000    0.000    0.000    0.000 
#
# Total GULP energy -267472.077912 kJ/mol
# GULP energy per Si atom -5572.334956 kJ/mol
# Density = 2.415518 g / cm^3
# Si number density = 24.210287 Si / 1000 Ang^3
#
#
#
# Elastic Constant Matrix: (Units=GPa)
#
#
# Indices 1 2 3 4 5 6 
#
# 1 37.3031 11.4632 12.3324 0.0000 0.0000 0.0000
# 2 11.4632 161.6986 77.9540 0.0000 0.0000 0.0000
# 3 12.3324 77.9540 208.9609 0.0000 0.0000 0.0000
# 4 0.0000 0.0000 0.0000 46.6236 0.0000 0.0000
# 5 0.0000 0.0000 0.0000 0.0000 19.1754 0.0000
# 6 0.0000 0.0000 0.0000 0.0000 0.0000 34.9629
#
#
#
# Elastic Compliance Matrix: (Units=1/GPa)
#
#
# Indices 1 2 3 4 5 6 
#
# 1 0.027609 -0.001429 -0.001096 0.000000 0.000000 0.000000
# 2 -0.001429 0.007614 -0.002756 0.000000 0.000000 0.000000
# 3 -0.001096 -0.002756 0.005879 0.000000 0.000000 0.000000
# 4 0.000000 0.000000 0.000000 0.021448 0.000000 0.000000
# 5 0.000000 0.000000 0.000000 0.000000 0.052150 0.000000
# 6 0.000000 0.000000 0.000000 0.000000 0.000000 0.028602
#
#
# Mechanical properties :
#
#
# Convention : Reuss Voigt Hill
#
# Bulk Modulus (GPa) = 32.74494 67.94021 50.34258
# Shear Modulus (GPa) = 30.47948 40.56656 35.52302
#
# Velocity S-wave (km/s) = 3.55201 4.09784 3.83465
# Velocity P-wave (km/s) = 5.51153 7.10726 6.35965
#
# Compressibility (1/GPa) = 0.03053907
#
# Stress axis : x y z
#
# Youngs Moduli (GPa) = 36.22020 131.32984 170.11019
#
# Poissons Ratio (x) = 0.18763 0.18652
# Poissons Ratio (y) = 0.05175 0.46887
# Poissons Ratio (z) = 0.03971 0.36198
#
# Static dielectric constant tensor:
#      x y z
#    x 2.111520 0.000000 0.000000 
#    y 0.000000 2.121870 0.000000 
#    z 0.000000 0.000000 1.990620 
# 
# From -- ./inp_files/26744.got.cif
#   From: 2010.05.17/outbox.cif.g08.bks.cpg/sg57_14_cif.got.tgz:26744.got - 2010.06.03 13:58:18.
