data_PCOD9439299
_publ_section_title
;
Structure prediction by ZEFSAII (Michael W. Deem and Ramdas Pophale) SiO2 
 PCOD9439299
Probable space group: P B C M
;
_chemical_formula_sum "Si O2"
_cell_formula_units_Z 36
_cell_length_a 13.811965
_cell_length_b 9.616119
_cell_length_c 14.118637
_cell_angle_alpha 90.000000
_cell_angle_beta 90.000000
_cell_angle_gamma 90.000000
_cell_volume 1875.202057
_symmetry_space_group_name_H-M "P B C M"
_symmetry_group_IT_number 57
_symmetry_cell_setting 'orthorhombic'
loop_
_space_group_symop_operation_xyz
x,y,z
-x,-y,1/2+z
x,1/2-y,-z
-x,1/2+y,1/2-z
-x,-y,-z
x,y,1/2-z
-x,1/2+y,z
x,1/2-y,1/2+z
loop_
_atom_site_type_symbol
_atom_site_label
_atom_site_fract_x
_atom_site_fract_y
_atom_site_fract_z
Si Si1 0.761186 0.750000 0.500000
Si Si2 0.597571 0.859628 0.364704
Si Si3 0.193440 0.738134 0.362608
Si Si4 0.411127 0.820121 0.864301
Si Si5 0.886013 0.023915 0.508342
O O1 0.690490 0.791859 0.413841
O O2 0.828501 0.618609 0.477508
O O3 0.606828 0.857386 0.250000
O O4 0.502284 0.772585 0.392222
O O5 0.586735 0.019911 0.396872
O O6 0.183532 0.730870 0.250000
O O7 0.307500 0.746421 0.387669
O O8 0.138951 0.869091 0.407508
O O9 0.152326 0.601229 0.413824
O O10 0.414973 0.826661 0.750000
O O11 0.000000 0.000000 0.500000
#
# Coordination Sequence:
#
# PCOD9439299 Si02
#       5
#     4   8   8   8   8
#     4  12  24  38  64  94 124 168 206 256 320 374
#     4  10  22  38  59  91 130 165 205 254 305 372
#     4  10  22  44  69  89 123 170 207 251 316 376
#     4   9  19  38  61  89 126 165 204 251 302 365
#     4  11  25  44  64  92 127 159 211 271 313 363
#
# _framework density 19.197932000000002
#
# number of rings (size 3 to 8) (size 9 to 14) (size 15 to 20)
#    0.000    1.778    2.222    1.333    3.111    4.444 
#    0.000    2.222    0.000    0.000    0.000    0.000 
#    0.000    0.000    0.000    0.000    0.000    0.000 
#
# Total GULP energy -201185.042520 kJ/mol
# GULP energy per Si atom -5588.473403 kJ/mol
# Density = 1.915424 g / cm^3
# Si number density = 19.197932 Si / 1000 Ang^3
#
#
#
# Elastic Constant Matrix: (Units=GPa)
#
#
# Indices 1 2 3 4 5 6 
#
# 1 154.7655 50.6889 8.1024 0.0000 0.0000 0.0000
# 2 50.6889 107.6155 7.0137 0.0000 0.0000 0.0000
# 3 8.1024 7.0137 81.3072 0.0000 0.0000 0.0000
# 4 0.0000 0.0000 0.0000 23.4046 0.0000 0.0000
# 5 0.0000 0.0000 0.0000 0.0000 24.9114 0.0000
# 6 0.0000 0.0000 0.0000 0.0000 0.0000 26.1474
#
#
#
# Elastic Compliance Matrix: (Units=1/GPa)
#
#
# Indices 1 2 3 4 5 6 
#
# 1 0.007657 -0.003577 -0.000454 0.000000 0.000000 0.000000
# 2 -0.003577 0.011016 -0.000594 0.000000 0.000000 0.000000
# 3 -0.000454 -0.000594 0.012396 0.000000 0.000000 0.000000
# 4 0.000000 0.000000 0.000000 0.042727 0.000000 0.000000
# 5 0.000000 0.000000 0.000000 0.000000 0.040142 0.000000
# 6 0.000000 0.000000 0.000000 0.000000 0.000000 0.038245
#
#
# Mechanical properties :
#
#
# Convention : Reuss Voigt Hill
#
# Bulk Modulus (GPa) = 45.83405 52.81092 49.32249
# Shear Modulus (GPa) = 29.63765 33.41824 31.52795
#
# Velocity S-wave (km/s) = 3.93338 4.17672 4.05687
# Velocity P-wave (km/s) = 6.67495 7.12940 6.90591
#
# Compressibility (1/GPa) = 0.02181784
#
# Stress axis : x y z
#
# Youngs Moduli (GPa) = 130.60522 90.77884 80.67421
#
# Poissons Ratio (x) = 0.32470 0.03666
# Poissons Ratio (y) = 0.46715 0.04790
# Poissons Ratio (z) = 0.05935 0.05390
#
# Static dielectric constant tensor:
#      x y z
#    x 1.640660 0.000000 0.000000 
#    y 0.000000 1.653050 0.000000 
#    z 0.000000 0.000000 1.681310 
# 
# From -- ./inp_files/18137.got.cif
#   From: 2010.05.17/outbox.cif.g08.bks.cpg/sg57_10_cif.got.tgz:18137.got - 2010.06.03 13:58:18.
