data_PCOD9439637
_publ_section_title
;
Structure prediction by ZEFSAII (Michael W. Deem and Ramdas Pophale) SiO2 
 PCOD9439637
Probable space group: P B C M
;
_chemical_formula_sum "Si O2"
_cell_formula_units_Z 48
_cell_length_a 20.208887
_cell_length_b 4.890734
_cell_length_c 21.259277
_cell_angle_alpha 90.000000
_cell_angle_beta 90.000000
_cell_angle_gamma 90.000000
_cell_volume 2101.188083
_symmetry_space_group_name_H-M "P B C M"
_symmetry_group_IT_number 57
_symmetry_cell_setting 'orthorhombic'
loop_
_space_group_symop_operation_xyz
x,y,z
-x,-y,1/2+z
x,1/2-y,-z
-x,1/2+y,1/2-z
-x,-y,-z
x,y,1/2-z
-x,1/2+y,z
x,1/2-y,1/2+z
loop_
_atom_site_type_symbol
_atom_site_label
_atom_site_fract_x
_atom_site_fract_y
_atom_site_fract_z
Si Si1 0.955929 0.655256 0.250000
Si Si2 0.187225 0.874592 0.567726
Si Si3 0.378832 0.945859 0.317268
Si Si4 0.456547 0.324812 0.913935
Si Si5 0.261620 0.265346 0.750000
Si Si6 0.658489 0.073221 0.437081
Si Si7 0.152678 0.348411 0.853389
O O1 0.911857 0.597256 0.311532
O O2 0.020600 0.467336 0.250000
O O3 0.169859 0.750000 0.500000
O O4 0.263169 0.979414 0.564051
O O5 0.180648 0.628781 0.617775
O O6 0.143889 0.127758 0.591545
O O7 0.388933 0.799915 0.250000
O O8 0.360753 0.743798 0.374210
O O9 0.441067 0.122926 0.340147
O O10 0.316945 0.142821 0.303476
O O11 0.486938 0.612928 0.932486
O O12 0.387954 0.192830 0.936072
O O13 0.205891 0.220842 0.804953
O O14 0.646539 0.250000 0.500000
#
# Coordination Sequence:
#
# PCOD9439637 Si02
#       7
#     4   8   8   8   4   8   8
#     4  11  24  44  72 108 145 195 233 278 318 379
#     4  11  23  41  69 103 140 175 225 287 355 410
#     4  10  22  45  64  92 129 170 217 294 348 425
#     4  12  26  47  65  90 123 174 230 283 350 429
#     4   9  20  40  66  96 129 171 219 278 358 403
#     4  11  25  44  71 101 136 177 227 292 357 426
#     4  11  22  42  69 104 140 180 227 282 331 405
#
# _framework density 22.844218000000001
#
# number of rings (size 3 to 8) (size 9 to 14) (size 15 to 20)
#    0.500    0.667    3.333    2.500    0.000    4.667 
#    6.000    0.000    0.000   10.000    0.000    0.000 
#    0.000    0.000    0.000    0.000    0.000    0.000 
#
# Total GULP energy -267203.796522 kJ/mol
# GULP energy per Si atom -5566.745761 kJ/mol
# Density = 2.279222 g / cm^3
# Si number density = 22.844218 Si / 1000 Ang^3
#
#
#
# Elastic Constant Matrix: (Units=GPa)
#
#
# Indices 1 2 3 4 5 6 
#
# 1 64.4224 8.4117 34.4303 0.0000 0.0000 0.0000
# 2 8.4117 61.0193 15.6594 0.0000 0.0000 0.0000
# 3 34.4303 15.6594 134.7809 0.0000 0.0000 0.0000
# 4 0.0000 0.0000 0.0000 28.1947 0.0000 0.0000
# 5 0.0000 0.0000 0.0000 0.0000 8.4816 0.0000
# 6 0.0000 0.0000 0.0000 0.0000 0.0000 3.1846
#
#
#
# Elastic Compliance Matrix: (Units=1/GPa)
#
#
# Indices 1 2 3 4 5 6 
#
# 1 0.018084 -0.001348 -0.004463 0.000000 0.000000 0.000000
# 2 -0.001348 0.016992 -0.001630 0.000000 0.000000 0.000000
# 3 -0.004463 -0.001630 0.008749 0.000000 0.000000 0.000000
# 4 0.000000 0.000000 0.000000 0.035468 0.000000 0.000000
# 5 0.000000 0.000000 0.000000 0.000000 0.117902 0.000000
# 6 0.000000 0.000000 0.000000 0.000000 0.000000 0.314015
#
#
# Mechanical properties :
#
#
# Convention : Reuss Voigt Hill
#
# Bulk Modulus (GPa) = 34.54961 41.91393 38.23177
# Shear Modulus (GPa) = 9.33290 21.42026 15.37658
#
# Velocity S-wave (km/s) = 2.02344 3.06546 2.59724
# Velocity P-wave (km/s) = 4.54048 5.56030 5.07606
#
# Compressibility (1/GPa) = 0.02894389
#
# Stress axis : x y z
#
# Youngs Moduli (GPa) = 55.29828 58.85012 114.29987
#
# Poissons Ratio (x) = 0.07930 0.51012
# Poissons Ratio (y) = 0.07452 0.18631
# Poissons Ratio (z) = 0.24680 0.09593
#
# Static dielectric constant tensor:
#      x y z
#    x 1.836480 0.000000 0.000000 
#    y 0.000000 1.893370 0.000000 
#    z 0.000000 0.000000 1.927930 
# 
# From -- ./inp_files/25714.got.cif
#   From: 2010.05.17/outbox.cif.g08.bks.cpg/sg57_13_cif.got.tgz:25714.got - 2010.06.03 13:58:18.
