data_PCOD9439874
_publ_section_title
;
Structure prediction by ZEFSAII (Michael W. Deem and Ramdas Pophale) SiO2 
 PCOD9439874
Probable space group: P B C M
;
_chemical_formula_sum "Si O2"
_cell_formula_units_Z 60
_cell_length_a 8.931958
_cell_length_b 18.226887
_cell_length_c 19.045490
_cell_angle_alpha 90.000000
_cell_angle_beta 90.000000
_cell_angle_gamma 90.000000
_cell_volume 3100.639847
_symmetry_space_group_name_H-M "P B C M"
_symmetry_group_IT_number 57
_symmetry_cell_setting 'orthorhombic'
loop_
_space_group_symop_operation_xyz
x,y,z
-x,-y,1/2+z
x,1/2-y,-z
-x,1/2+y,1/2-z
-x,-y,-z
x,y,1/2-z
-x,1/2+y,z
x,1/2-y,1/2+z
loop_
_atom_site_type_symbol
_atom_site_label
_atom_site_fract_x
_atom_site_fract_y
_atom_site_fract_z
Si Si1 0.589167 0.647927 0.888304
Si Si2 0.377282 0.090167 0.039182
Si Si3 0.826320 0.772631 0.576156
Si Si4 0.262323 0.808523 0.063723
Si Si5 0.606683 0.953280 0.250000
Si Si6 0.892048 0.207629 0.167777
Si Si7 0.164399 0.966393 0.494066
Si Si8 0.324315 0.926412 0.870548
O O1 0.729751 0.704239 0.893996
O O2 0.431105 0.686086 0.906795
O O3 0.587398 0.608328 0.813527
O O4 0.597848 0.593382 0.955408
O O5 0.289589 0.163284 0.059063
O O6 0.529271 0.091146 0.082945
O O7 0.272848 0.019716 0.050461
O O8 0.893798 0.750000 0.500000
O O9 0.951417 0.805077 0.627612
O O10 0.166201 0.779860 0.128729
O O11 0.192218 0.884768 0.035934
O O12 0.260825 0.750000 0.000000
O O13 0.631635 0.017676 0.310247
O O14 0.916768 0.216805 0.250000
O O15 0.766212 0.145076 0.155923
O O16 0.213590 0.963789 0.574625
O O17 0.000000 0.000000 0.500000
#
# Coordination Sequence:
#
# PCOD9439874 Si02
#       8
#     8   8   8   8   4   8   8   8
#     4  11  23  43  71 103 136 179 235 294 350 418
#     4  11  22  45  74  99 130 180 244 291 335 418
#     4  10  24  43  72 102 132 179 240 295 352 421
#     4  12  24  44  75 102 135 185 246 299 344 426
#     4  12  26  40  68 102 148 180 222 290 364 420
#     4  12  26  43  66 100 145 185 226 292 372 433
#     4  12  25  41  73 108 137 179 235 302 356 418
#     4  12  23  46  70  99 140 190 236 284 355 428
#
# _framework density 19.350846000000001
#
# number of rings (size 3 to 8) (size 9 to 14) (size 15 to 20)
#    0.000    0.533    4.667    4.400    5.600    0.000 
#    1.200    0.000    0.000    0.000    0.000    0.000 
#    0.000    0.000    0.000    0.000    0.000    0.000 
#
# Total GULP energy -334067.084235 kJ/mol
# GULP energy per Si atom -5567.784737 kJ/mol
# Density = 1.930680 g / cm^3
# Si number density = 19.350846 Si / 1000 Ang^3
#
#
#
# Elastic Constant Matrix: (Units=GPa)
#
#
# Indices 1 2 3 4 5 6 
#
# 1 107.7534 39.4026 68.4985 0.0000 0.0000 0.0000
# 2 39.4026 85.6620 69.8561 0.0000 0.0000 0.0000
# 3 68.4985 69.8561 194.0556 0.0000 0.0000 0.0000
# 4 0.0000 0.0000 0.0000 31.6431 0.0000 0.0000
# 5 0.0000 0.0000 0.0000 0.0000 7.8107 0.0000
# 6 0.0000 0.0000 0.0000 0.0000 0.0000 20.2900
#
#
#
# Elastic Compliance Matrix: (Units=1/GPa)
#
#
# Indices 1 2 3 4 5 6 
#
# 1 0.012503 -0.003046 -0.003317 0.000000 0.000000 0.000000
# 2 -0.003046 0.017267 -0.005140 0.000000 0.000000 0.000000
# 3 -0.003317 -0.005140 0.008174 0.000000 0.000000 0.000000
# 4 0.000000 0.000000 0.000000 0.031602 0.000000 0.000000
# 5 0.000000 0.000000 0.000000 0.000000 0.128029 0.000000
# 6 0.000000 0.000000 0.000000 0.000000 0.000000 0.049285
#
#
# Mechanical properties :
#
#
# Convention : Reuss Voigt Hill
#
# Bulk Modulus (GPa) = 66.94672 82.55392 74.75032
# Shear Modulus (GPa) = 18.19195 25.92969 22.06082
#
# Velocity S-wave (km/s) = 3.06945 3.66454 3.38012
# Velocity P-wave (km/s) = 6.87266 7.78842 7.34482
#
# Compressibility (1/GPa) = 0.01493725
#
# Stress axis : x y z
#
# Youngs Moduli (GPa) = 79.98201 57.91392 122.33364
#
# Poissons Ratio (x) = 0.17642 0.40574
# Poissons Ratio (y) = 0.24365 0.62885
# Poissons Ratio (z) = 0.26527 0.29771
#
# Static dielectric constant tensor:
#      x y z
#    x 1.730610 0.000000 0.000000 
#    y 0.000000 2.038370 0.000000 
#    z 0.000000 0.000000 1.652180 
# 
# From -- ./inp_files/21277.got.cif
#   From: 2010.05.17/outbox.cif.g08.bks.cpg/sg57_11_cif.got.tgz:21277.got - 2010.06.03 13:58:18.
