data_PCOD9439532
_publ_section_title
;
Structure prediction by ZEFSAII (Michael W. Deem and Ramdas Pophale) SiO2 
 PCOD9439532
Probable space group: P B C M
;
_chemical_formula_sum "Si O2"
_cell_formula_units_Z 64
_cell_length_a 10.988378
_cell_length_b 9.399730
_cell_length_c 30.354586
_cell_angle_alpha 90.000000
_cell_angle_beta 90.000000
_cell_angle_gamma 90.000000
_cell_volume 3135.257993
_symmetry_space_group_name_H-M "P B C M"
_symmetry_group_IT_number 57
_symmetry_cell_setting 'orthorhombic'
loop_
_space_group_symop_operation_xyz
x,y,z
-x,-y,1/2+z
x,1/2-y,-z
-x,1/2+y,1/2-z
-x,-y,-z
x,y,1/2-z
-x,1/2+y,z
x,1/2-y,1/2+z
loop_
_atom_site_type_symbol
_atom_site_label
_atom_site_fract_x
_atom_site_fract_y
_atom_site_fract_z
Si Si1 0.555036 0.374466 0.026809
Si Si2 0.136436 0.432887 0.421357
Si Si3 0.544632 0.745033 0.386148
Si Si4 0.658638 0.023490 0.358717
Si Si5 0.794322 0.888350 0.910645
Si Si6 0.057223 0.534506 0.657474
Si Si7 0.130771 0.837255 0.698946
Si Si8 0.841334 0.407440 0.010595
O O1 0.524114 0.341282 0.077145
O O2 0.696636 0.382468 0.015543
O O3 0.492557 0.250000 0.000000
O O4 0.500000 0.500000 0.000000
O O5 0.260673 0.506204 0.403317
O O6 0.149222 0.263643 0.422616
O O7 0.119179 0.495517 0.469679
O O8 0.038952 0.459527 0.382989
O O9 0.447760 0.638040 0.365068
O O10 0.650507 0.648858 0.408855
O O11 0.606140 0.862651 0.353813
O O12 0.752873 0.082975 0.322545
O O13 0.831527 0.944154 0.862393
O O14 0.850908 0.003416 0.944250
O O15 0.098530 0.690689 0.673086
O O16 0.983782 0.444138 0.693556
O O17 0.152253 0.805198 0.750000
O O18 0.893988 0.250000 0.000000
#
# Coordination Sequence:
#
# PCOD9439532 Si02
#       8
#     8   8   8   8   8   8   8   8
#     4  11  20  32  51  83 123 172 224 266 294 350
#     4  10  22  42  59  95 134 177 232 285 323 386
#     4  11  22  39  63  98 135 183 224 274 324 395
#     4  10  23  39  68  96 135 172 220 268 336 394
#     4  11  23  39  62  92 135 184 225 274 329 396
#     4  11  24  44  73  97 130 168 221 276 349 414
#     4  11  25  48  76 102 127 162 216 283 348 424
#     4  11  23  33  57  91 132 181 229 274 320 374
#
# _framework density 20.412994999999999
#
# number of rings (size 3 to 8) (size 9 to 14) (size 15 to 20)
#    0.000    1.250    1.250    6.000    7.000    0.500 
#    0.000    0.625    0.000    0.000    0.000    0.000 
#    0.000    0.000    0.000    0.000    0.000    0.000 
#
# Total GULP energy -356883.111187 kJ/mol
# GULP energy per Si atom -5576.298612 kJ/mol
# Density = 2.036653 g / cm^3
# Si number density = 20.412995 Si / 1000 Ang^3
#
#
#
# Elastic Constant Matrix: (Units=GPa)
#
#
# Indices 1 2 3 4 5 6 
#
# 1 76.1324 38.6431 34.1156 0.0000 0.0000 0.0000
# 2 38.6431 134.2967 35.8140 0.0000 0.0000 0.0000
# 3 34.1156 35.8140 81.5506 0.0000 0.0000 0.0000
# 4 0.0000 0.0000 0.0000 16.4840 0.0000 0.0000
# 5 0.0000 0.0000 0.0000 0.0000 19.7549 0.0000
# 6 0.0000 0.0000 0.0000 0.0000 0.0000 34.4638
#
#
#
# Elastic Compliance Matrix: (Units=1/GPa)
#
#
# Indices 1 2 3 4 5 6 
#
# 1 0.017501 -0.003492 -0.005788 0.000000 0.000000 0.000000
# 2 -0.003492 0.009131 -0.002549 0.000000 0.000000 0.000000
# 3 -0.005788 -0.002549 0.015803 0.000000 0.000000 0.000000
# 4 0.000000 0.000000 0.000000 0.060665 0.000000 0.000000
# 5 0.000000 0.000000 0.000000 0.000000 0.050620 0.000000
# 6 0.000000 0.000000 0.000000 0.000000 0.000000 0.029016
#
#
# Mechanical properties :
#
#
# Convention : Reuss Voigt Hill
#
# Bulk Modulus (GPa) = 53.25675 56.56945 54.91310
# Shear Modulus (GPa) = 23.51247 26.36767 24.94007
#
# Velocity S-wave (km/s) = 3.39756 3.59794 3.49918
# Velocity P-wave (km/s) = 6.44496 6.71065 6.57914
#
# Compressibility (1/GPa) = 0.01877696
#
# Stress axis : x y z
#
# Youngs Moduli (GPa) = 57.13893 109.51858 63.27947
#
# Poissons Ratio (x) = 0.38249 0.36624
# Poissons Ratio (y) = 0.19955 0.16129
# Poissons Ratio (z) = 0.33070 0.27916
#
# Static dielectric constant tensor:
#      x y z
#    x 1.761750 0.000000 0.000000 
#    y 0.000000 1.724560 0.000000 
#    z 0.000000 0.000000 1.699620 
# 
# From -- ./inp_files/29790.got.cif
#   From: 2010.05.17/outbox.cif.g08.bks.cpg/sg57_15_cif.got.tgz:29790.got - 2010.06.03 13:58:18.
