data_PCOD9439635
_publ_section_title
;
Structure prediction by ZEFSAII (Michael W. Deem and Ramdas Pophale) SiO2 
 PCOD9439635
Probable space group: P B C M
;
_chemical_formula_sum "Si O2"
_cell_formula_units_Z 40
_cell_length_a 15.412439
_cell_length_b 13.721380
_cell_length_c 9.823566
_cell_angle_alpha 90.000000
_cell_angle_beta 90.000000
_cell_angle_gamma 90.000000
_cell_volume 2077.487072
_symmetry_space_group_name_H-M "P B C M"
_symmetry_group_IT_number 57
_symmetry_cell_setting 'orthorhombic'
loop_
_space_group_symop_operation_xyz
x,y,z
-x,-y,1/2+z
x,1/2-y,-z
-x,1/2+y,1/2-z
-x,-y,-z
x,y,1/2-z
-x,1/2+y,z
x,1/2-y,1/2+z
loop_
_atom_site_type_symbol
_atom_site_label
_atom_site_fract_x
_atom_site_fract_y
_atom_site_fract_z
Si Si1 0.593358 0.750000 0.500000
Si Si2 0.633151 0.061354 0.250000
Si Si3 0.467732 0.754488 0.750000
Si Si4 0.316621 0.450368 0.510020
Si Si5 0.561525 0.474469 0.250000
Si Si6 0.960109 0.150937 0.087868
Si Si7 0.124094 0.487674 0.594291
O O1 0.529083 0.775449 0.622240
O O2 0.651893 0.656835 0.533980
O O3 0.615089 0.175911 0.250000
O O4 0.680652 0.022388 0.117404
O O5 0.536429 0.013998 0.250000
O O6 0.442616 0.641925 0.750000
O O7 0.386244 0.488774 0.619099
O O8 0.221309 0.449966 0.573118
O O9 0.941704 0.164859 0.250000
O O10 0.054762 0.099523 0.077317
O O11 0.957450 0.250000 0.000000
O O12 0.897681 0.072022 0.014444
O O13 0.114124 0.524605 0.750000
#
# Coordination Sequence:
#
# PCOD9439635 Si02
#       7
#     4   4   4   8   4   8   8
#     4  12  22  38  64  92 122 164 220 272 326 370
#     4  12  24  42  60  91 130 171 222 266 328 383
#     4  12  24  40  64  86 118 176 224 260 324 384
#     4  12  24  41  64  95 131 166 216 280 320 383
#     4  12  22  44  64  87 128 175 214 274 322 381
#     4  10  22  44  73  99 130 171 211 260 328 401
#     4  10  23  44  66  97 135 170 211 266 327 389
#
# _framework density 19.254031000000001
#
# number of rings (size 3 to 8) (size 9 to 14) (size 15 to 20)
#    0.000    0.800    5.000    2.400    2.800    0.800 
#    3.600    0.000    0.000    0.000    0.000    0.000 
#    0.000    0.000    0.000    0.000    0.000    0.000 
#
# Total GULP energy -223570.258292 kJ/mol
# GULP energy per Si atom -5589.256457 kJ/mol
# Density = 1.921021 g / cm^3
# Si number density = 19.254031 Si / 1000 Ang^3
#
#
#
# Elastic Constant Matrix: (Units=GPa)
#
#
# Indices 1 2 3 4 5 6 
#
# 1 52.0979 -3.8577 -0.9677 0.0000 0.0000 0.0000
# 2 -3.8577 96.6318 8.2624 0.0000 0.0000 0.0000
# 3 -0.9677 8.2624 116.4015 0.0000 0.0000 0.0000
# 4 0.0000 0.0000 0.0000 31.8896 0.0000 0.0000
# 5 0.0000 0.0000 0.0000 0.0000 53.6491 0.0000
# 6 0.0000 0.0000 0.0000 0.0000 0.0000 7.4063
#
#
#
# Elastic Compliance Matrix: (Units=1/GPa)
#
#
# Indices 1 2 3 4 5 6 
#
# 1 0.019253 0.000760 0.000106 0.000000 0.000000 0.000000
# 2 0.000760 0.010442 -0.000735 0.000000 0.000000 0.000000
# 3 0.000106 -0.000735 0.008644 0.000000 0.000000 0.000000
# 4 0.000000 0.000000 0.000000 0.031358 0.000000 0.000000
# 5 0.000000 0.000000 0.000000 0.000000 0.018640 0.000000
# 6 0.000000 0.000000 0.000000 0.000000 0.000000 0.135020
#
#
# Mechanical properties :
#
#
# Convention : Reuss Voigt Hill
#
# Bulk Modulus (GPa) = 25.90662 30.22280 28.06471
# Shear Modulus (GPa) = 21.18994 36.03528 28.61261
#
# Velocity S-wave (km/s) = 3.32105 4.33086 3.85912
# Velocity P-wave (km/s) = 5.30944 6.38274 5.87067
#
# Compressibility (1/GPa) = 0.03860018
#
# Stress axis : x y z
#
# Youngs Moduli (GPa) = 51.94041 95.76973 115.68723
#
# Poissons Ratio (x) = -0.07274 -0.01228
# Poissons Ratio (y) = -0.03945 0.08501
# Poissons Ratio (z) = -0.00551 0.07038
#
# Static dielectric constant tensor:
#      x y z
#    x 1.623300 0.000000 0.000000 
#    y 0.000000 1.661210 0.000000 
#    z 0.000000 0.000000 1.627270 
# 
# From -- ./inp_files/4346.got.cif
#   From: 2010.05.17/outbox.cif.g08.bks.cpg/sg57_3_cif.got.tgz:4346.got - 2010.06.03 13:58:18.
