data_PCOD9439592
_publ_section_title
;
Structure prediction by ZEFSAII (Michael W. Deem and Ramdas Pophale) SiO2 
 PCOD9439592
Probable space group: P B C M
;
_chemical_formula_sum "Si O2"
_cell_formula_units_Z 48
_cell_length_a 7.623359
_cell_length_b 18.900767
_cell_length_c 15.173661
_cell_angle_alpha 90.000000
_cell_angle_beta 90.000000
_cell_angle_gamma 90.000000
_cell_volume 2186.332333
_symmetry_space_group_name_H-M "P B C M"
_symmetry_group_IT_number 57
_symmetry_cell_setting 'orthorhombic'
loop_
_space_group_symop_operation_xyz
x,y,z
-x,-y,1/2+z
x,1/2-y,-z
-x,1/2+y,1/2-z
-x,-y,-z
x,y,1/2-z
-x,1/2+y,z
x,1/2-y,1/2+z
loop_
_atom_site_type_symbol
_atom_site_label
_atom_site_fract_x
_atom_site_fract_y
_atom_site_fract_z
Si Si1 0.689095 0.102792 0.154625
Si Si2 0.821600 0.799667 0.644675
Si Si3 0.872613 0.437485 0.025042
Si Si4 0.694583 0.544879 0.148503
Si Si5 0.901089 0.313875 0.147797
Si Si6 0.451323 0.753259 0.395596
O O1 0.779422 0.092077 0.250000
O O2 0.514081 0.055890 0.150648
O O3 0.614465 0.181846 0.150522
O O4 0.796512 0.090470 0.066610
O O5 0.821009 0.806157 0.750000
O O6 0.779304 0.880131 0.613819
O O7 0.659607 0.747480 0.620510
O O8 0.001874 0.759606 0.620673
O O9 0.736086 0.477993 0.088423
O O10 0.958606 0.375257 0.081963
O O11 0.000000 0.500000 0.000000
O O12 0.754315 0.534038 0.250000
O O13 0.945667 0.327051 0.250000
O O14 0.689546 0.309575 0.138705
O O15 0.425179 0.750000 0.500000
#
# Coordination Sequence:
#
# PCOD9439592 Si02
#       6
#     8   8   8   8   8   8
#     4  10  22  43  67  91 124 172 224 268 324 390
#     4   9  21  41  68 100 132 172 219 267 325 393
#     4  12  26  41  62  96 135 171 214 267 326 392
#     4   9  20  42  69  94 128 174 218 265 324 390
#     4  11  24  43  67  97 135 172 217 273 329 387
#     4  11  21  39  69  98 128 167 215 277 331 383
#
# _framework density 21.954575999999999
#
# number of rings (size 3 to 8) (size 9 to 14) (size 15 to 20)
#    0.000    1.667    1.667    3.500    2.333    4.667 
#    3.000    0.000    0.000    0.000    0.000    0.000 
#    0.000    0.000    0.000    0.000    0.000    0.000 
#
# Total GULP energy -268051.032657 kJ/mol
# GULP energy per Si atom -5584.396514 kJ/mol
# Density = 2.190461 g / cm^3
# Si number density = 21.954576 Si / 1000 Ang^3
#
#
#
# Elastic Constant Matrix: (Units=GPa)
#
#
# Indices 1 2 3 4 5 6 
#
# 1 68.2073 11.2300 21.6464 0.0000 0.0000 0.0000
# 2 11.2300 63.1321 42.1551 0.0000 0.0000 0.0000
# 3 21.6464 42.1551 135.1420 0.0000 0.0000 0.0000
# 4 0.0000 0.0000 0.0000 15.6714 0.0000 0.0000
# 5 0.0000 0.0000 0.0000 0.0000 22.9021 0.0000
# 6 0.0000 0.0000 0.0000 0.0000 0.0000 29.2178
#
#
#
# Elastic Compliance Matrix: (Units=1/GPa)
#
#
# Indices 1 2 3 4 5 6 
#
# 1 0.015543 -0.001392 -0.002055 0.000000 0.000000 0.000000
# 2 -0.001392 0.020132 -0.006057 0.000000 0.000000 0.000000
# 3 -0.002055 -0.006057 0.009618 0.000000 0.000000 0.000000
# 4 0.000000 0.000000 0.000000 0.063811 0.000000 0.000000
# 5 0.000000 0.000000 0.000000 0.000000 0.043664 0.000000
# 6 0.000000 0.000000 0.000000 0.000000 0.000000 0.034226
#
#
# Mechanical properties :
#
#
# Convention : Reuss Voigt Hill
#
# Bulk Modulus (GPa) = 38.04622 46.28272 42.16447
# Shear Modulus (GPa) = 23.28149 26.32158 24.80154
#
# Velocity S-wave (km/s) = 3.25997 3.46629 3.36471
# Velocity P-wave (km/s) = 5.61578 6.09484 5.86021
#
# Compressibility (1/GPa) = 0.02628382
#
# Stress axis : x y z
#
# Youngs Moduli (GPa) = 64.33895 49.67291 103.97084
#
# Poissons Ratio (x) = 0.06917 0.21368
# Poissons Ratio (y) = 0.08959 0.62972
# Poissons Ratio (z) = 0.13223 0.30085
#
# Static dielectric constant tensor:
#      x y z
#    x 1.886010 0.000000 0.000000 
#    y 0.000000 1.824110 0.000000 
#    z 0.000000 0.000000 1.814560 
# 
# From -- ./inp_files/16347.got.cif
#   From: 2010.05.17/outbox.cif.g08.bks.cpg/sg57_9_cif.got.tgz:16347.got - 2010.06.03 13:58:18.
