data_PCOD9439370
_publ_section_title
;
Structure prediction by ZEFSAII (Michael W. Deem and Ramdas Pophale) SiO2 
 PCOD9439370
Probable space group: P B C M
;
_chemical_formula_sum "Si O2"
_cell_formula_units_Z 28
_cell_length_a 17.153464
_cell_length_b 7.960901
_cell_length_c 9.468510
_cell_angle_alpha 90.000000
_cell_angle_beta 90.000000
_cell_angle_gamma 90.000000
_cell_volume 1292.991592
_symmetry_space_group_name_H-M "P B C M"
_symmetry_group_IT_number 57
_symmetry_cell_setting 'orthorhombic'
loop_
_space_group_symop_operation_xyz
x,y,z
-x,-y,1/2+z
x,1/2-y,-z
-x,1/2+y,1/2-z
-x,-y,-z
x,y,1/2-z
-x,1/2+y,z
x,1/2-y,1/2+z
loop_
_atom_site_type_symbol
_atom_site_label
_atom_site_fract_x
_atom_site_fract_y
_atom_site_fract_z
Si Si1 0.079415 0.067353 0.574497
Si Si2 0.308436 0.724183 0.250000
Si Si3 0.385622 0.445357 0.750000
Si Si4 0.556252 0.973720 0.250000
Si Si5 0.190033 0.750000 0.000000
Si Si6 0.397698 0.250000 0.000000
O O1 0.096336 0.250000 0.500000
O O2 0.074513 0.080222 0.750000
O O3 0.139512 0.917643 0.532499
O O4 0.000000 0.000000 0.500000
O O5 0.356954 0.553284 0.250000
O O6 0.250757 0.761806 0.374966
O O7 0.376755 0.859115 0.250000
O O8 0.478798 0.415770 0.750000
O O9 0.350677 0.362107 0.610828
O O10 0.554803 0.873356 0.397867
#
# Coordination Sequence:
#
# PCOD9439370 Si02
#       6
#     8   4   4   4   4   4
#     4  12  27  49  84 118 159 208 256 309 373 466
#     4  12  26  48  70 102 152 198 238 328 394 444
#     4  11  23  43  69  97 137 187 248 305 378 458
#     4  11  23  43  69  99 135 191 248 305 382 454
#     4  12  28  51  70 117 162 198 260 312 394 457
#     4  10  22  39  62  97 124 168 244 306 348 445
#
# _framework density 21.655206
#
# number of rings (size 3 to 8) (size 9 to 14) (size 15 to 20)
#    0.000    0.571    2.857    5.143    4.000    2.286 
#   15.429    0.000    0.000    0.000    0.000    0.000 
#    0.000    0.000    0.000    0.000    0.000    0.000 
#
# Total GULP energy -155914.136817 kJ/mol
# GULP energy per Si atom -5568.362029 kJ/mol
# Density = 2.160592 g / cm^3
# Si number density = 21.655206 Si / 1000 Ang^3
#
#
#
# Elastic Constant Matrix: (Units=GPa)
#
#
# Indices 1 2 3 4 5 6 
#
# 1 81.6968 36.9332 51.6895 0.0000 0.0000 0.0000
# 2 36.9332 134.1231 71.5225 0.0000 0.0000 0.0000
# 3 51.6895 71.5225 228.2729 0.0000 0.0000 0.0000
# 4 0.0000 0.0000 0.0000 38.1174 0.0000 0.0000
# 5 0.0000 0.0000 0.0000 0.0000 -1.8160 0.0000
# 6 0.0000 0.0000 0.0000 0.0000 0.0000 21.8287
#
#
#
# Elastic Compliance Matrix: (Units=1/GPa)
#
#
# Indices 1 2 3 4 5 6 
#
# 1 0.015119 -0.002807 -0.002544 0.000000 0.000000 0.000000
# 2 -0.002807 0.009472 -0.002332 0.000000 0.000000 0.000000
# 3 -0.002544 -0.002332 0.005688 0.000000 0.000000 0.000000
# 4 0.000000 0.000000 0.000000 0.026235 0.000000 0.000000
# 5 0.000000 0.000000 0.000000 0.000000 -0.550673 0.000000
# 6 0.000000 0.000000 0.000000 0.000000 0.000000 0.045811
#
#
# Mechanical properties :
#
#
# Convention : Reuss Voigt Hill
#
# Bulk Modulus (GPa) = 67.05691 84.93147 75.99419
# Shear Modulus (GPa) = -11.68195 30.55588 9.43696
#
# Velocity S-wave (km/s) = -2.32513 3.76043 2.08981
# Velocity P-wave (km/s) = 4.88105 7.62623 6.40250
#
# Compressibility (1/GPa) = 0.01491271
#
# Stress axis : x y z
#
# Youngs Moduli (GPa) = 66.14277 105.56935 175.82137
#
# Poissons Ratio (x) = 0.29629 0.44731
# Poissons Ratio (y) = 0.18563 0.41009
# Poissons Ratio (z) = 0.16827 0.24623
#
# Static dielectric constant tensor:
#      x y z
#    x 1.791870 0.000000 0.000000 
#    y 0.000000 2.317840 0.000000 
#    z 0.000000 0.000000 1.822560 
# 
# From -- ./inp_files/6179.got.cif
#   From: 2010.05.17/outbox.cif.g08.bks.cpg/sg57_4_cif.got.tgz:6179.got - 2010.06.03 13:58:18.
