data_PCOD9439418
_publ_section_title
;
Structure prediction by ZEFSAII (Michael W. Deem and Ramdas Pophale) SiO2 
 PCOD9439418
Probable space group: P B C M
;
_chemical_formula_sum "Si O2"
_cell_formula_units_Z 56
_cell_length_a 14.532893
_cell_length_b 11.223052
_cell_length_c 15.929347
_cell_angle_alpha 90.000000
_cell_angle_beta 90.000000
_cell_angle_gamma 90.000000
_cell_volume 2598.130876
_symmetry_space_group_name_H-M "P B C M"
_symmetry_group_IT_number 57
_symmetry_cell_setting 'orthorhombic'
loop_
_space_group_symop_operation_xyz
x,y,z
-x,-y,1/2+z
x,1/2-y,-z
-x,1/2+y,1/2-z
-x,-y,-z
x,y,1/2-z
-x,1/2+y,z
x,1/2-y,1/2+z
loop_
_atom_site_type_symbol
_atom_site_label
_atom_site_fract_x
_atom_site_fract_y
_atom_site_fract_z
Si Si1 0.440784 0.197903 0.842460
Si Si2 0.904218 0.828063 0.847731
Si Si3 0.251835 0.180559 0.580593
Si Si4 0.264982 0.910917 0.529742
Si Si5 0.889207 0.187871 0.152748
Si Si6 0.532564 0.064778 0.084286
Si Si7 0.795658 0.426283 0.344203
O O1 0.474563 0.225860 0.750000
O O2 0.329728 0.197976 0.849761
O O3 0.475428 0.315117 0.894177
O O4 0.466337 0.057276 0.859091
O O5 0.911329 0.794781 0.750000
O O6 0.847878 0.727215 0.894890
O O7 0.008824 0.848120 0.875201
O O8 0.841165 0.944921 0.854205
O O9 0.287785 0.250000 0.500000
O O10 0.246958 0.047051 0.551281
O O11 0.185626 0.847481 0.583293
O O12 0.364723 0.885821 0.568172
O O13 0.262906 0.899169 0.428309
O O14 0.871671 0.144355 0.250000
O O15 0.877822 0.330253 0.156889
O O16 0.500000 0.000000 0.000000
O O17 0.751375 0.419180 0.250000
#
# Coordination Sequence:
#
# PCOD9439418 Si02
#       7
#     8   8   8   8   8   8   8
#     4  11  24  44  70 101 133 172 222 279 343 415
#     4  10  22  40  63  91 127 173 220 272 327 391
#     4  11  22  41  65  95 128 166 217 270 331 397
#     4  11  24  43  68  94 132 177 220 274 343 402
#     4  10  24  41  62  95 134 174 221 276 335 400
#     4  11  25  46  70  98 135 176 224 282 345 417
#     4  10  22  42  63  92 132 171 225 277 328 398
#
# _framework density 21.553957
#
# number of rings (size 3 to 8) (size 9 to 14) (size 15 to 20)
#    0.000    1.429    1.429    3.429    2.000    7.429 
#    0.000    2.143    0.000    0.000    0.000    0.000 
#    0.000    0.000    0.000    0.000    0.000    0.000 
#
# Total GULP energy -312081.486640 kJ/mol
# GULP energy per Si atom -5572.883690 kJ/mol
# Density = 2.150490 g / cm^3
# Si number density = 21.553957 Si / 1000 Ang^3
#
#
#
# Elastic Constant Matrix: (Units=GPa)
#
#
# Indices 1 2 3 4 5 6 
#
# 1 76.2765 32.8846 45.2529 0.0000 0.0000 0.0000
# 2 32.8846 89.6835 25.2494 0.0000 0.0000 0.0000
# 3 45.2529 25.2494 98.9297 0.0000 0.0000 0.0000
# 4 0.0000 0.0000 0.0000 15.4142 0.0000 0.0000
# 5 0.0000 0.0000 0.0000 0.0000 -21.9761 0.0000
# 6 0.0000 0.0000 0.0000 0.0000 0.0000 23.4033
#
#
#
# Elastic Compliance Matrix: (Units=1/GPa)
#
#
# Indices 1 2 3 4 5 6 
#
# 1 0.019957 -0.005115 -0.007823 0.000000 0.000000 0.000000
# 2 -0.005115 0.013325 -0.001061 0.000000 0.000000 0.000000
# 3 -0.007823 -0.001061 0.013958 0.000000 0.000000 0.000000
# 4 0.000000 0.000000 0.000000 0.064875 0.000000 0.000000
# 5 0.000000 0.000000 0.000000 0.000000 -0.045504 0.000000
# 6 0.000000 0.000000 0.000000 0.000000 0.000000 0.042729
#
#
# Mechanical properties :
#
#
# Convention : Reuss Voigt Hill
#
# Bulk Modulus (GPa) = 51.97437 52.40706 52.19071
# Shear Modulus (GPa) = 34.78231 14.13513 24.45872
#
# Velocity S-wave (km/s) = 4.02149 2.56364 3.37228
# Velocity P-wave (km/s) = 6.76233 5.75588 6.27930
#
# Compressibility (1/GPa) = 0.01924025
#
# Stress axis : x y z
#
# Youngs Moduli (GPa) = 50.10828 75.04907 71.64591
#
# Poissons Ratio (x) = 0.38388 0.56050
# Poissons Ratio (y) = 0.25631 0.07602
# Poissons Ratio (z) = 0.39201 0.07963
#
# Static dielectric constant tensor:
#      x y z
#    x 1.781070 0.000000 0.000000 
#    y 0.000000 1.656640 0.000000 
#    z 0.000000 0.000000 1.766920 
# 
# From -- ./inp_files/18501.got.cif
#   From: 2010.05.17/outbox.cif.g08.bks.cpg/sg57_10_cif.got.tgz:18501.got - 2010.06.03 13:58:18.
