data_PCOD9439804
_publ_section_title
;
Structure prediction by ZEFSAII (Michael W. Deem and Ramdas Pophale) SiO2 
 PCOD9439804
Probable space group: P B C M
;
_chemical_formula_sum "Si O2"
_cell_formula_units_Z 28
_cell_length_a 6.118674
_cell_length_b 13.309393
_cell_length_c 14.779060
_cell_angle_alpha 90.000000
_cell_angle_beta 90.000000
_cell_angle_gamma 90.000000
_cell_volume 1203.545120
_symmetry_space_group_name_H-M "P B C M"
_symmetry_group_IT_number 57
_symmetry_cell_setting 'orthorhombic'
loop_
_space_group_symop_operation_xyz
x,y,z
-x,-y,1/2+z
x,1/2-y,-z
-x,1/2+y,1/2-z
-x,-y,-z
x,y,1/2-z
-x,1/2+y,z
x,1/2-y,1/2+z
loop_
_atom_site_type_symbol
_atom_site_label
_atom_site_fract_x
_atom_site_fract_y
_atom_site_fract_z
Si Si1 0.429507 0.852479 0.750000
Si Si2 0.641780 0.652251 0.942211
Si Si3 0.704027 0.831663 0.250000
Si Si4 0.302628 0.018466 0.395678
Si Si5 0.940042 0.024263 0.250000
O O1 0.487615 0.735517 0.750000
O O2 0.542523 0.905340 0.837253
O O3 0.170801 0.867710 0.750000
O O4 0.779504 0.687459 0.853895
O O5 0.432770 0.585598 0.910470
O O6 0.581956 0.750000 0.000000
O O7 0.753500 0.573521 0.010599
O O8 0.731942 0.951131 0.250000
O O9 0.089618 0.005184 0.335604
#
# Coordination Sequence:
#
# PCOD9439804 Si02
#       5
#     4   8   4   8   4
#     4  11  21  45  71 101 147 182 233 302 361 411
#     4  11  22  44  74 101 148 189 239 294 370 419
#     4  12  23  42  69 100 144 188 231 305 351 422
#     4  10  23  45  72 103 143 195 232 301 357 428
#     4  11  24  47  74 105 145 188 246 287 362 439
#
# _framework density 23.264603999999999
#
# number of rings (size 3 to 8) (size 9 to 14) (size 15 to 20)
#    0.000    1.143    5.714    0.857    0.000    1.143 
#   10.286    1.429    0.000    0.000    0.000    0.000 
#    0.000    0.000    0.000    0.000    0.000    0.000 
#
# Total GULP energy -155995.631530 kJ/mol
# GULP energy per Si atom -5571.272555 kJ/mol
# Density = 2.321165 g / cm^3
# Si number density = 23.264604 Si / 1000 Ang^3
#
#
#
# Elastic Constant Matrix: (Units=GPa)
#
#
# Indices 1 2 3 4 5 6 
#
# 1 65.6340 50.7376 36.6960 0.0000 0.0000 0.0000
# 2 50.7376 118.7022 54.0601 0.0000 0.0000 0.0000
# 3 36.6960 54.0601 185.6534 0.0000 0.0000 0.0000
# 4 0.0000 0.0000 0.0000 44.9929 0.0000 0.0000
# 5 0.0000 0.0000 0.0000 0.0000 12.9502 0.0000
# 6 0.0000 0.0000 0.0000 0.0000 0.0000 14.0496
#
#
#
# Elastic Compliance Matrix: (Units=1/GPa)
#
#
# Indices 1 2 3 4 5 6 
#
# 1 0.023364 -0.009089 -0.001972 0.000000 0.000000 0.000000
# 2 -0.009089 0.013248 -0.002061 0.000000 0.000000 0.000000
# 3 -0.001972 -0.002061 0.006376 0.000000 0.000000 0.000000
# 4 0.000000 0.000000 0.000000 0.022226 0.000000 0.000000
# 5 0.000000 0.000000 0.000000 0.000000 0.077219 0.000000
# 6 0.000000 0.000000 0.000000 0.000000 0.000000 0.071177
#
#
# Mechanical properties :
#
#
# Convention : Reuss Voigt Hill
#
# Bulk Modulus (GPa) = 59.71784 72.55299 66.13541
# Shear Modulus (GPa) = 20.37200 29.63161 25.00180
#
# Velocity S-wave (km/s) = 2.96237 3.57273 3.28177
# Velocity P-wave (km/s) = 6.11764 6.94787 6.54593
#
# Compressibility (1/GPa) = 0.01674542
#
# Stress axis : x y z
#
# Youngs Moduli (GPa) = 42.80029 75.48277 156.83129
#
# Poissons Ratio (x) = 0.68605 0.30921
# Poissons Ratio (y) = 0.38900 0.32326
# Poissons Ratio (z) = 0.08439 0.15558
#
# Static dielectric constant tensor:
#      x y z
#    x 1.835040 0.000000 0.000000 
#    y 0.000000 1.893420 0.000000 
#    z 0.000000 0.000000 1.946590 
# 
# From -- ./inp_files/19823.got.cif
#   From: 2010.05.17/outbox.cif.g08.bks.cpg/sg57_10_cif.got.tgz:19823.got - 2010.06.03 13:58:18.
