data_PCOD9439994
_publ_section_title
;
Structure prediction by ZEFSAII (Michael W. Deem and Ramdas Pophale) SiO2 
 PCOD9439994
Probable space group: P B C M
;
_chemical_formula_sum "Si O2"
_cell_formula_units_Z 48
_cell_length_a 10.657588
_cell_length_b 11.669448
_cell_length_c 17.523427
_cell_angle_alpha 90.000000
_cell_angle_beta 90.000000
_cell_angle_gamma 90.000000
_cell_volume 2179.356530
_symmetry_space_group_name_H-M "P B C M"
_symmetry_group_IT_number 57
_symmetry_cell_setting 'orthorhombic'
loop_
_space_group_symop_operation_xyz
x,y,z
-x,-y,1/2+z
x,1/2-y,-z
-x,1/2+y,1/2-z
-x,-y,-z
x,y,1/2-z
-x,1/2+y,z
x,1/2-y,1/2+z
loop_
_atom_site_type_symbol
_atom_site_label
_atom_site_fract_x
_atom_site_fract_y
_atom_site_fract_z
Si Si1 0.432249 0.530210 0.750000
Si Si2 0.290843 0.715341 0.079731
Si Si3 0.585412 0.205497 0.250000
Si Si4 0.766265 0.935971 0.865208
Si Si5 0.852339 0.510415 0.972111
Si Si6 0.887771 0.144023 0.831415
Si Si7 0.170102 0.317555 0.166986
O O1 0.474815 0.663562 0.750000
O O2 0.522892 0.421120 0.750000
O O3 0.344660 0.505490 0.675824
O O4 0.358837 0.702629 0.161713
O O5 0.205587 0.605880 0.060914
O O6 0.191735 0.815822 0.097683
O O7 0.359940 0.750000 0.000000
O O8 0.763455 0.804360 0.841453
O O9 0.889780 0.006097 0.835858
O O10 0.774259 0.945514 0.955249
O O11 0.823394 0.600596 0.905029
O O12 0.000000 0.500000 0.000000
O O13 0.827068 0.175169 0.750000
O O14 0.020593 0.203571 0.831699
O O15 0.203215 0.369105 0.250000
#
# Coordination Sequence:
#
# PCOD9439994 Si02
#       7
#     4   8   4   8   8   8   8
#     4  12  26  52  77 101 139 191 254 332 393 434
#     4  12  22  44  73 101 138 184 244 300 374 447
#     4  12  28  50  79 105 139 189 266 328 391 458
#     4  12  21  45  67  93 143 191 229 298 363 435
#     4  12  24  39  65 106 156 187 234 289 354 450
#     4  11  20  37  65  93 135 184 231 271 352 435
#     4  11  24  36  61 102 142 191 234 278 350 442
#
# _framework density 22.024849
#
# number of rings (size 3 to 8) (size 9 to 14) (size 15 to 20)
#    0.000    0.333    7.500    1.500    1.167    1.333 
#    0.000    5.000    0.000    0.000    0.000    0.000 
#    0.000    0.000    0.000    0.000    0.000    0.000 
#
# Total GULP energy -267202.852495 kJ/mol
# GULP energy per Si atom -5566.726094 kJ/mol
# Density = 2.197472 g / cm^3
# Si number density = 22.024849 Si / 1000 Ang^3
#
#
#
# Elastic Constant Matrix: (Units=GPa)
#
#
# Indices 1 2 3 4 5 6 
#
# 1 21.7182 23.6917 28.1718 0.0000 0.0000 0.0000
# 2 23.6917 134.5710 58.7322 0.0000 0.0000 0.0000
# 3 28.1718 58.7322 218.4473 0.0000 0.0000 0.0000
# 4 0.0000 0.0000 0.0000 42.9282 0.0000 0.0000
# 5 0.0000 0.0000 0.0000 0.0000 8.6477 0.0000
# 6 0.0000 0.0000 0.0000 0.0000 0.0000 31.3251
#
#
#
# Elastic Compliance Matrix: (Units=1/GPa)
#
#
# Indices 1 2 3 4 5 6 
#
# 1 0.062901 -0.008535 -0.005817 0.000000 0.000000 0.000000
# 2 -0.008535 0.009577 -0.001474 0.000000 0.000000 0.000000
# 3 -0.005817 -0.001474 0.005724 0.000000 0.000000 0.000000
# 4 0.000000 0.000000 0.000000 0.023295 0.000000 0.000000
# 5 0.000000 0.000000 0.000000 0.000000 0.115638 0.000000
# 6 0.000000 0.000000 0.000000 0.000000 0.000000 0.031923
#
#
# Mechanical properties :
#
#
# Convention : Reuss Voigt Hill
#
# Bulk Modulus (GPa) = 21.48260 66.21420 43.84840
# Shear Modulus (GPa) = 16.87891 34.18958 25.53424
#
# Velocity S-wave (km/s) = 2.77132 3.94422 3.40860
# Velocity P-wave (km/s) = 4.47384 7.13240 5.95342
#
# Compressibility (1/GPa) = 0.04654930
#
# Stress axis : x y z
#
# Youngs Moduli (GPa) = 15.89806 104.41632 174.69323
#
# Poissons Ratio (x) = 0.89120 1.01622
# Poissons Ratio (y) = 0.13569 0.25753
# Poissons Ratio (z) = 0.09248 0.15393
#
# Static dielectric constant tensor:
#      x y z
#    x 1.883710 0.000000 0.000000 
#    y 0.000000 1.896030 0.000000 
#    z 0.000000 0.000000 1.865890 
# 
# From -- ./inp_files/21853.got.cif
#   From: 2010.05.17/outbox.cif.g08.bks.cpg/sg57_11_cif.got.tgz:21853.got - 2010.06.03 13:58:18.
