data_PCOD9439489
_publ_section_title
;
Structure prediction by ZEFSAII (Michael W. Deem and Ramdas Pophale) SiO2 
 PCOD9439489
Probable space group: P B C M
;
_chemical_formula_sum "Si O2"
_cell_formula_units_Z 64
_cell_length_a 8.150574
_cell_length_b 23.693667
_cell_length_c 15.414940
_cell_angle_alpha 90.000000
_cell_angle_beta 90.000000
_cell_angle_gamma 90.000000
_cell_volume 2976.886755
_symmetry_space_group_name_H-M "P B C M"
_symmetry_group_IT_number 57
_symmetry_cell_setting 'orthorhombic'
loop_
_space_group_symop_operation_xyz
x,y,z
-x,-y,1/2+z
x,1/2-y,-z
-x,1/2+y,1/2-z
-x,-y,-z
x,y,1/2-z
-x,1/2+y,z
x,1/2-y,1/2+z
loop_
_atom_site_type_symbol
_atom_site_label
_atom_site_fract_x
_atom_site_fract_y
_atom_site_fract_z
Si Si1 0.381394 0.902075 0.650136
Si Si2 0.008366 0.890096 0.849237
Si Si3 0.891915 0.240463 0.350361
Si Si4 0.678548 0.593320 0.850869
Si Si5 0.473045 0.784237 0.586558
Si Si6 0.608709 0.012289 0.653205
Si Si7 0.772961 0.718479 0.852033
Si Si8 0.839058 0.535611 0.014880
O O1 0.386927 0.879340 0.750000
O O2 0.190557 0.914733 0.632922
O O3 0.449022 0.851847 0.589925
O O4 0.484355 0.959079 0.648203
O O5 0.960185 0.904178 0.750000
O O6 0.038985 0.823355 0.853540
O O7 0.882157 0.913282 0.919121
O O8 0.871367 0.257082 0.250000
O O9 0.706848 0.239383 0.385579
O O10 0.044310 0.274609 0.392377
O O11 0.735964 0.585417 0.750000
O O12 0.494728 0.569483 0.852220
O O13 0.693573 0.658680 0.875747
O O14 0.773459 0.558307 0.923852
O O15 0.507044 0.750000 0.500000
O O16 0.637952 0.767558 0.638105
O O17 0.686787 0.010178 0.750000
O O18 0.719738 0.004391 0.569864
O O19 0.804998 0.715669 0.750000
O O20 0.000000 0.500000 0.000000
#
# Coordination Sequence:
#
# PCOD9439489 Si02
#       8
#     8   8   8   8   8   8   8   8
#     4   9  19  38  64  89 122 162 205 267 321 368
#     4   9  19  37  62  93 126 157 203 268 328 371
#     4   9  20  41  64  89 124 165 213 268 320 379
#     4  10  24  45  62  86 126 173 213 254 310 380
#     4  11  23  35  59  98 130 164 205 262 323 385
#     4  10  22  42  68  91 118 163 218 266 314 377
#     4  10  22  41  64  86 122 174 216 256 313 381
#     4  12  25  39  62  96 124 162 202 262 321 377
#
# _framework density 21.498971000000001
#
# number of rings (size 3 to 8) (size 9 to 14) (size 15 to 20)
#    0.000    2.000    0.000    3.375    3.500    4.500 
#    4.500    0.000    0.000    0.000    0.000    0.000 
#    0.000    0.000    0.000    0.000    0.000    0.000 
#
# Total GULP energy -357091.944559 kJ/mol
# GULP energy per Si atom -5579.561634 kJ/mol
# Density = 2.145004 g / cm^3
# Si number density = 21.498971 Si / 1000 Ang^3
#
#
#
# Elastic Constant Matrix: (Units=GPa)
#
#
# Indices 1 2 3 4 5 6 
#
# 1 66.6368 5.9359 11.9945 0.0000 0.0000 0.0000
# 2 5.9359 23.5967 0.7802 0.0000 0.0000 0.0000
# 3 11.9945 0.7802 72.6031 0.0000 0.0000 0.0000
# 4 0.0000 0.0000 0.0000 -23.5256 0.0000 0.0000
# 5 0.0000 0.0000 0.0000 0.0000 18.6590 0.0000
# 6 0.0000 0.0000 0.0000 0.0000 0.0000 19.7144
#
#
#
# Elastic Compliance Matrix: (Units=1/GPa)
#
#
# Indices 1 2 3 4 5 6 
#
# 1 0.015816 -0.003894 -0.002571 0.000000 0.000000 0.000000
# 2 -0.003894 0.043352 0.000177 0.000000 0.000000 0.000000
# 3 -0.002571 0.000177 0.014196 0.000000 0.000000 0.000000
# 4 0.000000 0.000000 0.000000 -0.042507 0.000000 0.000000
# 5 0.000000 0.000000 0.000000 0.000000 0.053593 0.000000
# 6 0.000000 0.000000 0.000000 0.000000 0.000000 0.050724
#
#
# Mechanical properties :
#
#
# Convention : Reuss Voigt Hill
#
# Bulk Modulus (GPa) = 16.44999 22.25087 19.35043
# Shear Modulus (GPa) = 29.75938 12.57797 21.16867
#
# Velocity S-wave (km/s) = 3.72455 2.42140 3.14130
# Velocity P-wave (km/s) = 5.11513 4.26495 4.70926
#
# Compressibility (1/GPa) = 0.06079031
#
# Stress axis : x y z
#
# Youngs Moduli (GPa) = 63.22568 23.06676 70.44053
#
# Poissons Ratio (x) = 0.08982 0.18111
# Poissons Ratio (y) = 0.24618 -0.01250
# Poissons Ratio (z) = 0.16256 -0.00409
#
# Static dielectric constant tensor:
#      x y z
#    x 1.823830 0.000000 0.000000 
#    y 0.000000 1.781100 0.000000 
#    z 0.000000 0.000000 1.912270 
# 
# From -- ./inp_files/16957.got.cif
#   From: 2010.05.17/outbox.cif.g08.bks.cpg/sg57_9_cif.got.tgz:16957.got - 2010.06.03 13:58:18.
