data_PCOD9439431
_publ_section_title
;
Structure prediction by ZEFSAII (Michael W. Deem and Ramdas Pophale) SiO2 
 PCOD9439431
Probable space group: P B C M
;
_chemical_formula_sum "Si O2"
_cell_formula_units_Z 44
_cell_length_a 18.053560
_cell_length_b 8.624323
_cell_length_c 14.200209
_cell_angle_alpha 90.000000
_cell_angle_beta 90.000000
_cell_angle_gamma 90.000000
_cell_volume 2210.968746
_symmetry_space_group_name_H-M "P B C M"
_symmetry_group_IT_number 57
_symmetry_cell_setting 'orthorhombic'
loop_
_space_group_symop_operation_xyz
x,y,z
-x,-y,1/2+z
x,1/2-y,-z
-x,1/2+y,1/2-z
-x,-y,-z
x,y,1/2-z
-x,1/2+y,z
x,1/2-y,1/2+z
loop_
_atom_site_type_symbol
_atom_site_label
_atom_site_fract_x
_atom_site_fract_y
_atom_site_fract_z
Si Si1 0.708449 0.506227 0.919378
Si Si2 0.160906 0.699695 0.137323
Si Si3 0.394905 0.107067 0.750000
Si Si4 0.425377 0.921534 0.457530
Si Si5 0.179948 0.250000 0.000000
Si Si6 0.086844 0.520821 0.982475
Si Si7 0.550820 0.966306 0.750000
O O1 0.754863 0.350367 0.892344
O O2 0.655496 0.567566 0.838248
O O3 0.766894 0.640541 0.940550
O O4 0.652901 0.486147 0.006176
O O5 0.156448 0.708804 0.250000
O O6 0.122989 0.847972 0.085774
O O7 0.114745 0.562554 0.087877
O O8 0.462504 0.986487 0.750000
O O9 0.423896 0.285662 0.750000
O O10 0.428763 0.750000 0.500000
O O11 0.425474 0.946539 0.345546
O O12 0.500000 0.000000 0.500000
O O13 0.124633 0.135781 0.053986
O O14 0.000000 0.500000 0.000000
#
# Coordination Sequence:
#
# PCOD9439431 Si02
#       7
#     8   8   4   8   4   8   4
#     4  11  24  42  66  95 141 179 226 301 353 416
#     4  10  22  43  68  99 131 178 227 270 348 415
#     4  12  24  44  66  98 138 181 240 312 363 436
#     4  12  27  44  67  95 135 183 239 305 362 430
#     4  10  22  40  64  94 132 176 220 272 348 412
#     4  10  22  43  69  99 138 174 217 279 333 413
#     4  12  26  44  68 100 128 187 256 300 381 444
#
# _framework density 19.900779
#
# number of rings (size 3 to 8) (size 9 to 14) (size 15 to 20)
#    0.000    1.091    2.727    3.273    6.364    0.727 
#    1.636    0.000    0.000    0.000    0.000    0.000 
#    0.000    0.000    0.000    0.000    0.000    0.000 
#
# Total GULP energy -245173.704781 kJ/mol
# GULP energy per Si atom -5572.129654 kJ/mol
# Density = 1.985548 g / cm^3
# Si number density = 19.900779 Si / 1000 Ang^3
#
#
#
# Elastic Constant Matrix: (Units=GPa)
#
#
# Indices 1 2 3 4 5 6 
#
# 1 179.6574 78.7531 76.8505 0.0000 0.0000 0.0000
# 2 78.7531 117.5497 43.6825 0.0000 0.0000 0.0000
# 3 76.8505 43.6825 165.8555 0.0000 0.0000 0.0000
# 4 0.0000 0.0000 0.0000 23.3420 0.0000 0.0000
# 5 0.0000 0.0000 0.0000 0.0000 12.7998 0.0000
# 6 0.0000 0.0000 0.0000 0.0000 0.0000 -122.3622
#
#
#
# Elastic Compliance Matrix: (Units=1/GPa)
#
#
# Indices 1 2 3 4 5 6 
#
# 1 0.008948 -0.004937 -0.002846 0.000000 0.000000 0.000000
# 2 -0.004937 0.012154 -0.000914 0.000000 0.000000 0.000000
# 3 -0.002846 -0.000914 0.007588 0.000000 0.000000 0.000000
# 4 0.000000 0.000000 0.000000 0.042841 0.000000 0.000000
# 5 0.000000 0.000000 0.000000 0.000000 0.078126 0.000000
# 6 0.000000 0.000000 0.000000 0.000000 0.000000 -0.008172
#
#
# Mechanical properties :
#
#
# Convention : Reuss Voigt Hill
#
# Bulk Modulus (GPa) = 88.51241 95.73718 92.12479
# Shear Modulus (GPa) = 30.74214 0.34104 15.54159
#
# Velocity S-wave (km/s) = 3.93462 0.41442 2.79759
# Velocity P-wave (km/s) = 8.07558 6.95993 7.53843
#
# Compressibility (1/GPa) = 0.01129785
#
# Stress axis : x y z
#
# Youngs Moduli (GPa) = 111.76268 82.27694 131.77862
#
# Poissons Ratio (x) = 0.40620 0.37499
# Poissons Ratio (y) = 0.55177 0.12038
# Poissons Ratio (z) = 0.31803 0.07516
#
# Static dielectric constant tensor:
#      x y z
#    x 1.759650 0.000000 0.000000 
#    y 0.000000 1.897670 0.000000 
#    z 0.000000 0.000000 1.754150 
# 
# From -- ./inp_files/18897.got.cif
#   From: 2010.05.17/outbox.cif.g08.bks.cpg/sg57_10_cif.got.tgz:18897.got - 2010.06.03 13:58:18.
