data_PCOD9439118
_publ_section_title
;
Structure prediction by ZEFSAII (Michael W. Deem and Ramdas Pophale) SiO2 
 PCOD9439118
Probable space group: P B C M
;
_chemical_formula_sum "Si O2"
_cell_formula_units_Z 56
_cell_length_a 14.519317
_cell_length_b 11.412814
_cell_length_c 16.602774
_cell_angle_alpha 90.000000
_cell_angle_beta 90.000000
_cell_angle_gamma 90.000000
_cell_volume 2751.183657
_symmetry_space_group_name_H-M "P B C M"
_symmetry_group_IT_number 57
_symmetry_cell_setting 'orthorhombic'
loop_
_space_group_symop_operation_xyz
x,y,z
-x,-y,1/2+z
x,1/2-y,-z
-x,1/2+y,1/2-z
-x,-y,-z
x,y,1/2-z
-x,1/2+y,z
x,1/2-y,1/2+z
loop_
_atom_site_type_symbol
_atom_site_label
_atom_site_fract_x
_atom_site_fract_y
_atom_site_fract_z
Si Si1 0.191133 0.618520 0.339340
Si Si2 0.283795 0.387787 0.391091
Si Si3 0.015715 0.624412 0.452590
Si Si4 0.161860 0.167008 0.154440
Si Si5 0.351908 0.694623 0.843087
Si Si6 0.556933 0.719244 0.157232
Si Si7 0.678847 0.962825 0.927321
O O1 0.149774 0.632889 0.250000
O O2 0.248520 0.498547 0.342328
O O3 0.264924 0.720952 0.352325
O O4 0.112540 0.615559 0.406228
O O5 0.208381 0.285037 0.381114
O O6 0.380420 0.333240 0.361578
O O7 0.293095 0.428707 0.482966
O O8 0.015409 0.750000 0.500000
O O9 0.933047 0.637468 0.388760
O O10 0.000000 0.500000 0.500000
O O11 0.152548 0.178944 0.250000
O O12 0.235986 0.068221 0.131108
O O13 0.350869 0.648320 0.750000
O O14 0.449234 0.759491 0.852012
O O15 0.346863 0.595052 0.909947
O O16 0.575755 0.686011 0.250000
O O17 0.594789 0.619433 0.099181
#
# Coordination Sequence:
#
# PCOD9439118 Si02
#       7
#     8   8   8   8   8   8   8
#     4  11  25  45  66  98 134 176 218 273 335 404
#     4  11  23  41  67  96 133 171 221 276 336 399
#     4  12  27  46  71 103 138 176 222 280 347 404
#     4  11  22  42  71  98 127 176 224 272 327 408
#     4  10  24  41  63  92 130 176 224 273 334 400
#     4  10  21  40  65  92 126 175 224 271 322 395
#     4  11  22  40  63  97 131 169 218 279 338 393
#
# _framework density 20.354876000000001
#
# number of rings (size 3 to 8) (size 9 to 14) (size 15 to 20)
#    0.000    1.143    0.000    8.143    6.000    0.571 
#    2.571    1.429    0.000    0.000    0.000    0.000 
#    0.000    0.000    0.000    0.000    0.000    0.000 
#
# Total GULP energy -313111.081061 kJ/mol
# GULP energy per Si atom -5591.269305 kJ/mol
# Density = 2.030855 g / cm^3
# Si number density = 20.354876 Si / 1000 Ang^3
#
#
#
# Elastic Constant Matrix: (Units=GPa)
#
#
# Indices 1 2 3 4 5 6 
#
# 1 81.0129 23.7886 79.0287 0.0000 0.0000 0.0000
# 2 23.7886 39.8427 43.9958 0.0000 0.0000 0.0000
# 3 79.0287 43.9958 129.0777 0.0000 0.0000 0.0000
# 4 0.0000 0.0000 0.0000 -57.8692 0.0000 0.0000
# 5 0.0000 0.0000 0.0000 0.0000 9.4073 0.0000
# 6 0.0000 0.0000 0.0000 0.0000 0.0000 0.9378
#
#
#
# Elastic Compliance Matrix: (Units=1/GPa)
#
#
# Indices 1 2 3 4 5 6 
#
# 1 0.031029 0.003931 -0.020338 0.000000 0.000000 0.000000
# 2 0.003931 0.040745 -0.016295 0.000000 0.000000 0.000000
# 3 -0.020338 -0.016295 0.025753 0.000000 0.000000 0.000000
# 4 0.000000 0.000000 0.000000 -0.017280 0.000000 0.000000
# 5 0.000000 0.000000 0.000000 0.000000 0.106300 0.000000
# 6 0.000000 0.000000 0.000000 0.000000 0.000000 1.066373
#
#
# Mechanical properties :
#
#
# Convention : Reuss Voigt Hill
#
# Bulk Modulus (GPa) = 31.12865 60.39549 45.76207
# Shear Modulus (GPa) = 3.76214 -2.63013 0.56601
#
# Velocity S-wave (km/s) = 1.36099 -1.13796 0.52789
# Velocity P-wave (km/s) = 4.21852 5.29236 4.78565
#
# Compressibility (1/GPa) = 0.03212475
#
# Stress axis : x y z
#
# Youngs Moduli (GPa) = 32.22820 24.54304 38.83020
#
# Poissons Ratio (x) = -0.09649 0.78971
# Poissons Ratio (y) = -0.12670 0.63273
# Poissons Ratio (z) = 0.65544 0.39992
#
# Static dielectric constant tensor:
#      x y z
#    x 1.687810 0.000000 0.000000 
#    y 0.000000 1.733620 0.000000 
#    z 0.000000 0.000000 1.720690 
# 
# From -- ./inp_files/18491.got.cif
#   From: 2010.05.17/outbox.cif.g08.bks.cpg/sg57_10_cif.got.tgz:18491.got - 2010.06.03 13:58:18.
