data_PCOD9439111
_publ_section_title
;
Structure prediction by ZEFSAII (Michael W. Deem and Ramdas Pophale) SiO2 
 PCOD9439111
Probable space group: P B C M
;
_chemical_formula_sum "Si O2"
_cell_formula_units_Z 40
_cell_length_a 8.566422
_cell_length_b 10.828544
_cell_length_c 20.754753
_cell_angle_alpha 90.000000
_cell_angle_beta 90.000000
_cell_angle_gamma 90.000000
_cell_volume 1925.249856
_symmetry_space_group_name_H-M "P B C M"
_symmetry_group_IT_number 57
_symmetry_cell_setting 'orthorhombic'
loop_
_space_group_symop_operation_xyz
x,y,z
-x,-y,1/2+z
x,1/2-y,-z
-x,1/2+y,1/2-z
-x,-y,-z
x,y,1/2-z
-x,1/2+y,z
x,1/2-y,1/2+z
loop_
_atom_site_type_symbol
_atom_site_label
_atom_site_fract_x
_atom_site_fract_y
_atom_site_fract_z
Si Si1 0.574915 0.302023 0.323274
Si Si2 0.470158 0.353252 0.554590
Si Si3 0.857311 0.772606 0.929581
Si Si4 0.329505 0.468495 0.118168
Si Si5 0.883736 0.318989 0.824284
O O1 0.543027 0.263324 0.250000
O O2 0.511978 0.208403 0.376604
O O3 0.476378 0.423938 0.338825
O O4 0.762331 0.296362 0.330634
O O5 0.501832 0.250000 0.500000
O O6 0.283848 0.369512 0.558214
O O7 0.588673 0.467462 0.556268
O O8 0.771630 0.647869 0.905162
O O9 0.978690 0.810197 0.875425
O O10 0.931393 0.750000 0.000000
O O11 0.219039 0.561247 0.157125
O O12 0.935732 0.325057 0.750000
#
# Coordination Sequence:
#
# PCOD9439111 Si02
#       5
#     8   8   8   8   8
#     4   9  19  36  59  86 113 148 199 246 288 348
#     4   9  20  38  61  87 115 153 202 248 291 349
#     4  10  23  39  59  91 123 156 199 248 299 356
#     4  10  21  40  65  84 116 161 201 248 302 348
#     4  10  22  39  60  90 124 157 197 245 297 357
#
# _framework density 20.776523999999998
#
# number of rings (size 3 to 8) (size 9 to 14) (size 15 to 20)
#    0.000    2.400    0.000    0.600    0.000   17.600 
#    0.000    2.000    0.000    0.000    0.000    0.000 
#    0.000    0.000    0.000    0.000    0.000    0.000 
#
# Total GULP energy -222985.165300 kJ/mol
# GULP energy per Si atom -5574.629132 kJ/mol
# Density = 2.072924 g / cm^3
# Si number density = 20.776524 Si / 1000 Ang^3
#
#
#
# Elastic Constant Matrix: (Units=GPa)
#
#
# Indices 1 2 3 4 5 6 
#
# 1 93.0362 44.6396 60.4620 0.0000 0.0000 0.0000
# 2 44.6396 61.5988 15.2993 0.0000 0.0000 0.0000
# 3 60.4620 15.2993 144.5349 0.0000 0.0000 0.0000
# 4 0.0000 0.0000 0.0000 24.0908 0.0000 0.0000
# 5 0.0000 0.0000 0.0000 0.0000 36.7876 0.0000
# 6 0.0000 0.0000 0.0000 0.0000 0.0000 22.2289
#
#
#
# Elastic Compliance Matrix: (Units=1/GPa)
#
#
# Indices 1 2 3 4 5 6 
#
# 1 0.023060 -0.014702 -0.008090 0.000000 0.000000 0.000000
# 2 -0.014702 0.026046 0.003393 0.000000 0.000000 0.000000
# 3 -0.008090 0.003393 0.009944 0.000000 0.000000 0.000000
# 4 0.000000 0.000000 0.000000 0.041510 0.000000 0.000000
# 5 0.000000 0.000000 0.000000 0.000000 0.027183 0.000000
# 6 0.000000 0.000000 0.000000 0.000000 0.000000 0.044986
#
#
# Mechanical properties :
#
#
# Convention : Reuss Voigt Hill
#
# Bulk Modulus (GPa) = 49.37915 59.99685 54.68800
# Shear Modulus (GPa) = 22.90654 28.53941 25.72298
#
# Velocity S-wave (km/s) = 3.32402 3.71028 3.52245
# Velocity P-wave (km/s) = 6.20891 6.87713 6.55154
#
# Compressibility (1/GPa) = 0.02025146
#
# Stress axis : x y z
#
# Youngs Moduli (GPa) = 43.36423 38.39411 100.56345
#
# Poissons Ratio (x) = 0.56447 0.81360
# Poissons Ratio (y) = 0.63755 -0.34123
# Poissons Ratio (z) = 0.35084 -0.13028
#
# Static dielectric constant tensor:
#      x y z
#    x 1.749870 0.000000 0.000000 
#    y 0.000000 1.881950 0.000000 
#    z 0.000000 0.000000 1.739250 
# 
# From -- ./inp_files/24140.got.cif
#   From: 2010.05.17/outbox.cif.g08.bks.cpg/sg57_13_cif.got.tgz:24140.got - 2010.06.03 13:58:18.
