data_PCOD9439648
_publ_section_title
;
Structure prediction by ZEFSAII (Michael W. Deem and Ramdas Pophale) SiO2 
 PCOD9439648
Probable space group: P B C M
;
_chemical_formula_sum "Si O2"
_cell_formula_units_Z 60
_cell_length_a 5.087623
_cell_length_b 18.338289
_cell_length_c 27.203306
_cell_angle_alpha 90.000000
_cell_angle_beta 90.000000
_cell_angle_gamma 90.000000
_cell_volume 2538.022229
_symmetry_space_group_name_H-M "P B C M"
_symmetry_group_IT_number 57
_symmetry_cell_setting 'orthorhombic'
loop_
_space_group_symop_operation_xyz
x,y,z
-x,-y,1/2+z
x,1/2-y,-z
-x,1/2+y,1/2-z
-x,-y,-z
x,y,1/2-z
-x,1/2+y,z
x,1/2-y,1/2+z
loop_
_atom_site_type_symbol
_atom_site_label
_atom_site_fract_x
_atom_site_fract_y
_atom_site_fract_z
Si Si1 0.373982 0.595142 0.005204
Si Si2 0.225812 0.120753 0.849942
Si Si3 0.893569 0.821604 0.524349
Si Si4 0.763070 0.706618 0.367158
Si Si5 0.995556 0.081542 0.304537
Si Si6 0.587669 0.085300 0.388122
Si Si7 0.001630 0.447361 0.250000
Si Si8 0.732447 0.046273 0.898123
O O1 0.676760 0.617192 0.012168
O O2 0.289076 0.566181 0.059112
O O3 0.173013 0.662299 0.000220
O O4 0.324276 0.550402 0.956487
O O5 0.232054 0.208665 0.854682
O O6 0.150157 0.097862 0.794362
O O7 0.503791 0.090214 0.869224
O O8 0.004630 0.084842 0.885110
O O9 0.777147 0.750000 0.500000
O O10 0.920234 0.808162 0.582414
O O11 0.483843 0.670355 0.382129
O O12 0.859306 0.653891 0.323105
O O13 0.874694 0.096469 0.250000
O O14 0.768839 0.064912 0.343172
O O15 0.130109 0.003903 0.291903
O O16 0.318672 0.038630 0.385543
#
# Coordination Sequence:
#
# PCOD9439648 Si02
#       8
#     8   8   8   8   8   8   4   8
#     4  11  23  39  68 102 141 184 242 289 344 424
#     4  12  28  47  73 106 144 185 243 295 364 422
#     4  11  22  40  64 100 146 192 228 285 362 423
#     4  11  25  43  71 104 144 184 241 297 349 438
#     4  10  22  46  71 100 137 184 240 294 364 419
#     4  11  24  44  71 104 142 190 240 293 358 432
#     4  10  24  50  74 102 140 188 234 308 362 430
#     4  12  25  47  71 106 145 193 236 297 355 428
#
# _framework density 23.640456
#
# number of rings (size 3 to 8) (size 9 to 14) (size 15 to 20)
#    0.400    0.533    2.667    4.000    2.800    2.133 
#    3.600    3.333    0.000    0.000    0.000    0.000 
#    0.000    0.000    0.000    0.000    0.000    0.000 
#
# Total GULP energy -334066.722967 kJ/mol
# GULP energy per Si atom -5567.778716 kJ/mol
# Density = 2.358665 g / cm^3
# Si number density = 23.640456 Si / 1000 Ang^3
#
#
#
# Elastic Constant Matrix: (Units=GPa)
#
#
# Indices 1 2 3 4 5 6 
#
# 1 85.7443 30.1199 17.1425 0.0000 0.0000 0.0000
# 2 30.1199 137.0319 34.1877 0.0000 0.0000 0.0000
# 3 17.1425 34.1877 163.3243 0.0000 0.0000 0.0000
# 4 0.0000 0.0000 0.0000 0.6788 0.0000 0.0000
# 5 0.0000 0.0000 0.0000 0.0000 22.6852 0.0000
# 6 0.0000 0.0000 0.0000 0.0000 0.0000 27.3749
#
#
#
# Elastic Compliance Matrix: (Units=1/GPa)
#
#
# Indices 1 2 3 4 5 6 
#
# 1 0.012735 -0.002602 -0.000792 0.000000 0.000000 0.000000
# 2 -0.002602 0.008231 -0.001450 0.000000 0.000000 0.000000
# 3 -0.000792 -0.001450 0.006509 0.000000 0.000000 0.000000
# 4 0.000000 0.000000 0.000000 1.473141 0.000000 0.000000
# 5 0.000000 0.000000 0.000000 0.000000 0.044082 0.000000
# 6 0.000000 0.000000 0.000000 0.000000 0.000000 0.036530
#
#
# Mechanical properties :
#
#
# Convention : Reuss Voigt Hill
#
# Bulk Modulus (GPa) = 56.21669 61.00007 58.60838
# Shear Modulus (GPa) = 3.13117 30.45781 16.79449
#
# Velocity S-wave (km/s) = 1.15212 3.59329 2.66825
# Velocity P-wave (km/s) = 5.05977 6.56315 5.85987
#
# Compressibility (1/GPa) = 0.01778831
#
# Stress axis : x y z
#
# Youngs Moduli (GPa) = 78.52503 121.49013 153.62340
#
# Poissons Ratio (x) = 0.31606 0.12168
# Poissons Ratio (y) = 0.20428 0.22274
# Poissons Ratio (z) = 0.06220 0.17615
#
# Static dielectric constant tensor:
#      x y z
#    x 1.931020 0.000000 0.000000 
#    y 0.000000 1.933630 0.000000 
#    z 0.000000 0.000000 2.816280 
# 
# From -- ./inp_files/28074.got.cif
#   From: 2010.05.17/outbox.cif.g08.bks.cpg/sg57_15_cif.got.tgz:28074.got - 2010.06.03 13:58:18.
