data_PCOD9439747
_publ_section_title
;
Structure prediction by ZEFSAII (Michael W. Deem and Ramdas Pophale) SiO2 
 PCOD9439747
Probable space group: P B C M
;
_chemical_formula_sum "Si O2"
_cell_formula_units_Z 60
_cell_length_a 18.613206
_cell_length_b 17.719933
_cell_length_c 9.325704
_cell_angle_alpha 90.000000
_cell_angle_beta 90.000000
_cell_angle_gamma 90.000000
_cell_volume 3075.848114
_symmetry_space_group_name_H-M "P B C M"
_symmetry_group_IT_number 57
_symmetry_cell_setting 'orthorhombic'
loop_
_space_group_symop_operation_xyz
x,y,z
-x,-y,1/2+z
x,1/2-y,-z
-x,1/2+y,1/2-z
-x,-y,-z
x,y,1/2-z
-x,1/2+y,z
x,1/2-y,1/2+z
loop_
_atom_site_type_symbol
_atom_site_label
_atom_site_fract_x
_atom_site_fract_y
_atom_site_fract_z
Si Si1 0.792529 0.907299 0.921358
Si Si2 0.368229 0.759012 0.750000
Si Si3 0.920127 0.827920 0.416811
Si Si4 0.341513 0.637215 0.999214
Si Si5 0.354021 0.326542 0.919957
Si Si6 0.951467 0.061867 0.917708
Si Si7 0.199035 0.939638 0.921040
Si Si8 0.574549 0.514467 0.078232
O O1 0.799392 0.919274 0.750000
O O2 0.730215 0.845673 0.943311
O O3 0.865596 0.880760 0.995806
O O4 0.773012 0.984108 0.002872
O O5 0.383780 0.823069 0.873177
O O6 0.346959 0.695807 0.628601
O O7 0.919950 0.750000 0.500000
O O8 0.897372 0.820882 0.250000
O O9 0.998906 0.864194 0.418078
O O10 0.259218 0.623597 0.050522
O O11 0.374316 0.555990 0.959687
O O12 0.365162 0.316388 0.750000
O O13 0.394521 0.403329 0.964906
O O14 0.374950 0.250000 0.000000
O O15 0.939200 0.040509 0.750000
O O16 0.877190 0.074445 0.001379
O O17 0.000000 0.000000 0.000000
O O18 0.189546 0.949623 0.750000
O O19 0.566434 0.515644 0.250000
O O20 0.500000 0.500000 0.000000
#
# Coordination Sequence:
#
# PCOD9439747 Si02
#       8
#     8   4   8   8   8   8   8   8
#     4  11  22  38  68  94 126 171 218 274 338 395
#     4  10  24  44  74 102 132 176 226 286 340 402
#     4  11  24  42  60  90 127 167 214 269 331 398
#     4  11  23  47  70 102 137 174 229 285 341 406
#     4  10  23  43  64  99 135 173 218 270 326 389
#     4  11  24  41  62  89 125 168 222 271 329 402
#     4  12  24  39  66  98 131 174 220 278 337 403
#     4  11  25  46  71 101 141 181 223 270 332 404
#
# _framework density 19.506816000000001
#
# number of rings (size 3 to 8) (size 9 to 14) (size 15 to 20)
#    0.000    1.067    4.000    2.000    2.800    4.267 
#    4.800    0.000    0.000    0.000    0.000    0.000 
#    0.000    0.000    0.000    0.000    0.000    0.000 
#
# Total GULP energy -334008.874530 kJ/mol
# GULP energy per Si atom -5566.814575 kJ/mol
# Density = 1.946242 g / cm^3
# Si number density = 19.506816 Si / 1000 Ang^3
#
#
#
# Elastic Constant Matrix: (Units=GPa)
#
#
# Indices 1 2 3 4 5 6 
#
# 1 78.1894 19.9633 27.6437 0.0000 0.0000 0.0000
# 2 19.9633 107.0323 40.2723 0.0000 0.0000 0.0000
# 3 27.6437 40.2723 157.4063 0.0000 0.0000 0.0000
# 4 0.0000 0.0000 0.0000 45.1874 0.0000 0.0000
# 5 0.0000 0.0000 0.0000 0.0000 -11.4813 0.0000
# 6 0.0000 0.0000 0.0000 0.0000 0.0000 4.3950
#
#
#
# Elastic Compliance Matrix: (Units=1/GPa)
#
#
# Indices 1 2 3 4 5 6 
#
# 1 0.013963 -0.001861 -0.001976 0.000000 0.000000 0.000000
# 2 -0.001861 0.010586 -0.002382 0.000000 0.000000 0.000000
# 3 -0.001976 -0.002382 0.007309 0.000000 0.000000 0.000000
# 4 0.000000 0.000000 0.000000 0.022130 0.000000 0.000000
# 5 0.000000 0.000000 0.000000 0.000000 -0.087098 0.000000
# 6 0.000000 0.000000 0.000000 0.000000 0.000000 0.227530
#
#
# Mechanical properties :
#
#
# Convention : Reuss Voigt Hill
#
# Bulk Modulus (GPa) = 51.48924 57.59850 54.54387
# Shear Modulus (GPa) = 23.43765 24.60349 24.02057
#
# Velocity S-wave (km/s) = 3.47004 3.55530 3.51293
# Velocity P-wave (km/s) = 6.51980 6.81506 6.66906
#
# Compressibility (1/GPa) = 0.01942153
#
# Stress axis : x y z
#
# Youngs Moduli (GPa) = 71.61678 94.46273 136.81053
#
# Poissons Ratio (x) = 0.17578 0.27035
# Poissons Ratio (y) = 0.13327 0.32584
# Poissons Ratio (z) = 0.14152 0.22498
#
# Static dielectric constant tensor:
#      x y z
#    x 1.758480 0.000000 0.000000 
#    y 0.000000 1.712630 0.000000 
#    z 0.000000 0.000000 1.650610 
# 
# From -- ./inp_files/6909.got.cif
#   From: 2010.05.17/outbox.cif.g08.bks.cpg/sg57_4_cif.got.tgz:6909.got - 2010.06.03 13:58:18.
