data_PCOD9439039
_publ_section_title
;
Structure prediction by ZEFSAII (Michael W. Deem and Ramdas Pophale) SiO2 
 PCOD9439039
Probable space group: P B C M
;
_chemical_formula_sum "Si O2"
_cell_formula_units_Z 36
_cell_length_a 12.362774
_cell_length_b 11.610844
_cell_length_c 10.986235
_cell_angle_alpha 90.000000
_cell_angle_beta 90.000000
_cell_angle_gamma 90.000000
_cell_volume 1576.988785
_symmetry_space_group_name_H-M "P B C M"
_symmetry_group_IT_number 57
_symmetry_cell_setting 'orthorhombic'
loop_
_space_group_symop_operation_xyz
x,y,z
-x,-y,1/2+z
x,1/2-y,-z
-x,1/2+y,1/2-z
-x,-y,-z
x,y,1/2-z
-x,1/2+y,z
x,1/2-y,1/2+z
loop_
_atom_site_type_symbol
_atom_site_label
_atom_site_fract_x
_atom_site_fract_y
_atom_site_fract_z
Si Si1 0.694953 0.750000 0.500000
Si Si2 0.573949 0.043498 0.750000
Si Si3 0.274139 0.627692 0.541623
Si Si4 0.437886 0.281280 0.750000
Si Si5 0.966160 0.327871 0.117319
Si Si6 0.822468 0.947522 0.114735
O O1 0.627243 0.729244 0.377273
O O2 0.772021 0.858319 0.478578
O O3 0.646570 0.056370 0.872209
O O4 0.508111 0.163739 0.750000
O O5 0.519429 0.915826 0.750000
O O6 0.321827 0.750000 0.500000
O O7 0.160331 0.643860 0.611665
O O8 0.232158 0.566534 0.419489
O O9 0.989067 0.272489 0.250000
O O10 0.048021 0.436101 0.110211
O O11 0.988231 0.250000 0.000000
O O12 0.789802 0.913040 0.250000
#
# Coordination Sequence:
#
# PCOD9439039 Si02
#       6
#     4   4   8   4   8   8
#     4  12  24  48  74 108 142 188 240 306 368 440
#     4  12  28  52  75 106 142 198 249 324 379 441
#     4  11  25  44  69 104 148 192 240 305 369 444
#     4  12  30  50  79 106 144 188 259 314 379 439
#     4  10  21  39  67 109 151 196 243 287 364 447
#     4  11  23  42  73 108 148 193 237 294 364 451
#
# _framework density 22.828316999999998
#
# number of rings (size 3 to 8) (size 9 to 14) (size 15 to 20)
#    0.000    0.889    5.556    0.667    3.111    3.556 
#    2.000    0.000    0.000    0.000    0.000    0.000 
#    0.000    0.000    0.000    0.000    0.000    0.000 
#
# Total GULP energy -200892.762587 kJ/mol
# GULP energy per Si atom -5580.354516 kJ/mol
# Density = 2.277636 g / cm^3
# Si number density = 22.828317 Si / 1000 Ang^3
#
#
#
# Elastic Constant Matrix: (Units=GPa)
#
#
# Indices 1 2 3 4 5 6 
#
# 1 43.5429 25.9320 39.0843 0.0000 0.0000 0.0000
# 2 25.9320 95.1613 5.9875 0.0000 0.0000 0.0000
# 3 39.0843 5.9875 130.1447 0.0000 0.0000 0.0000
# 4 0.0000 0.0000 0.0000 37.0521 0.0000 0.0000
# 5 0.0000 0.0000 0.0000 0.0000 27.4634 0.0000
# 6 0.0000 0.0000 0.0000 0.0000 0.0000 31.7781
#
#
#
# Elastic Compliance Matrix: (Units=1/GPa)
#
#
# Indices 1 2 3 4 5 6 
#
# 1 0.038961 -0.009909 -0.011244 0.000000 0.000000 0.000000
# 2 -0.009909 0.013059 0.002375 0.000000 0.000000 0.000000
# 3 -0.011244 0.002375 0.010951 0.000000 0.000000 0.000000
# 4 0.000000 0.000000 0.000000 0.026989 0.000000 0.000000
# 5 0.000000 0.000000 0.000000 0.000000 0.036412 0.000000
# 6 0.000000 0.000000 0.000000 0.000000 0.000000 0.031468
#
#
# Mechanical properties :
#
#
# Convention : Reuss Voigt Hill
#
# Bulk Modulus (GPa) = 39.34894 45.65073 42.49984
# Shear Modulus (GPa) = 24.52548 32.44839 28.48694
#
# Velocity S-wave (km/s) = 3.28128 3.77425 3.53636
# Velocity P-wave (km/s) = 5.62406 6.24773 5.94408
#
# Compressibility (1/GPa) = 0.02541364
#
# Stress axis : x y z
#
# Youngs Moduli (GPa) = 25.66699 76.57302 91.31285
#
# Poissons Ratio (x) = 0.75880 1.02677
# Poissons Ratio (y) = 0.25435 -0.21688
# Poissons Ratio (z) = 0.28861 -0.18187
#
# Static dielectric constant tensor:
#      x y z
#    x 1.859250 0.000000 0.000000 
#    y 0.000000 1.902970 0.000000 
#    z 0.000000 0.000000 1.863960 
# 
# From -- ./inp_files/12564.got.cif
#   From: 2010.05.17/outbox.cif.g08.bks.cpg/sg57_7_cif.got.tgz:12564.got - 2010.06.03 13:58:18.
