data_PCOD9439802
_publ_section_title
;
Structure prediction by ZEFSAII (Michael W. Deem and Ramdas Pophale) SiO2 
 PCOD9439802
Probable space group: P B C M
;
_chemical_formula_sum "Si O2"
_cell_formula_units_Z 48
_cell_length_a 12.102415
_cell_length_b 11.951339
_cell_length_c 16.086164
_cell_angle_alpha 90.000000
_cell_angle_beta 90.000000
_cell_angle_gamma 90.000000
_cell_volume 2326.703797
_symmetry_space_group_name_H-M "P B C M"
_symmetry_group_IT_number 57
_symmetry_cell_setting 'orthorhombic'
loop_
_space_group_symop_operation_xyz
x,y,z
-x,-y,1/2+z
x,1/2-y,-z
-x,1/2+y,1/2-z
-x,-y,-z
x,y,1/2-z
-x,1/2+y,z
x,1/2-y,1/2+z
loop_
_atom_site_type_symbol
_atom_site_label
_atom_site_fract_x
_atom_site_fract_y
_atom_site_fract_z
Si Si1 0.822348 0.210222 0.907045
Si Si2 0.732695 0.600641 0.653736
Si Si3 0.592613 0.703765 0.092127
Si Si4 0.223722 0.461132 0.850301
Si Si5 0.358994 0.630613 0.345995
Si Si6 0.930330 0.751430 0.649682
O O1 0.740029 0.281264 0.849716
O O2 0.949339 0.238052 0.887463
O O3 0.801588 0.079875 0.890597
O O4 0.796940 0.250000 0.000000
O O5 0.757859 0.574932 0.750000
O O6 0.640116 0.696813 0.649593
O O7 0.686500 0.486123 0.616801
O O8 0.843914 0.656757 0.618189
O O9 0.665810 0.595396 0.113412
O O10 0.465333 0.676750 0.106788
O O11 0.611923 0.750000 0.000000
O O12 0.233632 0.472241 0.750000
O O13 0.126649 0.370903 0.867066
O O14 0.393021 0.611637 0.250000
O O15 0.938034 0.740897 0.750000
#
# Coordination Sequence:
#
# PCOD9439802 Si02
#       6
#     8   8   8   8   8   8
#     4  12  27  41  64 100 138 168 218 279 339 390
#     4   9  21  41  66  93 127 174 226 269 322 400
#     4  11  24  41  69  97 133 171 216 279 342 390
#     4  10  23  45  71  96 131 183 229 266 324 408
#     4  11  24  42  66  94 129 174 223 271 325 400
#     4   9  20  42  67  93 126 174 227 272 325 393
#
# _framework density 20.630043000000001
#
# number of rings (size 3 to 8) (size 9 to 14) (size 15 to 20)
#    0.000    1.667    0.000    4.500    7.000    4.000 
#    0.000    0.000    0.000    0.000    0.000    0.000 
#    0.000    0.000    0.000    0.000    0.000    0.000 
#
# Total GULP energy -268282.316692 kJ/mol
# GULP energy per Si atom -5589.214931 kJ/mol
# Density = 2.058309 g / cm^3
# Si number density = 20.630043 Si / 1000 Ang^3
#
#
#
# Elastic Constant Matrix: (Units=GPa)
#
#
# Indices 1 2 3 4 5 6 
#
# 1 138.2847 68.0741 19.2152 0.0000 0.0000 0.0000
# 2 68.0741 114.2971 23.9015 0.0000 0.0000 0.0000
# 3 19.2152 23.9015 64.3765 0.0000 0.0000 0.0000
# 4 0.0000 0.0000 0.0000 26.0041 0.0000 0.0000
# 5 0.0000 0.0000 0.0000 0.0000 -50.5243 0.0000
# 6 0.0000 0.0000 0.0000 0.0000 0.0000 9.4509
#
#
#
# Elastic Compliance Matrix: (Units=1/GPa)
#
#
# Indices 1 2 3 4 5 6 
#
# 1 0.010275 -0.005940 -0.000862 0.000000 0.000000 0.000000
# 2 -0.005940 0.012919 -0.003024 0.000000 0.000000 0.000000
# 3 -0.000862 -0.003024 0.016913 0.000000 0.000000 0.000000
# 4 0.000000 0.000000 0.000000 0.038456 0.000000 0.000000
# 5 0.000000 0.000000 0.000000 0.000000 -0.019792 0.000000
# 6 0.000000 0.000000 0.000000 0.000000 0.000000 0.105810
#
#
# Mechanical properties :
#
#
# Convention : Reuss Voigt Hill
#
# Bulk Modulus (GPa) = 48.88147 59.92668 54.40408
# Shear Modulus (GPa) = 26.17129 10.70398 18.43763
#
# Velocity S-wave (km/s) = 3.56561 2.28031 2.99277
# Velocity P-wave (km/s) = 6.37943 6.00370 6.19441
#
# Compressibility (1/GPa) = 0.02045765
#
# Stress axis : x y z
#
# Youngs Moduli (GPa) = 97.32292 77.40569 59.12456
#
# Poissons Ratio (x) = 0.45975 0.05095
# Poissons Ratio (y) = 0.57805 0.17877
# Poissons Ratio (z) = 0.08386 0.23405
#
# Static dielectric constant tensor:
#      x y z
#    x 1.698380 0.000000 0.000000 
#    y 0.000000 1.720060 0.000000 
#    z 0.000000 0.000000 1.781980 
# 
# From -- ./inp_files/21822.got.cif
#   From: 2010.05.17/outbox.cif.g08.bks.cpg/sg57_11_cif.got.tgz:21822.got - 2010.06.03 13:58:18.
