data_PCOD9439719
_publ_section_title
;
Structure prediction by ZEFSAII (Michael W. Deem and Ramdas Pophale) SiO2 
 PCOD9439719
Probable space group: P B C M
;
_chemical_formula_sum "Si O2"
_cell_formula_units_Z 40
_cell_length_a 14.039480
_cell_length_b 8.065333
_cell_length_c 15.654781
_cell_angle_alpha 90.000000
_cell_angle_beta 90.000000
_cell_angle_gamma 90.000000
_cell_volume 1772.639090
_symmetry_space_group_name_H-M "P B C M"
_symmetry_group_IT_number 57
_symmetry_cell_setting 'orthorhombic'
loop_
_space_group_symop_operation_xyz
x,y,z
-x,-y,1/2+z
x,1/2-y,-z
-x,1/2+y,1/2-z
-x,-y,-z
x,y,1/2-z
-x,1/2+y,z
x,1/2-y,1/2+z
loop_
_atom_site_type_symbol
_atom_site_label
_atom_site_fract_x
_atom_site_fract_y
_atom_site_fract_z
Si Si1 0.441319 0.674354 0.847929
Si Si2 0.145767 0.766570 0.250000
Si Si3 0.824641 0.700029 0.595411
Si Si4 0.264912 0.666461 0.091487
Si Si5 0.051551 0.098444 0.750000
Si Si6 0.372435 0.330595 0.906438
O O1 0.418878 0.634047 0.750000
O O2 0.375279 0.824615 0.880831
O O3 0.410003 0.517789 0.904234
O O4 0.550648 0.725480 0.854227
O O5 0.209420 0.766493 0.165268
O O6 0.092837 0.587246 0.250000
O O7 0.061873 0.898751 0.250000
O O8 0.856918 0.750000 0.500000
O O9 0.776140 0.518192 0.589875
O O10 0.906742 0.687645 0.665545
O O11 0.736668 0.817197 0.623474
O O12 0.252009 0.750000 0.000000
O O13 0.373141 0.250000 0.000000
#
# Coordination Sequence:
#
# PCOD9439719 Si02
#       6
#     8   4   8   8   4   8
#     4  12  24  38  62  96 128 169 215 257 311 369
#     4  10  24  44  63  98 119 168 203 258 320 376
#     4  10  23  42  64  95 124 168 210 255 315 373
#     4  11  22  43  66  92 130 164 208 263 311 374
#     4  10  24  42  69  86 133 156 207 262 316 372
#     4  11  23  40  60  90 128 171 213 254 310 370
#
# _framework density 22.565227
#
# number of rings (size 3 to 8) (size 9 to 14) (size 15 to 20)
#    0.000    1.200    1.000    5.400    2.800    4.000 
#    0.000    4.000    0.000    0.000    0.000    0.000 
#    0.000    0.000    0.000    0.000    0.000    0.000 
#
# Total GULP energy -223931.465884 kJ/mol
# GULP energy per Si atom -5598.286647 kJ/mol
# Density = 2.251387 g / cm^3
# Si number density = 22.565227 Si / 1000 Ang^3
#
#
#
# Elastic Constant Matrix: (Units=GPa)
#
#
# Indices 1 2 3 4 5 6 
#
# 1 54.8486 -4.8574 27.1469 0.0000 0.0000 0.0000
# 2 -4.8574 54.9826 6.8697 0.0000 0.0000 0.0000
# 3 27.1469 6.8697 119.5731 0.0000 0.0000 0.0000
# 4 0.0000 0.0000 0.0000 19.3048 0.0000 0.0000
# 5 0.0000 0.0000 0.0000 0.0000 -11.0202 0.0000
# 6 0.0000 0.0000 0.0000 0.0000 0.0000 32.3485
#
#
#
# Elastic Compliance Matrix: (Units=1/GPa)
#
#
# Indices 1 2 3 4 5 6 
#
# 1 0.020863 0.002453 -0.004878 0.000000 0.000000 0.000000
# 2 0.002453 0.018607 -0.001626 0.000000 0.000000 0.000000
# 3 -0.004878 -0.001626 0.009564 0.000000 0.000000 0.000000
# 4 0.000000 0.000000 0.000000 0.051801 0.000000 0.000000
# 5 0.000000 0.000000 0.000000 0.000000 -0.090743 0.000000
# 6 0.000000 0.000000 0.000000 0.000000 0.000000 0.030913
#
#
# Mechanical properties :
#
#
# Convention : Reuss Voigt Hill
#
# Bulk Modulus (GPa) = 24.43021 31.96920 28.19970
# Shear Modulus (GPa) = 79.67935 21.47630 50.57783
#
# Velocity S-wave (km/s) = 5.94873 3.08838 4.73948
# Velocity P-wave (km/s) = 7.61795 5.18803 6.51724
#
# Compressibility (1/GPa) = 0.04093292
#
# Stress axis : x y z
#
# Youngs Moduli (GPa) = 47.93101 53.74213 104.56040
#
# Poissons Ratio (x) = -0.13181 0.51000
# Poissons Ratio (y) = -0.11755 0.17000
# Poissons Ratio (z) = 0.23379 0.08738
#
# Static dielectric constant tensor:
#      x y z
#    x 1.818070 0.000000 0.000000 
#    y 0.000000 1.863400 0.000000 
#    z 0.000000 0.000000 1.809240 
# 
# From -- ./inp_files/18264.got.cif
#   From: 2010.05.17/outbox.cif.g08.bks.cpg/sg57_10_cif.got.tgz:18264.got - 2010.06.03 13:58:18.
