data_PCOD9439599
_publ_section_title
;
Structure prediction by ZEFSAII (Michael W. Deem and Ramdas Pophale) SiO2 
 PCOD9439599
Probable space group: P B C M
;
_chemical_formula_sum "Si O2"
_cell_formula_units_Z 32
_cell_length_a 9.914062
_cell_length_b 10.629987
_cell_length_c 13.474951
_cell_angle_alpha 90.000000
_cell_angle_beta 90.000000
_cell_angle_gamma 90.000000
_cell_volume 1420.075905
_symmetry_space_group_name_H-M "P B C M"
_symmetry_group_IT_number 57
_symmetry_cell_setting 'orthorhombic'
loop_
_space_group_symop_operation_xyz
x,y,z
-x,-y,1/2+z
x,1/2-y,-z
-x,1/2+y,1/2-z
-x,-y,-z
x,y,1/2-z
-x,1/2+y,z
x,1/2-y,1/2+z
loop_
_atom_site_type_symbol
_atom_site_label
_atom_site_fract_x
_atom_site_fract_y
_atom_site_fract_z
Si Si1 0.320185 0.114129 0.524308
Si Si2 0.880006 0.309677 0.130551
Si Si3 0.596957 0.086274 0.868010
Si Si4 0.080170 0.970677 0.870353
O O1 0.260379 0.250000 0.500000
O O2 0.455577 0.132521 0.588864
O O3 0.216078 0.028865 0.584846
O O4 0.365003 0.042183 0.424673
O O5 0.891103 0.309291 0.250000
O O6 0.721520 0.321379 0.108357
O O7 0.958880 0.435936 0.100468
O O8 0.935491 0.174519 0.097930
O O9 0.589844 0.069039 0.750000
O O10 0.089520 0.971676 0.750000
#
# Coordination Sequence:
#
# PCOD9439599 Si02
#       4
#     8   8   8   8
#     4  11  26  42  65 102 129 175 229 277 337 404
#     4   9  21  41  69  99 132 178 220 271 336 396
#     4  10  24  45  67  93 134 177 222 279 339 401
#     4  10  22  43  69 100 137 175 224 278 335 400
#
# _framework density 22.534006999999999
#
# number of rings (size 3 to 8) (size 9 to 14) (size 15 to 20)
#    0.000    2.000    0.000    0.750   10.500    3.000 
#    0.000    0.000    0.000    0.000    0.000    0.000 
#    0.000    0.000    0.000    0.000    0.000    0.000 
#
# Total GULP energy -179117.399889 kJ/mol
# GULP energy per Si atom -5597.418747 kJ/mol
# Density = 2.248272 g / cm^3
# Si number density = 22.534007 Si / 1000 Ang^3
#
#
#
# Elastic Constant Matrix: (Units=GPa)
#
#
# Indices 1 2 3 4 5 6 
#
# 1 133.0365 55.4387 30.6624 0.0000 0.0000 0.0000
# 2 55.4387 157.7469 37.9300 0.0000 0.0000 0.0000
# 3 30.6624 37.9300 129.2695 0.0000 0.0000 0.0000
# 4 0.0000 0.0000 0.0000 29.6775 0.0000 0.0000
# 5 0.0000 0.0000 0.0000 0.0000 30.7940 0.0000
# 6 0.0000 0.0000 0.0000 0.0000 0.0000 -13.6367
#
#
#
# Elastic Compliance Matrix: (Units=1/GPa)
#
#
# Indices 1 2 3 4 5 6 
#
# 1 0.009005 -0.002852 -0.001299 0.000000 0.000000 0.000000
# 2 -0.002852 0.007724 -0.001590 0.000000 0.000000 0.000000
# 3 -0.001299 -0.001590 0.008510 0.000000 0.000000 0.000000
# 4 0.000000 0.000000 0.000000 0.033696 0.000000 0.000000
# 5 0.000000 0.000000 0.000000 0.000000 0.032474 0.000000
# 6 0.000000 0.000000 0.000000 0.000000 0.000000 -0.073332
#
#
# Mechanical properties :
#
#
# Convention : Reuss Voigt Hill
#
# Bulk Modulus (GPa) = 72.69077 74.23503 73.46290
# Shear Modulus (GPa) = 146.43616 29.10175 87.76895
#
# Velocity S-wave (km/s) = 8.07004 3.59759 6.24773
# Velocity P-wave (km/s) = 10.91615 7.09027 9.20419
#
# Compressibility (1/GPa) = 0.01375690
#
# Stress axis : x y z
#
# Youngs Moduli (GPa) = 111.05277 129.46755 117.50378
#
# Poissons Ratio (x) = 0.36928 0.15264
# Poissons Ratio (y) = 0.31675 0.18681
# Poissons Ratio (z) = 0.14426 0.20583
#
# Static dielectric constant tensor:
#      x y z
#    x 1.801670 0.000000 0.000000 
#    y 0.000000 1.813480 0.000000 
#    z 0.000000 0.000000 1.844180 
# 
# From -- ./inp_files/15491.got.cif
#   From: 2010.05.17/outbox.cif.g08.bks.cpg/sg57_8_cif.got.tgz:15491.got - 2010.06.03 13:58:18.
