data_PCOD9439613
_publ_section_title
;
Structure prediction by ZEFSAII (Michael W. Deem and Ramdas Pophale) SiO2 
 PCOD9439613
Probable space group: P B C M
;
_chemical_formula_sum "Si O2"
_cell_formula_units_Z 48
_cell_length_a 4.800785
_cell_length_b 15.964637
_cell_length_c 24.920956
_cell_angle_alpha 90.000000
_cell_angle_beta 90.000000
_cell_angle_gamma 90.000000
_cell_volume 1910.011593
_symmetry_space_group_name_H-M "P B C M"
_symmetry_group_IT_number 57
_symmetry_cell_setting 'orthorhombic'
loop_
_space_group_symop_operation_xyz
x,y,z
-x,-y,1/2+z
x,1/2-y,-z
-x,1/2+y,1/2-z
-x,-y,-z
x,y,1/2-z
-x,1/2+y,z
x,1/2-y,1/2+z
loop_
_atom_site_type_symbol
_atom_site_label
_atom_site_fract_x
_atom_site_fract_y
_atom_site_fract_z
Si Si1 0.212891 0.285586 0.863504
Si Si2 0.424589 0.801878 0.047691
Si Si3 0.400114 0.256112 0.750000
Si Si4 0.115111 0.639911 0.750000
Si Si5 0.675601 0.928667 0.528415
Si Si6 0.824958 0.434645 0.598112
Si Si7 0.922307 0.394976 0.364759
O O1 0.431565 0.261559 0.910706
O O2 0.343595 0.303548 0.805480
O O3 0.974356 0.354184 0.875258
O O4 0.074928 0.193791 0.858795
O O5 0.271550 0.871812 0.084240
O O6 0.265029 0.750000 0.000000
O O7 0.648314 0.851120 0.011892
O O8 0.716235 0.226529 0.750000
O O9 0.207377 0.170950 0.750000
O O10 0.200227 0.593461 0.804950
O O11 0.499164 0.924615 0.584579
O O12 0.993877 0.939251 0.543448
O O13 0.500000 0.000000 0.500000
O O14 0.889306 0.524047 0.624703
#
# Coordination Sequence:
#
# PCOD9439613 Si02
#       7
#     8   8   4   4   8   8   8
#     4  11  25  44  69 104 136 188 238 296 359 428
#     4  12  23  38  68  97 138 185 233 280 349 430
#     4  10  22  43  72  95 137 177 228 297 354 411
#     4  10  22  43  72 101 129 183 234 285 358 415
#     4  12  25  44  62 100 141 186 227 284 351 416
#     4  12  27  44  70 101 144 181 237 290 352 427
#     4  11  25  44  71  98 142 185 235 294 358 425
#
# _framework density 25.130735000000001
#
# number of rings (size 3 to 8) (size 9 to 14) (size 15 to 20)
#    0.000    0.667    5.000    2.500    2.333    1.333 
#    0.000    0.000    0.000    4.000    0.000    0.000 
#    0.000    0.000    0.000    0.000    0.000    0.000 
#
# Total GULP energy -268119.019412 kJ/mol
# GULP energy per Si atom -5585.812904 kJ/mol
# Density = 2.507354 g / cm^3
# Si number density = 25.130735 Si / 1000 Ang^3
#
#
#
# Elastic Constant Matrix: (Units=GPa)
#
#
# Indices 1 2 3 4 5 6 
#
# 1 88.5175 5.0781 21.3873 0.0000 0.0000 0.0000
# 2 5.0781 113.8423 17.1649 0.0000 0.0000 0.0000
# 3 21.3873 17.1649 175.5270 0.0000 0.0000 0.0000
# 4 0.0000 0.0000 0.0000 28.9983 0.0000 0.0000
# 5 0.0000 0.0000 0.0000 0.0000 28.1715 0.0000
# 6 0.0000 0.0000 0.0000 0.0000 0.0000 23.2593
#
#
#
# Elastic Compliance Matrix: (Units=1/GPa)
#
#
# Indices 1 2 3 4 5 6 
#
# 1 0.011651 -0.000310 -0.001389 0.000000 0.000000 0.000000
# 2 -0.000310 0.008924 -0.000835 0.000000 0.000000 0.000000
# 3 -0.001389 -0.000835 0.005948 0.000000 0.000000 0.000000
# 4 0.000000 0.000000 0.000000 0.034485 0.000000 0.000000
# 5 0.000000 0.000000 0.000000 0.000000 0.035497 0.000000
# 6 0.000000 0.000000 0.000000 0.000000 0.000000 0.042994
#
#
# Mechanical properties :
#
#
# Convention : Reuss Voigt Hill
#
# Bulk Modulus (GPa) = 46.61172 51.68304 49.14738
# Shear Modulus (GPa) = 32.95593 38.36957 35.66275
#
# Velocity S-wave (km/s) = 3.62523 3.91167 3.77117
# Velocity P-wave (km/s) = 6.00924 6.40405 6.20978
#
# Compressibility (1/GPa) = 0.02145383
#
# Stress axis : x y z
#
# Youngs Moduli (GPa) = 85.83199 112.05986 168.12238
#
# Poissons Ratio (x) = 0.03476 0.23356
# Poissons Ratio (y) = 0.02663 0.14036
# Poissons Ratio (z) = 0.11924 0.09355
#
# Static dielectric constant tensor:
#      x y z
#    x 1.973510 0.000000 0.000000 
#    y 0.000000 2.075060 0.000000 
#    z 0.000000 0.000000 2.137280 
# 
# From -- ./inp_files/26256.got.cif
#   From: 2010.05.17/outbox.cif.g08.bks.cpg/sg57_14_cif.got.tgz:26256.got - 2010.06.03 13:58:18.
