data_PCOD9439736
_publ_section_title
;
Structure prediction by ZEFSAII (Michael W. Deem and Ramdas Pophale) SiO2 
 PCOD9439736
Probable space group: P B C M
;
_chemical_formula_sum "Si O2"
_cell_formula_units_Z 48
_cell_length_a 5.230107
_cell_length_b 13.399204
_cell_length_c 27.368924
_cell_angle_alpha 90.000000
_cell_angle_beta 90.000000
_cell_angle_gamma 90.000000
_cell_volume 1917.994232
_symmetry_space_group_name_H-M "P B C M"
_symmetry_group_IT_number 57
_symmetry_cell_setting 'orthorhombic'
loop_
_space_group_symop_operation_xyz
x,y,z
-x,-y,1/2+z
x,1/2-y,-z
-x,1/2+y,1/2-z
-x,-y,-z
x,y,1/2-z
-x,1/2+y,z
x,1/2-y,1/2+z
loop_
_atom_site_type_symbol
_atom_site_label
_atom_site_fract_x
_atom_site_fract_y
_atom_site_fract_z
Si Si1 0.054478 0.084368 0.385302
Si Si2 0.251889 0.964024 0.028076
Si Si3 0.785657 0.490406 0.250000
Si Si4 0.211369 0.727115 0.582740
Si Si5 0.421318 0.230865 0.333230
Si Si6 0.073330 0.399978 0.335887
Si Si7 0.289748 0.875710 0.750000
O O1 0.238633 0.018008 0.419069
O O2 0.217250 0.143830 0.344889
O O3 0.912728 0.163993 0.419778
O O4 0.859515 0.007416 0.359186
O O5 0.251161 0.845214 0.037291
O O6 0.500000 0.000000 0.000000
O O7 0.000000 0.000000 0.000000
O O8 0.852205 0.425034 0.297489
O O9 0.010234 0.576001 0.250000
O O10 0.505668 0.537287 0.250000
O O11 0.467423 0.740973 0.613886
O O12 0.027426 0.665832 0.619309
O O13 0.286457 0.329719 0.312470
O O14 0.640303 0.190328 0.297470
#
# Coordination Sequence:
#
# PCOD9439736 Si02
#       7
#     8   8   4   8   8   8   4
#     4  10  23  46  71 100 143 188 237 293 363 429
#     4  11  28  49  73 108 143 181 241 301 362 436
#     4  12  25  43  68 101 146 190 238 294 353 406
#     4  10  25  44  75 101 141 190 238 293 368 423
#     4  11  24  43  72 105 144 196 240 296 355 431
#     4  10  23  42  69 100 143 191 239 291 353 421
#     4  12  27  43  70 109 142 190 242 292 343 428
#
# _framework density 25.026143000000001
#
# number of rings (size 3 to 8) (size 9 to 14) (size 15 to 20)
#    0.000    1.333    1.667    1.500   14.000    2.667 
#    0.000    0.000    0.000    0.000    0.000    0.000 
#    0.000    0.000    0.000    0.000    0.000    0.000 
#
# Total GULP energy -268868.964851 kJ/mol
# GULP energy per Si atom -5601.436768 kJ/mol
# Density = 2.496918 g / cm^3
# Si number density = 25.026143 Si / 1000 Ang^3
#
#
#
# Elastic Constant Matrix: (Units=GPa)
#
#
# Indices 1 2 3 4 5 6 
#
# 1 95.7100 31.2398 17.2845 0.0000 0.0000 0.0000
# 2 31.2398 155.8776 30.7502 0.0000 0.0000 0.0000
# 3 17.2845 30.7502 71.8804 0.0000 0.0000 0.0000
# 4 0.0000 0.0000 0.0000 -11.5089 0.0000 0.0000
# 5 0.0000 0.0000 0.0000 0.0000 43.3760 0.0000
# 6 0.0000 0.0000 0.0000 0.0000 0.0000 37.1848
#
#
#
# Elastic Compliance Matrix: (Units=1/GPa)
#
#
# Indices 1 2 3 4 5 6 
#
# 1 0.011419 -0.001908 -0.001930 0.000000 0.000000 0.000000
# 2 -0.001908 0.007325 -0.002675 0.000000 0.000000 0.000000
# 3 -0.001930 -0.002675 0.015520 0.000000 0.000000 0.000000
# 4 0.000000 0.000000 0.000000 -0.086889 0.000000 0.000000
# 5 0.000000 0.000000 0.000000 0.000000 0.023054 0.000000
# 6 0.000000 0.000000 0.000000 0.000000 0.000000 0.026893
#
#
# Mechanical properties :
#
#
# Convention : Reuss Voigt Hill
#
# Bulk Modulus (GPa) = 47.08118 53.55745 50.31931
# Shear Modulus (GPa) = 286.89434 30.08996 158.49215
#
# Velocity S-wave (km/s) = 10.71852 3.47124 7.96669
# Velocity P-wave (km/s) = 13.11625 6.12479 10.23594
#
# Compressibility (1/GPa) = 0.02123991
#
# Stress axis : x y z
#
# Youngs Moduli (GPa) = 87.56967 136.51211 64.43146
#
# Poissons Ratio (x) = 0.26045 0.12434
# Poissons Ratio (y) = 0.16708 0.17235
# Poissons Ratio (z) = 0.16899 0.36517
#
# Static dielectric constant tensor:
#      x y z
#    x 1.950940 0.000000 0.000000 
#    y 0.000000 2.030710 0.000000 
#    z 0.000000 0.000000 1.979800 
# 
# From -- ./inp_files/29129.got.cif
#   From: 2010.05.17/outbox.cif.g08.bks.cpg/sg57_15_cif.got.tgz:29129.got - 2010.06.03 13:58:18.
