data_PCOD9439832
_publ_section_title
;
Structure prediction by ZEFSAII (Michael W. Deem and Ramdas Pophale) SiO2 
 PCOD9439832
Probable space group: P B C M
;
_chemical_formula_sum "Si O2"
_cell_formula_units_Z 36
_cell_length_a 9.521220
_cell_length_b 18.731877
_cell_length_c 9.365855
_cell_angle_alpha 90.000000
_cell_angle_beta 90.000000
_cell_angle_gamma 90.000000
_cell_volume 1670.403254
_symmetry_space_group_name_H-M "P B C M"
_symmetry_group_IT_number 57
_symmetry_cell_setting 'orthorhombic'
loop_
_space_group_symop_operation_xyz
x,y,z
-x,-y,1/2+z
x,1/2-y,-z
-x,1/2+y,1/2-z
-x,-y,-z
x,y,1/2-z
-x,1/2+y,z
x,1/2-y,1/2+z
loop_
_atom_site_type_symbol
_atom_site_label
_atom_site_fract_x
_atom_site_fract_y
_atom_site_fract_z
Si Si1 0.190545 0.813994 0.910873
Si Si2 0.538586 0.390787 0.020153
Si Si3 0.439688 0.484675 0.750000
Si Si4 0.050503 0.430971 0.586147
Si Si5 0.753633 0.676243 0.914619
O O1 0.220307 0.790263 0.750000
O O2 0.331351 0.839969 0.986154
O O3 0.083252 0.879413 0.904576
O O4 0.124341 0.750000 0.000000
O O5 0.484573 0.426963 0.874741
O O6 0.585154 0.453723 0.125865
O O7 0.409004 0.346538 0.084123
O O8 0.100520 0.446773 0.750000
O O9 0.165929 0.387342 0.497293
O O10 0.000000 0.500000 0.500000
O O11 0.802128 0.682665 0.750000
O O12 0.772197 0.750000 0.000000
#
# Coordination Sequence:
#
# PCOD9439832 Si02
#       5
#     8   8   4   8   8
#     4  11  26  45  67  99 136 174 222 274 332 403
#     4  11  24  42  71 100 138 175 224 277 339 400
#     4  10  24  40  66 104 140 172 218 280 342 392
#     4  11  27  46  72 101 136 177 226 278 339 406
#     4  12  27  46  68 100 138 180 229 281 338 404
#
# _framework density 21.551683000000001
#
# number of rings (size 3 to 8) (size 9 to 14) (size 15 to 20)
#    0.000    0.889    2.222    2.667   10.889    5.333 
#    0.000    0.000    0.000    0.000    0.000    0.000 
#    0.000    0.000    0.000    0.000    0.000    0.000 
#
# Total GULP energy -200435.187008 kJ/mol
# GULP energy per Si atom -5567.644084 kJ/mol
# Density = 2.150263 g / cm^3
# Si number density = 21.551683 Si / 1000 Ang^3
#
#
#
# Elastic Constant Matrix: (Units=GPa)
#
#
# Indices 1 2 3 4 5 6 
#
# 1 61.1050 -9.6084 2.7792 0.0000 0.0000 0.0000
# 2 -9.6084 85.4315 39.9970 0.0000 0.0000 0.0000
# 3 2.7792 39.9970 188.3607 0.0000 0.0000 0.0000
# 4 0.0000 0.0000 0.0000 19.5452 0.0000 0.0000
# 5 0.0000 0.0000 0.0000 0.0000 19.0739 0.0000
# 6 0.0000 0.0000 0.0000 0.0000 0.0000 3.2337
#
#
#
# Elastic Compliance Matrix: (Units=1/GPa)
#
#
# Indices 1 2 3 4 5 6 
#
# 1 0.016747 0.002220 -0.000718 0.000000 0.000000 0.000000
# 2 0.002220 0.013292 -0.002855 0.000000 0.000000 0.000000
# 3 -0.000718 -0.002855 0.005926 0.000000 0.000000 0.000000
# 4 0.000000 0.000000 0.000000 0.051164 0.000000 0.000000
# 5 0.000000 0.000000 0.000000 0.000000 0.052428 0.000000
# 6 0.000000 0.000000 0.000000 0.000000 0.000000 0.309239
#
#
# Mechanical properties :
#
#
# Convention : Reuss Voigt Hill
#
# Bulk Modulus (GPa) = 30.06881 44.58143 37.32512
# Shear Modulus (GPa) = 10.80875 28.48586 19.64730
#
# Velocity S-wave (km/s) = 2.24191 3.63953 3.02261
# Velocity P-wave (km/s) = 4.54794 6.19615 5.43489
#
# Compressibility (1/GPa) = 0.03325705
#
# Stress axis : x y z
#
# Youngs Moduli (GPa) = 59.71217 75.23513 168.75263
#
# Poissons Ratio (x) = -0.16701 0.12125
# Poissons Ratio (y) = -0.13255 0.48181
# Poissons Ratio (z) = 0.04290 0.21481
#
# Static dielectric constant tensor:
#      x y z
#    x 1.816540 0.000000 0.000000 
#    y 0.000000 1.742820 0.000000 
#    z 0.000000 0.000000 1.770440 
# 
# From -- ./inp_files/1355.got.cif
#   From: 2010.05.17/outbox.cif.g08.bks.cpg/sg57_1_cif.got.tgz:1355.got - 2010.06.03 13:58:18.
