data_PCOD9439051
_publ_section_title
;
Structure prediction by ZEFSAII (Michael W. Deem and Ramdas Pophale) SiO2 
 PCOD9439051
Probable space group: P B C M
;
_chemical_formula_sum "Si O2"
_cell_formula_units_Z 40
_cell_length_a 7.859266
_cell_length_b 17.310081
_cell_length_c 14.016677
_cell_angle_alpha 90.000000
_cell_angle_beta 90.000000
_cell_angle_gamma 90.000000
_cell_volume 1906.892249
_symmetry_space_group_name_H-M "P B C M"
_symmetry_group_IT_number 57
_symmetry_cell_setting 'orthorhombic'
loop_
_space_group_symop_operation_xyz
x,y,z
-x,-y,1/2+z
x,1/2-y,-z
-x,1/2+y,1/2-z
-x,-y,-z
x,y,1/2-z
-x,1/2+y,z
x,1/2-y,1/2+z
loop_
_atom_site_type_symbol
_atom_site_label
_atom_site_fract_x
_atom_site_fract_y
_atom_site_fract_z
Si Si1 0.634926 0.295389 0.099016
Si Si2 0.260968 0.224261 0.890291
Si Si3 0.135160 0.450278 0.136726
Si Si4 0.931559 0.314692 0.649126
Si Si5 0.808677 0.430952 0.486582
O O1 0.454386 0.278119 0.146517
O O2 0.802488 0.258228 0.145430
O O3 0.626398 0.250000 0.000000
O O4 0.665250 0.384556 0.071598
O O5 0.188080 0.138489 0.877074
O O6 0.122240 0.283107 0.850234
O O7 0.268697 0.250000 0.000000
O O8 0.144297 0.467164 0.250000
O O9 0.243008 0.503452 0.062789
O O10 0.945494 0.459676 0.091517
O O11 0.897852 0.355978 0.750000
O O12 0.897070 0.367306 0.556956
#
# Coordination Sequence:
#
# PCOD9439051 Si02
#       5
#     8   8   8   8   8
#     4   9  20  36  59  86 116 158 195 241 294 348
#     4  11  20  37  60  88 120 154 197 246 300 349
#     4  11  22  37  61  87 117 158 201 244 296 358
#     4  11  20  36  60  88 122 156 197 243 294 353
#     4  10  21  40  58  85 122 159 200 242 298 353
#
# _framework density 20.976538999999999
#
# number of rings (size 3 to 8) (size 9 to 14) (size 15 to 20)
#    0.000    1.600    4.000    1.800    0.000    2.400 
#    0.000    0.000    0.000    0.000    0.000    0.000 
#    0.000    0.000    0.000    0.000    0.000    0.000 
#
# Total GULP energy -222888.154621 kJ/mol
# GULP energy per Si atom -5572.203866 kJ/mol
# Density = 2.092880 g / cm^3
# Si number density = 20.976539 Si / 1000 Ang^3
#
#
#
# Elastic Constant Matrix: (Units=GPa)
#
#
# Indices 1 2 3 4 5 6 
#
# 1 75.4051 -12.6779 20.0283 0.0000 0.0000 0.0000
# 2 -12.6779 63.8018 8.9023 0.0000 0.0000 0.0000
# 3 20.0283 8.9023 131.0730 0.0000 0.0000 0.0000
# 4 0.0000 0.0000 0.0000 -6.2342 0.0000 0.0000
# 5 0.0000 0.0000 0.0000 0.0000 1067.4923 0.0000
# 6 0.0000 0.0000 0.0000 0.0000 0.0000 16.0855
#
#
#
# Elastic Compliance Matrix: (Units=1/GPa)
#
#
# Indices 1 2 3 4 5 6 
#
# 1 0.014445 0.003209 -0.002425 0.000000 0.000000 0.000000
# 2 0.003209 0.016536 -0.001613 0.000000 0.000000 0.000000
# 3 -0.002425 -0.001613 0.008109 0.000000 0.000000 0.000000
# 4 0.000000 0.000000 0.000000 -0.160406 0.000000 0.000000
# 5 0.000000 0.000000 0.000000 0.000000 0.000937 0.000000
# 6 0.000000 0.000000 0.000000 0.000000 0.000000 0.062168
#
#
# Mechanical properties :
#
#
# Convention : Reuss Voigt Hill
#
# Bulk Modulus (GPa) = 26.71552 33.64279 30.17916
# Shear Modulus (GPa) = -113.44738 232.40387 59.47825
#
# Velocity S-wave (km/s) = -7.36209 10.53721 5.33069
# Velocity P-wave (km/s) = 7.71386 12.81081 7.23233
#
# Compressibility (1/GPa) = 0.03743142
#
# Stress axis : x y z
#
# Youngs Moduli (GPa) = 69.22640 60.47311 123.31224
#
# Poissons Ratio (x) = -0.19405 0.29906
# Poissons Ratio (y) = -0.22213 0.19896
# Poissons Ratio (z) = 0.16789 0.09757
#
# Static dielectric constant tensor:
#      x y z
#    x 1.782690 0.000000 0.000000 
#    y 0.000000 1.784950 0.000000 
#    z 0.000000 0.000000 1.781100 
# 
# From -- ./inp_files/16107.got.cif
#   From: 2010.05.17/outbox.cif.g08.bks.cpg/sg57_9_cif.got.tgz:16107.got - 2010.06.03 13:58:18.
