data_PCOD9439034
_publ_section_title
;
Structure prediction by ZEFSAII (Michael W. Deem and Ramdas Pophale) SiO2 
 PCOD9439034
Probable space group: P B C M
;
_chemical_formula_sum "Si O2"
_cell_formula_units_Z 48
_cell_length_a 10.056426
_cell_length_b 14.156008
_cell_length_c 16.801855
_cell_angle_alpha 90.000000
_cell_angle_beta 90.000000
_cell_angle_gamma 90.000000
_cell_volume 2391.892704
_symmetry_space_group_name_H-M "P B C M"
_symmetry_group_IT_number 57
_symmetry_cell_setting 'orthorhombic'
loop_
_space_group_symop_operation_xyz
x,y,z
-x,-y,1/2+z
x,1/2-y,-z
-x,1/2+y,1/2-z
-x,-y,-z
x,y,1/2-z
-x,1/2+y,z
x,1/2-y,1/2+z
loop_
_atom_site_type_symbol
_atom_site_label
_atom_site_fract_x
_atom_site_fract_y
_atom_site_fract_z
Si Si1 0.590788 0.199786 0.656868
Si Si2 0.881701 0.798684 0.157243
Si Si3 0.238359 0.392083 0.908274
Si Si4 0.350653 0.405339 0.414980
Si Si5 0.467851 0.912250 0.841456
Si Si6 0.138687 0.914894 0.154760
O O1 0.552582 0.183140 0.750000
O O2 0.475421 0.163011 0.599748
O O3 0.602954 0.311784 0.647472
O O4 0.725176 0.142765 0.641880
O O5 0.898531 0.773978 0.250000
O O6 0.838984 0.704009 0.111517
O O7 0.762290 0.873031 0.146508
O O8 0.015174 0.850489 0.128556
O O9 0.375092 0.398053 0.857248
O O10 0.152115 0.484295 0.887449
O O11 0.287335 0.394436 0.998734
O O12 0.406103 0.509329 0.398295
O O13 0.451447 0.943313 0.750000
O O14 0.125034 0.930849 0.250000
#
# Coordination Sequence:
#
# PCOD9439034 Si02
#       6
#     8   8   8   8   8   8
#     4  10  21  39  66  99 130 170 227 282 324 390
#     4  11  24  43  68  94 129 181 227 272 329 404
#     4  12  24  41  66  98 135 173 217 277 349 395
#     4  12  24  40  65  98 135 170 220 275 338 401
#     4  11  22  38  66  98 130 172 222 275 325 393
#     4  10  23  43  67  94 130 173 225 278 330 395
#
# _framework density 20.067789999999999
#
# number of rings (size 3 to 8) (size 9 to 14) (size 15 to 20)
#    0.000    1.000    3.333    4.000    0.000    2.000 
#    0.000    5.000    0.000    0.000    0.000    0.000 
#    0.000    0.000    0.000    0.000    0.000    0.000 
#
# Total GULP energy -268505.789754 kJ/mol
# GULP energy per Si atom -5593.870620 kJ/mol
# Density = 2.002211 g / cm^3
# Si number density = 20.067790 Si / 1000 Ang^3
#
#
#
# Elastic Constant Matrix: (Units=GPa)
#
#
# Indices 1 2 3 4 5 6 
#
# 1 99.7056 52.2629 36.5542 0.0000 0.0000 0.0000
# 2 52.2629 126.1921 42.9168 0.0000 0.0000 0.0000
# 3 36.5542 42.9168 54.8422 0.0000 0.0000 0.0000
# 4 0.0000 0.0000 0.0000 0.8455 0.0000 0.0000
# 5 0.0000 0.0000 0.0000 0.0000 26.0027 0.0000
# 6 0.0000 0.0000 0.0000 0.0000 0.0000 45.3270
#
#
#
# Elastic Compliance Matrix: (Units=1/GPa)
#
#
# Indices 1 2 3 4 5 6 
#
# 1 0.014431 -0.003686 -0.006734 0.000000 0.000000 0.000000
# 2 -0.003686 0.011740 -0.006730 0.000000 0.000000 0.000000
# 3 -0.006734 -0.006730 0.027989 0.000000 0.000000 0.000000
# 4 0.000000 0.000000 0.000000 1.182710 0.000000 0.000000
# 5 0.000000 0.000000 0.000000 0.000000 0.038458 0.000000
# 6 0.000000 0.000000 0.000000 0.000000 0.000000 0.022062
#
#
# Mechanical properties :
#
#
# Convention : Reuss Voigt Hill
#
# Bulk Modulus (GPa) = 50.35424 60.46752 55.41088
# Shear Modulus (GPa) = 3.73606 24.36876 14.05241
#
# Velocity S-wave (km/s) = 1.36593 3.48849 2.64909
# Velocity P-wave (km/s) = 5.25683 6.81345 6.08512
#
# Compressibility (1/GPa) = 0.01985930
#
# Stress axis : x y z
#
# Youngs Moduli (GPa) = 69.29747 85.17898 35.72845
#
# Poissons Ratio (x) = 0.31400 0.24058
# Poissons Ratio (y) = 0.25546 0.24045
# Poissons Ratio (z) = 0.46662 0.57326
#
# Static dielectric constant tensor:
#      x y z
#    x 1.683760 0.000000 0.000000 
#    y 0.000000 1.702540 0.000000 
#    z 0.000000 0.000000 1.679510 
# 
# From -- ./inp_files/20910.got.cif
#   From: 2010.05.17/outbox.cif.g08.bks.cpg/sg57_11_cif.got.tgz:20910.got - 2010.06.03 13:58:18.
