data_PCOD9439945
_publ_section_title
;
Structure prediction by ZEFSAII (Michael W. Deem and Ramdas Pophale) SiO2 
 PCOD9439945
Probable space group: P B C M
;
_chemical_formula_sum "Si O2"
_cell_formula_units_Z 36
_cell_length_a 9.056961
_cell_length_b 8.020304
_cell_length_c 21.142571
_cell_angle_alpha 90.000000
_cell_angle_beta 90.000000
_cell_angle_gamma 90.000000
_cell_volume 1535.787489
_symmetry_space_group_name_H-M "P B C M"
_symmetry_group_IT_number 57
_symmetry_cell_setting 'orthorhombic'
loop_
_space_group_symop_operation_xyz
x,y,z
-x,-y,1/2+z
x,1/2-y,-z
-x,1/2+y,1/2-z
-x,-y,-z
x,y,1/2-z
-x,1/2+y,z
x,1/2-y,1/2+z
loop_
_atom_site_type_symbol
_atom_site_label
_atom_site_fract_x
_atom_site_fract_y
_atom_site_fract_z
Si Si1 0.364624 0.250000 0.500000
Si Si2 0.265794 0.886541 0.843824
Si Si3 0.835789 0.442700 0.983397
Si Si4 0.760532 0.863354 0.750000
Si Si5 0.441242 0.285655 0.353321
Si Si6 0.938372 0.209692 0.750000
O O1 0.271238 0.418167 0.512276
O O2 0.438300 0.276069 0.430770
O O3 0.198915 0.945743 0.909782
O O4 0.386940 0.740297 0.839716
O O5 0.125665 0.817195 0.807582
O O6 0.370254 0.043418 0.828115
O O7 0.810330 0.250000 0.000000
O O8 0.000000 0.500000 0.000000
O O9 0.659526 0.843760 0.812904
O O10 0.885032 0.715725 0.750000
O O11 0.859273 0.030615 0.750000
#
# Coordination Sequence:
#
# PCOD9439945 Si02
#       6
#     4   8   8   4   8   4
#     4  10  26  44  70 106 146 188 250 294 378 436
#     4  11  26  44  73 103 146 186 246 296 370 433
#     4  11  25  42  70 101 145 189 237 299 363 437
#     4  12  27  46  77 100 152 186 252 300 375 442
#     4  11  25  47  71 106 144 194 237 311 359 450
#     4  12  27  46  73 110 136 198 238 306 363 450
#
# _framework density 23.440740999999999
#
# number of rings (size 3 to 8) (size 9 to 14) (size 15 to 20)
#    0.000    0.889    1.111    4.000   10.889    1.778 
#    0.000    0.000    0.000    0.000    0.000    0.000 
#    0.000    0.000    0.000    0.000    0.000    0.000 
#
# Total GULP energy -200938.057708 kJ/mol
# GULP energy per Si atom -5581.612714 kJ/mol
# Density = 2.338739 g / cm^3
# Si number density = 23.440741 Si / 1000 Ang^3
#
#
#
# Elastic Constant Matrix: (Units=GPa)
#
#
# Indices 1 2 3 4 5 6 
#
# 1 127.8395 7.0819 40.1971 0.0000 0.0000 0.0000
# 2 7.0819 118.6999 1.7229 0.0000 0.0000 0.0000
# 3 40.1971 1.7229 69.1328 0.0000 0.0000 0.0000
# 4 0.0000 0.0000 0.0000 18.9916 0.0000 0.0000
# 5 0.0000 0.0000 0.0000 0.0000 62.4710 0.0000
# 6 0.0000 0.0000 0.0000 0.0000 0.0000 61.6821
#
#
#
# Elastic Compliance Matrix: (Units=1/GPa)
#
#
# Indices 1 2 3 4 5 6 
#
# 1 0.009601 -0.000492 -0.005570 0.000000 0.000000 0.000000
# 2 -0.000492 0.008453 0.000075 0.000000 0.000000 0.000000
# 3 -0.005570 0.000075 0.017702 0.000000 0.000000 0.000000
# 4 0.000000 0.000000 0.000000 0.052655 0.000000 0.000000
# 5 0.000000 0.000000 0.000000 0.000000 0.016007 0.000000
# 6 0.000000 0.000000 0.000000 0.000000 0.000000 0.016212
#
#
# Mechanical properties :
#
#
# Convention : Reuss Voigt Hill
#
# Bulk Modulus (GPa) = 42.04840 45.96400 44.00620
# Shear Modulus (GPa) = 35.57932 46.40695 40.99314
#
# Velocity S-wave (km/s) = 3.90017 4.45427 4.18640
# Velocity P-wave (km/s) = 6.18538 6.79008 6.49477
#
# Compressibility (1/GPa) = 0.02378212
#
# Stress axis : x y z
#
# Youngs Moduli (GPa) = 104.15538 118.30311 56.49129
#
# Poissons Ratio (x) = 0.05820 0.31467
# Poissons Ratio (y) = 0.05124 -0.00426
# Poissons Ratio (z) = 0.58017 -0.00892
#
# Static dielectric constant tensor:
#      x y z
#    x 1.808790 0.000000 0.000000 
#    y 0.000000 1.929600 0.000000 
#    z 0.000000 0.000000 1.979920 
# 
# From -- ./inp_files/24024.got.cif
#   From: 2010.05.17/outbox.cif.g08.bks.cpg/sg57_13_cif.got.tgz:24024.got - 2010.06.03 13:58:18.
