data_PCOD9439017
_publ_section_title
;
Structure prediction by ZEFSAII (Michael W. Deem and Ramdas Pophale) SiO2 
 PCOD9439017
Probable space group: P B C M
;
_chemical_formula_sum "Si O2"
_cell_formula_units_Z 48
_cell_length_a 19.122522
_cell_length_b 15.130069
_cell_length_c 8.786753
_cell_angle_alpha 90.000000
_cell_angle_beta 90.000000
_cell_angle_gamma 90.000000
_cell_volume 2542.227991
_symmetry_space_group_name_H-M "P B C M"
_symmetry_group_IT_number 57
_symmetry_cell_setting 'orthorhombic'
loop_
_space_group_symop_operation_xyz
x,y,z
-x,-y,1/2+z
x,1/2-y,-z
-x,1/2+y,1/2-z
-x,-y,-z
x,y,1/2-z
-x,1/2+y,z
x,1/2-y,1/2+z
loop_
_atom_site_type_symbol
_atom_site_label
_atom_site_fract_x
_atom_site_fract_y
_atom_site_fract_z
Si Si1 0.498160 0.349860 0.932964
Si Si2 0.760249 0.491163 0.429101
Si Si3 0.145544 0.839926 0.930493
Si Si4 0.856524 0.837472 0.928029
Si Si5 0.000383 0.598305 0.931726
Si Si6 0.606620 0.506156 0.567385
O O1 0.491468 0.343461 0.750000
O O2 0.564351 0.414792 0.966862
O O3 0.502550 0.250000 0.000000
O O4 0.434651 0.408988 0.000278
O O5 0.757885 0.468073 0.250000
O O6 0.804116 0.418691 0.520161
O O7 0.803974 0.581347 0.444014
O O8 0.683065 0.500900 0.495371
O O9 0.138910 0.834833 0.750000
O O10 0.174735 0.750000 0.000000
O O11 0.069256 0.855411 0.003173
O O12 0.872018 0.825208 0.750000
O O13 0.824429 0.750000 0.000000
O O14 0.928972 0.856697 0.014202
O O15 0.003967 0.595217 0.750000
O O16 0.000000 0.500000 0.000000
O O17 0.609917 0.514498 0.750000
#
# Coordination Sequence:
#
# PCOD9439017 Si02
#       6
#     8   8   8   8   8   8
#     4  10  21  39  65  95 125 161 203 249 299 358
#     4  11  24  42  63  89 126 165 206 253 305 366
#     4  12  25  42  64  89 121 161 207 258 312 370
#     4  11  24  41  62  88 120 159 206 256 310 367
#     4  12  23  39  63  89 119 157 204 257 313 370
#     4  10  22  40  63  92 127 164 204 249 301 360
#
# _framework density 18.881076
#
# number of rings (size 3 to 8) (size 9 to 14) (size 15 to 20)
#    0.000    1.000    1.667    5.500    0.000    5.333 
#    0.000    3.333    0.000    0.000    0.000    0.000 
#    0.000    0.000    0.000    0.000    0.000    0.000 
#
# Total GULP energy -268408.905708 kJ/mol
# GULP energy per Si atom -5591.852202 kJ/mol
# Density = 1.883810 g / cm^3
# Si number density = 18.881076 Si / 1000 Ang^3
#
#
#
# Elastic Constant Matrix: (Units=GPa)
#
#
# Indices 1 2 3 4 5 6 
#
# 1 111.0721 25.7164 68.3655 0.0000 0.0000 0.0000
# 2 25.7164 126.9941 78.1286 0.0000 0.0000 0.0000
# 3 68.3655 78.1286 174.8834 0.0000 0.0000 0.0000
# 4 0.0000 0.0000 0.0000 36.8273 0.0000 0.0000
# 5 0.0000 0.0000 0.0000 0.0000 47.5244 0.0000
# 6 0.0000 0.0000 0.0000 0.0000 0.0000 -37.1096
#
#
#
# Elastic Compliance Matrix: (Units=1/GPa)
#
#
# Indices 1 2 3 4 5 6 
#
# 1 0.011891 0.000623 -0.004927 0.000000 0.000000 0.000000
# 2 0.000623 0.010892 -0.005109 0.000000 0.000000 0.000000
# 3 -0.004927 -0.005109 0.009927 0.000000 0.000000 0.000000
# 4 0.000000 0.000000 0.000000 0.027154 0.000000 0.000000
# 5 0.000000 0.000000 0.000000 0.000000 0.021042 0.000000
# 6 0.000000 0.000000 0.000000 0.000000 0.000000 -0.026947
#
#
# Mechanical properties :
#
#
# Convention : Reuss Voigt Hill
#
# Bulk Modulus (GPa) = 72.02886 84.15227 78.09056
# Shear Modulus (GPa) = 64.58913 25.49770 45.04341
#
# Velocity S-wave (km/s) = 5.85514 3.67882 4.88960
# Velocity P-wave (km/s) = 9.16197 7.91905 8.56309
#
# Compressibility (1/GPa) = 0.01388332
#
# Stress axis : x y z
#
# Youngs Moduli (GPa) = 84.09375 91.81430 100.73788
#
# Poissons Ratio (x) = -0.05721 0.49634
# Poissons Ratio (y) = -0.05240 0.51471
# Poissons Ratio (z) = 0.41433 0.46911
#
# Static dielectric constant tensor:
#      x y z
#    x 1.633250 0.000000 0.000000 
#    y 0.000000 1.638650 0.000000 
#    z 0.000000 0.000000 1.631680 
# 
# From -- ./inp_files/6466.got.cif
#   From: 2010.05.17/outbox.cif.g08.bks.cpg/sg57_4_cif.got.tgz:6466.got - 2010.06.03 13:58:18.
