data_PCOD9439576
_publ_section_title
;
Structure prediction by ZEFSAII (Michael W. Deem and Ramdas Pophale) SiO2 
 PCOD9439576
Probable space group: P B C M
;
_chemical_formula_sum "Si O2"
_cell_formula_units_Z 32
_cell_length_a 13.612401
_cell_length_b 10.319060
_cell_length_c 9.759875
_cell_angle_alpha 90.000000
_cell_angle_beta 90.000000
_cell_angle_gamma 90.000000
_cell_volume 1370.942144
_symmetry_space_group_name_H-M "P B C M"
_symmetry_group_IT_number 57
_symmetry_cell_setting 'orthorhombic'
loop_
_space_group_symop_operation_xyz
x,y,z
-x,-y,1/2+z
x,1/2-y,-z
-x,1/2+y,1/2-z
-x,-y,-z
x,y,1/2-z
-x,1/2+y,z
x,1/2-y,1/2+z
loop_
_atom_site_type_symbol
_atom_site_label
_atom_site_fract_x
_atom_site_fract_y
_atom_site_fract_z
Si Si1 0.784143 0.145197 0.750000
Si Si2 0.732224 0.556043 0.040233
Si Si3 0.898747 0.750000 0.000000
Si Si4 0.481556 0.128992 0.089605
Si Si5 0.208895 0.546511 0.250000
Si Si6 0.988956 0.602283 0.750000
O O1 0.780822 0.299230 0.750000
O O2 0.895035 0.089544 0.750000
O O3 0.734194 0.079427 0.880458
O O4 0.637024 0.633265 0.088148
O O5 0.826950 0.644636 0.068492
O O6 0.741393 0.520068 0.881111
O O7 0.963041 0.681946 0.885870
O O8 0.514409 0.125619 0.250000
O O9 0.519636 0.250000 0.000000
O O10 0.500000 0.000000 0.000000
O O11 0.091303 0.513788 0.250000
#
# Coordination Sequence:
#
# PCOD9439576 Si02
#       6
#     4   8   4   8   4   4
#     4  12  25  42  64 101 144 190 242 303 365 432
#     4  11  24  45  73  99 142 189 239 294 370 439
#     4  10  22  42  70  98 130 186 240 292 348 434
#     4  12  28  51  82 116 151 195 250 314 383 461
#     4  10  26  40  63 102 138 191 235 304 353 439
#     4  10  25  38  65  97 140 183 245 297 362 417
#
# _framework density 23.341612999999999
#
# number of rings (size 3 to 8) (size 9 to 14) (size 15 to 20)
#    0.000    1.000    2.500    2.250   10.500    4.000 
#    0.000    0.000    0.000    0.000    0.000    0.000 
#    0.000    0.000    0.000    0.000    0.000    0.000 
#
# Total GULP energy -179074.457681 kJ/mol
# GULP energy per Si atom -5596.076803 kJ/mol
# Density = 2.328849 g / cm^3
# Si number density = 23.341613 Si / 1000 Ang^3
#
#
#
# Elastic Constant Matrix: (Units=GPa)
#
#
# Indices 1 2 3 4 5 6 
#
# 1 34.2593 -15.3749 10.3448 0.0000 0.0000 0.0000
# 2 -15.3749 138.4361 48.0361 0.0000 0.0000 0.0000
# 3 10.3448 48.0361 149.8961 0.0000 0.0000 0.0000
# 4 0.0000 0.0000 0.0000 89.7615 0.0000 0.0000
# 5 0.0000 0.0000 0.0000 0.0000 -15.6432 0.0000
# 6 0.0000 0.0000 0.0000 0.0000 0.0000 21.4556
#
#
#
# Elastic Compliance Matrix: (Units=1/GPa)
#
#
# Indices 1 2 3 4 5 6 
#
# 1 0.032567 0.004947 -0.003833 0.000000 0.000000 0.000000
# 2 0.004947 0.008879 -0.003187 0.000000 0.000000 0.000000
# 3 -0.003833 -0.003187 0.007957 0.000000 0.000000 0.000000
# 4 0.000000 0.000000 0.000000 0.011141 0.000000 0.000000
# 5 0.000000 0.000000 0.000000 0.000000 -0.063926 0.000000
# 6 0.000000 0.000000 0.000000 0.000000 0.000000 0.046608
#
#
# Mechanical properties :
#
#
# Convention : Reuss Voigt Hill
#
# Bulk Modulus (GPa) = 22.09604 45.40037 33.74821
# Shear Modulus (GPa) = 80.05631 37.75381 58.90506
#
# Velocity S-wave (km/s) = 5.86278 4.02611 5.02900
# Velocity P-wave (km/s) = 7.43750 6.41135 6.94341
#
# Compressibility (1/GPa) = 0.04525698
#
# Stress axis : x y z
#
# Youngs Moduli (GPa) = 30.70634 112.62901 125.67520
#
# Poissons Ratio (x) = -0.55716 0.48169
# Poissons Ratio (y) = -0.15190 0.40049
# Poissons Ratio (z) = 0.11769 0.35891
#
# Static dielectric constant tensor:
#      x y z
#    x 1.920680 0.000000 0.000000 
#    y 0.000000 1.868760 0.000000 
#    z 0.000000 0.000000 1.877710 
# 
# From -- ./inp_files/4092.got.cif
#   From: 2010.05.17/outbox.cif.g08.bks.cpg/sg57_3_cif.got.tgz:4092.got - 2010.06.03 13:58:18.
