data_PCOD9439634
_publ_section_title
;
Structure prediction by ZEFSAII (Michael W. Deem and Ramdas Pophale) SiO2 
 PCOD9439634
Probable space group: P B C M
;
_chemical_formula_sum "Si O2"
_cell_formula_units_Z 40
_cell_length_a 15.121260
_cell_length_b 13.660339
_cell_length_c 9.801551
_cell_angle_alpha 90.000000
_cell_angle_beta 90.000000
_cell_angle_gamma 90.000000
_cell_volume 2024.623446
_symmetry_space_group_name_H-M "P B C M"
_symmetry_group_IT_number 57
_symmetry_cell_setting 'orthorhombic'
loop_
_space_group_symop_operation_xyz
x,y,z
-x,-y,1/2+z
x,1/2-y,-z
-x,1/2+y,1/2-z
-x,-y,-z
x,y,1/2-z
-x,1/2+y,z
x,1/2-y,1/2+z
loop_
_atom_site_type_symbol
_atom_site_label
_atom_site_fract_x
_atom_site_fract_y
_atom_site_fract_z
Si Si1 0.586548 0.750000 0.500000
Si Si2 0.559996 0.024783 0.250000
Si Si3 0.460765 0.743650 0.750000
Si Si4 0.316769 0.446448 0.490165
Si Si5 0.640176 0.440398 0.250000
Si Si6 0.974142 0.155451 0.087950
Si Si7 0.117173 0.447947 0.405540
O O1 0.521817 0.720201 0.621213
O O2 0.646280 0.657993 0.459929
O O3 0.559343 0.141946 0.250000
O O4 0.612874 0.987518 0.118284
O O5 0.459308 0.986695 0.250000
O O6 0.375488 0.675244 0.750000
O O7 0.312290 0.520153 0.616262
O O8 0.221341 0.434429 0.423364
O O9 0.984830 0.176475 0.250000
O O10 0.908384 0.062338 0.075705
O O11 0.945870 0.250000 0.000000
O O12 0.063818 0.115664 0.016036
O O13 0.090570 0.421349 0.250000
#
# Coordination Sequence:
#
# PCOD9439634 Si02
#       7
#     4   4   4   8   4   8   8
#     4  12  22  38  64  90 120 162 220 270 322 366
#     4  12  22  44  64  85 130 171 216 270 324 379
#     4  12  24  40  64  86 116 176 224 258 322 382
#     4  12  24  41  63  95 131 165 214 279 319 378
#     4  12  24  42  60  91 128 173 218 268 322 381
#     4  10  22  44  72  97 129 170 209 257 325 399
#     4  10  23  44  66  97 134 168 210 265 326 386
#
# _framework density 19.756761000000001
#
# number of rings (size 3 to 8) (size 9 to 14) (size 15 to 20)
#    0.000    0.800    5.000    2.400    2.800    0.800 
#    3.600    0.000    0.000    0.000    0.000    0.000 
#    0.000    0.000    0.000    0.000    0.000    0.000 
#
# Total GULP energy -223605.242588 kJ/mol
# GULP energy per Si atom -5590.131065 kJ/mol
# Density = 1.971179 g / cm^3
# Si number density = 19.756761 Si / 1000 Ang^3
#
#
#
# Elastic Constant Matrix: (Units=GPa)
#
#
# Indices 1 2 3 4 5 6 
#
# 1 27.8183 -11.3128 -5.9771 0.0000 0.0000 0.0000
# 2 -11.3128 83.2419 3.8440 0.0000 0.0000 0.0000
# 3 -5.9771 3.8440 114.9834 0.0000 0.0000 0.0000
# 4 0.0000 0.0000 0.0000 33.4211 0.0000 0.0000
# 5 0.0000 0.0000 0.0000 0.0000 25.4091 0.0000
# 6 0.0000 0.0000 0.0000 0.0000 0.0000 6.3590
#
#
#
# Elastic Compliance Matrix: (Units=1/GPa)
#
#
# Indices 1 2 3 4 5 6 
#
# 1 0.038429 0.005138 0.001826 0.000000 0.000000 0.000000
# 2 0.005138 0.012719 -0.000158 0.000000 0.000000 0.000000
# 3 0.001826 -0.000158 0.008797 0.000000 0.000000 0.000000
# 4 0.000000 0.000000 0.000000 0.029921 0.000000 0.000000
# 5 0.000000 0.000000 0.000000 0.000000 0.039356 0.000000
# 6 0.000000 0.000000 0.000000 0.000000 0.000000 0.157259
#
#
# Mechanical properties :
#
#
# Convention : Reuss Voigt Hill
#
# Bulk Modulus (GPa) = 13.59477 22.12796 17.86136
# Shear Modulus (GPa) = 16.81305 29.00380 22.90842
#
# Velocity S-wave (km/s) = 2.92036 3.83566 3.40887
# Velocity P-wave (km/s) = 4.27403 5.55346 4.95521
#
# Compressibility (1/GPa) = 0.07355769
#
# Stress axis : x y z
#
# Youngs Moduli (GPa) = 26.02171 78.62372 113.67370
#
# Poissons Ratio (x) = -0.40400 -0.20755
# Poissons Ratio (y) = -0.13371 0.01797
# Poissons Ratio (z) = -0.04751 0.01243
#
# Static dielectric constant tensor:
#      x y z
#    x 1.642340 0.000000 0.000000 
#    y 0.000000 1.704640 0.000000 
#    z 0.000000 0.000000 1.710040 
# 
# From -- ./inp_files/4347.got.cif
#   From: 2010.05.17/outbox.cif.g08.bks.cpg/sg57_3_cif.got.tgz:4347.got - 2010.06.03 13:58:18.
