data_PCOD9439540
_publ_section_title
;
Structure prediction by ZEFSAII (Michael W. Deem and Ramdas Pophale) SiO2 
 PCOD9439540
Probable space group: P B C M
;
_chemical_formula_sum "Si O2"
_cell_formula_units_Z 48
_cell_length_a 11.684937
_cell_length_b 12.161584
_cell_length_c 17.600302
_cell_angle_alpha 90.000000
_cell_angle_beta 90.000000
_cell_angle_gamma 90.000000
_cell_volume 2501.132151
_symmetry_space_group_name_H-M "P B C M"
_symmetry_group_IT_number 57
_symmetry_cell_setting 'orthorhombic'
loop_
_space_group_symop_operation_xyz
x,y,z
-x,-y,1/2+z
x,1/2-y,-z
-x,1/2+y,1/2-z
-x,-y,-z
x,y,1/2-z
-x,1/2+y,z
x,1/2-y,1/2+z
loop_
_atom_site_type_symbol
_atom_site_label
_atom_site_fract_x
_atom_site_fract_y
_atom_site_fract_z
Si Si1 0.926552 0.056795 0.337033
Si Si2 0.788593 0.862511 0.406445
Si Si3 0.673046 0.055890 0.661127
Si Si4 0.840739 0.885490 0.917292
Si Si5 0.442069 0.498488 0.083528
Si Si6 0.695567 0.188178 0.160327
O O1 0.965984 0.060092 0.250000
O O2 0.824743 0.144440 0.347828
O O3 0.032712 0.084184 0.390151
O O4 0.866386 0.940185 0.354094
O O5 0.833685 0.878969 0.492058
O O6 0.801287 0.734357 0.387098
O O7 0.658581 0.907913 0.407951
O O8 0.698470 0.041226 0.750000
O O9 0.755064 0.978290 0.612613
O O10 0.543020 0.025640 0.642276
O O11 0.689164 0.183850 0.641762
O O12 0.383642 0.613798 0.106595
O O13 0.500000 0.500000 0.000000
O O14 0.664041 0.173034 0.250000
#
# Coordination Sequence:
#
# PCOD9439540 Si02
#       6
#     8   8   8   8   8   8
#     4  10  22  42  65  90 125 168 211 256 316 378
#     4  10  24  43  63  93 130 166 209 262 319 383
#     4  11  24  40  64  95 126 162 213 262 312 378
#     4  11  23  41  64  96 127 162 213 265 317 377
#     4  11  22  42  65  91 127 168 212 256 318 378
#     4   9  22  42  62  91 127 165 209 260 317 376
#
# _framework density 19.191310000000001
#
# number of rings (size 3 to 8) (size 9 to 14) (size 15 to 20)
#    0.000    1.667    1.667    1.500    4.667    2.667 
#    0.000    0.000    0.000    0.000    0.000    0.000 
#    0.000    0.000    0.000    0.000    0.000    0.000 
#
# Total GULP energy -268214.189953 kJ/mol
# GULP energy per Si atom -5587.795624 kJ/mol
# Density = 1.914763 g / cm^3
# Si number density = 19.191310 Si / 1000 Ang^3
#
#
#
# Elastic Constant Matrix: (Units=GPa)
#
#
# Indices 1 2 3 4 5 6 
#
# 1 96.0222 51.6329 30.6970 0.0000 0.0000 0.0000
# 2 51.6329 99.9426 27.8380 0.0000 0.0000 0.0000
# 3 30.6970 27.8380 43.5492 0.0000 0.0000 0.0000
# 4 0.0000 0.0000 0.0000 28.0923 0.0000 0.0000
# 5 0.0000 0.0000 0.0000 0.0000 22.2465 0.0000
# 6 0.0000 0.0000 0.0000 0.0000 0.0000 8.7677
#
#
#
# Elastic Compliance Matrix: (Units=1/GPa)
#
#
# Indices 1 2 3 4 5 6 
#
# 1 0.016152 -0.006294 -0.007362 0.000000 0.000000 0.000000
# 2 -0.006294 0.014626 -0.004913 0.000000 0.000000 0.000000
# 3 -0.007362 -0.004913 0.031292 0.000000 0.000000 0.000000
# 4 0.000000 0.000000 0.000000 0.035597 0.000000 0.000000
# 5 0.000000 0.000000 0.000000 0.000000 0.044951 0.000000
# 6 0.000000 0.000000 0.000000 0.000000 0.000000 0.114055
#
#
# Mechanical properties :
#
#
# Convention : Reuss Voigt Hill
#
# Bulk Modulus (GPa) = 40.10799 51.09441 45.60120
# Shear Modulus (GPa) = 16.54965 20.44439 18.49702
#
# Velocity S-wave (km/s) = 2.93977 3.26742 3.10792
# Velocity P-wave (km/s) = 5.69802 6.39658 6.05738
#
# Compressibility (1/GPa) = 0.02493269
#
# Stress axis : x y z
#
# Youngs Moduli (GPa) = 61.91104 68.37247 31.95680
#
# Poissons Ratio (x) = 0.43034 0.23527
# Poissons Ratio (y) = 0.38967 0.15699
# Poissons Ratio (z) = 0.45579 0.33589
#
# Static dielectric constant tensor:
#      x y z
#    x 1.633270 0.000000 0.000000 
#    y 0.000000 1.659410 0.000000 
#    z 0.000000 0.000000 1.663830 
# 
# From -- ./inp_files/21805.got.cif
#   From: 2010.05.17/outbox.cif.g08.bks.cpg/sg57_11_cif.got.tgz:21805.got - 2010.06.03 13:58:18.
