data_PCOD9439303
_publ_section_title
;
Structure prediction by ZEFSAII (Michael W. Deem and Ramdas Pophale) SiO2 
 PCOD9439303
Probable space group: P B C M
;
_chemical_formula_sum "Si O2"
_cell_formula_units_Z 40
_cell_length_a 14.988544
_cell_length_b 15.996406
_cell_length_c 8.261362
_cell_angle_alpha 90.000000
_cell_angle_beta 90.000000
_cell_angle_gamma 90.000000
_cell_volume 1980.767576
_symmetry_space_group_name_H-M "P B C M"
_symmetry_group_IT_number 57
_symmetry_cell_setting 'orthorhombic'
loop_
_space_group_symop_operation_xyz
x,y,z
-x,-y,1/2+z
x,1/2-y,-z
-x,1/2+y,1/2-z
-x,-y,-z
x,y,1/2-z
-x,1/2+y,z
x,1/2-y,1/2+z
loop_
_atom_site_type_symbol
_atom_site_label
_atom_site_fract_x
_atom_site_fract_y
_atom_site_fract_z
Si Si1 0.402654 0.596719 0.445671
Si Si2 0.401596 0.403938 0.945706
Si Si3 0.213118 0.340036 0.556789
Si Si4 0.101653 0.000463 0.943592
Si Si5 0.213726 0.840079 0.945277
O O1 0.402234 0.598276 0.250000
O O2 0.500601 0.626627 0.501495
O O3 0.393240 0.500330 0.499737
O O4 0.315712 0.646033 0.503594
O O5 0.401266 0.402143 0.750000
O O6 0.314570 0.355136 0.005112
O O7 0.180150 0.250000 0.500000
O O8 0.215266 0.340853 0.750000
O O9 0.152699 0.416702 0.500167
O O10 0.103694 0.998799 0.750000
O O11 0.154312 0.917954 0.002873
O O12 0.000000 0.000000 0.000000
O O13 0.214439 0.841911 0.750000
O O14 0.180260 0.750000 0.000000
#
# Coordination Sequence:
#
# PCOD9439303 Si02
#       5
#     8   8   8   8   8
#     4   9  17  33  55  83 119 157 196 240 289 346
#     4   9  18  32  55  85 118 157 199 239 287 346
#     4  11  23  39  61  91 123 159 201 246 297 356
#     4  11  24  44  66  89 117 154 196 250 308 362
#     4  10  22  38  60  88 120 155 194 238 292 351
#
# _framework density 20.194192000000001
#
# number of rings (size 3 to 8) (size 9 to 14) (size 15 to 20)
#    0.000    2.000    2.000    1.200    0.000    4.800 
#    0.000    2.000    0.000    0.000    0.000    0.000 
#    0.000    0.000    0.000    0.000    0.000    0.000 
#
# Total GULP energy -223377.241857 kJ/mol
# GULP energy per Si atom -5584.431046 kJ/mol
# Density = 2.014823 g / cm^3
# Si number density = 20.194192 Si / 1000 Ang^3
#
#
#
# Elastic Constant Matrix: (Units=GPa)
#
#
# Indices 1 2 3 4 5 6 
#
# 1 151.8014 90.6294 25.2326 0.0000 0.0000 0.0000
# 2 90.6294 160.2239 16.4572 0.0000 0.0000 0.0000
# 3 25.2326 16.4572 22.0432 0.0000 0.0000 0.0000
# 4 0.0000 0.0000 0.0000 29.7795 0.0000 0.0000
# 5 0.0000 0.0000 0.0000 0.0000 21.6624 0.0000
# 6 0.0000 0.0000 0.0000 0.0000 0.0000 -2.2313
#
#
#
# Elastic Compliance Matrix: (Units=1/GPa)
#
#
# Indices 1 2 3 4 5 6 
#
# 1 0.011353 -0.005510 -0.008883 0.000000 0.000000 0.000000
# 2 -0.005510 0.009433 -0.000736 0.000000 0.000000 0.000000
# 3 -0.008883 -0.000736 0.056083 0.000000 0.000000 0.000000
# 4 0.000000 0.000000 0.000000 0.033580 0.000000 0.000000
# 5 0.000000 0.000000 0.000000 0.000000 0.046163 0.000000
# 6 0.000000 0.000000 0.000000 0.000000 0.000000 -0.448176
#
#
# Mechanical properties :
#
#
# Convention : Reuss Voigt Hill
#
# Bulk Modulus (GPa) = 21.45322 66.52299 43.98810
# Shear Modulus (GPa) = -20.34436 23.29209 1.47387
#
# Velocity S-wave (km/s) = -3.17746 3.39987 0.85524
# Velocity P-wave (km/s) = 1.67783 6.95883 4.77547
#
# Compressibility (1/GPa) = 0.04661305
#
# Stress axis : x y z
#
# Youngs Moduli (GPa) = 88.07903 106.00708 17.83069
#
# Poissons Ratio (x) = 0.58406 0.15839
# Poissons Ratio (y) = 0.48528 0.01312
# Poissons Ratio (z) = 0.78239 0.07802
#
# Static dielectric constant tensor:
#      x y z
#    x 1.741960 0.000000 0.000000 
#    y 0.000000 1.692540 0.000000 
#    z 0.000000 0.000000 1.702410 
# 
# From -- ./inp_files/4259.got.cif
#   From: 2010.05.17/outbox.cif.g08.bks.cpg/sg57_3_cif.got.tgz:4259.got - 2010.06.03 13:58:18.
