data_PCOD9439240
_publ_section_title
;
Structure prediction by ZEFSAII (Michael W. Deem and Ramdas Pophale) SiO2 
 PCOD9439240
Probable space group: P B C M
;
_chemical_formula_sum "Si O2"
_cell_formula_units_Z 56
_cell_length_a 6.266803
_cell_length_b 14.191777
_cell_length_c 27.503131
_cell_angle_alpha 90.000000
_cell_angle_beta 90.000000
_cell_angle_gamma 90.000000
_cell_volume 2446.047906
_symmetry_space_group_name_H-M "P B C M"
_symmetry_group_IT_number 57
_symmetry_cell_setting 'orthorhombic'
loop_
_space_group_symop_operation_xyz
x,y,z
-x,-y,1/2+z
x,1/2-y,-z
-x,1/2+y,1/2-z
-x,-y,-z
x,y,1/2-z
-x,1/2+y,z
x,1/2-y,1/2+z
loop_
_atom_site_type_symbol
_atom_site_label
_atom_site_fract_x
_atom_site_fract_y
_atom_site_fract_z
Si Si1 0.300529 0.141027 0.105016
Si Si2 0.986246 0.491512 0.932145
Si Si3 0.459496 0.678063 0.588767
Si Si4 0.596791 0.398011 0.697208
Si Si5 0.796073 0.920495 0.160455
Si Si6 0.919383 0.247804 0.656290
Si Si7 0.189119 0.861064 0.004646
O O1 0.214898 0.059748 0.070457
O O2 0.431254 0.221952 0.078111
O O3 0.438622 0.108376 0.151322
O O4 0.088932 0.190203 0.126725
O O5 0.004624 0.584136 0.965134
O O6 0.935097 0.520287 0.877728
O O7 0.817072 0.417989 0.954349
O O8 0.611882 0.623953 0.626177
O O9 0.241983 0.699289 0.618131
O O10 0.397563 0.630496 0.538259
O O11 0.493656 0.382104 0.750000
O O12 0.698814 0.501977 0.695711
O O13 0.775867 0.317212 0.688779
O O14 0.940751 0.835450 0.180758
O O15 0.144829 0.750000 0.000000
#
# Coordination Sequence:
#
# PCOD9439240 Si02
#       7
#     8   8   8   8   8   8   8
#     4  10  22  44  71  91 138 186 224 274 352 409
#     4  11  23  42  69  94 134 183 228 273 340 405
#     4  10  22  42  67  98 134 182 224 279 339 401
#     4  11  25  42  70 107 133 171 235 287 335 418
#     4  11  23  41  73  98 138 185 223 277 352 410
#     4  10  21  44  69  95 137 183 217 273 349 407
#     4  11  24  41  62  98 138 169 232 281 317 399
#
# _framework density 22.894072000000001
#
# number of rings (size 3 to 8) (size 9 to 14) (size 15 to 20)
#    0.000    1.429    2.857    1.714    4.000    1.714 
#    5.143    5.714    0.000    0.000    0.000    0.000 
#    0.000    0.000    0.000    0.000    0.000    0.000 
#
# Total GULP energy -313084.245356 kJ/mol
# GULP energy per Si atom -5590.790096 kJ/mol
# Density = 2.284196 g / cm^3
# Si number density = 22.894072 Si / 1000 Ang^3
#
#
#
# Elastic Constant Matrix: (Units=GPa)
#
#
# Indices 1 2 3 4 5 6 
#
# 1 87.4864 43.0166 16.8824 0.0000 0.0000 0.0000
# 2 43.0166 128.9870 30.6829 0.0000 0.0000 0.0000
# 3 16.8824 30.6829 68.6278 0.0000 0.0000 0.0000
# 4 0.0000 0.0000 0.0000 6.9561 0.0000 0.0000
# 5 0.0000 0.0000 0.0000 0.0000 11.4585 0.0000
# 6 0.0000 0.0000 0.0000 0.0000 0.0000 36.8431
#
#
#
# Elastic Compliance Matrix: (Units=1/GPa)
#
#
# Indices 1 2 3 4 5 6 
#
# 1 0.013808 -0.004249 -0.001497 0.000000 0.000000 0.000000
# 2 -0.004249 0.009983 -0.003418 0.000000 0.000000 0.000000
# 3 -0.001497 -0.003418 0.016468 0.000000 0.000000 0.000000
# 4 0.000000 0.000000 0.000000 0.143759 0.000000 0.000000
# 5 0.000000 0.000000 0.000000 0.000000 0.087271 0.000000
# 6 0.000000 0.000000 0.000000 0.000000 0.000000 0.027142
#
#
# Mechanical properties :
#
#
# Convention : Reuss Voigt Hill
#
# Bulk Modulus (GPa) = 45.59792 51.80719 48.70256
# Shear Modulus (GPa) = 15.42876 24.01949 19.72413
#
# Velocity S-wave (km/s) = 2.59881 3.24258 2.93838
# Velocity P-wave (km/s) = 5.38194 6.05783 5.72986
#
# Compressibility (1/GPa) = 0.02193082
#
# Stress axis : x y z
#
# Youngs Moduli (GPa) = 72.41958 100.17269 60.72446
#
# Poissons Ratio (x) = 0.42562 0.09092
# Poissons Ratio (y) = 0.30770 0.20755
# Poissons Ratio (z) = 0.10843 0.34239
#
# Static dielectric constant tensor:
#      x y z
#    x 1.858880 0.000000 0.000000 
#    y 0.000000 1.906310 0.000000 
#    z 0.000000 0.000000 1.869770 
# 
# From -- ./inp_files/29180.got.cif
#   From: 2010.05.17/outbox.cif.g08.bks.cpg/sg57_15_cif.got.tgz:29180.got - 2010.06.03 13:58:18.
