data_PCOD9439561
_publ_section_title
;
Structure prediction by ZEFSAII (Michael W. Deem and Ramdas Pophale) SiO2 
 PCOD9439561
Probable space group: P B C M
;
_chemical_formula_sum "Si O2"
_cell_formula_units_Z 56
_cell_length_a 5.847999
_cell_length_b 26.985943
_cell_length_c 15.156753
_cell_angle_alpha 90.000000
_cell_angle_beta 90.000000
_cell_angle_gamma 90.000000
_cell_volume 2391.944297
_symmetry_space_group_name_H-M "P B C M"
_symmetry_group_IT_number 57
_symmetry_cell_setting 'orthorhombic'
loop_
_space_group_symop_operation_xyz
x,y,z
-x,-y,1/2+z
x,1/2-y,-z
-x,1/2+y,1/2-z
-x,-y,-z
x,y,1/2-z
-x,1/2+y,z
x,1/2-y,1/2+z
loop_
_atom_site_type_symbol
_atom_site_label
_atom_site_fract_x
_atom_site_fract_y
_atom_site_fract_z
Si Si1 0.802465 0.953886 0.344140
Si Si2 0.146246 0.225962 0.901088
Si Si3 0.357517 0.768481 0.650089
Si Si4 0.889507 0.133231 0.650159
Si Si5 0.977610 0.438011 0.851239
Si Si6 0.620586 0.950129 0.971402
Si Si7 0.296354 0.635527 0.039219
O O1 0.690076 0.941079 0.250000
O O2 0.705034 0.932960 0.433463
O O3 0.043346 0.924670 0.343079
O O4 0.812443 0.013650 0.349811
O O5 0.399226 0.239860 0.863773
O O6 0.897678 0.244632 0.861799
O O7 0.104454 0.167640 0.881169
O O8 0.144771 0.250000 0.000000
O O9 0.364632 0.788111 0.750000
O O10 0.355084 0.811976 0.578636
O O11 0.818108 0.148368 0.750000
O O12 0.726767 0.138621 0.565855
O O13 0.011186 0.422910 0.750000
O O14 0.919860 0.390497 0.912259
O O15 0.191995 0.462116 0.899600
O O16 0.480720 0.904890 0.933643
O O17 0.500000 0.000000 0.000000
#
# Coordination Sequence:
#
# PCOD9439561 Si02
#       7
#     8   8   8   8   8   8   8
#     4  10  22  42  68 100 139 187 239 296 365 440
#     4  12  27  52  78 111 152 198 252 316 387 453
#     4  12  28  50  78 113 151 196 250 316 387 459
#     4  11  24  46  75 105 140 188 245 304 374 449
#     4  11  24  45  68  99 148 194 243 303 365 444
#     4  12  24  40  68  99 143 187 240 294 368 436
#     4  12  26  44  73 107 141 192 245 303 372 453
#
# _framework density 23.411916000000002
#
# number of rings (size 3 to 8) (size 9 to 14) (size 15 to 20)
#    0.000    0.571    4.286    3.429    4.000    2.286 
#    0.000    1.429    0.000    0.000    0.000    0.000 
#    0.000    0.000    0.000    0.000    0.000    0.000 
#
# Total GULP energy -311980.994600 kJ/mol
# GULP energy per Si atom -5571.089189 kJ/mol
# Density = 2.335863 g / cm^3
# Si number density = 23.411916 Si / 1000 Ang^3
#
#
#
# Elastic Constant Matrix: (Units=GPa)
#
#
# Indices 1 2 3 4 5 6 
#
# 1 81.4535 21.9702 22.5668 0.0000 0.0000 0.0000
# 2 21.9702 95.4040 11.2258 0.0000 0.0000 0.0000
# 3 22.5668 11.2258 146.5995 0.0000 0.0000 0.0000
# 4 0.0000 0.0000 0.0000 32.8601 0.0000 0.0000
# 5 0.0000 0.0000 0.0000 0.0000-2091.5864 0.0000
# 6 0.0000 0.0000 0.0000 0.0000 0.0000 29.2047
#
#
#
# Elastic Compliance Matrix: (Units=1/GPa)
#
#
# Indices 1 2 3 4 5 6 
#
# 1 0.013579 -0.002907 -0.001868 0.000000 0.000000 0.000000
# 2 -0.002907 0.011199 -0.000410 0.000000 0.000000 0.000000
# 3 -0.001868 -0.000410 0.007140 0.000000 0.000000 0.000000
# 4 0.000000 0.000000 0.000000 0.030432 0.000000 0.000000
# 5 0.000000 0.000000 0.000000 0.000000 -0.000478 0.000000
# 6 0.000000 0.000000 0.000000 0.000000 0.000000 0.034241
#
#
# Mechanical properties :
#
#
# Convention : Reuss Voigt Hill
#
# Bulk Modulus (GPa) = 46.40701 48.33141 47.36921
# Shear Modulus (GPa) = 43.98864 -388.05805 -172.03471
#
# Velocity S-wave (km/s) = 4.33933 -12.88845 -8.58145
# Velocity P-wave (km/s) = 6.70607 14.17019 8.82674
#
# Compressibility (1/GPa) = 0.02154847
#
# Stress axis : x y z
#
# Youngs Moduli (GPa) = 73.64575 89.28983 140.05220
#
# Poissons Ratio (x) = 0.25958 0.26156
# Poissons Ratio (y) = 0.21410 0.05743
# Poissons Ratio (z) = 0.13754 0.03662
#
# Static dielectric constant tensor:
#      x y z
#    x 1.660950 0.000000 0.000000 
#    y 0.000000 1.851900 0.000000 
#    z 0.000000 0.000000 1.878960 
# 
# From -- ./inp_files/15273.got.cif
#   From: 2010.05.17/outbox.cif.g08.bks.cpg/sg57_8_cif.got.tgz:15273.got - 2010.06.03 13:58:18.
