data_PCOD9439368
_publ_section_title
;
Structure prediction by ZEFSAII (Michael W. Deem and Ramdas Pophale) SiO2 
 PCOD9439368
Probable space group: P B C M
;
_chemical_formula_sum "Si O2"
_cell_formula_units_Z 60
_cell_length_a 5.459186
_cell_length_b 19.456329
_cell_length_c 25.190952
_cell_angle_alpha 90.000000
_cell_angle_beta 90.000000
_cell_angle_gamma 90.000000
_cell_volume 2675.675076
_symmetry_space_group_name_H-M "P B C M"
_symmetry_group_IT_number 57
_symmetry_cell_setting 'orthorhombic'
loop_
_space_group_symop_operation_xyz
x,y,z
-x,-y,1/2+z
x,1/2-y,-z
-x,1/2+y,1/2-z
-x,-y,-z
x,y,1/2-z
-x,1/2+y,z
x,1/2-y,1/2+z
loop_
_atom_site_type_symbol
_atom_site_label
_atom_site_fract_x
_atom_site_fract_y
_atom_site_fract_z
Si Si1 0.669640 0.267869 0.385491
Si Si2 0.774943 0.250000 0.500000
Si Si3 0.283782 0.525226 0.370985
Si Si4 0.679575 0.873943 0.358329
Si Si5 0.079369 0.253836 0.690669
Si Si6 0.221985 0.019916 0.062029
Si Si7 0.474681 0.150762 0.310635
Si Si8 0.947337 0.887288 0.471903
O O1 0.622842 0.249665 0.445969
O O2 0.591758 0.345495 0.372208
O O3 0.531674 0.215277 0.347778
O O4 0.938574 0.252420 0.364978
O O5 0.938117 0.182072 0.505576
O O6 0.288461 0.452144 0.340686
O O7 0.015226 0.534986 0.398606
O O8 0.387373 0.586359 0.334833
O O9 0.508719 0.518050 0.412882
O O10 0.769514 0.817929 0.315739
O O11 0.816641 0.873038 0.415719
O O12 0.965623 0.246458 0.750000
O O13 0.184442 0.332350 0.690970
O O14 0.153183 0.945609 0.038199
O O15 0.221071 0.077165 0.016143
O O16 0.551247 0.158804 0.250000
#
# Coordination Sequence:
#
# PCOD9439368 Si02
#       8
#     8   4   8   8   8   8   8   8
#     4  11  23  41  66  97 135 177 222 280 342 408
#     4  12  22  34  66  98 130 168 224 276 324 398
#     4  11  24  42  70  96 136 176 231 281 336 402
#     4  10  23  41  65  94 135 172 225 281 337 403
#     4  10  22  44  67  92 129 176 222 279 347 405
#     4  10  24  43  63  94 138 190 217 268 345 413
#     4  10  24  43  67  97 131 174 229 285 346 410
#     4  10  22  39  62  93 140 176 226 271 335 401
#
# _framework density 22.424249
#
# number of rings (size 3 to 8) (size 9 to 14) (size 15 to 20)
#    0.000    1.600    1.333    2.000    5.600    8.533 
#    0.000    0.000    0.000    0.000    0.000    0.000 
#    0.000    0.000    0.000    0.000    0.000    0.000 
#
# Total GULP energy -334050.723315 kJ/mol
# GULP energy per Si atom -5567.512055 kJ/mol
# Density = 2.237321 g / cm^3
# Si number density = 22.424249 Si / 1000 Ang^3
#
#
#
# Elastic Constant Matrix: (Units=GPa)
#
#
# Indices 1 2 3 4 5 6 
#
# 1 23.8813 -0.9108 -9.9596 0.0000 0.0000 0.0000
# 2 -0.9108 96.1809 23.9502 0.0000 0.0000 0.0000
# 3 -9.9596 23.9502 65.0110 0.0000 0.0000 0.0000
# 4 0.0000 0.0000 0.0000 13.6666 0.0000 0.0000
# 5 0.0000 0.0000 0.0000 0.0000 24.8608 0.0000
# 6 0.0000 0.0000 0.0000 0.0000 0.0000 20.0514
#
#
#
# Elastic Compliance Matrix: (Units=1/GPa)
#
#
# Indices 1 2 3 4 5 6 
#
# 1 0.044907 -0.001418 0.007402 0.000000 0.000000 0.000000
# 2 -0.001418 0.011492 -0.004451 0.000000 0.000000 0.000000
# 3 0.007402 -0.004451 0.018156 0.000000 0.000000 0.000000
# 4 0.000000 0.000000 0.000000 0.073171 0.000000 0.000000
# 5 0.000000 0.000000 0.000000 0.000000 0.040224 0.000000
# 6 0.000000 0.000000 0.000000 0.000000 0.000000 0.049872
#
#
# Mechanical properties :
#
#
# Convention : Reuss Voigt Hill
#
# Bulk Modulus (GPa) = 12.88317 23.47031 18.17674
# Shear Modulus (GPa) = 19.18441 23.18200 21.18320
#
# Velocity S-wave (km/s) = 2.92810 3.21875 3.07686
# Velocity P-wave (km/s) = 4.14601 4.92981 4.55480
#
# Compressibility (1/GPa) = 0.07762065
#
# Stress axis : x y z
#
# Youngs Moduli (GPa) = 22.26843 87.01724 55.07910
#
# Poissons Ratio (x) = 0.12338 -0.40770
# Poissons Ratio (y) = 0.03158 0.24515
# Poissons Ratio (z) = -0.16483 0.38730
#
# Static dielectric constant tensor:
#      x y z
#    x 2.250750 0.000000 0.000000 
#    y 0.000000 1.811410 0.000000 
#    z 0.000000 0.000000 1.812690 
# 
# From -- ./inp_files/28082.got.cif
#   From: 2010.05.17/outbox.cif.g08.bks.cpg/sg57_15_cif.got.tgz:28082.got - 2010.06.03 13:58:18.
