data_PCOD9439226
_publ_section_title
;
Structure prediction by ZEFSAII (Michael W. Deem and Ramdas Pophale) SiO2 
 PCOD9439226
Probable space group: P B C M
;
_chemical_formula_sum "Si O2"
_cell_formula_units_Z 36
_cell_length_a 17.902965
_cell_length_b 9.651968
_cell_length_c 9.560979
_cell_angle_alpha 90.000000
_cell_angle_beta 90.000000
_cell_angle_gamma 90.000000
_cell_volume 1652.126131
_symmetry_space_group_name_H-M "P B C M"
_symmetry_group_IT_number 57
_symmetry_cell_setting 'orthorhombic'
loop_
_space_group_symop_operation_xyz
x,y,z
-x,-y,1/2+z
x,1/2-y,-z
-x,1/2+y,1/2-z
-x,-y,-z
x,y,1/2-z
-x,1/2+y,z
x,1/2-y,1/2+z
loop_
_atom_site_type_symbol
_atom_site_label
_atom_site_fract_x
_atom_site_fract_y
_atom_site_fract_z
Si Si1 0.055345 0.103382 0.915664
Si Si2 0.573400 0.750000 0.500000
Si Si3 0.450486 0.431614 0.750000
Si Si4 0.411539 0.079527 0.750000
Si Si5 0.807972 0.408981 0.981521
Si Si6 0.715717 0.473653 0.250000
Si Si7 0.311314 0.839846 0.750000
O O1 0.035143 0.123682 0.750000
O O2 0.132689 0.016979 0.921712
O O3 0.059013 0.250000 0.000000
O O4 0.000000 0.000000 0.000000
O O5 0.530663 0.648719 0.393717
O O6 0.616380 0.846649 0.390002
O O7 0.498316 0.571646 0.750000
O O8 0.359527 0.436347 0.750000
O O9 0.386256 0.923528 0.750000
O O10 0.738650 0.382772 0.880637
O O11 0.840081 0.250000 0.000000
O O12 0.771446 0.475356 0.119167
O O13 0.679287 0.321808 0.250000
#
# Coordination Sequence:
#
# PCOD9439226 Si02
#       7
#     8   4   4   4   8   4   4
#     4  12  27  48  75 110 145 187 230 279 341 408
#     4  10  24  40  58  92 124 168 214 278 366 388
#     4  11  23  44  60  94 125 176 228 286 342 408
#     4  11  23  42  66  88 131 168 230 282 348 410
#     4  10  22  44  69 100 138 178 232 279 339 407
#     4  10  23  39  69  94 130 177 230 279 337 401
#     4  10  21  43  65  94 126 183 222 281 335 409
#
# _framework density 21.790102000000001
#
# number of rings (size 3 to 8) (size 9 to 14) (size 15 to 20)
#    0.000    1.333    1.111    3.333    6.222    0.000 
#   16.000    0.000    0.000    0.000    0.000    0.000 
#    0.000    0.000    0.000    0.000    0.000    0.000 
#
# Total GULP energy -200713.334650 kJ/mol
# GULP energy per Si atom -5575.370407 kJ/mol
# Density = 2.174051 g / cm^3
# Si number density = 21.790102 Si / 1000 Ang^3
#
#
#
# Elastic Constant Matrix: (Units=GPa)
#
#
# Indices 1 2 3 4 5 6 
#
# 1 54.1876 37.3451 19.2501 0.0000 0.0000 0.0000
# 2 37.3451 112.6663 44.0647 0.0000 0.0000 0.0000
# 3 19.2501 44.0647 181.2465 0.0000 0.0000 0.0000
# 4 0.0000 0.0000 0.0000 38.3021 0.0000 0.0000
# 5 0.0000 0.0000 0.0000 0.0000 20.1055 0.0000
# 6 0.0000 0.0000 0.0000 0.0000 0.0000 35.4209
#
#
#
# Elastic Compliance Matrix: (Units=1/GPa)
#
#
# Indices 1 2 3 4 5 6 
#
# 1 0.023994 -0.007687 -0.000679 0.000000 0.000000 0.000000
# 2 -0.007687 0.012271 -0.002167 0.000000 0.000000 0.000000
# 3 -0.000679 -0.002167 0.006116 0.000000 0.000000 0.000000
# 4 0.000000 0.000000 0.000000 0.026108 0.000000 0.000000
# 5 0.000000 0.000000 0.000000 0.000000 0.049738 0.000000
# 6 0.000000 0.000000 0.000000 0.000000 0.000000 0.028232
#
#
# Mechanical properties :
#
#
# Convention : Reuss Voigt Hill
#
# Bulk Modulus (GPa) = 46.91755 61.04668 53.98211
# Shear Modulus (GPa) = 28.63172 35.26174 31.94673
#
# Velocity S-wave (km/s) = 3.62882 4.02711 3.83314
# Velocity P-wave (km/s) = 6.25588 7.04983 6.66469
#
# Compressibility (1/GPa) = 0.02131399
#
# Stress axis : x y z
#
# Youngs Moduli (GPa) = 41.67752 81.49032 163.49661
#
# Poissons Ratio (x) = 0.62645 0.11108
# Poissons Ratio (y) = 0.32039 0.35429
# Poissons Ratio (z) = 0.02832 0.17659
#
# Static dielectric constant tensor:
#      x y z
#    x 1.763230 0.000000 0.000000 
#    y 0.000000 1.833740 0.000000 
#    z 0.000000 0.000000 1.777790 
# 
# From -- ./inp_files/7742.got.cif
#   From: 2010.05.17/outbox.cif.g08.bks.cpg/sg57_4_cif.got.tgz:7742.got - 2010.06.03 13:58:18.
