data_PCOD9439450
_publ_section_title
;
Structure prediction by ZEFSAII (Michael W. Deem and Ramdas Pophale) SiO2 
 PCOD9439450
Probable space group: P B C M
;
_chemical_formula_sum "Si O2"
_cell_formula_units_Z 32
_cell_length_a 9.957824
_cell_length_b 10.463002
_cell_length_c 13.670594
_cell_angle_alpha 90.000000
_cell_angle_beta 90.000000
_cell_angle_gamma 90.000000
_cell_volume 1424.321860
_symmetry_space_group_name_H-M "P B C M"
_symmetry_group_IT_number 57
_symmetry_cell_setting 'orthorhombic'
loop_
_space_group_symop_operation_xyz
x,y,z
-x,-y,1/2+z
x,1/2-y,-z
-x,1/2+y,1/2-z
-x,-y,-z
x,y,1/2-z
-x,1/2+y,z
x,1/2-y,1/2+z
loop_
_atom_site_type_symbol
_atom_site_label
_atom_site_fract_x
_atom_site_fract_y
_atom_site_fract_z
Si Si1 0.726908 0.747257 0.642613
Si Si2 0.096592 0.494676 0.141372
Si Si3 0.465686 0.875002 0.434813
Si Si4 0.202639 0.508701 0.566038
O O1 0.721237 0.808957 0.750000
O O2 0.851723 0.651344 0.640358
O O3 0.593261 0.662066 0.630424
O O4 0.743967 0.862367 0.567036
O O5 0.127290 0.547361 0.250000
O O6 0.938145 0.495074 0.121784
O O7 0.169461 0.552870 0.045488
O O8 0.445746 0.750000 0.500000
O O9 0.500000 0.000000 0.500000
O O10 0.321937 0.908478 0.388468
#
# Coordination Sequence:
#
# PCOD9439450 Si02
#       4
#     8   8   8   8
#     4  11  23  42  68  99 140 182 231 289 347 418
#     4  10  22  40  65  97 133 181 233 282 342 415
#     4  12  23  44  69  97 135 184 230 282 351 414
#     4  11  23  42  69  97 142 183 227 287 358 409
#
# _framework density 22.466830999999999
#
# number of rings (size 3 to 8) (size 9 to 14) (size 15 to 20)
#    0.000    1.000    5.000    1.500    0.000    6.000 
#    0.000    1.250    0.000    1.500    0.000    0.000 
#    0.000    0.000    0.000    0.000    0.000    0.000 
#
# Total GULP energy -178669.809107 kJ/mol
# GULP energy per Si atom -5583.431535 kJ/mol
# Density = 2.241570 g / cm^3
# Si number density = 22.466831 Si / 1000 Ang^3
#
#
#
# Elastic Constant Matrix: (Units=GPa)
#
#
# Indices 1 2 3 4 5 6 
#
# 1 157.0456 49.3564 20.8139 0.0000 0.0000 0.0000
# 2 49.3564 79.3902 0.4209 0.0000 0.0000 0.0000
# 3 20.8139 0.4209 100.1235 0.0000 0.0000 0.0000
# 4 0.0000 0.0000 0.0000 20.8199 0.0000 0.0000
# 5 0.0000 0.0000 0.0000 0.0000 16.8545 0.0000
# 6 0.0000 0.0000 0.0000 0.0000 0.0000 26.7689
#
#
#
# Elastic Compliance Matrix: (Units=1/GPa)
#
#
# Indices 1 2 3 4 5 6 
#
# 1 0.008187 -0.005081 -0.001681 0.000000 0.000000 0.000000
# 2 -0.005081 0.015750 0.000990 0.000000 0.000000 0.000000
# 3 -0.001681 0.000990 0.010333 0.000000 0.000000 0.000000
# 4 0.000000 0.000000 0.000000 0.048031 0.000000 0.000000
# 5 0.000000 0.000000 0.000000 0.000000 0.059331 0.000000
# 6 0.000000 0.000000 0.000000 0.000000 0.000000 0.037357
#
#
# Mechanical properties :
#
#
# Convention : Reuss Voigt Hill
#
# Bulk Modulus (GPa) = 44.00150 53.08240 48.54195
# Shear Modulus (GPa) = 25.23885 30.61987 27.92936
#
# Velocity S-wave (km/s) = 3.35533 3.69574 3.52964
# Velocity P-wave (km/s) = 5.88545 6.47222 6.18580
#
# Compressibility (1/GPa) = 0.02272650
#
# Stress axis : x y z
#
# Youngs Moduli (GPa) = 122.14224 63.49370 96.77850
#
# Poissons Ratio (x) = 0.32261 0.16265
# Poissons Ratio (y) = 0.62061 -0.09581
# Poissons Ratio (z) = 0.20527 -0.06286
#
# Static dielectric constant tensor:
#      x y z
#    x 1.851350 0.000000 0.000000 
#    y 0.000000 1.772050 0.000000 
#    z 0.000000 0.000000 1.986940 
# 
# From -- ./inp_files/15529.got.cif
#   From: 2010.05.17/outbox.cif.g08.bks.cpg/sg57_8_cif.got.tgz:15529.got - 2010.06.03 13:58:18.
