data_PCOD9439235
_publ_section_title
;
Structure prediction by ZEFSAII (Michael W. Deem and Ramdas Pophale) SiO2 
 PCOD9439235
Probable space group: P B C M
;
_chemical_formula_sum "Si O2"
_cell_formula_units_Z 48
_cell_length_a 14.897721
_cell_length_b 11.796167
_cell_length_c 14.565801
_cell_angle_alpha 90.000000
_cell_angle_beta 90.000000
_cell_angle_gamma 90.000000
_cell_volume 2559.735675
_symmetry_space_group_name_H-M "P B C M"
_symmetry_group_IT_number 57
_symmetry_cell_setting 'orthorhombic'
loop_
_space_group_symop_operation_xyz
x,y,z
-x,-y,1/2+z
x,1/2-y,-z
-x,1/2+y,1/2-z
-x,-y,-z
x,y,1/2-z
-x,1/2+y,z
x,1/2-y,1/2+z
loop_
_atom_site_type_symbol
_atom_site_label
_atom_site_fract_x
_atom_site_fract_y
_atom_site_fract_z
Si Si1 0.731656 0.383968 0.500000
Si Si2 0.338906 0.250000 0.646664
Si Si3 0.874862 0.750000 0.646328
Si Si4 0.097321 0.444674 0.000000
Si Si5 0.606359 0.993975 0.359843
Si Si6 0.606359 0.993974 0.859843
O O1 0.753383 0.250000 0.500000
O O2 0.820770 0.464165 0.500000
O O3 0.668371 0.417424 0.586476
O O4 0.668372 0.417425 0.413524
O O5 0.378584 0.250000 0.750000
O O6 0.232486 0.250000 0.652038
O O7 0.366833 0.131101 0.605695
O O8 0.366834 0.368898 0.605695
O O9 0.911647 0.750001 0.750000
O O10 0.897757 0.638376 0.588089
O O11 0.897757 0.861625 0.588088
O O12 0.000000 0.500000 0.000000
O O13 0.622671 0.002962 0.250000
O O14 0.500000 1.000000 0.375467
O O15 0.622671 0.002961 0.750000
#
# Coordination Sequence:
#
# PCOD9439235 Si02
#       6
#     8   8   8   8   8   8
#     4  12  26  40  58  90 129 168 203 251 314 378
#     4   9  17  35  65  90 112 156 212 253 298 352
#     4  10  21  43  72  95 118 161 215 267 313 365
#     4  11  25  43  68  94 127 163 208 262 319 379
#     4  10  22  40  62  90 125 165 209 256 304 363
#     4  10  22  40  62  90 125 165 209 256 304 363
#
# _framework density 18.751937000000002
#
# number of rings (size 3 to 8) (size 9 to 14) (size 15 to 20)
#    0.000    1.667    3.333    0.500    4.667    2.000 
#    0.000    0.000    0.000    0.000    0.000    0.000 
#    0.000    0.000    0.000    0.000    0.000    0.000 
#
# Total GULP energy -267749.138879 kJ/mol
# GULP energy per Si atom -5578.107060 kJ/mol
# Density = 1.870926 g / cm^3
# Si number density = 18.751937 Si / 1000 Ang^3
#
#
#
# Elastic Constant Matrix: (Units=GPa)
#
#
# Indices 1 2 3 4 5 6 
#
# 1 122.4270 65.7942 55.5556 0.0000 0.0000 0.0000
# 2 65.7942 162.5043 64.9305 0.0000 0.0000 0.0000
# 3 55.5556 64.9305 141.1145 0.0000 0.0000 0.0000
# 4 0.0000 0.0000 0.0000 -144.1164 0.0000 0.0000
# 5 0.0000 0.0000 0.0000 0.0000 16.7829 0.0000
# 6 0.0000 0.0000 0.0000 0.0000 0.0000 41.6485
#
#
#
# Elastic Compliance Matrix: (Units=1/GPa)
#
#
# Indices 1 2 3 4 5 6 
#
# 1 0.011318 -0.003433 -0.002876 0.000000 0.000000 0.000000
# 2 -0.003433 0.008581 -0.002597 0.000000 0.000000 0.000000
# 3 -0.002876 -0.002597 0.009414 0.000000 0.000000 0.000000
# 4 0.000000 0.000000 0.000000 -0.006939 0.000000 0.000000
# 5 0.000000 0.000000 0.000000 0.000000 0.059584 0.000000
# 6 0.000000 0.000000 0.000000 0.000000 0.000000 0.024010
#
#
# Mechanical properties :
#
#
# Convention : Reuss Voigt Hill
#
# Bulk Modulus (GPa) = 86.95129 88.73404 87.84267
# Shear Modulus (GPa) = 39.18007 -1.15264 19.01372
#
# Velocity S-wave (km/s) = 4.57594 -0.78486 3.18773
# Velocity P-wave (km/s) = 8.62490 6.82652 7.77786
#
# Compressibility (1/GPa) = 0.01150069
#
# Stress axis : x y z
#
# Youngs Moduli (GPa) = 88.35130 116.53159 106.22873
#
# Poissons Ratio (x) = 0.40009 0.30553
# Poissons Ratio (y) = 0.30334 0.27586
# Poissons Ratio (z) = 0.25412 0.30261
#
# Static dielectric constant tensor:
#      x y z
#    x 1.612510 0.000000 0.000000 
#    y 0.000000 1.651740 0.000000 
#    z 0.000000 0.000000 1.717500 
# 
# From -- ./inp_files/18367.got.cif
#   From: 2010.05.17/outbox.cif.g08.bks.cpg/sg57_10_cif.got.tgz:18367.got - 2010.06.03 13:58:18.
