data_PCOD9439190
_publ_section_title
;
Structure prediction by ZEFSAII (Michael W. Deem and Ramdas Pophale) SiO2 
 PCOD9439190
Probable space group: P B C M
;
_chemical_formula_sum "Si O2"
_cell_formula_units_Z 40
_cell_length_a 11.150529
_cell_length_b 8.409189
_cell_length_c 16.988233
_cell_angle_alpha 90.000000
_cell_angle_beta 90.000000
_cell_angle_gamma 90.000000
_cell_volume 1592.934044
_symmetry_space_group_name_H-M "P B C M"
_symmetry_group_IT_number 57
_symmetry_cell_setting 'orthorhombic'
loop_
_space_group_symop_operation_xyz
x,y,z
-x,-y,1/2+z
x,1/2-y,-z
-x,1/2+y,1/2-z
-x,-y,-z
x,y,1/2-z
-x,1/2+y,z
x,1/2-y,1/2+z
loop_
_atom_site_type_symbol
_atom_site_label
_atom_site_fract_x
_atom_site_fract_y
_atom_site_fract_z
Si Si1 0.134513 0.857907 0.659490
Si Si2 0.613087 0.800071 0.655518
Si Si3 0.042691 0.153000 0.924881
Si Si4 0.771731 0.070212 0.926928
Si Si5 0.596618 0.467914 0.568044
O O1 0.153610 0.886640 0.750000
O O2 0.086105 0.572331 0.552286
O O3 0.229059 0.726021 0.629384
O O4 0.005669 0.775717 0.641304
O O5 0.621651 0.793748 0.750000
O O6 0.626901 0.628896 0.614643
O O7 0.480489 0.859130 0.627837
O O8 0.712044 0.923278 0.619791
O O9 0.090021 0.250000 0.000000
O O10 0.125315 0.024381 0.884648
O O11 0.702766 0.084093 0.009074
O O12 0.500000 0.500000 0.500000
#
# Coordination Sequence:
#
# PCOD9439190 Si02
#       5
#     8   8   8   8   8
#     4  10  21  41  72 105 145 193 250 313 369 424
#     4  11  22  41  74 112 148 194 251 312 380 443
#     4  10  22  41  72 107 146 197 252 303 369 447
#     4   9  22  38  71 102 149 195 247 296 376 451
#     4  10  21  42  70 104 147 193 244 303 373 454
#
# _framework density 25.110893999999998
#
# number of rings (size 3 to 8) (size 9 to 14) (size 15 to 20)
#    1.200    0.800    0.000    4.800    0.000    3.200 
#    0.000    6.000    0.000    6.000    0.000    0.000 
#    0.000    0.000    0.000    0.000    0.000    0.000 
#
# Total GULP energy -223575.053712 kJ/mol
# GULP energy per Si atom -5589.376343 kJ/mol
# Density = 2.505374 g / cm^3
# Si number density = 25.110894 Si / 1000 Ang^3
#
#
#
# Elastic Constant Matrix: (Units=GPa)
#
#
# Indices 1 2 3 4 5 6 
#
# 1 126.5191 78.5880 77.9595 0.0000 0.0000 0.0000
# 2 78.5880 180.4891 106.2096 0.0000 0.0000 0.0000
# 3 77.9595 106.2096 242.7692 0.0000 0.0000 0.0000
# 4 0.0000 0.0000 0.0000 46.3368 0.0000 0.0000
# 5 0.0000 0.0000 0.0000 0.0000 29.4574 0.0000
# 6 0.0000 0.0000 0.0000 0.0000 0.0000 52.1793
#
#
#
# Elastic Compliance Matrix: (Units=1/GPa)
#
#
# Indices 1 2 3 4 5 6 
#
# 1 0.011531 -0.003827 -0.002029 0.000000 0.000000 0.000000
# 2 -0.003827 0.008732 -0.002591 0.000000 0.000000 0.000000
# 3 -0.002029 -0.002591 0.005904 0.000000 0.000000 0.000000
# 4 0.000000 0.000000 0.000000 0.021581 0.000000 0.000000
# 5 0.000000 0.000000 0.000000 0.000000 0.033947 0.000000
# 6 0.000000 0.000000 0.000000 0.000000 0.000000 0.019165
#
#
# Mechanical properties :
#
#
# Convention : Reuss Voigt Hill
#
# Bulk Modulus (GPa) = 107.83548 119.47686 113.65617
# Shear Modulus (GPa) = 41.37543 44.72939 43.05241
#
# Velocity S-wave (km/s) = 4.06360 4.22509 4.14513
# Velocity P-wave (km/s) = 8.06561 8.45487 8.26253
#
# Compressibility (1/GPa) = 0.00927339
#
# Stress axis : x y z
#
# Youngs Moduli (GPa) = 86.72128 114.52667 169.37287
#
# Poissons Ratio (x) = 0.43831 0.34359
# Poissons Ratio (y) = 0.33189 0.43885
# Poissons Ratio (z) = 0.17593 0.29674
#
# Static dielectric constant tensor:
#      x y z
#    x 2.103400 0.000000 0.000000 
#    y 0.000000 2.061600 0.000000 
#    z 0.000000 0.000000 1.787030 
# 
# From -- ./inp_files/18224.got.cif
#   From: 2010.05.17/outbox.cif.g08.bks.cpg/sg57_10_cif.got.tgz:18224.got - 2010.06.03 13:58:18.
