data_PCOD9439224
_publ_section_title
;
Structure prediction by ZEFSAII (Michael W. Deem and Ramdas Pophale) SiO2 
 PCOD9439224
Probable space group: P B C M
;
_chemical_formula_sum "Si O2"
_cell_formula_units_Z 64
_cell_length_a 11.225438
_cell_length_b 11.210200
_cell_length_c 25.688670
_cell_angle_alpha 90.000000
_cell_angle_beta 90.000000
_cell_angle_gamma 90.000000
_cell_volume 3232.646950
_symmetry_space_group_name_H-M "P B C M"
_symmetry_group_IT_number 57
_symmetry_cell_setting 'orthorhombic'
loop_
_space_group_symop_operation_xyz
x,y,z
-x,-y,1/2+z
x,1/2-y,-z
-x,1/2+y,1/2-z
-x,-y,-z
x,y,1/2-z
-x,1/2+y,z
x,1/2-y,1/2+z
loop_
_atom_site_type_symbol
_atom_site_label
_atom_site_fract_x
_atom_site_fract_y
_atom_site_fract_z
Si Si1 0.324625 0.193631 0.624055
Si Si2 0.279683 0.549728 0.886518
Si Si3 0.445546 0.762322 0.438765
Si Si4 0.151491 0.741678 0.688389
Si Si5 0.037558 0.492955 0.940016
Si Si6 0.415133 0.121612 0.308268
Si Si7 0.335384 0.917154 0.642811
Si Si8 0.949071 0.740287 0.887814
O O1 0.417431 0.233523 0.579549
O O2 0.384898 0.242346 0.677109
O O3 0.192576 0.243615 0.617175
O O4 0.316831 0.052139 0.626785
O O5 0.381580 0.618625 0.918014
O O6 0.217367 0.638782 0.844990
O O7 0.177749 0.507189 0.926228
O O8 0.342414 0.451077 0.851366
O O9 0.434827 0.750000 0.500000
O O10 0.376579 0.658119 0.407729
O O11 0.159871 0.724654 0.750000
O O12 0.220214 0.860374 0.669847
O O13 0.016789 0.744460 0.667382
O O14 0.006655 0.359870 0.918320
O O15 0.981051 0.612118 0.913654
O O16 0.000000 0.500000 0.000000
O O17 0.380026 0.090986 0.250000
O O18 0.553753 0.097118 0.317861
#
# Coordination Sequence:
#
# PCOD9439224 Si02
#       8
#     8   8   8   8   8   8   8   8
#     4  11  23  42  61  94 135 165 223 276 321 401
#     4  10  21  43  64  93 131 163 224 266 323 410
#     4  10  23  41  67  96 132 177 211 271 345 402
#     4  10  22  41  65  91 128 175 214 266 327 383
#     4  11  24  43  68  93 129 178 223 278 337 392
#     4  11  22  39  65  93 130 173 209 268 340 392
#     4  10  22  42  64  99 133 166 222 275 320 410
#     4  11  24  43  65  95 131 172 229 276 323 403
#
# _framework density 19.798017000000002
#
# number of rings (size 3 to 8) (size 9 to 14) (size 15 to 20)
#    0.000    1.500    2.500    1.875    0.000    7.000 
#    0.000    3.125    0.000    0.000    0.000    0.000 
#    0.000    0.000    0.000    0.000    0.000    0.000 
#
# Total GULP energy -357309.471846 kJ/mol
# GULP energy per Si atom -5582.960498 kJ/mol
# Density = 1.975296 g / cm^3
# Si number density = 19.798017 Si / 1000 Ang^3
#
#
#
# Elastic Constant Matrix: (Units=GPa)
#
#
# Indices 1 2 3 4 5 6 
#
# 1 111.0245 22.6176 60.2237 0.0000 0.0000 0.0000
# 2 22.6176 101.5074 33.2567 0.0000 0.0000 0.0000
# 3 60.2237 33.2567 150.4529 0.0000 0.0000 0.0000
# 4 0.0000 0.0000 0.0000 11.8236 0.0000 0.0000
# 5 0.0000 0.0000 0.0000 0.0000 13.1364 0.0000
# 6 0.0000 0.0000 0.0000 0.0000 0.0000 24.7418
#
#
#
# Elastic Compliance Matrix: (Units=1/GPa)
#
#
# Indices 1 2 3 4 5 6 
#
# 1 0.011628 -0.001149 -0.004401 0.000000 0.000000 0.000000
# 2 -0.001149 0.010734 -0.001913 0.000000 0.000000 0.000000
# 3 -0.004401 -0.001913 0.008831 0.000000 0.000000 0.000000
# 4 0.000000 0.000000 0.000000 0.084577 0.000000 0.000000
# 5 0.000000 0.000000 0.000000 0.000000 0.076124 0.000000
# 6 0.000000 0.000000 0.000000 0.000000 0.000000 0.040417
#
#
# Mechanical properties :
#
#
# Convention : Reuss Voigt Hill
#
# Bulk Modulus (GPa) = 61.46925 66.13119 63.80022
# Shear Modulus (GPa) = 19.78949 26.39948 23.09449
#
# Velocity S-wave (km/s) = 3.16503 3.65559 3.41912
# Velocity P-wave (km/s) = 6.66874 7.16193 6.91973
#
# Compressibility (1/GPa) = 0.01626830
#
# Stress axis : x y z
#
# Youngs Moduli (GPa) = 85.99830 93.15994 113.23942
#
# Poissons Ratio (x) = 0.10706 0.49831
# Poissons Ratio (y) = 0.09883 0.21660
# Poissons Ratio (z) = 0.37844 0.17819
#
# Static dielectric constant tensor:
#      x y z
#    x 1.482580 0.000000 0.000000 
#    y 0.000000 1.750300 0.000000 
#    z 0.000000 0.000000 1.651250 
# 
# From -- ./inp_files/27265.got.cif
#   From: 2010.05.17/outbox.cif.g08.bks.cpg/sg57_14_cif.got.tgz:27265.got - 2010.06.03 13:58:18.
