data_PCOD9439302
_publ_section_title
;
Structure prediction by ZEFSAII (Michael W. Deem and Ramdas Pophale) SiO2 
 PCOD9439302
Probable space group: P B C M
;
_chemical_formula_sum "Si O2"
_cell_formula_units_Z 56
_cell_length_a 13.982243
_cell_length_b 10.042512
_cell_length_c 22.654143
_cell_angle_alpha 90.000000
_cell_angle_beta 90.000000
_cell_angle_gamma 90.000000
_cell_volume 3181.023244
_symmetry_space_group_name_H-M "P B C M"
_symmetry_group_IT_number 57
_symmetry_cell_setting 'orthorhombic'
loop_
_space_group_symop_operation_xyz
x,y,z
-x,-y,1/2+z
x,1/2-y,-z
-x,1/2+y,1/2-z
-x,-y,-z
x,y,1/2-z
-x,1/2+y,z
x,1/2-y,1/2+z
loop_
_atom_site_type_symbol
_atom_site_label
_atom_site_fract_x
_atom_site_fract_y
_atom_site_fract_z
Si Si1 0.072914 0.897998 0.424534
Si Si2 0.586473 0.265808 0.627571
Si Si3 0.286561 0.521112 0.910667
Si Si4 0.449765 0.608520 0.250000
Si Si5 0.305233 0.973433 0.551582
Si Si6 0.383796 0.315438 0.250000
Si Si7 0.909935 0.402665 0.932249
Si Si8 0.358922 0.270939 0.378265
O O1 0.173719 0.953978 0.401297
O O2 0.063839 0.743188 0.408980
O O3 0.078956 0.901836 0.496286
O O4 0.981934 0.986613 0.407967
O O5 0.650088 0.134062 0.620773
O O6 0.599448 0.337491 0.690690
O O7 0.618135 0.371191 0.578045
O O8 0.474549 0.232165 0.621491
O O9 0.318933 0.374948 0.891363
O O10 0.303548 0.534732 0.981054
O O11 0.449840 0.448504 0.250000
O O12 0.553151 0.680144 0.250000
O O13 0.325980 0.121619 0.574012
O O14 0.201681 0.931061 0.576664
O O15 0.329413 0.315741 0.312100
#
# Coordination Sequence:
#
# PCOD9439302 Si02
#       8
#     8   8   8   4   8   4   8   8
#     4   9  18  33  51  77 107 144 184 225 272 322
#     4  11  22  38  57  78 112 150 191 230 271 322
#     4  11  23  35  54  85 118 148 182 223 278 344
#     4  10  22  38  60  78 101 144 199 241 273 308
#     4  11  21  37  54  82 119 150 181 222 280 342
#     4  10  22  40  58  78 103 142 199 245 269 306
#     4   9  18  32  53  75 108 145 182 227 270 323
#     4  11  24  36  56  81 113 150 190 230 268 323
#
# _framework density 17.604399000000001
#
# number of rings (size 3 to 8) (size 9 to 14) (size 15 to 20)
#    0.000    1.714    2.857    1.714    8.000    3.429 
#    0.000    0.000    0.000    0.000    0.000    6.000 
#    0.000    0.000    0.000    0.000    0.000    0.000 
#
# Total GULP energy -312511.681834 kJ/mol
# GULP energy per Si atom -5580.565747 kJ/mol
# Density = 1.756433 g / cm^3
# Si number density = 17.604399 Si / 1000 Ang^3
#
#
#
# Elastic Constant Matrix: (Units=GPa)
#
#
# Indices 1 2 3 4 5 6 
#
# 1 69.5736 24.9321 7.4920 0.0000 0.0000 0.0000
# 2 24.9321 99.1349 -8.6729 0.0000 0.0000 0.0000
# 3 7.4920 -8.6729 38.2005 0.0000 0.0000 0.0000
# 4 0.0000 0.0000 0.0000 26.3387 0.0000 0.0000
# 5 0.0000 0.0000 0.0000 0.0000 -6.1711 0.0000
# 6 0.0000 0.0000 0.0000 0.0000 0.0000 30.3381
#
#
#
# Elastic Compliance Matrix: (Units=1/GPa)
#
#
# Indices 1 2 3 4 5 6 
#
# 1 0.016446 -0.004508 -0.004249 0.000000 0.000000 0.000000
# 2 -0.004508 0.011527 0.003501 0.000000 0.000000 0.000000
# 3 -0.004249 0.003501 0.027806 0.000000 0.000000 0.000000
# 4 0.000000 0.000000 0.000000 0.037967 0.000000 0.000000
# 5 0.000000 0.000000 0.000000 0.000000 -0.162045 0.000000
# 6 0.000000 0.000000 0.000000 0.000000 0.000000 0.032962
#
#
# Mechanical properties :
#
#
# Convention : Reuss Voigt Hill
#
# Bulk Modulus (GPa) = 22.09056 28.26792 25.17924
# Shear Modulus (GPa) = -513.54786 22.31166 -245.61810
#
# Velocity S-wave (km/s) = -17.09821 3.56391 -11.82471
# Velocity P-wave (km/s) = 19.42223 5.74695 13.11861
#
# Compressibility (1/GPa) = 0.04526821
#
# Stress axis : x y z
#
# Youngs Moduli (GPa) = 60.80415 86.75061 35.96359
#
# Poissons Ratio (x) = 0.39106 0.15281
# Poissons Ratio (y) = 0.27410 -0.12592
# Poissons Ratio (z) = 0.25835 -0.30373
#
# Static dielectric constant tensor:
#      x y z
#    x 1.585300 0.000000 0.000000 
#    y 0.000000 1.597080 0.000000 
#    z 0.000000 0.000000 1.600390 
# 
# From -- ./inp_files/25447.got.cif
#   From: 2010.05.17/outbox.cif.g08.bks.cpg/sg57_13_cif.got.tgz:25447.got - 2010.06.03 13:58:18.
