data_PCOD9439955
_publ_section_title
;
Structure prediction by ZEFSAII (Michael W. Deem and Ramdas Pophale) SiO2 
 PCOD9439955
Probable space group: P B C M
;
_chemical_formula_sum "Si O2"
_cell_formula_units_Z 32
_cell_length_a 10.934072
_cell_length_b 13.098324
_cell_length_c 9.651713
_cell_angle_alpha 90.000000
_cell_angle_beta 90.000000
_cell_angle_gamma 90.000000
_cell_volume 1382.299203
_symmetry_space_group_name_H-M "P B C M"
_symmetry_group_IT_number 57
_symmetry_cell_setting 'orthorhombic'
loop_
_space_group_symop_operation_xyz
x,y,z
-x,-y,1/2+z
x,1/2-y,-z
-x,1/2+y,1/2-z
-x,-y,-z
x,y,1/2-z
-x,1/2+y,z
x,1/2-y,1/2+z
loop_
_atom_site_type_symbol
_atom_site_label
_atom_site_fract_x
_atom_site_fract_y
_atom_site_fract_z
Si Si1 0.681360 0.484129 0.250000
Si Si2 0.149732 0.695117 0.750000
Si Si3 0.976298 0.750000 0.000000
Si Si4 0.341881 0.610093 0.250000
Si Si5 0.174023 0.182683 0.250000
Si Si6 0.687177 0.890006 0.250000
Si Si7 0.522559 0.131334 0.525787
O O1 0.804898 0.420086 0.250000
O O2 0.714259 0.602786 0.250000
O O3 0.612159 0.435589 0.380137
O O4 0.256904 0.786384 0.750000
O O5 0.067408 0.704587 0.885858
O O6 0.896517 0.824414 0.898622
O O7 0.263205 0.505634 0.250000
O O8 0.437576 0.596545 0.374763
O O9 0.215842 0.300375 0.250000
O O10 0.603518 0.872573 0.112013
O O11 0.550184 0.250000 0.500000
#
# Coordination Sequence:
#
# PCOD9439955 Si02
#       7
#     4   4   4   4   4   4   8
#     4  11  24  45  77 105 146 181 235 296 361 431
#     4  11  21  48  77 101 136 182 243 315 351 413
#     4  10  26  50  70 102 138 184 250 296 366 420
#     4  12  23  43  74 107 140 185 243 291 355 413
#     4  11  28  51  67 104 146 192 236 294 363 424
#     4  11  28  43  67  99 156 194 229 286 350 429
#     4  11  23  44  69 110 143 190 233 289 351 435
#
# _framework density 23.149836000000001
#
# number of rings (size 3 to 8) (size 9 to 14) (size 15 to 20)
#    0.000    1.000    2.500    3.000    5.250    5.000 
#    9.000    0.000    0.000    0.000    0.000    0.000 
#    0.000    0.000    0.000    0.000    0.000    0.000 
#
# Total GULP energy -178276.434703 kJ/mol
# GULP energy per Si atom -5571.138584 kJ/mol
# Density = 2.309715 g / cm^3
# Si number density = 23.149836 Si / 1000 Ang^3
#
#
#
# Elastic Constant Matrix: (Units=GPa)
#
#
# Indices 1 2 3 4 5 6 
#
# 1 49.0632 0.7696 19.6894 0.0000 0.0000 0.0000
# 2 0.7696 123.4761 6.5475 0.0000 0.0000 0.0000
# 3 19.6894 6.5475 197.1486 0.0000 0.0000 0.0000
# 4 0.0000 0.0000 0.0000 -7.6141 0.0000 0.0000
# 5 0.0000 0.0000 0.0000 0.0000 17.7460 0.0000
# 6 0.0000 0.0000 0.0000 0.0000 0.0000 39.8322
#
#
#
# Elastic Compliance Matrix: (Units=1/GPa)
#
#
# Indices 1 2 3 4 5 6 
#
# 1 0.021233 -0.000020 -0.002120 0.000000 0.000000 0.000000
# 2 -0.000020 0.008113 -0.000267 0.000000 0.000000 0.000000
# 3 -0.002120 -0.000267 0.005293 0.000000 0.000000 0.000000
# 4 0.000000 0.000000 0.000000 -0.131335 0.000000 0.000000
# 5 0.000000 0.000000 0.000000 0.000000 0.056351 0.000000
# 6 0.000000 0.000000 0.000000 0.000000 0.000000 0.025105
#
#
# Mechanical properties :
#
#
# Convention : Reuss Voigt Hill
#
# Bulk Modulus (GPa) = 33.52968 47.07787 40.30377
# Shear Modulus (GPa) = -10322.38217 32.83824 -5144.77196
#
# Velocity S-wave (km/s) = -66.84777 3.77040 -47.19326
# Velocity P-wave (km/s) = 77.09507 6.27175 54.33376
#
# Compressibility (1/GPa) = 0.02982433
#
# Stress axis : x y z
#
# Youngs Moduli (GPa) = 47.09668 123.25833 188.93180
#
# Poissons Ratio (x) = 0.00246 0.40052
# Poissons Ratio (y) = 0.00094 0.05053
# Poissons Ratio (z) = 0.09984 0.03297
#
# Static dielectric constant tensor:
#      x y z
#    x 1.913810 0.000000 0.000000 
#    y 0.000000 1.962380 0.000000 
#    z 0.000000 0.000000 1.933240 
# 
# From -- ./inp_files/2554.got.cif
#   From: 2010.05.17/outbox.cif.g08.bks.cpg/sg57_2_cif.got.tgz:2554.got - 2010.06.03 13:58:18.
