data_PCOD9439250
_publ_section_title
;
Structure prediction by ZEFSAII (Michael W. Deem and Ramdas Pophale) SiO2 
 PCOD9439250
Probable space group: P B C M
;
_chemical_formula_sum "Si O2"
_cell_formula_units_Z 48
_cell_length_a 10.622159
_cell_length_b 8.814050
_cell_length_c 20.590644
_cell_angle_alpha 90.000000
_cell_angle_beta 90.000000
_cell_angle_gamma 90.000000
_cell_volume 1927.783407
_symmetry_space_group_name_H-M "P B C M"
_symmetry_group_IT_number 57
_symmetry_cell_setting 'orthorhombic'
loop_
_space_group_symop_operation_xyz
x,y,z
-x,-y,1/2+z
x,1/2-y,-z
-x,1/2+y,1/2-z
-x,-y,-z
x,y,1/2-z
-x,1/2+y,z
x,1/2-y,1/2+z
loop_
_atom_site_type_symbol
_atom_site_label
_atom_site_fract_x
_atom_site_fract_y
_atom_site_fract_z
Si Si1 0.317637 0.068803 0.899654
Si Si2 0.898724 0.782102 0.325410
Si Si3 0.063626 0.380286 0.949724
Si Si4 0.547935 0.260998 0.881105
Si Si5 0.251841 0.897820 0.470163
Si Si6 0.686509 0.818846 0.750000
Si Si7 0.526131 0.103292 0.750000
O O1 0.185182 0.086423 0.861086
O O2 0.403272 0.220229 0.897671
O O3 0.410544 0.935079 0.874637
O O4 0.290604 0.007605 0.971343
O O5 0.946026 0.818301 0.250000
O O6 0.981140 0.705346 0.383062
O O7 0.784022 0.668654 0.308029
O O8 0.170321 0.496378 0.924795
O O9 0.107175 0.250000 0.000000
O O10 0.000000 0.500000 0.000000
O O11 0.631066 0.178694 0.935260
O O12 0.579542 0.181102 0.813803
O O13 0.179661 0.750000 0.500000
O O14 0.621764 0.651319 0.750000
O O15 0.572187 0.932259 0.750000
#
# Coordination Sequence:
#
# PCOD9439250 Si02
#       7
#     8   8   8   8   8   4   4
#     4  11  22  39  60  95 140 193 234 288 339 419
#     4  10  23  43  68  97 140 180 234 294 362 429
#     4  12  25  46  77 100 129 175 232 302 381 447
#     4  11  23  33  60  95 146 193 246 278 338 417
#     4  10  23  42  62  97 138 178 241 293 348 419
#     4  10  22  34  60  88 146 187 241 285 344 429
#     4  12  20  32  52  92 132 197 237 277 332 411
#
# _framework density 24.899062000000001
#
# number of rings (size 3 to 8) (size 9 to 14) (size 15 to 20)
#    0.500    0.667    3.333    3.000    3.500    0.000 
#    0.000    0.833    0.000    0.000    0.000    0.000 
#    0.000    0.000    0.000    0.000    0.000    0.000 
#
# Total GULP energy -267281.795956 kJ/mol
# GULP energy per Si atom -5568.370749 kJ/mol
# Density = 2.484239 g / cm^3
# Si number density = 24.899062 Si / 1000 Ang^3
#
#
#
# Elastic Constant Matrix: (Units=GPa)
#
#
# Indices 1 2 3 4 5 6 
#
# 1 25.5741 30.0833 14.6978 0.0000 0.0000 0.0000
# 2 30.0833 107.2563 35.9718 0.0000 0.0000 0.0000
# 3 14.6978 35.9718 166.0045 0.0000 0.0000 0.0000
# 4 0.0000 0.0000 0.0000 34.3898 0.0000 0.0000
# 5 0.0000 0.0000 0.0000 0.0000 35.7544 0.0000
# 6 0.0000 0.0000 0.0000 0.0000 0.0000 43.0684
#
#
#
# Elastic Compliance Matrix: (Units=1/GPa)
#
#
# Indices 1 2 3 4 5 6 
#
# 1 0.058829 -0.015910 -0.001761 0.000000 0.000000 0.000000
# 2 -0.015910 0.014357 -0.001702 0.000000 0.000000 0.000000
# 3 -0.001761 -0.001702 0.006549 0.000000 0.000000 0.000000
# 4 0.000000 0.000000 0.000000 0.029078 0.000000 0.000000
# 5 0.000000 0.000000 0.000000 0.000000 0.027969 0.000000
# 6 0.000000 0.000000 0.000000 0.000000 0.000000 0.023219
#
#
# Mechanical properties :
#
#
# Convention : Reuss Voigt Hill
#
# Bulk Modulus (GPa) = 24.39727 51.14896 37.77311
# Shear Modulus (GPa) = 23.53939 37.18130 30.36035
#
# Velocity S-wave (km/s) = 3.07806 3.86849 3.49569
# Velocity P-wave (km/s) = 4.73839 6.36716 5.61218
#
# Compressibility (1/GPa) = 0.04098820
#
# Stress axis : x y z
#
# Youngs Moduli (GPa) = 16.99836 69.65353 152.70086
#
# Poissons Ratio (x) = 1.10817 0.26893
# Poissons Ratio (y) = 0.27044 0.25995
# Poissons Ratio (z) = 0.02994 0.11858
#
# Static dielectric constant tensor:
#      x y z
#    x 2.069990 0.000000 0.000000 
#    y 0.000000 2.003680 0.000000 
#    z 0.000000 0.000000 2.078810 
# 
# From -- ./inp_files/25282.got.cif
#   From: 2010.05.17/outbox.cif.g08.bks.cpg/sg57_13_cif.got.tgz:25282.got - 2010.06.03 13:58:18.
