data_PCOD9439380
_publ_section_title
;
Structure prediction by ZEFSAII (Michael W. Deem and Ramdas Pophale) SiO2 
 PCOD9439380
Probable space group: P B C M
;
_chemical_formula_sum "Si O2"
_cell_formula_units_Z 64
_cell_length_a 20.717596
_cell_length_b 9.276509
_cell_length_c 17.283412
_cell_angle_alpha 90.000000
_cell_angle_beta 90.000000
_cell_angle_gamma 90.000000
_cell_volume 3321.646510
_symmetry_space_group_name_H-M "P B C M"
_symmetry_group_IT_number 57
_symmetry_cell_setting 'orthorhombic'
loop_
_space_group_symop_operation_xyz
x,y,z
-x,-y,1/2+z
x,1/2-y,-z
-x,1/2+y,1/2-z
-x,-y,-z
x,y,1/2-z
-x,1/2+y,z
x,1/2-y,1/2+z
loop_
_atom_site_type_symbol
_atom_site_label
_atom_site_fract_x
_atom_site_fract_y
_atom_site_fract_z
Si Si1 0.507239 0.130627 0.059228
Si Si2 0.840594 0.619035 0.842235
Si Si3 0.616764 0.775261 0.840945
Si Si4 0.236803 0.679826 0.160009
Si Si5 0.740268 0.662254 0.076046
Si Si6 0.820021 0.392300 0.052593
Si Si7 0.369848 0.935400 0.842129
Si Si8 0.066639 0.080322 0.980832
O O1 0.441951 0.176434 0.104083
O O2 0.562702 0.106268 0.121120
O O3 0.529698 0.250000 0.000000
O O4 0.500000 0.000000 0.000000
O O5 0.850629 0.645767 0.750000
O O6 0.799522 0.472317 0.850535
O O7 0.798603 0.747659 0.882219
O O8 0.904573 0.586196 0.893213
O O9 0.601042 0.793445 0.750000
O O10 0.681629 0.857450 0.865130
O O11 0.635940 0.607654 0.854311
O O12 0.247230 0.699158 0.250000
O O13 0.193052 0.813263 0.133396
O O14 0.308427 0.653303 0.125387
O O15 0.763945 0.508880 0.045372
O O16 0.719460 0.750000 0.000000
O O17 0.817546 0.250000 0.000000
O O18 0.882083 0.488045 0.031642
O O19 0.372690 0.914253 0.750000
O O20 0.062235 0.250000 0.000000
O O21 0.000000 0.000000 0.000000
#
# Coordination Sequence:
#
# PCOD9439380 Si02
#       8
#     8   8   8   8   8   8   8   8
#     4  12  25  43  62  93 128 169 225 281 336 412
#     4  11  21  43  71 101 136 175 226 281 339 400
#     4  11  24  43  67  92 126 177 226 279 343 411
#     4  10  22  39  65 100 133 170 220 280 344 402
#     4  12  22  40  69 100 131 170 231 278 337 403
#     4  12  23  41  65  99 138 176 219 271 336 393
#     4  10  22  43  66  89 128 175 219 277 347 406
#     4  12  25  47  72 101 137 186 232 271 324 398
#
# _framework density 19.267551999999998
#
# number of rings (size 3 to 8) (size 9 to 14) (size 15 to 20)
#    0.000    0.750    6.250    1.500    0.000    2.500 
#    0.000    2.500    0.000    0.000    0.000    0.000 
#    0.000    0.000    0.000    0.000    0.000    0.000 
#
# Total GULP energy -356804.239762 kJ/mol
# GULP energy per Si atom -5575.066246 kJ/mol
# Density = 1.922370 g / cm^3
# Si number density = 19.267552 Si / 1000 Ang^3
#
#
#
# Elastic Constant Matrix: (Units=GPa)
#
#
# Indices 1 2 3 4 5 6 
#
# 1 93.6837 32.0510 46.9337 0.0000 0.0000 0.0000
# 2 32.0510 102.3960 24.8227 0.0000 0.0000 0.0000
# 3 46.9337 24.8227 86.2215 0.0000 0.0000 0.0000
# 4 0.0000 0.0000 0.0000 30.7306 0.0000 0.0000
# 5 0.0000 0.0000 0.0000 0.0000 28.9448 0.0000
# 6 0.0000 0.0000 0.0000 0.0000 0.0000 23.4640
#
#
#
# Elastic Compliance Matrix: (Units=1/GPa)
#
#
# Indices 1 2 3 4 5 6 
#
# 1 0.015497 -0.003016 -0.007567 0.000000 0.000000 0.000000
# 2 -0.003016 0.011086 -0.001550 0.000000 0.000000 0.000000
# 3 -0.007567 -0.001550 0.016163 0.000000 0.000000 0.000000
# 4 0.000000 0.000000 0.000000 0.032541 0.000000 0.000000
# 5 0.000000 0.000000 0.000000 0.000000 0.034549 0.000000
# 6 0.000000 0.000000 0.000000 0.000000 0.000000 0.042619
#
#
# Mechanical properties :
#
#
# Convention : Reuss Voigt Hill
#
# Bulk Modulus (GPa) = 54.11321 54.43509 54.27415
# Shear Modulus (GPa) = 27.34019 28.52747 27.93383
#
# Velocity S-wave (km/s) = 3.77102 3.85203 3.81174
# Velocity P-wave (km/s) = 6.86344 6.93525 6.89944
#
# Compressibility (1/GPa) = 0.01847977
#
# Stress axis : x y z
#
# Youngs Moduli (GPa) = 64.52748 90.20545 61.86826
#
# Poissons Ratio (x) = 0.27209 0.46818
# Poissons Ratio (y) = 0.19464 0.09587
# Poissons Ratio (z) = 0.48830 0.13979
#
# Static dielectric constant tensor:
#      x y z
#    x 1.661560 0.000000 0.000000 
#    y 0.000000 1.670710 0.000000 
#    z 0.000000 0.000000 1.533660 
# 
# From -- ./inp_files/23038.got.cif
#   From: 2010.05.17/outbox.cif.g08.bks.cpg/sg57_12_cif.got.tgz:23038.got - 2010.06.03 13:58:18.
