data_PCOD9439564
_publ_section_title
;
Structure prediction by ZEFSAII (Michael W. Deem and Ramdas Pophale) SiO2 
 PCOD9439564
Probable space group: P B C M
;
_chemical_formula_sum "Si O2"
_cell_formula_units_Z 52
_cell_length_a 7.932341
_cell_length_b 21.140606
_cell_length_c 14.826260
_cell_angle_alpha 90.000000
_cell_angle_beta 90.000000
_cell_angle_gamma 90.000000
_cell_volume 2486.282194
_symmetry_space_group_name_H-M "P B C M"
_symmetry_group_IT_number 57
_symmetry_cell_setting 'orthorhombic'
loop_
_space_group_symop_operation_xyz
x,y,z
-x,-y,1/2+z
x,1/2-y,-z
-x,1/2+y,1/2-z
-x,-y,-z
x,y,1/2-z
-x,1/2+y,z
x,1/2-y,1/2+z
loop_
_atom_site_type_symbol
_atom_site_label
_atom_site_fract_x
_atom_site_fract_y
_atom_site_fract_z
Si Si1 0.922598 0.072156 0.750000
Si Si2 0.897303 0.622773 0.059024
Si Si3 0.001041 0.435394 0.750000
Si Si4 0.476106 0.803701 0.073756
Si Si5 0.712374 0.969474 0.250000
Si Si6 0.795244 0.753318 0.649203
Si Si7 0.403734 0.442087 0.047951
Si Si8 0.886500 0.332665 0.098824
O O1 0.861541 0.107215 0.837766
O O2 0.126246 0.077371 0.750000
O O3 0.884569 0.998704 0.750000
O O4 0.958361 0.597749 0.155699
O O5 0.798728 0.688045 0.080230
O O6 0.774990 0.575524 0.002215
O O7 0.057415 0.642272 0.998673
O O8 0.809334 0.462620 0.750000
O O9 0.629838 0.789670 0.140528
O O10 0.494001 0.876155 0.041997
O O11 0.286006 0.794983 0.106711
O O12 0.497437 0.750000 0.000000
O O13 0.621471 0.958507 0.345632
O O14 0.803767 0.779393 0.750000
O O15 0.957975 0.710165 0.631150
O O16 0.500000 0.500000 0.000000
#
# Coordination Sequence:
#
# PCOD9439564 Si02
#       8
#     4   8   4   8   4   8   8   8
#     4  10  22  42  68 105 139 183 243 298 348 445
#     4  12  23  48  73 102 146 198 235 308 376 431
#     4  10  26  40  72 103 140 192 246 290 375 441
#     4  12  26  46  72 108 144 191 247 302 368 440
#     4  10  24  50  70 106 147 195 253 302 367 450
#     4  12  24  46  73 105 148 187 244 307 368 438
#     4  12  28  46  75 106 150 198 242 308 376 440
#     4  12  25  44  77 103 141 188 251 297 364 443
#
# _framework density 20.914760999999999
#
# number of rings (size 3 to 8) (size 9 to 14) (size 15 to 20)
#    0.462    0.000    6.154    1.385    6.462    1.846 
#    0.000    0.000    0.000    0.000    0.000    0.000 
#    0.000    0.000    0.000    0.000    0.000    0.000 
#
# Total GULP energy -290349.639847 kJ/mol
# GULP energy per Si atom -5583.646920 kJ/mol
# Density = 2.086716 g / cm^3
# Si number density = 20.914761 Si / 1000 Ang^3
#
#
#
# Elastic Constant Matrix: (Units=GPa)
#
#
# Indices 1 2 3 4 5 6 
#
# 1 122.2898 26.6923 36.2894 0.0000 0.0000 0.0000
# 2 26.6923 100.5717 36.7914 0.0000 0.0000 0.0000
# 3 36.2894 36.7914 113.4000 0.0000 0.0000 0.0000
# 4 0.0000 0.0000 0.0000 -44.3340 0.0000 0.0000
# 5 0.0000 0.0000 0.0000 0.0000 27.2794 0.0000
# 6 0.0000 0.0000 0.0000 0.0000 0.0000 29.1688
#
#
#
# Elastic Compliance Matrix: (Units=1/GPa)
#
#
# Indices 1 2 3 4 5 6 
#
# 1 0.009245 -0.001556 -0.002454 0.000000 0.000000 0.000000
# 2 -0.001556 0.011544 -0.003247 0.000000 0.000000 0.000000
# 3 -0.002454 -0.003247 0.010657 0.000000 0.000000 0.000000
# 4 0.000000 0.000000 0.000000 -0.022556 0.000000 0.000000
# 5 0.000000 0.000000 0.000000 0.000000 0.036658 0.000000
# 6 0.000000 0.000000 0.000000 0.000000 0.000000 0.034283
#
#
# Mechanical properties :
#
#
# Convention : Reuss Voigt Hill
#
# Bulk Modulus (GPa) = 59.05976 59.53417 59.29697
# Shear Modulus (GPa) = 50.00520 18.18872 34.09696
#
# Velocity S-wave (km/s) = 4.89499 2.95220 4.04206
# Velocity P-wave (km/s) = 7.76193 6.33621 7.08502
#
# Compressibility (1/GPa) = 0.01693200
#
# Stress axis : x y z
#
# Youngs Moduli (GPa) = 108.16573 86.62415 93.83385
#
# Poissons Ratio (x) = 0.13479 0.23024
# Poissons Ratio (y) = 0.16831 0.30472
# Poissons Ratio (z) = 0.26540 0.28130
#
# Static dielectric constant tensor:
#      x y z
#    x 1.794190 0.000000 0.000000 
#    y 0.000000 1.743800 0.000000 
#    z 0.000000 0.000000 1.704740 
# 
# From -- ./inp_files/16681.got.cif
#   From: 2010.05.17/outbox.cif.g08.bks.cpg/sg57_9_cif.got.tgz:16681.got - 2010.06.03 13:58:18.
