data_PCOD9439868
_publ_section_title
;
Structure prediction by ZEFSAII (Michael W. Deem and Ramdas Pophale) SiO2 
 PCOD9439868
Probable space group: P B C M
;
_chemical_formula_sum "Si O2"
_cell_formula_units_Z 24
_cell_length_a 5.146975
_cell_length_b 9.860079
_cell_length_c 20.162133
_cell_angle_alpha 90.000000
_cell_angle_beta 90.000000
_cell_angle_gamma 90.000000
_cell_volume 1023.219784
_symmetry_space_group_name_H-M "P B C M"
_symmetry_group_IT_number 57
_symmetry_cell_setting 'orthorhombic'
loop_
_space_group_symop_operation_xyz
x,y,z
-x,-y,1/2+z
x,1/2-y,-z
-x,1/2+y,1/2-z
-x,-y,-z
x,y,1/2-z
-x,1/2+y,z
x,1/2-y,1/2+z
loop_
_atom_site_type_symbol
_atom_site_label
_atom_site_fract_x
_atom_site_fract_y
_atom_site_fract_z
Si Si1 0.042286 0.092895 0.063439
Si Si2 0.451582 0.775478 0.889922
Si Si3 0.732973 0.525286 0.674938
O O1 0.984960 0.002155 0.129247
O O2 0.821461 0.209087 0.072193
O O3 0.323932 0.158082 0.065368
O O4 0.000000 0.000000 0.000000
O O5 0.556488 0.634681 0.862919
O O6 0.410972 0.880290 0.828990
O O7 0.790391 0.565485 0.750000
#
# Coordination Sequence:
#
# PCOD9439868 Si02
#       3
#     8   8   8
#     4  10  24  45  67  99 135 182 229 277 340 410
#     4  10  24  43  67  99 132 178 225 283 339 412
#     4  10  24  43  69 101 138 178 227 286 346 410
#
# _framework density 23.455369999999998
#
# number of rings (size 3 to 8) (size 9 to 14) (size 15 to 20)
#    2.000    0.000    0.000    2.000    4.667    4.000 
#    0.000    0.000    0.000    0.000    0.000    0.000 
#    0.000    0.000    0.000    0.000    0.000    0.000 
#
# Total GULP energy -134009.256634 kJ/mol
# GULP energy per Si atom -5583.719026 kJ/mol
# Density = 2.340198 g / cm^3
# Si number density = 23.455370 Si / 1000 Ang^3
#
#
#
# Elastic Constant Matrix: (Units=GPa)
#
#
# Indices 1 2 3 4 5 6 
#
# 1 82.4526 -10.1198 -2.0383 0.0000 0.0000 0.0000
# 2 -10.1198 75.0920 3.4411 0.0000 0.0000 0.0000
# 3 -2.0383 3.4411 115.7593 0.0000 0.0000 0.0000
# 4 0.0000 0.0000 0.0000 29.0374 0.0000 0.0000
# 5 0.0000 0.0000 0.0000 0.0000 14.7097 0.0000
# 6 0.0000 0.0000 0.0000 0.0000 0.0000 12.5383
#
#
#
# Elastic Compliance Matrix: (Units=1/GPa)
#
#
# Indices 1 2 3 4 5 6 
#
# 1 0.012335 0.001655 0.000168 0.000000 0.000000 0.000000
# 2 0.001655 0.013557 -0.000374 0.000000 0.000000 0.000000
# 3 0.000168 -0.000374 0.008653 0.000000 0.000000 0.000000
# 4 0.000000 0.000000 0.000000 0.034438 0.000000 0.000000
# 5 0.000000 0.000000 0.000000 0.000000 0.067982 0.000000
# 6 0.000000 0.000000 0.000000 0.000000 0.000000 0.079755
#
#
# Mechanical properties :
#
#
# Convention : Reuss Voigt Hill
#
# Bulk Modulus (GPa) = 26.70732 28.42998 27.56865
# Shear Modulus (GPa) = 22.09412 30.05849 26.07631
#
# Velocity S-wave (km/s) = 3.07247 3.58371 3.33790
# Velocity P-wave (km/s) = 4.89877 5.41029 5.16087
#
# Compressibility (1/GPa) = 0.03744292
#
# Stress axis : x y z
#
# Youngs Moduli (GPa) = 81.06736 73.76197 115.57102
#
# Poissons Ratio (x) = -0.12205 -0.01942
# Poissons Ratio (y) = -0.13414 0.04321
# Poissons Ratio (z) = -0.01362 0.02758
#
# Static dielectric constant tensor:
#      x y z
#    x 1.866650 0.000000 0.000000 
#    y 0.000000 1.935110 0.000000 
#    z 0.000000 0.000000 1.872160 
# 
# From -- ./inp_files/19717.got.cif
#   From: 2010.05.17/outbox.cif.g08.bks.cpg/sg57_10_cif.got.tgz:19717.got - 2010.06.03 13:58:18.
