data_PCOD9439387
_publ_section_title
;
Structure prediction by ZEFSAII (Michael W. Deem and Ramdas Pophale) SiO2 
 PCOD9439387
Probable space group: P B C M
;
_chemical_formula_sum "Si O2"
_cell_formula_units_Z 64
_cell_length_a 13.906408
_cell_length_b 9.167792
_cell_length_c 23.221911
_cell_angle_alpha 90.000000
_cell_angle_beta 90.000000
_cell_angle_gamma 90.000000
_cell_volume 2960.585956
_symmetry_space_group_name_H-M "P B C M"
_symmetry_group_IT_number 57
_symmetry_cell_setting 'orthorhombic'
loop_
_space_group_symop_operation_xyz
x,y,z
-x,-y,1/2+z
x,1/2-y,-z
-x,1/2+y,1/2-z
-x,-y,-z
x,y,1/2-z
-x,1/2+y,z
x,1/2-y,1/2+z
loop_
_atom_site_type_symbol
_atom_site_label
_atom_site_fract_x
_atom_site_fract_y
_atom_site_fract_z
Si Si1 0.068794 0.470298 0.653712
Si Si2 0.263474 0.311385 0.408266
Si Si3 0.581209 0.830041 0.316364
Si Si4 0.786121 0.308969 0.391242
Si Si5 0.949716 0.372978 0.953728
Si Si6 0.781401 0.966260 0.985589
Si Si7 0.115384 0.352598 0.188290
Si Si8 0.620753 0.173779 0.183941
O O1 0.163174 0.569485 0.648898
O O2 0.090444 0.318044 0.683724
O O3 0.028452 0.435626 0.589631
O O4 0.982308 0.557832 0.682651
O O5 0.349626 0.267610 0.365964
O O6 0.222265 0.171590 0.442500
O O7 0.284220 0.424892 0.459584
O O8 0.184747 0.379483 0.365356
O O9 0.608189 0.790472 0.250000
O O10 0.473475 0.772968 0.324873
O O11 0.590918 0.004724 0.322128
O O12 0.873363 0.208654 0.412510
O O13 0.750739 0.394895 0.448098
O O14 0.704259 0.221576 0.358961
O O15 0.981191 0.250000 0.000000
O O16 0.885384 0.493724 0.986684
O O17 0.161715 0.386159 0.250000
O O18 0.653532 0.194506 0.250000
#
# Coordination Sequence:
#
# PCOD9439387 Si02
#       8
#     8   8   8   8   8   8   8   8
#     4  12  24  43  62  96 134 184 230 284 335 406
#     4  11  22  42  67  96 132 171 226 284 336 409
#     4  10  23  45  75 105 134 175 224 279 345 416
#     4  11  23  42  66  98 139 181 225 284 344 397
#     4  10  22  40  64  93 134 185 233 281 334 403
#     4  10  22  39  67  95 133 175 226 276 337 407
#     4  12  26  42  62  93 133 179 230 283 344 405
#     4  10  24  44  72 104 136 177 225 282 342 415
#
# _framework density 21.617343000000002
#
# number of rings (size 3 to 8) (size 9 to 14) (size 15 to 20)
#    0.000    1.250    3.750    1.500    1.750    4.000 
#    0.000    0.625    8.250    0.000    0.000    0.000 
#    0.000    0.000    0.000    0.000    0.000    0.000 
#
# Total GULP energy -358031.657458 kJ/mol
# GULP energy per Si atom -5594.244648 kJ/mol
# Density = 2.156814 g / cm^3
# Si number density = 21.617343 Si / 1000 Ang^3
#
#
#
# Elastic Constant Matrix: (Units=GPa)
#
#
# Indices 1 2 3 4 5 6 
#
# 1 51.9425 17.5319 30.9588 0.0000 0.0000 0.0000
# 2 17.5319 70.2454 22.8697 0.0000 0.0000 0.0000
# 3 30.9588 22.8697 122.5558 0.0000 0.0000 0.0000
# 4 0.0000 0.0000 0.0000 -6.7053 0.0000 0.0000
# 5 0.0000 0.0000 0.0000 0.0000 22.9115 0.0000
# 6 0.0000 0.0000 0.0000 0.0000 0.0000 32.2659
#
#
#
# Elastic Compliance Matrix: (Units=1/GPa)
#
#
# Indices 1 2 3 4 5 6 
#
# 1 0.023794 -0.004239 -0.005219 0.000000 0.000000 0.000000
# 2 -0.004239 0.015912 -0.001898 0.000000 0.000000 0.000000
# 3 -0.005219 -0.001898 0.009832 0.000000 0.000000 0.000000
# 4 0.000000 0.000000 0.000000 -0.149136 0.000000 0.000000
# 5 0.000000 0.000000 0.000000 0.000000 0.043646 0.000000
# 6 0.000000 0.000000 0.000000 0.000000 0.000000 0.030992
#
#
# Mechanical properties :
#
#
# Convention : Reuss Voigt Hill
#
# Bulk Modulus (GPa) = 37.28027 43.05162 40.16594
# Shear Modulus (GPa) = 746.71253 21.25331 383.98292
#
# Velocity S-wave (km/s) = 18.60572 3.13894 13.34215
# Velocity P-wave (km/s) = 21.88257 5.75290 15.99910
#
# Compressibility (1/GPa) = 0.02682384
#
# Stress axis : x y z
#
# Youngs Moduli (GPa) = 42.02770 62.84611 101.70569
#
# Poissons Ratio (x) = 0.26642 0.53085
# Poissons Ratio (y) = 0.17816 0.19308
# Poissons Ratio (z) = 0.21936 0.11931
#
# Static dielectric constant tensor:
#      x y z
#    x 1.761970 0.000000 0.000000 
#    y 0.000000 1.813670 0.000000 
#    z 0.000000 0.000000 1.813640 
# 
# From -- ./inp_files/27456.got.cif
#   From: 2010.05.17/outbox.cif.g08.bks.cpg/sg57_14_cif.got.tgz:27456.got - 2010.06.03 13:58:18.
