data_PCOD9439253
_publ_section_title
;
Structure prediction by ZEFSAII (Michael W. Deem and Ramdas Pophale) SiO2 
 PCOD9439253
Probable space group: P B C M
;
_chemical_formula_sum "Si O2"
_cell_formula_units_Z 56
_cell_length_a 12.056868
_cell_length_b 14.070956
_cell_length_c 15.846311
_cell_angle_alpha 90.000000
_cell_angle_beta 90.000000
_cell_angle_gamma 90.000000
_cell_volume 2688.352952
_symmetry_space_group_name_H-M "P B C M"
_symmetry_group_IT_number 57
_symmetry_cell_setting 'orthorhombic'
loop_
_space_group_symop_operation_xyz
x,y,z
-x,-y,1/2+z
x,1/2-y,-z
-x,1/2+y,1/2-z
-x,-y,-z
x,y,1/2-z
-x,1/2+y,z
x,1/2-y,1/2+z
loop_
_atom_site_type_symbol
_atom_site_label
_atom_site_fract_x
_atom_site_fract_y
_atom_site_fract_z
Si Si1 0.967626 0.138342 0.654933
Si Si2 0.167680 0.828528 0.655620
Si Si3 0.819732 0.449359 0.008104
Si Si4 0.184949 0.342236 0.054088
Si Si5 0.416802 0.932355 0.952272
Si Si6 0.396460 0.388655 0.151875
Si Si7 0.580054 0.259140 0.651716
O O1 0.952723 0.100979 0.750000
O O2 0.922848 0.246045 0.653563
O O3 0.894920 0.084402 0.584767
O O4 0.094398 0.140542 0.626481
O O5 0.170691 0.871088 0.750000
O O6 0.143282 0.902184 0.580921
O O7 0.286892 0.774597 0.642356
O O8 0.818702 0.562598 0.001870
O O9 0.691562 0.415947 0.009243
O O10 0.306225 0.335290 0.095095
O O11 0.157149 0.250000 0.000000
O O12 0.384338 0.000591 0.873291
O O13 0.465498 0.836312 0.914417
O O14 0.500000 0.000000 0.000000
O O15 0.371294 0.377528 0.250000
O O16 0.517477 0.340717 0.137378
O O17 0.556342 0.283425 0.750000
#
# Coordination Sequence:
#
# PCOD9439253 Si02
#       7
#     8   8   8   8   8   8   8
#     4  11  23  41  64  92 122 157 203 258 315 365
#     4   9  19  37  64  93 119 153 202 257 309 361
#     4  10  22  40  62  90 120 162 205 254 303 364
#     4  11  24  41  62  87 124 161 209 255 309 372
#     4  10  22  35  58  89 120 158 201 247 305 359
#     4  10  22  39  60  85 122 166 203 247 308 375
#     4   9  19  36  58  85 117 155 199 247 297 359
#
# _framework density 20.830598999999999
#
# number of rings (size 3 to 8) (size 9 to 14) (size 15 to 20)
#    0.000    2.000    0.000    2.571    6.000    4.000 
#    0.000    3.571    0.000    0.000    0.000    0.000 
#    0.000    0.000    0.000    0.000    0.000    0.000 
#
# Total GULP energy -312649.330220 kJ/mol
# GULP energy per Si atom -5583.023754 kJ/mol
# Density = 2.078319 g / cm^3
# Si number density = 20.830599 Si / 1000 Ang^3
#
#
#
# Elastic Constant Matrix: (Units=GPa)
#
#
# Indices 1 2 3 4 5 6 
#
# 1 48.0746 6.5476 30.5264 0.0000 0.0000 0.0000
# 2 6.5476 65.1561 42.8949 0.0000 0.0000 0.0000
# 3 30.5264 42.8949 117.8116 0.0000 0.0000 0.0000
# 4 0.0000 0.0000 0.0000 25.1969 0.0000 0.0000
# 5 0.0000 0.0000 0.0000 0.0000 28.0369 0.0000
# 6 0.0000 0.0000 0.0000 0.0000 0.0000 16.9723
#
#
#
# Elastic Compliance Matrix: (Units=1/GPa)
#
#
# Indices 1 2 3 4 5 6 
#
# 1 0.025161 0.002320 -0.007364 0.000000 0.000000 0.000000
# 2 0.002320 0.020400 -0.008029 0.000000 0.000000 0.000000
# 3 -0.007364 -0.008029 0.013320 0.000000 0.000000 0.000000
# 4 0.000000 0.000000 0.000000 0.039687 0.000000 0.000000
# 5 0.000000 0.000000 0.000000 0.000000 0.035667 0.000000
# 6 0.000000 0.000000 0.000000 0.000000 0.000000 0.058919
#
#
# Mechanical properties :
#
#
# Convention : Reuss Voigt Hill
#
# Bulk Modulus (GPa) = 30.54883 43.44223 36.99553
# Shear Modulus (GPa) = 21.71901 24.11279 22.91590
#
# Velocity S-wave (km/s) = 3.23251 3.40599 3.32039
# Velocity P-wave (km/s) = 5.35064 6.03059 5.70076
#
# Compressibility (1/GPa) = 0.03273448
#
# Stress axis : x y z
#
# Youngs Moduli (GPa) = 39.74382 49.01887 75.07787
#
# Poissons Ratio (x) = -0.11371 0.55288
# Poissons Ratio (y) = -0.09219 0.60278
# Poissons Ratio (z) = 0.29268 0.39356
#
# Static dielectric constant tensor:
#      x y z
#    x 1.766260 0.000000 0.000000 
#    y 0.000000 1.731340 0.000000 
#    z 0.000000 0.000000 1.776800 
# 
# From -- ./inp_files/17729.got.cif
#   From: 2010.05.17/outbox.cif.g08.bks.cpg/sg57_9_cif.got.tgz:17729.got - 2010.06.03 13:58:18.
