data_PCOD9439155
_publ_section_title
;
Structure prediction by ZEFSAII (Michael W. Deem and Ramdas Pophale) SiO2 
 PCOD9439155
Probable space group: P B C M
;
_chemical_formula_sum "Si O2"
_cell_formula_units_Z 64
_cell_length_a 14.906337
_cell_length_b 24.156863
_cell_length_c 9.149139
_cell_angle_alpha 90.000000
_cell_angle_beta 90.000000
_cell_angle_gamma 90.000000
_cell_volume 3294.516580
_symmetry_space_group_name_H-M "P B C M"
_symmetry_group_IT_number 57
_symmetry_cell_setting 'orthorhombic'
loop_
_space_group_symop_operation_xyz
x,y,z
-x,-y,1/2+z
x,1/2-y,-z
-x,1/2+y,1/2-z
-x,-y,-z
x,y,1/2-z
-x,1/2+y,z
x,1/2-y,1/2+z
loop_
_atom_site_type_symbol
_atom_site_label
_atom_site_fract_x
_atom_site_fract_y
_atom_site_fract_z
Si Si1 0.140357 0.890742 0.074883
Si Si2 0.553174 0.355599 0.918525
Si Si3 0.739601 0.304766 0.581619
Si Si4 0.021388 0.309289 0.075233
Si Si5 0.644228 0.808973 0.924315
Si Si6 0.786373 0.991528 0.574431
Si Si7 0.583457 0.469330 0.424208
Si Si8 0.200887 0.123830 0.574963
O O1 0.151639 0.886514 0.250000
O O2 0.050885 0.856777 0.034813
O O3 0.151483 0.955371 0.038961
O O4 0.219110 0.857960 0.995169
O O5 0.551604 0.376428 0.750000
O O6 0.632532 0.311099 0.926921
O O7 0.457307 0.329063 0.950081
O O8 0.576099 0.406103 0.023898
O O9 0.770720 0.250000 0.500000
O O10 0.766709 0.302585 0.750000
O O11 0.015122 0.301406 0.250000
O O12 0.118927 0.334607 0.041424
O O13 0.006660 0.250000 0.000000
O O14 0.658775 0.805213 0.750000
O O15 0.658855 0.750000 0.000000
O O16 0.711357 0.852611 0.996115
O O17 0.790060 0.982211 0.750000
O O18 0.815859 0.937192 0.488253
O O19 0.682220 0.006566 0.537678
O O20 0.500000 0.500000 0.500000
O O21 0.574677 0.473574 0.250000
O O22 0.211965 0.121841 0.750000
#
# Coordination Sequence:
#
# PCOD9439155 Si02
#       8
#     8   8   8   8   8   8   8   8
#     4  10  21  41  64  88 122 159 198 245 298 359
#     4  10  22  38  56  83 118 155 199 247 297 356
#     4  11  22  36  57  86 120 156 196 243 293 351
#     4  10  23  42  65  92 122 156 199 249 304 364
#     4  11  23  40  61  87 120 160 204 253 307 364
#     4  10  22  40  61  88 122 161 201 247 304 361
#     4  11  22  36  57  84 117 160 205 249 298 353
#     4  11  24  41  62  90 121 158 203 254 306 360
#
# _framework density 19.426217999999999
#
# number of rings (size 3 to 8) (size 9 to 14) (size 15 to 20)
#    0.000    1.500    1.250    3.375    0.000   10.000 
#    0.000    0.000    0.000    0.000    0.000    0.000 
#    0.000    0.000    0.000    0.000    0.000    0.000 
#
# Total GULP energy -357632.307041 kJ/mol
# GULP energy per Si atom -5588.004798 kJ/mol
# Density = 1.938200 g / cm^3
# Si number density = 19.426218 Si / 1000 Ang^3
#
#
#
# Elastic Constant Matrix: (Units=GPa)
#
#
# Indices 1 2 3 4 5 6 
#
# 1 59.1043 19.9151 25.5848 0.0000 0.0000 0.0000
# 2 19.9151 107.9459 42.9783 0.0000 0.0000 0.0000
# 3 25.5848 42.9783 35.8855 0.0000 0.0000 0.0000
# 4 0.0000 0.0000 0.0000 39.6881 0.0000 0.0000
# 5 0.0000 0.0000 0.0000 0.0000 14.2733 0.0000
# 6 0.0000 0.0000 0.0000 0.0000 0.0000 28.3127
#
#
#
# Elastic Compliance Matrix: (Units=1/GPa)
#
#
# Indices 1 2 3 4 5 6 
#
# 1 0.025756 0.004892 -0.024222 0.000000 0.000000 0.000000
# 2 0.004892 0.018637 -0.025808 0.000000 0.000000 0.000000
# 3 -0.024222 -0.025808 0.076045 0.000000 0.000000 0.000000
# 4 0.000000 0.000000 0.000000 0.025196 0.000000 0.000000
# 5 0.000000 0.000000 0.000000 0.000000 0.070061 0.000000
# 6 0.000000 0.000000 0.000000 0.000000 0.000000 0.035320
#
#
# Mechanical properties :
#
#
# Convention : Reuss Voigt Hill
#
# Bulk Modulus (GPa) = 33.15483 42.21024 37.68254
# Shear Modulus (GPa) = 14.23104 24.08532 19.15818
#
# Velocity S-wave (km/s) = 2.70954 3.52495 3.14379
# Velocity P-wave (km/s) = 5.18584 6.19215 5.71120
#
# Compressibility (1/GPa) = 0.03016151
#
# Stress axis : x y z
#
# Youngs Moduli (GPa) = 38.82609 53.65723 13.15013
#
# Poissons Ratio (x) = -0.26250 0.31852
# Poissons Ratio (y) = -0.18994 0.33938
# Poissons Ratio (z) = 0.94044 1.38480
#
# Static dielectric constant tensor:
#      x y z
#    x 1.692810 0.000000 0.000000 
#    y 0.000000 1.679320 0.000000 
#    z 0.000000 0.000000 1.648580 
# 
# From -- ./inp_files/5727.got.cif
#   From: 2010.05.17/outbox.cif.g08.bks.cpg/sg57_3_cif.got.tgz:5727.got - 2010.06.03 13:58:18.
