data_PCOD9439660
_publ_section_title
;
Structure prediction by ZEFSAII (Michael W. Deem and Ramdas Pophale) SiO2 
 PCOD9439660
Probable space group: P B C M
;
_chemical_formula_sum "Si O2"
_cell_formula_units_Z 56
_cell_length_a 31.639620
_cell_length_b 5.423427
_cell_length_c 13.979037
_cell_angle_alpha 90.000000
_cell_angle_beta 90.000000
_cell_angle_gamma 90.000000
_cell_volume 2398.735222
_symmetry_space_group_name_H-M "P B C M"
_symmetry_group_IT_number 57
_symmetry_cell_setting 'orthorhombic'
loop_
_space_group_symop_operation_xyz
x,y,z
-x,-y,1/2+z
x,1/2-y,-z
-x,1/2+y,1/2-z
-x,-y,-z
x,y,1/2-z
-x,1/2+y,z
x,1/2-y,1/2+z
loop_
_atom_site_type_symbol
_atom_site_label
_atom_site_fract_x
_atom_site_fract_y
_atom_site_fract_z
Si Si1 0.582666 0.492497 0.059237
Si Si2 0.976545 0.616174 0.866875
Si Si3 0.263536 0.250000 0.000000
Si Si4 0.323637 0.546436 0.860899
Si Si5 0.834944 0.087620 0.863510
Si Si6 0.121045 0.409863 0.132730
Si Si7 0.527075 0.952381 0.750000
Si Si8 0.754351 0.368699 0.856658
O O1 0.630611 0.435729 0.092620
O O2 0.555133 0.525917 0.154513
O O3 0.581558 0.750000 0.000000
O O4 0.568087 0.250000 0.000000
O O5 0.976932 0.616687 0.750000
O O6 0.927819 0.597571 0.896357
O O7 0.002508 0.374068 0.896833
O O8 0.295142 0.363834 0.921838
O O9 0.236796 0.056503 0.940133
O O10 0.327391 0.472079 0.750000
O O11 0.294746 0.792297 0.863124
O O12 0.843847 0.082256 0.750000
O O13 0.856761 0.338162 0.898945
O O14 0.784702 0.133456 0.869502
O O15 0.854541 0.835316 0.899483
O O16 0.121959 0.412059 0.250000
O O17 0.504282 0.687009 0.750000
O O18 0.763170 0.467943 0.750000
#
# Coordination Sequence:
#
# PCOD9439660 Si02
#       8
#     8   8   4   8   8   8   4   8
#     4  12  26  48  78 112 150 197 247 304 365 429
#     4   9  15  22  35  58  90 131 184 245 312 379
#     4  12  22  40  64  96 128 168 228 280 344 398
#     4  11  24  44  67  99 138 182 231 288 348 413
#     4   9  18  31  48  71 104 151 206 253 312 386
#     4   9  16  27  43  64  97 144 198 252 311 388
#     4  12  28  52  78 116 156 200 250 306 370 438
#     4  10  23  39  60  90 128 175 224 279 337 403
#
# _framework density 23.345634
#
# number of rings (size 3 to 8) (size 9 to 14) (size 15 to 20)
#    0.000    1.714    1.429    3.429    2.000    5.143 
#    0.000    0.000    0.000    0.000    0.000    0.000 
#    0.000    0.000    0.000   12.857    0.000   31.429 
#
# Total GULP energy -313530.153564 kJ/mol
# GULP energy per Si atom -5598.752742 kJ/mol
# Density = 2.329250 g / cm^3
# Si number density = 23.345634 Si / 1000 Ang^3
#
#
#
# Elastic Constant Matrix: (Units=GPa)
#
#
# Indices 1 2 3 4 5 6 
#
# 1 116.4259 44.1948 34.3102 0.0000 0.0000 0.0000
# 2 44.1948 129.1612 68.6461 0.0000 0.0000 0.0000
# 3 34.3102 68.6461 149.2966 0.0000 0.0000 0.0000
# 4 0.0000 0.0000 0.0000 39.6664 0.0000 0.0000
# 5 0.0000 0.0000 0.0000 0.0000 -19.1880 0.0000
# 6 0.0000 0.0000 0.0000 0.0000 0.0000 44.4455
#
#
#
# Elastic Compliance Matrix: (Units=1/GPa)
#
#
# Indices 1 2 3 4 5 6 
#
# 1 0.009973 -0.002904 -0.000957 0.000000 0.000000 0.000000
# 2 -0.002904 0.011092 -0.004433 0.000000 0.000000 0.000000
# 3 -0.000957 -0.004433 0.008956 0.000000 0.000000 0.000000
# 4 0.000000 0.000000 0.000000 0.025210 0.000000 0.000000
# 5 0.000000 0.000000 0.000000 0.000000 -0.052116 0.000000
# 6 0.000000 0.000000 0.000000 0.000000 0.000000 0.022499
#
#
# Mechanical properties :
#
#
# Convention : Reuss Voigt Hill
#
# Bulk Modulus (GPa) = 74.43547 76.57624 75.50585
# Shear Modulus (GPa) = 107.11219 29.50028 68.30624
#
# Velocity S-wave (km/s) = 6.78090 3.55862 5.41500
# Velocity P-wave (km/s) = 9.65717 7.05389 8.45630
#
# Compressibility (1/GPa) = 0.01343445
#
# Stress axis : x y z
#
# Youngs Moduli (GPa) = 100.26578 90.15700 111.65683
#
# Poissons Ratio (x) = 0.26183 0.10682
# Poissons Ratio (y) = 0.29119 0.49492
# Poissons Ratio (z) = 0.09593 0.39963
#
# Static dielectric constant tensor:
#      x y z
#    x 1.825750 0.000000 0.000000 
#    y 0.000000 1.882210 0.000000 
#    z 0.000000 0.000000 1.929640 
# 
# From -- ./inp_files/19656.got.cif
#   From: 2010.05.17/outbox.cif.g08.bks.cpg/sg57_10_cif.got.tgz:19656.got - 2010.06.03 13:58:18.
