data_PCOD9439258
_publ_section_title
;
Structure prediction by ZEFSAII (Michael W. Deem and Ramdas Pophale) SiO2 
 PCOD9439258
Probable space group: P B C M
;
_chemical_formula_sum "Si O2"
_cell_formula_units_Z 64
_cell_length_a 8.924969
_cell_length_b 14.015375
_cell_length_c 23.262092
_cell_angle_alpha 90.000000
_cell_angle_beta 90.000000
_cell_angle_gamma 90.000000
_cell_volume 2909.780356
_symmetry_space_group_name_H-M "P B C M"
_symmetry_group_IT_number 57
_symmetry_cell_setting 'orthorhombic'
loop_
_space_group_symop_operation_xyz
x,y,z
-x,-y,1/2+z
x,1/2-y,-z
-x,1/2+y,1/2-z
-x,-y,-z
x,y,1/2-z
-x,1/2+y,z
x,1/2-y,1/2+z
loop_
_atom_site_type_symbol
_atom_site_label
_atom_site_fract_x
_atom_site_fract_y
_atom_site_fract_z
Si Si1 0.811876 0.811526 0.079717
Si Si2 0.705765 0.045561 0.542608
Si Si3 0.563810 0.436488 0.922226
Si Si4 0.263698 0.699912 0.683104
Si Si5 0.467188 0.786700 0.417741
Si Si6 0.153372 0.897024 0.636034
Si Si7 0.928225 0.615225 0.459133
Si Si8 0.020135 0.082797 0.817846
O O1 0.633428 0.826215 0.071574
O O2 0.839255 0.697522 0.076041
O O3 0.875618 0.857614 0.137894
O O4 0.903313 0.854117 0.025162
O O5 0.645210 0.023920 0.478855
O O6 0.670226 0.156557 0.552164
O O7 0.588810 0.993138 0.585095
O O8 0.860623 0.990446 0.548294
O O9 0.531672 0.324653 0.932694
O O10 0.681278 0.441228 0.870732
O O11 0.292942 0.700279 0.750000
O O12 0.417286 0.702583 0.648135
O O13 0.172288 0.795112 0.665268
O O14 0.150983 0.613367 0.669222
O O15 0.089191 0.883054 0.571285
O O16 0.050894 0.972013 0.668995
O O17 0.047368 0.103031 0.750000
#
# Coordination Sequence:
#
# PCOD9439258 Si02
#       8
#     8   8   8   8   8   8   8   8
#     4  11  23  41  60  94 129 169 208 261 322 380
#     4  11  20  36  57  89 121 166 203 251 307 385
#     4  10  22  36  57  88 124 166 205 252 316 370
#     4  10  23  42  62  89 122 162 213 272 317 368
#     4  11  22  38  63  86 126 164 213 260 313 379
#     4  11  22  41  62  93 122 169 208 258 321 387
#     4  11  23  38  63  90 136 166 204 260 321 388
#     4  11  23  42  68  92 122 167 216 266 319 377
#
# _framework density 21.994788
#
# number of rings (size 3 to 8) (size 9 to 14) (size 15 to 20)
#    0.000    1.250    2.500    4.500    1.750    3.500 
#    2.250    0.000    0.000    0.750    0.000    0.000 
#    0.000    0.000    0.000    0.000    0.000    0.000 
#
# Total GULP energy -357659.102441 kJ/mol
# GULP energy per Si atom -5588.423476 kJ/mol
# Density = 2.194473 g / cm^3
# Si number density = 21.994788 Si / 1000 Ang^3
#
#
#
# Elastic Constant Matrix: (Units=GPa)
#
#
# Indices 1 2 3 4 5 6 
#
# 1 57.9123 22.3593 13.0570 0.0000 0.0000 0.0000
# 2 22.3593 102.1396 12.1532 0.0000 0.0000 0.0000
# 3 13.0570 12.1532 84.8780 0.0000 0.0000 0.0000
# 4 0.0000 0.0000 0.0000 25.0736 0.0000 0.0000
# 5 0.0000 0.0000 0.0000 0.0000 23.8982 0.0000
# 6 0.0000 0.0000 0.0000 0.0000 0.0000 35.8970
#
#
#
# Elastic Compliance Matrix: (Units=1/GPa)
#
#
# Indices 1 2 3 4 5 6 
#
# 1 0.019334 -0.003946 -0.002409 0.000000 0.000000 0.000000
# 2 -0.003946 0.010765 -0.000934 0.000000 0.000000 0.000000
# 3 -0.002409 -0.000934 0.012286 0.000000 0.000000 0.000000
# 4 0.000000 0.000000 0.000000 0.039883 0.000000 0.000000
# 5 0.000000 0.000000 0.000000 0.000000 0.041844 0.000000
# 6 0.000000 0.000000 0.000000 0.000000 0.000000 0.027857
#
#
# Mechanical properties :
#
#
# Convention : Reuss Voigt Hill
#
# Bulk Modulus (GPa) = 35.96253 37.78541 36.87397
# Shear Modulus (GPa) = 28.43856 30.13113 29.28485
#
# Velocity S-wave (km/s) = 3.59969 3.70526 3.65286
# Velocity P-wave (km/s) = 5.80198 5.96002 5.88153
#
# Compressibility (1/GPa) = 0.02780672
#
# Stress axis : x y z
#
# Youngs Moduli (GPa) = 51.72209 92.88959 81.39324
#
# Poissons Ratio (x) = 0.36652 0.19610
# Poissons Ratio (y) = 0.20408 0.07606
# Poissons Ratio (z) = 0.12461 0.08680
#
# Static dielectric constant tensor:
#      x y z
#    x 1.823630 0.000000 0.000000 
#    y 0.000000 1.847410 0.000000 
#    z 0.000000 0.000000 1.807970 
# 
# From -- ./inp_files/26913.got.cif
#   From: 2010.05.17/outbox.cif.g08.bks.cpg/sg57_14_cif.got.tgz:26913.got - 2010.06.03 13:58:18.
