data_PCOD9439356
_publ_section_title
;
Structure prediction by ZEFSAII (Michael W. Deem and Ramdas Pophale) SiO2 
 PCOD9439356
Probable space group: P B C M
;
_chemical_formula_sum "Si O2"
_cell_formula_units_Z 64
_cell_length_a 8.653438
_cell_length_b 17.123463
_cell_length_c 22.126484
_cell_angle_alpha 90.000000
_cell_angle_beta 90.000000
_cell_angle_gamma 90.000000
_cell_volume 3278.632157
_symmetry_space_group_name_H-M "P B C M"
_symmetry_group_IT_number 57
_symmetry_cell_setting 'orthorhombic'
loop_
_space_group_symop_operation_xyz
x,y,z
-x,-y,1/2+z
x,1/2-y,-z
-x,1/2+y,1/2-z
-x,-y,-z
x,y,1/2-z
-x,1/2+y,z
x,1/2-y,1/2+z
loop_
_atom_site_type_symbol
_atom_site_label
_atom_site_fract_x
_atom_site_fract_y
_atom_site_fract_z
Si Si1 0.347414 0.439865 0.884565
Si Si2 0.157080 0.184103 0.321093
Si Si3 0.796833 0.857626 0.366737
Si Si4 0.922087 0.054151 0.591445
Si Si5 0.261205 0.841981 0.998278
Si Si6 0.636619 0.001844 0.317221
Si Si7 0.378442 0.156262 0.991416
Si Si8 0.883846 0.408510 0.615463
O O1 0.295759 0.375088 0.836266
O O2 0.226703 0.511083 0.881131
O O3 0.512960 0.473602 0.867392
O O4 0.339508 0.396186 0.949688
O O5 0.123570 0.185939 0.250000
O O6 0.200893 0.269216 0.345189
O O7 0.012771 0.149698 0.359071
O O8 0.690095 0.912974 0.326279
O O9 0.727820 0.865456 0.434567
O O10 0.971056 0.891098 0.367098
O O11 0.857266 0.108146 0.538288
O O12 0.033608 0.979784 0.579374
O O13 0.234351 0.867553 0.929587
O O14 0.228828 0.750000 0.000000
O O15 0.437781 0.855883 0.019156
O O16 0.576231 0.014595 0.250000
O O17 0.789072 0.052964 0.330132
O O18 0.357332 0.250000 0.000000
#
# Coordination Sequence:
#
# PCOD9439356 Si02
#       8
#     8   8   8   8   8   8   8   8
#     4  11  23  42  65  92 126 163 215 263 316 378
#     4  11  23  42  65  90 123 168 214 259 310 375
#     4  11  24  40  64  93 128 163 206 261 322 382
#     4  10  24  37  60  93 124 162 204 257 322 375
#     4  11  22  37  57  89 129 159 199 255 320 382
#     4  11  23  42  64  90 124 167 213 259 310 373
#     4  11  23  39  63  94 127 160 206 262 322 381
#     4  10  22  39  61  90 121 162 214 255 311 374
#
# _framework density 19.520336
#
# number of rings (size 3 to 8) (size 9 to 14) (size 15 to 20)
#    0.000    1.250    2.500    3.000    7.000    1.500 
#    0.000    1.875    0.000    0.000    0.000    0.000 
#    0.000    0.000    0.000    0.000    0.000    0.000 
#
# Total GULP energy -357322.187355 kJ/mol
# GULP energy per Si atom -5583.159177 kJ/mol
# Density = 1.947591 g / cm^3
# Si number density = 19.520336 Si / 1000 Ang^3
#
#
#
# Elastic Constant Matrix: (Units=GPa)
#
#
# Indices 1 2 3 4 5 6 
#
# 1 62.4150 42.5785 12.9415 0.0000 0.0000 0.0000
# 2 42.5785 116.8717 42.4869 0.0000 0.0000 0.0000
# 3 12.9415 42.4869 75.9303 0.0000 0.0000 0.0000
# 4 0.0000 0.0000 0.0000 15.9835 0.0000 0.0000
# 5 0.0000 0.0000 0.0000 0.0000 14.3289 0.0000
# 6 0.0000 0.0000 0.0000 0.0000 0.0000 20.2833
#
#
#
# Elastic Compliance Matrix: (Units=1/GPa)
#
#
# Indices 1 2 3 4 5 6 
#
# 1 0.021369 -0.008111 0.000896 0.000000 0.000000 0.000000
# 2 -0.008111 0.013820 -0.006351 0.000000 0.000000 0.000000
# 3 0.000896 -0.006351 0.016571 0.000000 0.000000 0.000000
# 4 0.000000 0.000000 0.000000 0.062564 0.000000 0.000000
# 5 0.000000 0.000000 0.000000 0.000000 0.069789 0.000000
# 6 0.000000 0.000000 0.000000 0.000000 0.000000 0.049302
#
#
# Mechanical properties :
#
#
# Convention : Reuss Voigt Hill
#
# Bulk Modulus (GPa) = 40.60187 50.13676 45.36932
# Shear Modulus (GPa) = 18.60428 20.59981 19.60205
#
# Velocity S-wave (km/s) = 3.09054 3.25206 3.17233
# Velocity P-wave (km/s) = 5.79484 6.31200 6.05894
#
# Compressibility (1/GPa) = 0.02462941
#
# Stress axis : x y z
#
# Youngs Moduli (GPa) = 46.79646 72.35861 60.34758
#
# Poissons Ratio (x) = 0.58690 -0.05410
# Poissons Ratio (y) = 0.37957 0.38324
# Poissons Ratio (z) = -0.04195 0.45952
#
# Static dielectric constant tensor:
#      x y z
#    x 1.671870 0.000000 0.000000 
#    y 0.000000 1.664100 0.000000 
#    z 0.000000 0.000000 1.668830 
# 
# From -- ./inp_files/24582.got.cif
#   From: 2010.05.17/outbox.cif.g08.bks.cpg/sg57_13_cif.got.tgz:24582.got - 2010.06.03 13:58:18.
