data_PCOD9439971
_publ_section_title
;
Structure prediction by ZEFSAII (Michael W. Deem and Ramdas Pophale) SiO2 
 PCOD9439971
Probable space group: P B C M
;
_chemical_formula_sum "Si O2"
_cell_formula_units_Z 48
_cell_length_a 9.329151
_cell_length_b 8.120622
_cell_length_c 31.600520
_cell_angle_alpha 90.000000
_cell_angle_beta 90.000000
_cell_angle_gamma 90.000000
_cell_volume 2394.008274
_symmetry_space_group_name_H-M "P B C M"
_symmetry_group_IT_number 57
_symmetry_cell_setting 'orthorhombic'
loop_
_space_group_symop_operation_xyz
x,y,z
-x,-y,1/2+z
x,1/2-y,-z
-x,1/2+y,1/2-z
-x,-y,-z
x,y,1/2-z
-x,1/2+y,z
x,1/2-y,1/2+z
loop_
_atom_site_type_symbol
_atom_site_label
_atom_site_fract_x
_atom_site_fract_y
_atom_site_fract_z
Si Si1 0.195345 0.153866 0.656273
Si Si2 0.535375 0.059006 0.333680
Si Si3 0.031831 0.450859 0.799688
Si Si4 0.686914 0.145206 0.703961
Si Si5 0.640799 0.831714 0.913904
Si Si6 0.587731 0.382629 0.468716
O O1 0.122291 0.293752 0.684920
O O2 0.232027 0.231502 0.609925
O O3 0.352091 0.089868 0.669383
O O4 0.091232 0.999479 0.666854
O O5 0.626593 0.223143 0.328123
O O6 0.453393 0.080496 0.377562
O O7 0.410666 0.017169 0.300597
O O8 0.985831 0.435963 0.750000
O O9 0.149434 0.596834 0.801350
O O10 0.666754 0.220115 0.750000
O O11 0.530770 0.712782 0.939602
O O12 0.684716 0.988701 0.942584
O O13 0.660638 0.250000 0.500000
O O14 0.500000 0.500000 0.500000
#
# Coordination Sequence:
#
# PCOD9439971 Si02
#       6
#     8   8   8   8   8   8
#     4  12  24  40  64  86 125 169 218 274 319 370
#     4  12  21  37  60  90 123 157 210 279 325 362
#     4  11  25  43  58  82 124 176 232 269 308 368
#     4  11  22  36  55  83 121 166 217 268 323 368
#     4  11  19  37  62  97 131 152 200 258 314 384
#     4   9  19  35  62 100 137 158 183 243 330 399
#
# _framework density 20.050055
#
# number of rings (size 3 to 8) (size 9 to 14) (size 15 to 20)
#    0.000    1.000    5.000    2.000    0.000    5.333 
#    0.000    0.000    0.000    0.000    0.000   15.167 
#    0.000    0.000    0.000    0.000    0.000    0.000 
#
# Total GULP energy -267403.472736 kJ/mol
# GULP energy per Si atom -5570.905682 kJ/mol
# Density = 2.000442 g / cm^3
# Si number density = 20.050055 Si / 1000 Ang^3
#
#
#
# Elastic Constant Matrix: (Units=GPa)
#
#
# Indices 1 2 3 4 5 6 
#
# 1 80.8432 24.8259 28.7004 0.0000 0.0000 0.0000
# 2 24.8259 74.0306 20.0996 0.0000 0.0000 0.0000
# 3 28.7004 20.0996 75.5498 0.0000 0.0000 0.0000
# 4 0.0000 0.0000 0.0000 42.8855 0.0000 0.0000
# 5 0.0000 0.0000 0.0000 0.0000 21.1882 0.0000
# 6 0.0000 0.0000 0.0000 0.0000 0.0000 32.2297
#
#
#
# Elastic Compliance Matrix: (Units=1/GPa)
#
#
# Indices 1 2 3 4 5 6 
#
# 1 0.015235 -0.003813 -0.004773 0.000000 0.000000 0.000000
# 2 -0.003813 0.015514 -0.002679 0.000000 0.000000 0.000000
# 3 -0.004773 -0.002679 0.015762 0.000000 0.000000 0.000000
# 4 0.000000 0.000000 0.000000 0.023318 0.000000 0.000000
# 5 0.000000 0.000000 0.000000 0.000000 0.047196 0.000000
# 6 0.000000 0.000000 0.000000 0.000000 0.000000 0.031027
#
#
# Mechanical properties :
#
#
# Convention : Reuss Voigt Hill
#
# Bulk Modulus (GPa) = 41.69954 41.96393 41.83173
# Shear Modulus (GPa) = 27.99919 29.71386 28.85652
#
# Velocity S-wave (km/s) = 3.74098 3.85383 3.79783
# Velocity P-wave (km/s) = 6.28513 6.38574 6.33563
#
# Compressibility (1/GPa) = 0.02398108
#
# Stress axis : x y z
#
# Youngs Moduli (GPa) = 65.63780 64.45813 63.44269
#
# Poissons Ratio (x) = 0.24579 0.30282
# Poissons Ratio (y) = 0.25028 0.16995
# Poissons Ratio (z) = 0.31330 0.17267
#
# Static dielectric constant tensor:
#      x y z
#    x 1.720020 0.000000 0.000000 
#    y 0.000000 1.831660 0.000000 
#    z 0.000000 0.000000 1.752160 
# 
# From -- ./inp_files/29463.got.cif
#   From: 2010.05.17/outbox.cif.g08.bks.cpg/sg57_15_cif.got.tgz:29463.got - 2010.06.03 13:58:18.
