data_PCOD9439270
_publ_section_title
;
Structure prediction by ZEFSAII (Michael W. Deem and Ramdas Pophale) SiO2 
 PCOD9439270
Probable space group: P B C M
;
_chemical_formula_sum "Si O2"
_cell_formula_units_Z 64
_cell_length_a 9.641631
_cell_length_b 19.414080
_cell_length_c 19.931290
_cell_angle_alpha 90.000000
_cell_angle_beta 90.000000
_cell_angle_gamma 90.000000
_cell_volume 3730.806540
_symmetry_space_group_name_H-M "P B C M"
_symmetry_group_IT_number 57
_symmetry_cell_setting 'orthorhombic'
loop_
_space_group_symop_operation_xyz
x,y,z
-x,-y,1/2+z
x,1/2-y,-z
-x,1/2+y,1/2-z
-x,-y,-z
x,y,1/2-z
-x,1/2+y,z
x,1/2-y,1/2+z
loop_
_atom_site_type_symbol
_atom_site_label
_atom_site_fract_x
_atom_site_fract_y
_atom_site_fract_z
Si Si1 0.502505 0.627628 0.326156
Si Si2 0.683028 0.242035 0.673953
Si Si3 0.185477 0.324243 0.672042
Si Si4 0.355564 0.677395 0.962276
Si Si5 0.998049 0.197438 0.671758
Si Si6 0.868085 0.932883 0.938806
Si Si7 0.922517 0.091622 0.940748
Si Si8 0.452649 0.429955 0.534731
O O1 0.500780 0.599511 0.250000
O O2 0.376913 0.681295 0.333719
O O3 0.647663 0.669788 0.333626
O O4 0.502990 0.573966 0.386893
O O5 0.649115 0.219480 0.750000
O O6 0.617815 0.195692 0.615558
O O7 0.849263 0.236691 0.666178
O O8 0.149964 0.336167 0.750000
O O9 0.122683 0.382951 0.624856
O O10 0.120157 0.250614 0.653888
O O11 0.217689 0.630725 0.962616
O O12 0.333117 0.750000 0.000000
O O13 0.476051 0.634444 0.997833
O O14 0.013203 0.176940 0.750000
O O15 0.987617 0.134179 0.620787
O O16 0.712693 0.925370 0.966899
O O17 0.890408 0.012916 0.920931
O O18 0.975719 0.911597 0.995960
O O19 0.500000 0.500000 0.500000
#
# Coordination Sequence:
#
# PCOD9439270 Si02
#       8
#     8   8   8   8   8   8   8   8
#     4   9  18  34  55  79 107 141 180 222 269 328
#     4   9  18  33  53  81 108 137 180 226 268 319
#     4   9  19  34  54  80 108 141 178 220 273 328
#     4  11  21  35  58  85 109 146 184 226 282 327
#     4   9  19  35  56  82 109 141 181 229 275 319
#     4  10  22  37  54  79 111 148 185 221 278 328
#     4  10  22  37  54  80 110 146 184 230 272 329
#     4  11  21  38  56  80 113 147 182 233 278 330
#
# _framework density 17.154468999999999
#
# number of rings (size 3 to 8) (size 9 to 14) (size 15 to 20)
#    0.000    2.250    2.500    0.000    3.500    1.500 
#    0.000    0.625    0.000    0.750    0.000    0.000 
#    0.000    0.000    0.000    0.000    0.000    0.000 
#
# Total GULP energy -356818.697322 kJ/mol
# GULP energy per Si atom -5575.292146 kJ/mol
# Density = 1.711542 g / cm^3
# Si number density = 17.154469 Si / 1000 Ang^3
#
#
#
# Elastic Constant Matrix: (Units=GPa)
#
#
# Indices 1 2 3 4 5 6 
#
# 1 35.4676 38.9631 38.9318 0.0000 0.0000 0.0000
# 2 38.9631 103.8495 60.0477 0.0000 0.0000 0.0000
# 3 38.9318 60.0477 95.2211 0.0000 0.0000 0.0000
# 4 0.0000 0.0000 0.0000 34.3056 0.0000 0.0000
# 5 0.0000 0.0000 0.0000 0.0000 22.2361 0.0000
# 6 0.0000 0.0000 0.0000 0.0000 0.0000 27.3614
#
#
#
# Elastic Compliance Matrix: (Units=1/GPa)
#
#
# Indices 1 2 3 4 5 6 
#
# 1 0.060968 -0.013317 -0.016529 0.000000 0.000000 0.000000
# 2 -0.013317 0.018064 -0.005947 0.000000 0.000000 0.000000
# 3 -0.016529 -0.005947 0.021010 0.000000 0.000000 0.000000
# 4 0.000000 0.000000 0.000000 0.029150 0.000000 0.000000
# 5 0.000000 0.000000 0.000000 0.000000 0.044972 0.000000
# 6 0.000000 0.000000 0.000000 0.000000 0.000000 0.036548
#
#
# Mechanical properties :
#
#
# Convention : Reuss Voigt Hill
#
# Bulk Modulus (GPa) = 35.14184 56.71370 45.92777
# Shear Modulus (GPa) = 17.13605 23.22033 20.17819
#
# Velocity S-wave (km/s) = 3.16401 3.68312 3.43339
# Velocity P-wave (km/s) = 5.82048 7.15679 6.52294
#
# Compressibility (1/GPa) = 0.02845611
#
# Stress axis : x y z
#
# Youngs Moduli (GPa) = 16.40218 55.35806 47.59597
#
# Poissons Ratio (x) = 0.73719 0.78673
# Poissons Ratio (y) = 0.21842 0.28305
# Poissons Ratio (z) = 0.27112 0.32921
#
# Static dielectric constant tensor:
#      x y z
#    x 1.581040 0.000000 0.000000 
#    y 0.000000 1.556960 0.000000 
#    z 0.000000 0.000000 1.591600 
# 
# From -- ./inp_files/24589.got.cif
#   From: 2010.05.17/outbox.cif.g08.bks.cpg/sg57_13_cif.got.tgz:24589.got - 2010.06.03 13:58:18.
