data_PCOD9439749
_publ_section_title
;
Structure prediction by ZEFSAII (Michael W. Deem and Ramdas Pophale) SiO2 
 PCOD9439749
Probable space group: P B C M
;
_chemical_formula_sum "Si O2"
_cell_formula_units_Z 56
_cell_length_a 15.881449
_cell_length_b 8.185109
_cell_length_c 18.621320
_cell_angle_alpha 90.000000
_cell_angle_beta 90.000000
_cell_angle_gamma 90.000000
_cell_volume 2420.611292
_symmetry_space_group_name_H-M "P B C M"
_symmetry_group_IT_number 57
_symmetry_cell_setting 'orthorhombic'
loop_
_space_group_symop_operation_xyz
x,y,z
-x,-y,1/2+z
x,1/2-y,-z
-x,1/2+y,1/2-z
-x,-y,-z
x,y,1/2-z
-x,1/2+y,z
x,1/2-y,1/2+z
loop_
_atom_site_type_symbol
_atom_site_label
_atom_site_fract_x
_atom_site_fract_y
_atom_site_fract_z
Si Si1 0.042789 0.474197 0.250000
Si Si2 0.751095 0.698860 0.119108
Si Si3 0.931895 0.199769 0.113861
Si Si4 0.584350 0.201689 0.585689
Si Si5 0.096435 0.374333 0.065261
Si Si6 0.430313 0.136157 0.336514
Si Si7 0.867432 0.879818 0.750000
Si Si8 0.765820 0.148691 0.927463
O O1 0.070778 0.580909 0.318182
O O2 0.084895 0.296480 0.250000
O O3 0.940707 0.484469 0.250000
O O4 0.809856 0.850239 0.097304
O O5 0.656304 0.734106 0.144890
O O6 0.804691 0.618974 0.183367
O O7 0.751143 0.546203 0.063132
O O8 0.852575 0.316161 0.112015
O O9 0.018103 0.298548 0.109871
O O10 0.924102 0.063201 0.050513
O O11 0.574068 0.250000 0.500000
O O12 0.516554 0.281771 0.638297
O O13 0.681939 0.226136 0.607583
O O14 0.573363 0.012969 0.606909
O O15 0.097357 0.250000 0.000000
O O16 0.430184 0.099993 0.250000
O O17 0.771652 0.250000 0.000000
#
# Coordination Sequence:
#
# PCOD9439749 Si02
#       8
#     4   8   8   8   8   8   4   8
#     4  12  24  40  62  85 125 164 218 257 313 377
#     4  11  23  41  65  88 128 169 207 262 324 377
#     4  12  23  39  59  89 124 164 208 264 316 370
#     4  10  23  44  69  97 132 173 221 271 330 399
#     4  12  24  39  61  90 125 168 213 258 314 382
#     4  11  23  42  68  99 133 173 215 274 335 392
#     4  12  24  44  60  89 129 166 218 257 307 379
#     4  10  23  43  65  94 126 164 214 263 318 387
#
# _framework density 23.134651999999999
#
# number of rings (size 3 to 8) (size 9 to 14) (size 15 to 20)
#    0.000    0.857    3.571    3.429    2.000    1.714 
#    2.571    0.000    0.000    0.000    0.000    0.000 
#    0.000    0.000    0.000    0.000    0.000    0.000 
#
# Total GULP energy -312517.110592 kJ/mol
# GULP energy per Si atom -5580.662689 kJ/mol
# Density = 2.308200 g / cm^3
# Si number density = 23.134652 Si / 1000 Ang^3
#
#
#
# Elastic Constant Matrix: (Units=GPa)
#
#
# Indices 1 2 3 4 5 6 
#
# 1 159.7987 35.9894 46.0163 0.0000 0.0000 0.0000
# 2 35.9894 65.8346 -4.9646 0.0000 0.0000 0.0000
# 3 46.0163 -4.9646 45.0546 0.0000 0.0000 0.0000
# 4 0.0000 0.0000 0.0000 30.3320 0.0000 0.0000
# 5 0.0000 0.0000 0.0000 0.0000 26.4248 0.0000
# 6 0.0000 0.0000 0.0000 0.0000 0.0000 32.5519
#
#
#
# Elastic Compliance Matrix: (Units=1/GPa)
#
#
# Indices 1 2 3 4 5 6 
#
# 1 0.011497 -0.007231 -0.012539 0.000000 0.000000 0.000000
# 2 -0.007231 0.019864 0.009574 0.000000 0.000000 0.000000
# 3 -0.012539 0.009574 0.036057 0.000000 0.000000 0.000000
# 4 0.000000 0.000000 0.000000 0.032969 0.000000 0.000000
# 5 0.000000 0.000000 0.000000 0.000000 0.037843 0.000000
# 6 0.000000 0.000000 0.000000 0.000000 0.000000 0.030720
#
#
# Mechanical properties :
#
#
# Convention : Reuss Voigt Hill
#
# Bulk Modulus (GPa) = 21.26462 47.19667 34.23065
# Shear Modulus (GPa) = 24.38800 30.77151 27.57975
#
# Velocity S-wave (km/s) = 3.25033 3.65102 3.45648
# Velocity P-wave (km/s) = 4.82678 6.18210 5.54600
#
# Compressibility (1/GPa) = 0.04702647
#
# Stress axis : x y z
#
# Youngs Moduli (GPa) = 86.97726 50.34151 27.73360
#
# Poissons Ratio (x) = 0.36401 0.34776
# Poissons Ratio (y) = 0.62891 -0.26552
# Poissons Ratio (z) = 1.09065 -0.48197
#
# Static dielectric constant tensor:
#      x y z
#    x 1.904710 0.000000 0.000000 
#    y 0.000000 1.869610 0.000000 
#    z 0.000000 0.000000 2.029490 
# 
# From -- ./inp_files/25440.got.cif
#   From: 2010.05.17/outbox.cif.g08.bks.cpg/sg57_13_cif.got.tgz:25440.got - 2010.06.03 13:58:18.
