data_PCOD9439297
_publ_section_title
;
Structure prediction by ZEFSAII (Michael W. Deem and Ramdas Pophale) SiO2 
 PCOD9439297
Probable space group: P B C M
;
_chemical_formula_sum "Si O2"
_cell_formula_units_Z 48
_cell_length_a 12.385638
_cell_length_b 12.012007
_cell_length_c 14.556899
_cell_angle_alpha 90.000000
_cell_angle_beta 90.000000
_cell_angle_gamma 90.000000
_cell_volume 2165.722597
_symmetry_space_group_name_H-M "P B C M"
_symmetry_group_IT_number 57
_symmetry_cell_setting 'orthorhombic'
loop_
_space_group_symop_operation_xyz
x,y,z
-x,-y,1/2+z
x,1/2-y,-z
-x,1/2+y,1/2-z
-x,-y,-z
x,y,1/2-z
-x,1/2+y,z
x,1/2-y,1/2+z
loop_
_atom_site_type_symbol
_atom_site_label
_atom_site_fract_x
_atom_site_fract_y
_atom_site_fract_z
Si Si1 0.079610 0.079869 0.854937
Si Si2 0.214385 0.214464 0.393756
Si Si3 0.301276 0.971455 0.863320
Si Si4 0.569503 0.683208 0.905104
Si Si5 0.329026 0.779671 0.356569
Si Si6 0.158973 0.540338 0.638330
O O1 0.069329 0.040965 0.750000
O O2 0.120364 0.207348 0.854138
O O3 0.181095 0.010190 0.892135
O O4 0.961807 0.065779 0.897273
O O5 0.217509 0.250000 0.500000
O O6 0.331811 0.250666 0.355961
O O7 0.192218 0.085385 0.383659
O O8 0.310747 0.981919 0.750000
O O9 0.384217 0.058157 0.908807
O O10 0.322315 0.845707 0.893411
O O11 0.452412 0.681426 0.860743
O O12 0.554738 0.750000 0.000000
O O13 0.298185 0.766793 0.250000
O O14 0.246057 0.869840 0.395842
O O15 0.157688 0.547874 0.750000
#
# Coordination Sequence:
#
# PCOD9439297 Si02
#       6
#     8   8   8   8   8   8
#     4   9  19  37  62  87 116 156 201 250 301 351
#     4  10  22  40  59  86 121 161 203 248 299 361
#     4   9  19  37  61  88 120 156 197 248 302 351
#     4  10  22  40  59  85 119 161 201 242 297 362
#     4  10  22  38  59  91 123 154 200 252 300 354
#     4  10  22  38  63  92 119 155 203 251 298 360
#
# _framework density 22.163504
#
# number of rings (size 3 to 8) (size 9 to 14) (size 15 to 20)
#    0.000    2.333    0.000    1.000    4.667    3.333 
#    6.000    0.833    0.000    0.000    0.000    0.000 
#    0.000    0.000    0.000    0.000    0.000    0.000 
#
# Total GULP energy -268014.658583 kJ/mol
# GULP energy per Si atom -5583.638720 kJ/mol
# Density = 2.211306 g / cm^3
# Si number density = 22.163504 Si / 1000 Ang^3
#
#
#
# Elastic Constant Matrix: (Units=GPa)
#
#
# Indices 1 2 3 4 5 6 
#
# 1 166.7224 122.1423 11.1902 0.0000 0.0000 0.0000
# 2 122.1423 205.3166 -8.1935 0.0000 0.0000 0.0000
# 3 11.1902 -8.1935 47.6663 0.0000 0.0000 0.0000
# 4 0.0000 0.0000 0.0000 18.0506 0.0000 0.0000
# 5 0.0000 0.0000 0.0000 0.0000 17.1089 0.0000
# 6 0.0000 0.0000 0.0000 0.0000 0.0000 17.7068
#
#
#
# Elastic Compliance Matrix: (Units=1/GPa)
#
#
# Indices 1 2 3 4 5 6 
#
# 1 0.011286 -0.006867 -0.003830 0.000000 0.000000 0.000000
# 2 -0.006867 0.009082 0.003173 0.000000 0.000000 0.000000
# 3 -0.003830 0.003173 0.022424 0.000000 0.000000 0.000000
# 4 0.000000 0.000000 0.000000 0.055400 0.000000 0.000000
# 5 0.000000 0.000000 0.000000 0.000000 0.058449 0.000000
# 6 0.000000 0.000000 0.000000 0.000000 0.000000 0.056475
#
#
# Mechanical properties :
#
#
# Convention : Reuss Voigt Hill
#
# Bulk Modulus (GPa) = 36.04251 74.44259 55.24255
# Shear Modulus (GPa) = 21.06058 30.21102 25.63580
#
# Velocity S-wave (km/s) = 3.08594 3.69602 3.40467
# Velocity P-wave (km/s) = 5.38468 7.20242 6.35884
#
# Compressibility (1/GPa) = 0.02774501
#
# Stress axis : x y z
#
# Youngs Moduli (GPa) = 88.60886 110.10711 44.59566
#
# Poissons Ratio (x) = 0.75606 0.17079
# Poissons Ratio (y) = 0.60844 -0.14151
# Poissons Ratio (z) = 0.33935 -0.34939
#
# Static dielectric constant tensor:
#      x y z
#    x 1.810860 0.000000 0.000000 
#    y 0.000000 1.773610 0.000000 
#    z 0.000000 0.000000 1.922480 
# 
# From -- ./inp_files/21825.got.cif
#   From: 2010.05.17/outbox.cif.g08.bks.cpg/sg57_11_cif.got.tgz:21825.got - 2010.06.03 13:58:18.
