data_PCOD9439939
_publ_section_title
;
Structure prediction by ZEFSAII (Michael W. Deem and Ramdas Pophale) SiO2 
 PCOD9439939
Probable space group: P B C M
;
_chemical_formula_sum "Si O2"
_cell_formula_units_Z 40
_cell_length_a 18.239758
_cell_length_b 4.886321
_cell_length_c 17.365997
_cell_angle_alpha 90.000000
_cell_angle_beta 90.000000
_cell_angle_gamma 90.000000
_cell_volume 1547.749910
_symmetry_space_group_name_H-M "P B C M"
_symmetry_group_IT_number 57
_symmetry_cell_setting 'orthorhombic'
loop_
_space_group_symop_operation_xyz
x,y,z
-x,-y,1/2+z
x,1/2-y,-z
-x,1/2+y,1/2-z
-x,-y,-z
x,y,1/2-z
-x,1/2+y,z
x,1/2-y,1/2+z
loop_
_atom_site_type_symbol
_atom_site_label
_atom_site_fract_x
_atom_site_fract_y
_atom_site_fract_z
Si Si1 0.668935 0.635346 0.163982
Si Si2 0.047250 0.250663 0.407267
Si Si3 0.168935 0.864654 0.336018
Si Si4 0.250000 0.000000 0.946251
Si Si5 0.452750 0.749338 0.092733
O O1 0.649775 0.729595 0.250000
O O2 0.750000 0.500001 0.167730
O O3 0.613028 0.407837 0.133934
O O4 0.684165 0.881204 0.104769
O O5 0.056652 0.250000 0.500000
O O6 0.023167 0.557355 0.387182
O O7 0.113028 0.092163 0.366066
O O8 0.149775 0.770406 0.250000
O O9 0.184165 0.618795 0.395230
O O10 0.273522 0.750000 0.000000
O O11 0.226477 0.250000 0.000000
O O12 0.476834 0.442645 0.112818
O O13 0.443348 0.750000 0.000000
#
# Coordination Sequence:
#
# PCOD9439939 Si02
#       5
#     8   8   8   8   8
#     4  11  27  49  77 117 159 202 263 335 402 476
#     4  10  25  48  75 111 155 203 260 321 388 475
#     4  11  27  49  77 117 159 202 263 335 402 476
#     4  12  27  46  75 112 152 202 258 324 397 472
#     4  10  25  48  75 111 155 203 260 321 388 475
#
# _framework density 25.843966000000002
#
# number of rings (size 3 to 8) (size 9 to 14) (size 15 to 20)
#    0.000    1.200    2.000    0.600   11.200    3.200 
#    0.000    0.000    0.000    0.000    0.000    0.000 
#    0.000    0.000    0.000    0.000    0.000    0.000 
#
# Total GULP energy -224299.383900 kJ/mol
# GULP energy per Si atom -5607.484598 kJ/mol
# Density = 2.578514 g / cm^3
# Si number density = 25.843966 Si / 1000 Ang^3
#
#
#
# Elastic Constant Matrix: (Units=GPa)
#
#
# Indices 1 2 3 4 5 6 
#
# 1 153.4271 21.5125 44.2784 0.0000 0.0000 0.0000
# 2 21.5125 159.9883 63.3255 0.0000 0.0000 0.0000
# 3 44.2784 63.3255 171.8437 0.0000 0.0000 0.0000
# 4 0.0000 0.0000 0.0000 14.1565 0.0000 0.0000
# 5 0.0000 0.0000 0.0000 0.0000 15.5555 0.0000
# 6 0.0000 0.0000 0.0000 0.0000 0.0000 48.0284
#
#
#
# Elastic Compliance Matrix: (Units=1/GPa)
#
#
# Indices 1 2 3 4 5 6 
#
# 1 0.007051 -0.000268 -0.001718 0.000000 0.000000 0.000000
# 2 -0.000268 0.007328 -0.002631 0.000000 0.000000 0.000000
# 3 -0.001718 -0.002631 0.007232 0.000000 0.000000 0.000000
# 4 0.000000 0.000000 0.000000 0.070639 0.000000 0.000000
# 5 0.000000 0.000000 0.000000 0.000000 0.064286 0.000000
# 6 0.000000 0.000000 0.000000 0.000000 0.000000 0.020821
#
#
# Mechanical properties :
#
#
# Convention : Reuss Voigt Hill
#
# Bulk Modulus (GPa) = 80.80286 82.61022 81.70654
# Shear Modulus (GPa) = 26.21683 39.29090 32.75386
#
# Velocity S-wave (km/s) = 3.18846 3.90335 3.56388
# Velocity P-wave (km/s) = 6.69990 7.23528 6.97273
#
# Compressibility (1/GPa) = 0.01237580
#
# Stress axis : x y z
#
# Youngs Moduli (GPa) = 141.82044 136.46231 138.28207
#
# Poissons Ratio (x) = 0.03658 0.23758
# Poissons Ratio (y) = 0.03802 0.36387
# Poissons Ratio (z) = 0.24366 0.35908
#
# Static dielectric constant tensor:
#      x y z
#    x 2.146680 0.000000 0.000000 
#    y 0.000000 1.813570 0.000000 
#    z 0.000000 0.000000 1.992660 
# 
# From -- ./inp_files/22982.got.cif
#   From: 2010.05.17/outbox.cif.g08.bks.cpg/sg57_12_cif.got.tgz:22982.got - 2010.06.03 13:58:18.
