data_PCOD9439806
_publ_section_title
;
Structure prediction by ZEFSAII (Michael W. Deem and Ramdas Pophale) SiO2 
 PCOD9439806
Probable space group: P B C M
;
_chemical_formula_sum "Si O2"
_cell_formula_units_Z 28
_cell_length_a 14.533187
_cell_length_b 8.063059
_cell_length_c 10.310084
_cell_angle_alpha 90.000000
_cell_angle_beta 90.000000
_cell_angle_gamma 90.000000
_cell_volume 1208.155688
_symmetry_space_group_name_H-M "P B C M"
_symmetry_group_IT_number 57
_symmetry_cell_setting 'orthorhombic'
loop_
_space_group_symop_operation_xyz
x,y,z
-x,-y,1/2+z
x,1/2-y,-z
-x,1/2+y,1/2-z
-x,-y,-z
x,y,1/2-z
-x,1/2+y,z
x,1/2-y,1/2+z
loop_
_atom_site_type_symbol
_atom_site_label
_atom_site_fract_x
_atom_site_fract_y
_atom_site_fract_z
Si Si1 0.220554 0.934044 0.750000
Si Si2 0.781485 0.050985 0.750000
Si Si3 0.525960 0.357525 0.099762
Si Si4 0.893415 0.950049 0.498563
Si Si5 0.357609 0.241606 0.750000
O O1 0.251274 0.742239 0.750000
O O2 0.158087 0.975274 0.625585
O O3 0.302882 0.067871 0.750000
O O4 0.843790 0.023272 0.624082
O O5 0.709836 0.897117 0.750000
O O6 0.556159 0.395100 0.250000
O O7 0.429878 0.264689 0.132889
O O8 0.588767 0.250000 0.000000
O O9 0.500000 0.500000 0.000000
O O10 0.884636 0.750000 0.500000
O O11 0.000000 0.000000 0.500000
#
# Coordination Sequence:
#
# PCOD9439806 Si02
#       5
#     4   4   8   8   4
#     4  12  25  45  69 106 144 192 258 304 384 439
#     4  12  25  45  69 102 146 191 252 315 374 442
#     4  10  23  45  73 104 145 188 246 301 397 472
#     4  12  24  44  69 101 150 201 258 316 374 448
#     4  10  26  44  76 104 152 189 248 319 382 451
#
# _framework density 23.175822
#
# number of rings (size 3 to 8) (size 9 to 14) (size 15 to 20)
#    0.857    0.000    2.857    4.286    4.000    0.000 
#    5.143    0.000    0.000    0.000    0.000    0.000 
#    0.000    0.000    0.000    0.000    0.000    0.000 
#
# Total GULP energy -156202.220846 kJ/mol
# GULP energy per Si atom -5578.650744 kJ/mol
# Density = 2.312307 g / cm^3
# Si number density = 23.175822 Si / 1000 Ang^3
#
#
#
# Elastic Constant Matrix: (Units=GPa)
#
#
# Indices 1 2 3 4 5 6 
#
# 1 119.7690 48.8303 55.3143 0.0000 0.0000 0.0000
# 2 48.8303 196.3918 66.1035 0.0000 0.0000 0.0000
# 3 55.3143 66.1035 263.4608 0.0000 0.0000 0.0000
# 4 0.0000 0.0000 0.0000 58.7912 0.0000 0.0000
# 5 0.0000 0.0000 0.0000 0.0000 33.9839 0.0000
# 6 0.0000 0.0000 0.0000 0.0000 0.0000 53.5132
#
#
#
# Elastic Compliance Matrix: (Units=1/GPa)
#
#
# Indices 1 2 3 4 5 6 
#
# 1 0.009866 -0.001918 -0.001590 0.000000 0.000000 0.000000
# 2 -0.001918 0.005934 -0.001086 0.000000 0.000000 0.000000
# 3 -0.001590 -0.001086 0.004402 0.000000 0.000000 0.000000
# 4 0.000000 0.000000 0.000000 0.017009 0.000000 0.000000
# 5 0.000000 0.000000 0.000000 0.000000 0.029426 0.000000
# 6 0.000000 0.000000 0.000000 0.000000 0.000000 0.018687
#
#
# Mechanical properties :
#
#
# Convention : Reuss Voigt Hill
#
# Bulk Modulus (GPa) = 90.79661 102.23531 96.51596
# Shear Modulus (GPa) = 50.92494 56.54923 53.73708
#
# Velocity S-wave (km/s) = 4.69265 4.94500 4.82048
# Velocity P-wave (km/s) = 8.28394 8.76429 8.52750
#
# Compressibility (1/GPa) = 0.01101363
#
# Stress axis : x y z
#
# Youngs Moduli (GPa) = 101.36156 168.51115 227.16691
#
# Poissons Ratio (x) = 0.32316 0.36123
# Poissons Ratio (y) = 0.19439 0.24677
# Poissons Ratio (z) = 0.16118 0.18306
#
# Static dielectric constant tensor:
#      x y z
#    x 1.836320 0.000000 0.000000 
#    y 0.000000 2.226340 0.000000 
#    z 0.000000 0.000000 4.443230 
# 
# From -- ./inp_files/6170.got.cif
#   From: 2010.05.17/outbox.cif.g08.bks.cpg/sg57_4_cif.got.tgz:6170.got - 2010.06.03 13:58:18.
