data_PCOD9439045
_publ_section_title
;
Structure prediction by ZEFSAII (Michael W. Deem and Ramdas Pophale) SiO2 
 PCOD9439045
Probable space group: P B C M
;
_chemical_formula_sum "Si O2"
_cell_formula_units_Z 40
_cell_length_a 6.998546
_cell_length_b 14.881111
_cell_length_c 15.966885
_cell_angle_alpha 90.000000
_cell_angle_beta 90.000000
_cell_angle_gamma 90.000000
_cell_volume 1662.889438
_symmetry_space_group_name_H-M "P B C M"
_symmetry_group_IT_number 57
_symmetry_cell_setting 'orthorhombic'
loop_
_space_group_symop_operation_xyz
x,y,z
-x,-y,1/2+z
x,1/2-y,-z
-x,1/2+y,1/2-z
-x,-y,-z
x,y,1/2-z
-x,1/2+y,z
x,1/2-y,1/2+z
loop_
_atom_site_type_symbol
_atom_site_label
_atom_site_fract_x
_atom_site_fract_y
_atom_site_fract_z
Si Si1 0.322553 0.557432 0.750000
Si Si2 0.222699 0.259060 0.408850
Si Si3 0.714269 0.069502 0.571277
Si Si4 0.686875 0.069016 0.250000
Si Si5 0.481860 0.255026 0.750000
Si Si6 0.132804 0.750000 0.000000
Si Si7 0.741492 0.963082 0.411142
O O1 0.206477 0.555410 0.835796
O O2 0.473238 0.475638 0.750000
O O3 0.441327 0.652413 0.750000
O O4 0.323337 0.250000 0.500000
O O5 0.352194 0.228630 0.332389
O O6 0.178614 0.364256 0.395784
O O7 0.016987 0.215029 0.428562
O O8 0.748262 0.169414 0.538131
O O9 0.488372 0.052180 0.582625
O O10 0.791697 0.002735 0.501258
O O11 0.655645 0.175182 0.250000
O O12 0.777213 0.030294 0.334714
#
# Coordination Sequence:
#
# PCOD9439045 Si02
#       7
#     4   8   8   4   4   4   8
#     4  10  22  37  62  95 128 161 216 289 326 370
#     4  10  24  42  60  94 127 186 204 264 333 404
#     4  10  22  39  62  97 124 164 220 280 317 385
#     4  10  22  36  62 110 113 171 212 283 326 373
#     4  12  22  39  68  91 133 164 232 266 326 393
#     4  10  26  38  62  92 136 170 218 250 344 400
#     4  10  21  39  68  90 135 164 224 277 327 377
#
# _framework density 24.054514999999999
#
# number of rings (size 3 to 8) (size 9 to 14) (size 15 to 20)
#    0.600    1.200    4.000    0.000   12.600    1.600 
#    0.000    1.000    0.000    0.000    0.000    0.000 
#    0.000    0.000    0.000    0.000    0.000    0.000 
#
# Total GULP energy -223588.745326 kJ/mol
# GULP energy per Si atom -5589.718633 kJ/mol
# Density = 2.399977 g / cm^3
# Si number density = 24.054515 Si / 1000 Ang^3
#
#
#
# Elastic Constant Matrix: (Units=GPa)
#
#
# Indices 1 2 3 4 5 6 
#
# 1 75.7896 0.2750 25.9044 0.0000 0.0000 0.0000
# 2 0.2750 59.2701 30.2745 0.0000 0.0000 0.0000
# 3 25.9044 30.2745 205.8314 0.0000 0.0000 0.0000
# 4 0.0000 0.0000 0.0000 32.1641 0.0000 0.0000
# 5 0.0000 0.0000 0.0000 0.0000 -18.5756 0.0000
# 6 0.0000 0.0000 0.0000 0.0000 0.0000 14.3801
#
#
#
# Elastic Compliance Matrix: (Units=1/GPa)
#
#
# Indices 1 2 3 4 5 6 
#
# 1 0.013831 0.000892 -0.001872 0.000000 0.000000 0.000000
# 2 0.000892 0.018300 -0.002804 0.000000 0.000000 0.000000
# 3 -0.001872 -0.002804 0.005506 0.000000 0.000000 0.000000
# 4 0.000000 0.000000 0.000000 0.031091 0.000000 0.000000
# 5 0.000000 0.000000 0.000000 0.000000 -0.053834 0.000000
# 6 0.000000 0.000000 0.000000 0.000000 0.000000 0.069540
#
#
# Mechanical properties :
#
#
# Convention : Reuss Voigt Hill
#
# Bulk Modulus (GPa) = 33.25609 50.42209 41.83909
# Shear Modulus (GPa) = 49.00753 24.55619 36.78186
#
# Velocity S-wave (km/s) = 4.51860 3.19855 3.91462
# Velocity P-wave (km/s) = 6.40929 5.88626 6.15333
#
# Compressibility (1/GPa) = 0.03006968
#
# Stress axis : x y z
#
# Youngs Moduli (GPa) = 72.30145 54.64494 181.60922
#
# Poissons Ratio (x) = -0.04874 0.33995
# Poissons Ratio (y) = -0.06449 0.50921
# Poissons Ratio (z) = 0.13534 0.15322
#
# Static dielectric constant tensor:
#      x y z
#    x 1.960300 0.000000 0.000000 
#    y 0.000000 1.868520 0.000000 
#    z 0.000000 0.000000 1.973230 
# 
# From -- ./inp_files/16004.got.cif
#   From: 2010.05.17/outbox.cif.g08.bks.cpg/sg57_9_cif.got.tgz:16004.got - 2010.06.03 13:58:18.
