data_PCOD9439234
_publ_section_title
;
Structure prediction by ZEFSAII (Michael W. Deem and Ramdas Pophale) SiO2 
 PCOD9439234
Probable space group: P B C M
;
_chemical_formula_sum "Si O2"
_cell_formula_units_Z 40
_cell_length_a 12.300439
_cell_length_b 15.759965
_cell_length_c 8.537378
_cell_angle_alpha 90.000000
_cell_angle_beta 90.000000
_cell_angle_gamma 90.000000
_cell_volume 1655.009042
_symmetry_space_group_name_H-M "P B C M"
_symmetry_group_IT_number 57
_symmetry_cell_setting 'orthorhombic'
loop_
_space_group_symop_operation_xyz
x,y,z
-x,-y,1/2+z
x,1/2-y,-z
-x,1/2+y,1/2-z
-x,-y,-z
x,y,1/2-z
-x,1/2+y,z
x,1/2-y,1/2+z
loop_
_atom_site_type_symbol
_atom_site_label
_atom_site_fract_x
_atom_site_fract_y
_atom_site_fract_z
Si Si1 0.671748 0.007361 0.069038
Si Si2 0.902442 0.060761 0.935956
Si Si3 0.376470 0.283197 0.250000
Si Si4 0.980485 0.250000 0.000000
Si Si5 0.567777 0.163003 0.570679
Si Si6 0.153450 0.295277 0.750000
Si Si7 0.352344 0.407662 0.750000
O O1 0.661785 0.975457 0.250000
O O2 0.796100 0.033066 0.033148
O O3 0.599779 0.091114 0.048844
O O4 0.634915 0.957019 0.912147
O O5 0.891251 0.045848 0.750000
O O6 0.916723 0.164349 0.950584
O O7 0.000000 0.000000 0.000000
O O8 0.438892 0.324248 0.395439
O O9 0.246160 0.279419 0.250000
O O10 0.410733 0.183916 0.250000
O O11 0.069191 0.290346 0.886396
O O12 0.611210 0.250000 0.500000
O O13 0.610071 0.147184 0.750000
O O14 0.226726 0.377318 0.750000
#
# Coordination Sequence:
#
# PCOD9439234 Si02
#       7
#     8   8   4   4   8   4   4
#     4  12  25  45  79 114 159 215 264 327 408 499
#     4  12  27  47  75 114 167 217 275 339 405 493
#     4   8  23  41  79 103 153 195 254 338 397 465
#     4  12  26  46  70 116 152 216 276 320 416 500
#     4  10  21  43  72 108 143 198 262 321 391 479
#     4  10  24  43  74 107 155 199 266 330 402 486
#     4  10  21  50  75 110 158 204 254 336 411 475
#
# _framework density 24.169052000000001
#
# number of rings (size 3 to 8) (size 9 to 14) (size 15 to 20)
#    1.200    0.000    3.000    2.400    5.600    0.000 
#    1.800    3.000    0.000    0.000    0.000    0.000 
#    0.000    0.000    0.000    0.000    0.000    0.000 
#
# Total GULP energy -223074.245031 kJ/mol
# GULP energy per Si atom -5576.856126 kJ/mol
# Density = 2.411404 g / cm^3
# Si number density = 24.169052 Si / 1000 Ang^3
#
#
#
# Elastic Constant Matrix: (Units=GPa)
#
#
# Indices 1 2 3 4 5 6 
#
# 1 101.8204 40.6835 25.7541 0.0000 0.0000 0.0000
# 2 40.6835 146.4099 58.3807 0.0000 0.0000 0.0000
# 3 25.7541 58.3807 177.1948 0.0000 0.0000 0.0000
# 4 0.0000 0.0000 0.0000 -223.5785 0.0000 0.0000
# 5 0.0000 0.0000 0.0000 0.0000 47.5718 0.0000
# 6 0.0000 0.0000 0.0000 0.0000 0.0000 45.5802
#
#
#
# Elastic Compliance Matrix: (Units=1/GPa)
#
#
# Indices 1 2 3 4 5 6 
#
# 1 0.011120 -0.002815 -0.000689 0.000000 0.000000 0.000000
# 2 -0.002815 0.008576 -0.002416 0.000000 0.000000 0.000000
# 3 -0.000689 -0.002416 0.006540 0.000000 0.000000 0.000000
# 4 0.000000 0.000000 0.000000 -0.004473 0.000000 0.000000
# 5 0.000000 0.000000 0.000000 0.000000 0.021021 0.000000
# 6 0.000000 0.000000 0.000000 0.000000 0.000000 0.021939
#
#
# Mechanical properties :
#
#
# Convention : Reuss Voigt Hill
#
# Bulk Modulus (GPa) = 69.46782 75.00684 72.23733
# Shear Modulus (GPa) = 61.45310 -6.04485 27.70412
#
# Velocity S-wave (km/s) = 5.04793 -1.58319 3.38933
# Velocity P-wave (km/s) = 7.92340 5.26874 6.72829
#
# Compressibility (1/GPa) = 0.01439515
#
# Stress axis : x y z
#
# Youngs Moduli (GPa) = 89.92527 116.60457 152.91188
#
# Poissons Ratio (x) = 0.32829 0.10530
# Poissons Ratio (y) = 0.25318 0.36949
# Poissons Ratio (z) = 0.06193 0.28176
#
# Static dielectric constant tensor:
#      x y z
#    x 1.905950 0.000000 0.000000 
#    y 0.000000 1.994770 0.000000 
#    z 0.000000 0.000000 1.917230 
# 
# From -- ./inp_files/4425.got.cif
#   From: 2010.05.17/outbox.cif.g08.bks.cpg/sg57_3_cif.got.tgz:4425.got - 2010.06.03 13:58:18.
