data_PCOD9439545
_publ_section_title
;
Structure prediction by ZEFSAII (Michael W. Deem and Ramdas Pophale) SiO2 
 PCOD9439545
Probable space group: P B C M
;
_chemical_formula_sum "Si O2"
_cell_formula_units_Z 32
_cell_length_a 11.009231
_cell_length_b 12.589426
_cell_length_c 9.920057
_cell_angle_alpha 90.000000
_cell_angle_beta 90.000000
_cell_angle_gamma 90.000000
_cell_volume 1374.918898
_symmetry_space_group_name_H-M "P B C M"
_symmetry_group_IT_number 57
_symmetry_cell_setting 'orthorhombic'
loop_
_space_group_symop_operation_xyz
x,y,z
-x,-y,1/2+z
x,1/2-y,-z
-x,1/2+y,1/2-z
-x,-y,-z
x,y,1/2-z
-x,1/2+y,z
x,1/2-y,1/2+z
loop_
_atom_site_type_symbol
_atom_site_label
_atom_site_fract_x
_atom_site_fract_y
_atom_site_fract_z
Si Si1 0.987699 0.750000 0.000000
Si Si2 0.529819 0.121000 0.250000
Si Si3 0.137205 0.713208 0.750000
Si Si4 0.581930 0.750000 0.000000
Si Si5 0.790575 0.588139 0.003587
Si Si6 0.316975 0.539643 0.750000
Si Si7 0.191904 0.953122 0.750000
O O1 0.893660 0.834924 0.938153
O O2 0.067586 0.810792 0.111185
O O3 0.494213 0.192815 0.381107
O O4 0.450701 0.011324 0.250000
O O5 0.666194 0.079925 0.250000
O O6 0.271506 0.661284 0.750000
O O7 0.132030 0.839589 0.750000
O O8 0.676200 0.658864 0.951216
O O9 0.839028 0.520895 0.880060
O O10 0.742284 0.511577 0.118322
#
# Coordination Sequence:
#
# PCOD9439545 Si02
#       7
#     4   4   4   4   8   4   4
#     4  11  24  43  66  90 122 163 206 265 320 364
#     4  10  23  41  66  93 128 169 205 260 316 358
#     4  12  26  39  60  95 128 161 206 258 314 372
#     4   9  20  41  68  94 120 161 214 259 304 372
#     4  10  22  42  66  91 121 164 214 253 308 383
#     4  10  23  42  63  94 129 162 209 258 310 378
#     4  12  26  40  61  94 127 166 210 254 312 376
#
# _framework density 23.274100000000001
#
# number of rings (size 3 to 8) (size 9 to 14) (size 15 to 20)
#    0.000    1.500    0.000    3.750    0.000   19.000 
#    0.000    0.000    0.000    0.000    0.000    0.000 
#    0.000    0.000    0.000    0.000    0.000    0.000 
#
# Total GULP energy -178838.898509 kJ/mol
# GULP energy per Si atom -5588.715578 kJ/mol
# Density = 2.322113 g / cm^3
# Si number density = 23.274100 Si / 1000 Ang^3
#
#
#
# Elastic Constant Matrix: (Units=GPa)
#
#
# Indices 1 2 3 4 5 6 
#
# 1 80.6459 10.0686 7.6741 0.0000 0.0000 0.0000
# 2 10.0686 80.2756 0.7130 0.0000 0.0000 0.0000
# 3 7.6741 0.7130 68.9488 0.0000 0.0000 0.0000
# 4 0.0000 0.0000 0.0000 34.8933 0.0000 0.0000
# 5 0.0000 0.0000 0.0000 0.0000 -21.3771 0.0000
# 6 0.0000 0.0000 0.0000 0.0000 0.0000 19.5832
#
#
#
# Elastic Compliance Matrix: (Units=1/GPa)
#
#
# Indices 1 2 3 4 5 6 
#
# 1 0.012731 -0.001584 -0.001401 0.000000 0.000000 0.000000
# 2 -0.001584 0.012655 0.000045 0.000000 0.000000 0.000000
# 3 -0.001401 0.000045 0.014659 0.000000 0.000000 0.000000
# 4 0.000000 0.000000 0.000000 0.028659 0.000000 0.000000
# 5 0.000000 0.000000 0.000000 0.000000 -0.046779 0.000000
# 6 0.000000 0.000000 0.000000 0.000000 0.000000 0.051064
#
#
# Mechanical properties :
#
#
# Convention : Reuss Voigt Hill
#
# Bulk Modulus (GPa) = 29.26856 29.64242 29.45549
# Shear Modulus (GPa) = 55.39728 20.71417 38.05572
#
# Velocity S-wave (km/s) = 4.88403 2.98654 4.04804
# Velocity P-wave (km/s) = 6.66393 4.96552 5.87641
#
# Compressibility (1/GPa) = 0.03416635
#
# Stress axis : x y z
#
# Youngs Moduli (GPa) = 78.54864 79.01765 68.21779
#
# Poissons Ratio (x) = 0.12519 0.09555
# Poissons Ratio (y) = 0.12445 -0.00310
# Poissons Ratio (z) = 0.11001 -0.00359
#
# Static dielectric constant tensor:
#      x y z
#    x 1.842100 0.000000 0.000000 
#    y 0.000000 1.888110 0.000000 
#    z 0.000000 0.000000 2.355170 
# 
# From -- ./inp_files/2479.got.cif
#   From: 2010.05.17/outbox.cif.g08.bks.cpg/sg57_2_cif.got.tgz:2479.got - 2010.06.03 13:58:18.
