data_PCOD9439547
_publ_section_title
;
Structure prediction by ZEFSAII (Michael W. Deem and Ramdas Pophale) SiO2 
 PCOD9439547
Probable space group: P B C M
;
_chemical_formula_sum "Si O2"
_cell_formula_units_Z 60
_cell_length_a 16.666111
_cell_length_b 8.935970
_cell_length_c 19.973065
_cell_angle_alpha 90.000000
_cell_angle_beta 90.000000
_cell_angle_gamma 90.000000
_cell_volume 2974.545986
_symmetry_space_group_name_H-M "P B C M"
_symmetry_group_IT_number 57
_symmetry_cell_setting 'orthorhombic'
loop_
_space_group_symop_operation_xyz
x,y,z
-x,-y,1/2+z
x,1/2-y,-z
-x,1/2+y,1/2-z
-x,-y,-z
x,y,1/2-z
-x,1/2+y,z
x,1/2-y,1/2+z
loop_
_atom_site_type_symbol
_atom_site_label
_atom_site_fract_x
_atom_site_fract_y
_atom_site_fract_z
Si Si1 0.048287 0.212123 0.250000
Si Si2 0.278957 0.160767 0.931358
Si Si3 0.604293 0.693470 0.170523
Si Si4 0.144560 0.657530 0.564261
Si Si5 0.005517 0.553196 0.646845
Si Si6 0.437297 0.848761 0.170309
Si Si7 0.682716 0.309702 0.572170
Si Si8 0.894181 0.899501 0.469536
O O1 0.050089 0.343189 0.192061
O O2 0.035072 0.084445 0.309070
O O3 0.320580 0.250551 0.871706
O O4 0.183099 0.148859 0.926477
O O5 0.308547 0.988498 0.931273
O O6 0.297823 0.250000 0.000000
O O7 0.620083 0.701645 0.250000
O O8 0.528155 0.799349 0.155086
O O9 0.580287 0.522275 0.154542
O O10 0.115899 0.750000 0.500000
O O11 0.230317 0.729399 0.582336
O O12 0.144544 0.493269 0.530743
O O13 0.083791 0.649033 0.625228
O O14 0.957808 0.518607 0.578095
O O15 0.425901 0.827816 0.250000
O O16 0.377026 0.744712 0.129279
O O17 0.653994 0.250000 0.500000
O O18 0.931428 0.750000 0.500000
#
# Coordination Sequence:
#
# PCOD9439547 Si02
#       8
#     4   8   8   8   8   8   8   8
#     4  10  24  40  58  86 130 162 204 268 304 382
#     4  11  23  40  63  94 131 163 206 268 324 373
#     4  10  22  42  66  94 127 169 212 256 306 381
#     4  11  21  39  64  91 119 160 212 268 314 373
#     4  11  22  42  61  89 123 169 212 257 318 368
#     4  10  22  42  67  95 129 168 216 255 307 380
#     4  11  22  40  62  95 129 161 209 266 322 375
#     4  11  22  38  64  92 120 160 212 267 314 374
#
# _framework density 20.171146
#
# number of rings (size 3 to 8) (size 9 to 14) (size 15 to 20)
#    0.000    1.333    2.667    4.000    1.867    2.133 
#    4.800    2.667    0.000    0.000    0.000    0.000 
#    0.000    0.000    0.000    0.000    0.000    0.000 
#
# Total GULP energy -334009.473789 kJ/mol
# GULP energy per Si atom -5566.824563 kJ/mol
# Density = 2.012524 g / cm^3
# Si number density = 20.171146 Si / 1000 Ang^3
#
#
#
# Elastic Constant Matrix: (Units=GPa)
#
#
# Indices 1 2 3 4 5 6 
#
# 1 70.2957 -4.8860 20.5025 0.0000 0.0000 0.0000
# 2 -4.8860 58.4273 -0.9375 0.0000 0.0000 0.0000
# 3 20.5025 -0.9375 43.9479 0.0000 0.0000 0.0000
# 4 0.0000 0.0000 0.0000 42.8626 0.0000 0.0000
# 5 0.0000 0.0000 0.0000 0.0000 5.3415 0.0000
# 6 0.0000 0.0000 0.0000 0.0000 0.0000 20.7625
#
#
#
# Elastic Compliance Matrix: (Units=1/GPa)
#
#
# Indices 1 2 3 4 5 6 
#
# 1 0.016558 0.001261 -0.007698 0.000000 0.000000 0.000000
# 2 0.001261 0.017217 -0.000221 0.000000 0.000000 0.000000
# 3 -0.007698 -0.000221 0.026341 0.000000 0.000000 0.000000
# 4 0.000000 0.000000 0.000000 0.023330 0.000000 0.000000
# 5 0.000000 0.000000 0.000000 0.000000 0.187212 0.000000
# 6 0.000000 0.000000 0.000000 0.000000 0.000000 0.048164
#
#
# Mechanical properties :
#
#
# Convention : Reuss Voigt Hill
#
# Bulk Modulus (GPa) = 21.36716 22.44763 21.90739
# Shear Modulus (GPa) = 14.37861 24.32611 19.35236
#
# Velocity S-wave (km/s) = 2.67279 3.47650 3.10079
# Velocity P-wave (km/s) = 4.48787 5.22183 4.86870
#
# Compressibility (1/GPa) = 0.04680080
#
# Stress axis : x y z
#
# Youngs Moduli (GPa) = 60.39208 58.08139 37.96407
#
# Poissons Ratio (x) = -0.07325 0.29224
# Poissons Ratio (y) = -0.07617 0.00839
# Poissons Ratio (z) = 0.46489 0.01284
#
# Static dielectric constant tensor:
#      x y z
#    x 1.718910 0.000000 0.000000 
#    y 0.000000 1.780000 0.000000 
#    z 0.000000 0.000000 1.702620 
# 
# From -- ./inp_files/22879.got.cif
#   From: 2010.05.17/outbox.cif.g08.bks.cpg/sg57_12_cif.got.tgz:22879.got - 2010.06.03 13:58:18.
