data_PCOD9439266
_publ_section_title
;
Structure prediction by ZEFSAII (Michael W. Deem and Ramdas Pophale) SiO2 
 PCOD9439266
Probable space group: P B C M
;
_chemical_formula_sum "Si O2"
_cell_formula_units_Z 48
_cell_length_a 32.654016
_cell_length_b 9.272081
_cell_length_c 8.104338
_cell_angle_alpha 90.000000
_cell_angle_beta 90.000000
_cell_angle_gamma 90.000000
_cell_volume 2453.755938
_symmetry_space_group_name_H-M "P B C M"
_symmetry_group_IT_number 57
_symmetry_cell_setting 'orthorhombic'
loop_
_space_group_symop_operation_xyz
x,y,z
-x,-y,1/2+z
x,1/2-y,-z
-x,1/2+y,1/2-z
-x,-y,-z
x,y,1/2-z
-x,1/2+y,z
x,1/2-y,1/2+z
loop_
_atom_site_type_symbol
_atom_site_label
_atom_site_fract_x
_atom_site_fract_y
_atom_site_fract_z
Si Si1 0.879709 0.417431 0.949780
Si Si2 0.621004 0.584119 0.550385
Si Si3 0.540595 0.084239 0.446794
Si Si4 0.959547 0.584873 0.553181
Si Si5 0.209386 0.582069 0.051156
Si Si6 0.701468 0.082539 0.449596
O O1 0.879768 0.422011 0.750000
O O2 0.918331 0.507946 0.012168
O O3 0.834912 0.474032 0.007071
O O4 0.883824 0.250000 0.000000
O O5 0.618507 0.750000 0.500000
O O6 0.621136 0.577382 0.750000
O O7 0.581394 0.495899 0.489451
O O8 0.662995 0.509892 0.490598
O O9 0.539361 0.250000 0.500000
O O10 0.542265 0.080635 0.250000
O O11 0.500000 0.000000 0.500000
O O12 0.961684 0.750000 0.500000
O O13 0.957703 0.579775 0.750000
O O14 0.000000 0.500000 0.500000
O O15 0.209412 0.572522 0.250000
O O16 0.253715 0.526541 0.992659
O O17 0.209334 0.750000 0.000000
O O18 0.697060 0.250000 0.500000
O O19 0.701472 0.078357 0.250000
#
# Coordination Sequence:
#
# PCOD9439266 Si02
#       6
#     8   8   8   8   8   8
#     4   9  18  32  52  77 103 133 168 208 254 304
#     4  10  22  37  53  76 106 140 176 215 259 307
#     4  11  23  39  59  83 110 140 176 217 263 313
#     4  11  23  38  55  76 103 135 172 213 259 309
#     4   8  14  27  48  73 101 131 165 206 251 300
#     4   9  17  31  52  77 103 133 171 213 256 303
#
# _framework density 19.561848000000001
#
# number of rings (size 3 to 8) (size 9 to 14) (size 15 to 20)
#    0.000    2.333    0.000    2.500    0.000    6.000 
#    0.000    0.833    0.000    0.000    0.000    0.000 
#    0.000    0.000    0.000    0.000    0.000    0.000 
#
# Total GULP energy -267751.922313 kJ/mol
# GULP energy per Si atom -5578.165048 kJ/mol
# Density = 1.951732 g / cm^3
# Si number density = 19.561848 Si / 1000 Ang^3
#
#
#
# Elastic Constant Matrix: (Units=GPa)
#
#
# Indices 1 2 3 4 5 6 
#
# 1 258.1229 115.2064 21.5536 0.0000 0.0000 0.0000
# 2 115.2064 129.8086 6.9275 0.0000 0.0000 0.0000
# 3 21.5536 6.9275 18.8216 0.0000 0.0000 0.0000
# 4 0.0000 0.0000 0.0000 29.0566 0.0000 0.0000
# 5 0.0000 0.0000 0.0000 0.0000 18.0084 0.0000
# 6 0.0000 0.0000 0.0000 0.0000 0.0000 33.1633
#
#
#
# Elastic Compliance Matrix: (Units=1/GPa)
#
#
# Indices 1 2 3 4 5 6 
#
# 1 0.006992 -0.005894 -0.005838 0.000000 0.000000 0.000000
# 2 -0.005894 0.012827 0.002029 0.000000 0.000000 0.000000
# 3 -0.005838 0.002029 0.059069 0.000000 0.000000 0.000000
# 4 0.000000 0.000000 0.000000 0.034416 0.000000 0.000000
# 5 0.000000 0.000000 0.000000 0.000000 0.055530 0.000000
# 6 0.000000 0.000000 0.000000 0.000000 0.000000 0.030154
#
#
# Mechanical properties :
#
#
# Convention : Reuss Voigt Hill
#
# Bulk Modulus (GPa) = 16.81198 77.12533 46.96866
# Shear Modulus (GPa) = 20.98895 33.58337 27.28616
#
# Velocity S-wave (km/s) = 3.27915 4.14790 3.73884
# Velocity P-wave (km/s) = 4.79062 7.90266 6.53460
#
# Compressibility (1/GPa) = 0.05948140
#
# Stress axis : x y z
#
# Youngs Moduli (GPa) = 143.01431 77.96338 16.92935
#
# Poissons Ratio (x) = 0.45953 0.09883
# Poissons Ratio (y) = 0.84295 -0.03435
# Poissons Ratio (z) = 0.83489 -0.15817
#
# Static dielectric constant tensor:
#      x y z
#    x 1.748430 0.000000 0.000000 
#    y 0.000000 1.618610 0.000000 
#    z 0.000000 0.000000 1.702840 
# 
# From -- ./inp_files/9925.got.cif
#   From: 2010.05.17/outbox.cif.g08.bks.cpg/sg57_5_cif.got.tgz:9925.got - 2010.06.03 13:58:18.
