data_PCOD9439611
_publ_section_title
;
Structure prediction by ZEFSAII (Michael W. Deem and Ramdas Pophale) SiO2 
 PCOD9439611
Probable space group: P B C M
;
_chemical_formula_sum "Si O2"
_cell_formula_units_Z 40
_cell_length_a 12.356683
_cell_length_b 7.893977
_cell_length_c 17.522709
_cell_angle_alpha 90.000000
_cell_angle_beta 90.000000
_cell_angle_gamma 90.000000
_cell_volume 1709.224112
_symmetry_space_group_name_H-M "P B C M"
_symmetry_group_IT_number 57
_symmetry_cell_setting 'orthorhombic'
loop_
_space_group_symop_operation_xyz
x,y,z
-x,-y,1/2+z
x,1/2-y,-z
-x,1/2+y,1/2-z
-x,-y,-z
x,y,1/2-z
-x,1/2+y,z
x,1/2-y,1/2+z
loop_
_atom_site_type_symbol
_atom_site_label
_atom_site_fract_x
_atom_site_fract_y
_atom_site_fract_z
Si Si1 0.841552 0.608725 0.896159
Si Si2 0.965458 0.558525 0.338436
Si Si3 0.373399 0.604701 0.839523
Si Si4 0.817058 0.077469 0.952720
Si Si5 0.384590 0.010278 0.838133
O O1 0.898628 0.775916 0.863452
O O2 0.714419 0.601706 0.878733
O O3 0.906435 0.456784 0.853191
O O4 0.848413 0.563712 0.985186
O O5 0.944919 0.525133 0.250000
O O6 0.915540 0.416067 0.393792
O O7 0.355841 0.552772 0.750000
O O8 0.286473 0.538580 0.900178
O O9 0.367020 0.808708 0.842121
O O10 0.494052 0.551444 0.863915
O O11 0.800474 0.250000 0.000000
O O12 0.380845 0.064295 0.750000
#
# Coordination Sequence:
#
# PCOD9439611 Si02
#       5
#     8   8   8   8   8
#     4  12  26  47  73 107 146 189 242 301 369 427
#     4  12  27  48  76 106 142 192 247 301 360 435
#     4  10  23  44  72 104 144 193 243 297 357 430
#     4  12  25  47  71 106 148 193 235 299 364 430
#     4  10  22  43  71 104 144 191 244 296 353 428
#
# _framework density 23.402432000000001
#
# number of rings (size 3 to 8) (size 9 to 14) (size 15 to 20)
#    0.000    0.800    2.000    4.800    2.800    0.800 
#    0.000    0.000    0.000    0.000    0.000    0.000 
#    0.000    0.000    0.000    0.000    0.000    0.000 
#
# Total GULP energy -223786.899608 kJ/mol
# GULP energy per Si atom -5594.672490 kJ/mol
# Density = 2.334917 g / cm^3
# Si number density = 23.402432 Si / 1000 Ang^3
#
#
#
# Elastic Constant Matrix: (Units=GPa)
#
#
# Indices 1 2 3 4 5 6 
#
# 1 120.5680 2.0255 62.7603 0.0000 0.0000 0.0000
# 2 2.0255 57.5477 9.1046 0.0000 0.0000 0.0000
# 3 62.7603 9.1046 145.3503 0.0000 0.0000 0.0000
# 4 0.0000 0.0000 0.0000 51.0732 0.0000 0.0000
# 5 0.0000 0.0000 0.0000 0.0000 325.3356 0.0000
# 6 0.0000 0.0000 0.0000 0.0000 0.0000 28.9134
#
#
#
# Elastic Compliance Matrix: (Units=1/GPa)
#
#
# Indices 1 2 3 4 5 6 
#
# 1 0.010706 0.000358 -0.004645 0.000000 0.000000 0.000000
# 2 0.000358 0.017563 -0.001255 0.000000 0.000000 0.000000
# 3 -0.004645 -0.001255 0.008964 0.000000 0.000000 0.000000
# 4 0.000000 0.000000 0.000000 0.019580 0.000000 0.000000
# 5 0.000000 0.000000 0.000000 0.000000 0.003074 0.000000
# 6 0.000000 0.000000 0.000000 0.000000 0.000000 0.034586
#
#
# Mechanical properties :
#
#
# Convention : Reuss Voigt Hill
#
# Bulk Modulus (GPa) = 38.24165 52.36074 45.30120
# Shear Modulus (GPa) = 43.75497 97.70282 70.72889
#
# Velocity S-wave (km/s) = 4.32867 6.46836 5.50350
# Velocity P-wave (km/s) = 6.43114 8.84357 7.73202
#
# Compressibility (1/GPa) = 0.02614950
#
# Stress axis : x y z
#
# Youngs Moduli (GPa) = 93.40527 56.93849 111.55437
#
# Poissons Ratio (x) = -0.02039 0.51819
# Poissons Ratio (y) = -0.03345 0.13997
# Poissons Ratio (z) = 0.43388 0.07144
#
# Static dielectric constant tensor:
#      x y z
#    x 1.887330 0.000000 0.000000 
#    y 0.000000 2.005360 0.000000 
#    z 0.000000 0.000000 1.845350 
# 
# From -- ./inp_files/21630.got.cif
#   From: 2010.05.17/outbox.cif.g08.bks.cpg/sg57_11_cif.got.tgz:21630.got - 2010.06.03 13:58:18.
