data_PCOD9439826
_publ_section_title
;
Structure prediction by ZEFSAII (Michael W. Deem and Ramdas Pophale) SiO2 
 PCOD9439826
Probable space group: P B C M
;
_chemical_formula_sum "Si O2"
_cell_formula_units_Z 56
_cell_length_a 11.537031
_cell_length_b 11.400594
_cell_length_c 20.731681
_cell_angle_alpha 90.000000
_cell_angle_beta 90.000000
_cell_angle_gamma 90.000000
_cell_volume 2726.817403
_symmetry_space_group_name_H-M "P B C M"
_symmetry_group_IT_number 57
_symmetry_cell_setting 'orthorhombic'
loop_
_space_group_symop_operation_xyz
x,y,z
-x,-y,1/2+z
x,1/2-y,-z
-x,1/2+y,1/2-z
-x,-y,-z
x,y,1/2-z
-x,1/2+y,z
x,1/2-y,1/2+z
loop_
_atom_site_type_symbol
_atom_site_label
_atom_site_fract_x
_atom_site_fract_y
_atom_site_fract_z
Si Si1 0.693738 0.432464 0.630897
Si Si2 0.701562 0.194972 0.931648
Si Si3 0.847675 0.596527 0.939737
Si Si4 0.783847 0.649098 0.083665
Si Si5 0.453865 0.020912 0.427020
Si Si6 0.042795 0.804731 0.250000
Si Si7 0.136150 0.969222 0.750000
Si Si8 0.903992 0.069318 0.619925
O O1 0.705514 0.295703 0.620388
O O2 0.752188 0.497865 0.570486
O O3 0.557808 0.458482 0.622980
O O4 0.775347 0.467961 0.689792
O O5 0.825908 0.133266 0.933833
O O6 0.611292 0.098209 0.910303
O O7 0.668254 0.250000 0.000000
O O8 0.806530 0.715073 0.903390
O O9 0.968367 0.557664 0.909068
O O10 0.848016 0.624228 0.015421
O O11 0.647620 0.619389 0.075416
O O12 0.844746 0.557157 0.131717
O O13 0.500000 0.000000 0.500000
O O14 0.059268 0.657249 0.250000
O O15 0.098189 0.849829 0.183226
O O16 0.933659 0.904765 0.250000
#
# Coordination Sequence:
#
# PCOD9439826 Si02
#       8
#     8   8   8   8   8   4   4   8
#     4  12  24  42  69  96 134 178 239 279 347 409
#     4  11  23  39  68 102 137 179 223 283 357 421
#     4  11  23  38  66  99 141 173 218 288 347 430
#     4  10  24  40  62 102 136 176 219 278 359 414
#     4  11  22  41  66  96 132 175 224 279 335 412
#     4  12  26  46  75  91 143 181 238 284 342 428
#     4  12  28  50  71 107 133 197 236 298 350 422
#     4  11  24  41  63 100 133 177 227 283 351 414
#
# _framework density 20.536763000000001
#
# number of rings (size 3 to 8) (size 9 to 14) (size 15 to 20)
#    0.000    0.857    5.714    1.286    8.000    0.000 
#    0.000    3.571    0.000    0.000    0.000    0.000 
#    0.000    0.000    0.000    0.000    0.000    0.000 
#
# Total GULP energy -312160.497972 kJ/mol
# GULP energy per Si atom -5574.294607 kJ/mol
# Density = 2.049002 g / cm^3
# Si number density = 20.536763 Si / 1000 Ang^3
#
#
#
# Elastic Constant Matrix: (Units=GPa)
#
#
# Indices 1 2 3 4 5 6 
#
# 1 142.5356 50.1694 17.8271 0.0000 0.0000 0.0000
# 2 50.1694 76.2539 -0.7169 0.0000 0.0000 0.0000
# 3 17.8271 -0.7169 50.3681 0.0000 0.0000 0.0000
# 4 0.0000 0.0000 0.0000 26.8661 0.0000 0.0000
# 5 0.0000 0.0000 0.0000 0.0000 22.3004 0.0000
# 6 0.0000 0.0000 0.0000 0.0000 0.0000 17.9447
#
#
#
# Elastic Compliance Matrix: (Units=1/GPa)
#
#
# Indices 1 2 3 4 5 6 
#
# 1 0.009720 -0.006428 -0.003532 0.000000 0.000000 0.000000
# 2 -0.006428 0.017367 0.002522 0.000000 0.000000 0.000000
# 3 -0.003532 0.002522 0.021140 0.000000 0.000000 0.000000
# 4 0.000000 0.000000 0.000000 0.037222 0.000000 0.000000
# 5 0.000000 0.000000 0.000000 0.000000 0.044842 0.000000
# 6 0.000000 0.000000 0.000000 0.000000 0.000000 0.055727
#
#
# Mechanical properties :
#
#
# Convention : Reuss Voigt Hill
#
# Bulk Modulus (GPa) = 29.98357 44.85744 37.42050
# Shear Modulus (GPa) = 23.58377 26.88079 25.23228
#
# Velocity S-wave (km/s) = 3.39243 3.62181 3.50900
# Velocity P-wave (km/s) = 5.47508 6.27534 5.88882
#
# Compressibility (1/GPa) = 0.03335160
#
# Stress axis : x y z
#
# Youngs Moduli (GPa) = 102.87896 57.57988 47.30419
#
# Poissons Ratio (x) = 0.37014 0.16707
# Poissons Ratio (y) = 0.66134 -0.11932
# Poissons Ratio (z) = 0.36335 -0.14524
#
# Static dielectric constant tensor:
#      x y z
#    x 1.806030 0.000000 0.000000 
#    y 0.000000 1.789730 0.000000 
#    z 0.000000 0.000000 1.750840 
# 
# From -- ./inp_files/25067.got.cif
#   From: 2010.05.17/outbox.cif.g08.bks.cpg/sg57_13_cif.got.tgz:25067.got - 2010.06.03 13:58:18.
