data_PCOD9439055
_publ_section_title
;
Structure prediction by ZEFSAII (Michael W. Deem and Ramdas Pophale) SiO2 
 PCOD9439055
Probable space group: P B C M
;
_chemical_formula_sum "Si O2"
_cell_formula_units_Z 64
_cell_length_a 7.819919
_cell_length_b 13.927183
_cell_length_c 24.273017
_cell_angle_alpha 90.000000
_cell_angle_beta 90.000000
_cell_angle_gamma 90.000000
_cell_volume 2643.560760
_symmetry_space_group_name_H-M "P B C M"
_symmetry_group_IT_number 57
_symmetry_cell_setting 'orthorhombic'
loop_
_space_group_symop_operation_xyz
x,y,z
-x,-y,1/2+z
x,1/2-y,-z
-x,1/2+y,1/2-z
-x,-y,-z
x,y,1/2-z
-x,1/2+y,z
x,1/2-y,1/2+z
loop_
_atom_site_type_symbol
_atom_site_label
_atom_site_fract_x
_atom_site_fract_y
_atom_site_fract_z
Si Si1 0.439417 0.127871 0.685106
Si Si2 0.575689 0.505199 0.409663
Si Si3 0.943653 0.844481 0.339459
Si Si4 0.923487 0.070472 0.312432
Si Si5 0.950583 0.582520 0.424192
Si Si6 0.519227 0.139292 0.504000
Si Si7 0.711150 0.232497 0.188060
Si Si8 0.876950 0.882147 0.459755
O O1 0.462620 0.098102 0.750000
O O2 0.482537 0.039397 0.643441
O O3 0.248936 0.172117 0.681762
O O4 0.563979 0.209246 0.658309
O O5 0.759544 0.553969 0.405181
O O6 0.624944 0.418323 0.451212
O O7 0.468937 0.581782 0.446350
O O8 0.933255 0.828220 0.405045
O O9 0.109320 0.790382 0.316643
O O10 0.956608 0.958704 0.323732
O O11 0.984630 0.091953 0.250000
O O12 0.736108 0.118576 0.315372
O O13 0.989384 0.123852 0.366674
O O14 0.951361 0.642395 0.480341
O O15 0.065298 0.490410 0.442582
O O16 0.561381 0.250000 0.500000
O O17 0.325547 0.127585 0.528449
O O18 0.650848 0.246709 0.250000
#
# Coordination Sequence:
#
# PCOD9439055 Si02
#       8
#     8   8   8   8   8   8   8   8
#     4  11  22  40  66  96 128 174 225 270 333 401
#     4  10  21  40  60  89 128 164 215 275 331 399
#     4  11  21  40  69  92 127 181 214 268 342 402
#     4  10  21  40  65  95 130 173 224 273 333 400
#     4   9  19  36  63  91 119 166 207 265 335 385
#     4  10  21  40  63  86 122 172 213 267 336 396
#     4  10  23  42  63  95 138 175 223 286 331 393
#     4   9  18  36  60  86 121 155 214 262 320 398
#
# _framework density 24.209771
#
# number of rings (size 3 to 8) (size 9 to 14) (size 15 to 20)
#    0.000    2.000    1.250    2.625    0.000    3.500 
#    2.250    1.875    0.000    3.000    0.000    0.000 
#    0.000    0.000    0.000    0.000    0.000    0.000 
#
# Total GULP energy -356345.631624 kJ/mol
# GULP energy per Si atom -5567.900494 kJ/mol
# Density = 2.415467 g / cm^3
# Si number density = 24.209771 Si / 1000 Ang^3
#
#
#
# Elastic Constant Matrix: (Units=GPa)
#
#
# Indices 1 2 3 4 5 6 
#
# 1 22.7224 -5.6783 0.1912 0.0000 0.0000 0.0000
# 2 -5.6783 83.9545 11.3010 0.0000 0.0000 0.0000
# 3 0.1912 11.3010 160.2151 0.0000 0.0000 0.0000
# 4 0.0000 0.0000 0.0000 26.1813 0.0000 0.0000
# 5 0.0000 0.0000 0.0000 0.0000 9.7960 0.0000
# 6 0.0000 0.0000 0.0000 0.0000 0.0000 9.9965
#
#
#
# Elastic Compliance Matrix: (Units=1/GPa)
#
#
# Indices 1 2 3 4 5 6 
#
# 1 0.044778 0.003065 -0.000270 0.000000 0.000000 0.000000
# 2 0.003065 0.012235 -0.000867 0.000000 0.000000 0.000000
# 3 -0.000270 -0.000867 0.006303 0.000000 0.000000 0.000000
# 4 0.000000 0.000000 0.000000 0.038195 0.000000 0.000000
# 5 0.000000 0.000000 0.000000 0.000000 0.102083 0.000000
# 6 0.000000 0.000000 0.000000 0.000000 0.000000 0.100035
#
#
# Mechanical properties :
#
#
# Convention : Reuss Voigt Hill
#
# Bulk Modulus (GPa) = 14.88697 30.94666 22.91682
# Shear Modulus (GPa) = 15.52014 26.59997 21.06005
#
# Velocity S-wave (km/s) = 2.53468 3.31830 2.95260
# Velocity P-wave (km/s) = 3.83779 5.24328 4.59460
#
# Compressibility (1/GPa) = 0.06717285
#
# Stress axis : x y z
#
# Youngs Moduli (GPa) = 22.33262 81.73157 158.65301
#
# Poissons Ratio (x) = -0.25049 0.04278
# Poissons Ratio (y) = -0.06845 0.13750
# Poissons Ratio (z) = 0.00602 0.07084
#
# Static dielectric constant tensor:
#      x y z
#    x 1.981250 0.000000 0.000000 
#    y 0.000000 3.370170 0.000000 
#    z 0.000000 0.000000 1.955100 
# 
# From -- ./inp_files/26905.got.cif
#   From: 2010.05.17/outbox.cif.g08.bks.cpg/sg57_14_cif.got.tgz:26905.got - 2010.06.03 13:58:18.
