data_PCOD9439836
_publ_section_title
;
Structure prediction by ZEFSAII (Michael W. Deem and Ramdas Pophale) SiO2 
 PCOD9439836
Probable space group: P B C M
;
_chemical_formula_sum "Si O2"
_cell_formula_units_Z 40
_cell_length_a 4.847137
_cell_length_b 19.249548
_cell_length_c 16.538141
_cell_angle_alpha 90.000000
_cell_angle_beta 90.000000
_cell_angle_gamma 90.000000
_cell_volume 1543.094493
_symmetry_space_group_name_H-M "P B C M"
_symmetry_group_IT_number 57
_symmetry_cell_setting 'orthorhombic'
loop_
_space_group_symop_operation_xyz
x,y,z
-x,-y,1/2+z
x,1/2-y,-z
-x,1/2+y,1/2-z
-x,-y,-z
x,y,1/2-z
-x,1/2+y,z
x,1/2-y,1/2+z
loop_
_atom_site_type_symbol
_atom_site_label
_atom_site_fract_x
_atom_site_fract_y
_atom_site_fract_z
Si Si1 0.933569 0.086325 0.574732
Si Si2 0.910577 0.895593 0.250000
Si Si3 0.848587 0.125157 0.154179
Si Si4 0.332816 0.057552 0.431053
Si Si5 0.353613 0.735589 0.913957
Si Si6 0.565481 0.192811 0.750000
O O1 0.795748 0.161832 0.576089
O O2 0.030091 0.069436 0.665409
O O3 0.185722 0.087887 0.511827
O O4 0.718027 0.024577 0.557608
O O5 0.587707 0.880073 0.250000
O O6 0.109004 0.825978 0.250000
O O7 0.784944 0.130601 0.250000
O O8 0.628689 0.081529 0.100721
O O9 0.843177 0.200752 0.111317
O O10 0.137185 0.088069 0.139735
O O11 0.529795 0.728886 0.832219
O O12 0.492743 0.750000 0.000000
#
# Coordination Sequence:
#
# PCOD9439836 Si02
#       6
#     8   4   8   8   8   4
#     4  10  25  48  76 111 147 197 248 301 368 446
#     4  10  24  40  70  98 146 182 237 294 351 428
#     4  12  27  49  75 110 149 194 247 307 373 440
#     4  11  27  49  77 108 151 192 250 304 370 443
#     4  11  23  48  73 105 146 195 240 308 365 437
#     4  10  24  44  64 104 138 184 241 292 353 434
#
# _framework density 25.921941
#
# number of rings (size 3 to 8) (size 9 to 14) (size 15 to 20)
#    0.000    1.200    3.000    0.600    5.600    9.600 
#    0.000    0.000    0.000    0.000    0.000    0.000 
#    0.000    0.000    0.000    0.000    0.000    0.000 
#
# Total GULP energy -223885.422536 kJ/mol
# GULP energy per Si atom -5597.135563 kJ/mol
# Density = 2.586294 g / cm^3
# Si number density = 25.921941 Si / 1000 Ang^3
#
#
#
# Elastic Constant Matrix: (Units=GPa)
#
#
# Indices 1 2 3 4 5 6 
#
# 1 74.1120 14.7267 0.5669 0.0000 0.0000 0.0000
# 2 14.7267 134.3516 30.7353 0.0000 0.0000 0.0000
# 3 0.5669 30.7353 241.7926 0.0000 0.0000 0.0000
# 4 0.0000 0.0000 0.0000 43.4501 0.0000 0.0000
# 5 0.0000 0.0000 0.0000 0.0000 20.0972 0.0000
# 6 0.0000 0.0000 0.0000 0.0000 0.0000 18.7293
#
#
#
# Elastic Compliance Matrix: (Units=1/GPa)
#
#
# Indices 1 2 3 4 5 6 
#
# 1 0.013800 -0.001550 0.000165 0.000000 0.000000 0.000000
# 2 -0.001550 0.007840 -0.000993 0.000000 0.000000 0.000000
# 3 0.000165 -0.000993 0.004262 0.000000 0.000000 0.000000
# 4 0.000000 0.000000 0.000000 0.023015 0.000000 0.000000
# 5 0.000000 0.000000 0.000000 0.000000 0.049758 0.000000
# 6 0.000000 0.000000 0.000000 0.000000 0.000000 0.053392
#
#
# Mechanical properties :
#
#
# Convention : Reuss Voigt Hill
#
# Bulk Modulus (GPa) = 47.29344 60.25710 53.77527
# Shear Modulus (GPa) = 30.51156 43.40383 36.95770
#
# Velocity S-wave (km/s) = 3.43455 4.09639 3.77998
# Velocity P-wave (km/s) = 5.83201 6.75795 6.31198
#
# Compressibility (1/GPa) = 0.02114458
#
# Stress axis : x y z
#
# Youngs Moduli (GPa) = 72.46436 127.54696 234.65307
#
# Poissons Ratio (x) = 0.19774 -0.03865
# Poissons Ratio (y) = 0.11234 0.23300
# Poissons Ratio (z) = -0.01194 0.12665
#
# Static dielectric constant tensor:
#      x y z
#    x 1.968340 0.000000 0.000000 
#    y 0.000000 2.076710 0.000000 
#    z 0.000000 0.000000 2.119480 
# 
# From -- ./inp_files/20137.got.cif
#   From: 2010.05.17/outbox.cif.g08.bks.cpg/sg57_11_cif.got.tgz:20137.got - 2010.06.03 13:58:18.
