data_PCOD9439432
_publ_section_title
;
Structure prediction by ZEFSAII (Michael W. Deem and Ramdas Pophale) SiO2 
 PCOD9439432
Probable space group: P B C M
;
_chemical_formula_sum "Si O2"
_cell_formula_units_Z 40
_cell_length_a 24.338496
_cell_length_b 8.696278
_cell_length_c 9.457375
_cell_angle_alpha 90.000000
_cell_angle_beta 90.000000
_cell_angle_gamma 90.000000
_cell_volume 2001.694344
_symmetry_space_group_name_H-M "P B C M"
_symmetry_group_IT_number 57
_symmetry_cell_setting 'orthorhombic'
loop_
_space_group_symop_operation_xyz
x,y,z
-x,-y,1/2+z
x,1/2-y,-z
-x,1/2+y,1/2-z
-x,-y,-z
x,y,1/2-z
-x,1/2+y,z
x,1/2-y,1/2+z
loop_
_atom_site_type_symbol
_atom_site_label
_atom_site_fract_x
_atom_site_fract_y
_atom_site_fract_z
Si Si1 0.377968 0.067503 0.022312
Si Si2 0.838145 0.411351 0.917783
Si Si3 0.576153 0.076247 0.250000
Si Si4 0.952499 0.591052 0.917801
Si Si5 0.265684 0.590364 0.914915
Si Si6 0.458016 0.933258 0.250000
O O1 0.319566 0.014712 0.082441
O O2 0.428593 0.015017 0.118970
O O3 0.379551 0.250000 0.000000
O O4 0.387316 0.968985 0.882308
O O5 0.826927 0.392593 0.750000
O O6 0.894356 0.504556 0.929525
O O7 0.845970 0.250000 0.000000
O O8 0.785705 0.482152 0.999835
O O9 0.556443 0.252588 0.250000
O O10 0.522308 0.967851 0.250000
O O11 0.965289 0.608989 0.750000
O O12 0.947411 0.750000 0.000000
O O13 0.000000 0.500000 0.000000
O O14 0.252223 0.619626 0.750000
O O15 0.276784 0.750000 0.000000
#
# Coordination Sequence:
#
# PCOD9439432 Si02
#       6
#     8   8   4   8   8   4
#     4  12  26  43  64  97 130 167 213 265 323 384
#     4  10  22  40  64  96 130 170 218 265 321 384
#     4  12  26  42  74  90 132 168 207 268 315 392
#     4  11  24  41  64  95 131 175 222 276 333 395
#     4  11  23  41  66  94 127 168 216 263 321 387
#     4  12  24  48  64 100 124 168 215 256 327 386
#
# _framework density 19.983070000000001
#
# number of rings (size 3 to 8) (size 9 to 14) (size 15 to 20)
#    0.000    0.800    1.000    7.800    2.800    5.600 
#    0.000    2.000    0.000    0.000    0.000    0.000 
#    0.000    0.000    0.000    0.000    0.000    0.000 
#
# Total GULP energy -223562.694560 kJ/mol
# GULP energy per Si atom -5589.067364 kJ/mol
# Density = 1.993759 g / cm^3
# Si number density = 19.983070 Si / 1000 Ang^3
#
#
#
# Elastic Constant Matrix: (Units=GPa)
#
#
# Indices 1 2 3 4 5 6 
#
# 1 118.9212 33.2521 52.4996 0.0000 0.0000 0.0000
# 2 33.2521 102.2335 31.8516 0.0000 0.0000 0.0000
# 3 52.4996 31.8516 167.3373 0.0000 0.0000 0.0000
# 4 0.0000 0.0000 0.0000 19.3214 0.0000 0.0000
# 5 0.0000 0.0000 0.0000 0.0000 44.1014 0.0000
# 6 0.0000 0.0000 0.0000 0.0000 0.0000 31.3287
#
#
#
# Elastic Compliance Matrix: (Units=1/GPa)
#
#
# Indices 1 2 3 4 5 6 
#
# 1 0.010328 -0.002498 -0.002765 0.000000 0.000000 0.000000
# 2 -0.002498 0.011002 -0.001311 0.000000 0.000000 0.000000
# 3 -0.002765 -0.001311 0.007093 0.000000 0.000000 0.000000
# 4 0.000000 0.000000 0.000000 0.051756 0.000000 0.000000
# 5 0.000000 0.000000 0.000000 0.000000 0.022675 0.000000
# 6 0.000000 0.000000 0.000000 0.000000 0.000000 0.031920
#
#
# Mechanical properties :
#
#
# Convention : Reuss Voigt Hill
#
# Bulk Modulus (GPa) = 65.45928 69.29983 67.37955
# Shear Modulus (GPa) = 32.67714 37.00956 34.84335
#
# Velocity S-wave (km/s) = 4.04820 4.30821 4.18023
# Velocity P-wave (km/s) = 7.39453 7.71376 7.55583
#
# Compressibility (1/GPa) = 0.01527667
#
# Stress axis : x y z
#
# Youngs Moduli (GPa) = 96.82501 90.89029 140.98765
#
# Poissons Ratio (x) = 0.22703 0.38980
# Poissons Ratio (y) = 0.24185 0.18477
# Poissons Ratio (z) = 0.26770 0.11912
#
# Static dielectric constant tensor:
#      x y z
#    x 1.698730 0.000000 0.000000 
#    y 0.000000 1.698630 0.000000 
#    z 0.000000 0.000000 1.665440 
# 
# From -- ./inp_files/9005.got.cif
#   From: 2010.05.17/outbox.cif.g08.bks.cpg/sg57_5_cif.got.tgz:9005.got - 2010.06.03 13:58:18.
