data_PCOD9439141
_publ_section_title
;
Structure prediction by ZEFSAII (Michael W. Deem and Ramdas Pophale) SiO2 
 PCOD9439141
Probable space group: P B C M
;
_chemical_formula_sum "Si O2"
_cell_formula_units_Z 56
_cell_length_a 13.163344
_cell_length_b 10.721850
_cell_length_c 18.136341
_cell_angle_alpha 90.000000
_cell_angle_beta 90.000000
_cell_angle_gamma 90.000000
_cell_volume 2559.679739
_symmetry_space_group_name_H-M "P B C M"
_symmetry_group_IT_number 57
_symmetry_cell_setting 'orthorhombic'
loop_
_space_group_symop_operation_xyz
x,y,z
-x,-y,1/2+z
x,1/2-y,-z
-x,1/2+y,1/2-z
-x,-y,-z
x,y,1/2-z
-x,1/2+y,z
x,1/2-y,1/2+z
loop_
_atom_site_type_symbol
_atom_site_label
_atom_site_fract_x
_atom_site_fract_y
_atom_site_fract_z
Si Si1 0.622744 0.466017 0.337130
Si Si2 0.919479 0.105197 0.163680
Si Si3 0.725429 0.659692 0.059565
Si Si4 0.392792 0.980208 0.832750
Si Si5 0.063973 0.113129 0.035192
Si Si6 0.805663 0.649587 0.830013
Si Si7 0.723597 0.227621 0.087237
O O1 0.645171 0.481426 0.250000
O O2 0.654788 0.584238 0.386330
O O3 0.501073 0.456324 0.345007
O O4 0.682887 0.349976 0.371000
O O5 0.924486 0.139179 0.250000
O O6 0.022427 0.119289 0.118762
O O7 0.829707 0.182246 0.123278
O O8 0.886383 0.959955 0.159765
O O9 0.795655 0.751000 0.107283
O O10 0.816416 0.577966 0.024487
O O11 0.673235 0.750000 0.000000
O O12 0.395426 0.920551 0.750000
O O13 0.358937 0.879680 0.892977
O O14 0.303431 0.080723 0.830479
O O15 0.043399 0.250000 0.000000
O O16 0.000000 0.000000 0.000000
O O17 0.821448 0.708056 0.750000
O O18 0.732427 0.250000 0.000000
#
# Coordination Sequence:
#
# PCOD9439141 Si02
#       7
#     8   8   8   8   8   8   8
#     4  11  25  42  64  96 132 171 219 273 325 383
#     4  10  21  40  68  94 125 169 217 265 324 403
#     4  11  25  40  63  93 129 166 212 270 322 393
#     4   9  21  41  65  89 127 175 215 261 325 393
#     4  11  25  44  68  95 131 170 213 267 339 398
#     4   9  19  40  64  88 124 170 211 255 322 390
#     4  11  24  39  65  95 131 168 219 272 324 390
#
# _framework density 21.877737
#
# number of rings (size 3 to 8) (size 9 to 14) (size 15 to 20)
#    0.000    1.714    0.000    4.714   10.000    2.286 
#    0.000    0.714    0.000    0.000    0.000    0.000 
#    0.000    0.000    0.000    0.000    0.000    0.000 
#
# Total GULP energy -312911.844900 kJ/mol
# GULP energy per Si atom -5587.711516 kJ/mol
# Density = 2.182794 g / cm^3
# Si number density = 21.877737 Si / 1000 Ang^3
#
#
#
# Elastic Constant Matrix: (Units=GPa)
#
#
# Indices 1 2 3 4 5 6 
#
# 1 28.0943 -6.0916 -14.1236 0.0000 0.0000 0.0000
# 2 -6.0916 37.3920 5.2520 0.0000 0.0000 0.0000
# 3 -14.1236 5.2520 76.5947 0.0000 0.0000 0.0000
# 4 0.0000 0.0000 0.0000 33.8514 0.0000 0.0000
# 5 0.0000 0.0000 0.0000 0.0000 30.0960 0.0000
# 6 0.0000 0.0000 0.0000 0.0000 0.0000 4.8648
#
#
#
# Elastic Compliance Matrix: (Units=1/GPa)
#
#
# Indices 1 2 3 4 5 6 
#
# 1 0.040353 0.005583 0.007058 0.000000 0.000000 0.000000
# 2 0.005583 0.027776 -0.000875 0.000000 0.000000 0.000000
# 3 0.007058 -0.000875 0.014417 0.000000 0.000000 0.000000
# 4 0.000000 0.000000 0.000000 0.029541 0.000000 0.000000
# 5 0.000000 0.000000 0.000000 0.000000 0.033227 0.000000
# 6 0.000000 0.000000 0.000000 0.000000 0.000000 0.205558
#
#
# Mechanical properties :
#
#
# Convention : Reuss Voigt Hill
#
# Bulk Modulus (GPa) = 9.42707 12.46163 10.94435
# Shear Modulus (GPa) = 13.78549 24.23205 19.00877
#
# Velocity S-wave (km/s) = 2.51293 3.33169 2.95085
# Velocity P-wave (km/s) = 3.56905 4.52864 4.07718
#
# Compressibility (1/GPa) = 0.10607747
#
# Stress axis : x y z
#
# Youngs Moduli (GPa) = 24.78122 36.00217 69.36158
#
# Poissons Ratio (x) = -0.20099 -0.48956
# Poissons Ratio (y) = -0.13834 0.06070
# Poissons Ratio (z) = -0.17491 0.03151
#
# Static dielectric constant tensor:
#      x y z
#    x 1.792170 0.000000 0.000000 
#    y 0.000000 1.837200 0.000000 
#    z 0.000000 0.000000 1.881850 
# 
# From -- ./inp_files/18510.got.cif
#   From: 2010.05.17/outbox.cif.g08.bks.cpg/sg57_10_cif.got.tgz:18510.got - 2010.06.03 13:58:18.
