data_PCOD9439600
_publ_section_title
;
Structure prediction by ZEFSAII (Michael W. Deem and Ramdas Pophale) SiO2 
 PCOD9439600
Probable space group: P B C M
;
_chemical_formula_sum "Si O2"
_cell_formula_units_Z 28
_cell_length_a 9.757986
_cell_length_b 13.770283
_cell_length_c 8.814586
_cell_angle_alpha 90.000000
_cell_angle_beta 90.000000
_cell_angle_gamma 90.000000
_cell_volume 1184.417937
_symmetry_space_group_name_H-M "P B C M"
_symmetry_group_IT_number 57
_symmetry_cell_setting 'orthorhombic'
loop_
_space_group_symop_operation_xyz
x,y,z
-x,-y,1/2+z
x,1/2-y,-z
-x,1/2+y,1/2-z
-x,-y,-z
x,y,1/2-z
-x,1/2+y,z
x,1/2-y,1/2+z
loop_
_atom_site_type_symbol
_atom_site_label
_atom_site_fract_x
_atom_site_fract_y
_atom_site_fract_z
Si Si1 0.936960 0.095581 0.579884
Si Si2 0.343789 0.888465 0.923080
Si Si3 0.155628 0.250000 0.500000
Si Si4 0.624398 0.878637 0.076333
O O1 0.894768 0.069065 0.750000
O O2 0.805528 0.132788 0.488266
O O3 0.050563 0.180139 0.587041
O O4 0.000000 0.000000 0.500000
O O5 0.358348 0.854230 0.750000
O O6 0.354322 0.006003 0.922728
O O7 0.469918 0.856489 0.027189
O O8 0.269307 0.168423 0.457357
O O9 0.652355 0.845411 0.250000
#
# Coordination Sequence:
#
# PCOD9439600 Si02
#       4
#     8   8   4   8
#     4  12  26  46  72 106 146 192 243 301 365 431
#     4  10  22  44  71 102 139 185 235 293 361 426
#     4  12  26  44  70 104 146 188 238 298 356 434
#     4  10  22  43  69 102 138 182 238 293 354 425
#
# _framework density 23.640305999999999
#
# number of rings (size 3 to 8) (size 9 to 14) (size 15 to 20)
#    0.000    1.143    2.857    2.571    0.000    9.143 
#    0.000    0.000    0.000    0.000    0.000    0.000 
#    0.000    0.000    0.000    0.000    0.000    0.000 
#
# Total GULP energy -156271.121258 kJ/mol
# GULP energy per Si atom -5581.111473 kJ/mol
# Density = 2.358650 g / cm^3
# Si number density = 23.640306 Si / 1000 Ang^3
#
#
#
# Elastic Constant Matrix: (Units=GPa)
#
#
# Indices 1 2 3 4 5 6 
#
# 1 191.5274 21.2376 40.0619 0.0000 0.0000 0.0000
# 2 21.2376 95.2046 39.7763 0.0000 0.0000 0.0000
# 3 40.0619 39.7763 102.4522 0.0000 0.0000 0.0000
# 4 0.0000 0.0000 0.0000 16.9484 0.0000 0.0000
# 5 0.0000 0.0000 0.0000 0.0000 14.6095 0.0000
# 6 0.0000 0.0000 0.0000 0.0000 0.0000 34.9127
#
#
#
# Elastic Compliance Matrix: (Units=1/GPa)
#
#
# Indices 1 2 3 4 5 6 
#
# 1 0.005699 -0.000406 -0.002071 0.000000 0.000000 0.000000
# 2 -0.000406 0.012566 -0.004720 0.000000 0.000000 0.000000
# 3 -0.002071 -0.004720 0.012403 0.000000 0.000000 0.000000
# 4 0.000000 0.000000 0.000000 0.059003 0.000000 0.000000
# 5 0.000000 0.000000 0.000000 0.000000 0.068449 0.000000
# 6 0.000000 0.000000 0.000000 0.000000 0.000000 0.028643
#
#
# Mechanical properties :
#
#
# Convention : Reuss Voigt Hill
#
# Bulk Modulus (GPa) = 61.44571 65.70396 63.57484
# Shear Modulus (GPa) = 24.20347 32.50133 28.35240
#
# Velocity S-wave (km/s) = 3.20319 3.71189 3.46688
# Velocity P-wave (km/s) = 6.30309 6.79885 6.55566
#
# Compressibility (1/GPa) = 0.01627453
#
# Stress axis : x y z
#
# Youngs Moduli (GPa) = 175.45691 79.57804 80.62599
#
# Poissons Ratio (x) = 0.03232 0.16697
# Poissons Ratio (y) = 0.07126 0.38055
# Poissons Ratio (z) = 0.36336 0.37560
#
# Static dielectric constant tensor:
#      x y z
#    x 1.851920 0.000000 0.000000 
#    y 0.000000 1.953300 0.000000 
#    z 0.000000 0.000000 1.856330 
# 
# From -- ./inp_files/1107.got.cif
#   From: 2010.05.17/outbox.cif.g08.bks.cpg/sg57_1_cif.got.tgz:1107.got - 2010.06.03 13:58:18.
