data_PCOD9439230
_publ_section_title
;
Structure prediction by ZEFSAII (Michael W. Deem and Ramdas Pophale) SiO2 
 PCOD9439230
Probable space group: P B C M
;
_chemical_formula_sum "Si O2"
_cell_formula_units_Z 40
_cell_length_a 4.952382
_cell_length_b 30.101266
_cell_length_c 13.198248
_cell_angle_alpha 90.000000
_cell_angle_beta 90.000000
_cell_angle_gamma 90.000000
_cell_volume 1967.502001
_symmetry_space_group_name_H-M "P B C M"
_symmetry_group_IT_number 57
_symmetry_cell_setting 'orthorhombic'
loop_
_space_group_symop_operation_xyz
x,y,z
-x,-y,1/2+z
x,1/2-y,-z
-x,1/2+y,1/2-z
-x,-y,-z
x,y,1/2-z
-x,1/2+y,z
x,1/2-y,1/2+z
loop_
_atom_site_type_symbol
_atom_site_label
_atom_site_fract_x
_atom_site_fract_y
_atom_site_fract_z
Si Si1 0.603647 0.844343 0.458931
Si Si2 0.118438 0.797253 0.543686
Si Si3 0.580653 0.303815 0.250000
Si Si4 0.079791 0.258327 0.750000
Si Si5 0.269925 0.525395 0.129215
Si Si6 0.215965 0.057386 0.011007
O O1 0.371869 0.829954 0.538319
O O2 0.481983 0.832204 0.349723
O O3 0.686745 0.895087 0.473051
O O4 0.872132 0.815347 0.476474
O O5 0.217063 0.750000 0.500000
O O6 0.993436 0.787225 0.652482
O O7 0.881119 0.284379 0.250000
O O8 0.381393 0.260974 0.250000
O O9 0.247101 0.526977 0.250000
O O10 0.198305 0.476988 0.082691
O O11 0.567635 0.537353 0.090065
O O12 0.065214 0.558350 0.071165
#
# Coordination Sequence:
#
# PCOD9439230 Si02
#       6
#     8   8   4   4   8   8
#     4  12  24  41  63  92 122 156 204 261 294 354
#     4  12  23  43  61  86 126 163 200 253 304 354
#     4  12  22  38  66  88 115 156 213 254 300 348
#     4  12  24  40  62  86 115 172 207 238 314 356
#     4  10  21  43  67  89 125 162 194 243 308 370
#     4  10  23  41  64  95 122 156 203 248 302 361
#
# _framework density 20.330348999999998
#
# number of rings (size 3 to 8) (size 9 to 14) (size 15 to 20)
#    0.000    0.800    4.000    3.600    1.400    0.000 
#   10.800    0.000    0.000    0.000    0.000    0.000 
#    0.000    0.000    0.000    0.000    0.000    0.000 
#
# Total GULP energy -223782.125619 kJ/mol
# GULP energy per Si atom -5594.553140 kJ/mol
# Density = 2.028408 g / cm^3
# Si number density = 20.330349 Si / 1000 Ang^3
#
#
#
# Elastic Constant Matrix: (Units=GPa)
#
#
# Indices 1 2 3 4 5 6 
#
# 1 58.6442 -14.7296 -11.1610 0.0000 0.0000 0.0000
# 2 -14.7296 64.1481 20.7065 0.0000 0.0000 0.0000
# 3 -11.1610 20.7065 96.5100 0.0000 0.0000 0.0000
# 4 0.0000 0.0000 0.0000 12.7925 0.0000 0.0000
# 5 0.0000 0.0000 0.0000 0.0000 19.8083 0.0000
# 6 0.0000 0.0000 0.0000 0.0000 0.0000 20.7179
#
#
#
# Elastic Compliance Matrix: (Units=1/GPa)
#
#
# Indices 1 2 3 4 5 6 
#
# 1 0.018246 0.003770 0.001301 0.000000 0.000000 0.000000
# 2 0.003770 0.017528 -0.003325 0.000000 0.000000 0.000000
# 3 0.001301 -0.003325 0.011225 0.000000 0.000000 0.000000
# 4 0.000000 0.000000 0.000000 0.078171 0.000000 0.000000
# 5 0.000000 0.000000 0.000000 0.000000 0.050484 0.000000
# 6 0.000000 0.000000 0.000000 0.000000 0.000000 0.048267
#
#
# Mechanical properties :
#
#
# Convention : Reuss Voigt Hill
#
# Bulk Modulus (GPa) = 19.80499 23.21488 21.50994
# Shear Modulus (GPa) = 21.07398 25.62952 23.35175
#
# Velocity S-wave (km/s) = 3.22309 3.55442 3.39280
# Velocity P-wave (km/s) = 4.85940 5.31872 5.09424
#
# Compressibility (1/GPa) = 0.05049232
#
# Stress axis : x y z
#
# Youngs Moduli (GPa) = 54.80505 57.05261 89.08337
#
# Poissons Ratio (x) = -0.21507 -0.11593
# Poissons Ratio (y) = -0.20660 0.29617
# Poissons Ratio (z) = -0.07132 0.18968
#
# Static dielectric constant tensor:
#      x y z
#    x 1.704960 0.000000 0.000000 
#    y 0.000000 1.712400 0.000000 
#    z 0.000000 0.000000 1.713650 
# 
# From -- ./inp_files/11058.got.cif
#   From: 2010.05.17/outbox.cif.g08.bks.cpg/sg57_6_cif.got.tgz:11058.got - 2010.06.03 13:58:18.
