data_PCOD9439666
_publ_section_title
;
Structure prediction by ZEFSAII (Michael W. Deem and Ramdas Pophale) SiO2 
 PCOD9439666
Probable space group: P B C M
;
_chemical_formula_sum "Si O2"
_cell_formula_units_Z 40
_cell_length_a 18.727571
_cell_length_b 4.997240
_cell_length_c 18.622046
_cell_angle_alpha 90.000000
_cell_angle_beta 90.000000
_cell_angle_gamma 90.000000
_cell_volume 1742.765905
_symmetry_space_group_name_H-M "P B C M"
_symmetry_group_IT_number 57
_symmetry_cell_setting 'orthorhombic'
loop_
_space_group_symop_operation_xyz
x,y,z
-x,-y,1/2+z
x,1/2-y,-z
-x,1/2+y,1/2-z
-x,-y,-z
x,y,1/2-z
-x,1/2+y,z
x,1/2-y,1/2+z
loop_
_atom_site_type_symbol
_atom_site_label
_atom_site_fract_x
_atom_site_fract_y
_atom_site_fract_z
Si Si1 0.819294 0.576689 0.374408
Si Si2 0.244229 0.750000 0.500000
Si Si3 0.239876 0.719604 0.750000
Si Si4 0.045018 0.397152 0.163948
Si Si5 0.454705 0.215224 0.414851
Si Si6 0.311560 0.037784 0.868736
O O1 0.802747 0.442486 0.450207
O O2 0.819676 0.352017 0.313042
O O3 0.885852 0.774411 0.373655
O O4 0.750832 0.752062 0.349452
O O5 0.293254 0.576818 0.447162
O O6 0.298312 0.804237 0.812403
O O7 0.057185 0.377178 0.250000
O O8 0.979832 0.194927 0.146146
O O9 0.438981 0.250000 0.500000
O O10 0.521445 0.412935 0.400789
O O11 0.386917 0.316793 0.371031
#
# Coordination Sequence:
#
# PCOD9439666 Si02
#       6
#     8   4   4   8   8   8
#     4  11  22  41  66  96 130 171 221 277 330 403
#     4  10  24  38  66  96 128 168 226 268 338 394
#     4  10  24  38  68  94 126 168 228 270 342 396
#     4  10  23  39  64  95 131 172 219 273 332 396
#     4  10  23  40  66  97 133 177 225 276 334 397
#     4  11  24  42  67  96 132 174 225 284 335 407
#
# _framework density 22.952020000000001
#
# number of rings (size 3 to 8) (size 9 to 14) (size 15 to 20)
#    0.000    1.600    1.000    2.400   15.400    0.000 
#    0.000    2.000    0.000    0.000    0.000    0.000 
#    0.000    0.000    0.000    0.000    0.000    0.000 
#
# Total GULP energy -222871.286100 kJ/mol
# GULP energy per Si atom -5571.782152 kJ/mol
# Density = 2.289978 g / cm^3
# Si number density = 22.952020 Si / 1000 Ang^3
#
#
#
# Elastic Constant Matrix: (Units=GPa)
#
#
# Indices 1 2 3 4 5 6 
#
# 1 86.7140 -4.1133 2.3030 0.0000 0.0000 0.0000
# 2 -4.1133 54.9139 1.0090 0.0000 0.0000 0.0000
# 3 2.3030 1.0090 83.8345 0.0000 0.0000 0.0000
# 4 0.0000 0.0000 0.0000 -88.6762 0.0000 0.0000
# 5 0.0000 0.0000 0.0000 0.0000 12.9434 0.0000
# 6 0.0000 0.0000 0.0000 0.0000 0.0000 40.2728
#
#
#
# Elastic Compliance Matrix: (Units=1/GPa)
#
#
# Indices 1 2 3 4 5 6 
#
# 1 0.011582 0.000874 -0.000329 0.000000 0.000000 0.000000
# 2 0.000874 0.018280 -0.000244 0.000000 0.000000 0.000000
# 3 -0.000329 -0.000244 0.011940 0.000000 0.000000 0.000000
# 4 0.000000 0.000000 0.000000 -0.011277 0.000000 0.000000
# 5 0.000000 0.000000 0.000000 0.000000 0.077259 0.000000
# 6 0.000000 0.000000 0.000000 0.000000 0.000000 0.024831
#
#
# Mechanical properties :
#
#
# Convention : Reuss Voigt Hill
#
# Bulk Modulus (GPa) = 23.58234 24.87332 24.22783
# Shear Modulus (GPa) = 34.21170 7.99225 21.10198
#
# Velocity S-wave (km/s) = 3.86498 1.86808 3.03544
# Velocity P-wave (km/s) = 5.49676 3.93873 4.78163
#
# Compressibility (1/GPa) = 0.04240461
#
# Stress axis : x y z
#
# Youngs Moduli (GPa) = 86.33839 54.70385 83.75053
#
# Poissons Ratio (x) = -0.04779 0.02753
# Poissons Ratio (y) = -0.07543 0.02044
# Poissons Ratio (z) = 0.02838 0.01335
#
# Static dielectric constant tensor:
#      x y z
#    x 1.850300 0.000000 0.000000 
#    y 0.000000 1.836870 0.000000 
#    z 0.000000 0.000000 1.801260 
# 
# From -- ./inp_files/22794.got.cif
#   From: 2010.05.17/outbox.cif.g08.bks.cpg/sg57_12_cif.got.tgz:22794.got - 2010.06.03 13:58:18.
