data_PCOD9439914
_publ_section_title
;
Structure prediction by ZEFSAII (Michael W. Deem and Ramdas Pophale) SiO2 
 PCOD9439914
Probable space group: P B C M
;
_chemical_formula_sum "Si O2"
_cell_formula_units_Z 40
_cell_length_a 6.530726
_cell_length_b 14.820023
_cell_length_c 19.384049
_cell_angle_alpha 90.000000
_cell_angle_beta 90.000000
_cell_angle_gamma 90.000000
_cell_volume 1876.095059
_symmetry_space_group_name_H-M "P B C M"
_symmetry_group_IT_number 57
_symmetry_cell_setting 'orthorhombic'
loop_
_space_group_symop_operation_xyz
x,y,z
-x,-y,1/2+z
x,1/2-y,-z
-x,1/2+y,1/2-z
-x,-y,-z
x,y,1/2-z
-x,1/2+y,z
x,1/2-y,1/2+z
loop_
_atom_site_type_symbol
_atom_site_label
_atom_site_fract_x
_atom_site_fract_y
_atom_site_fract_z
Si Si1 0.724058 0.969033 0.250000
Si Si2 0.076791 0.306469 0.566255
Si Si3 0.036985 0.479779 0.866926
Si Si4 0.668927 0.907390 0.750000
Si Si5 0.521571 0.750000 0.500000
Si Si6 0.499460 0.294126 0.250000
Si Si7 0.772149 0.326511 0.384691
O O1 0.691387 0.862261 0.250000
O O2 0.507446 0.018023 0.250000
O O3 0.845278 0.998828 0.181771
O O4 0.004555 0.250000 0.500000
O O5 0.998909 0.408084 0.572703
O O6 0.321268 0.302710 0.552004
O O7 0.958991 0.245984 0.622621
O O8 0.193779 0.425624 0.817227
O O9 0.133141 0.574024 0.889491
O O10 0.572838 0.808676 0.750000
O O11 0.380034 0.692331 0.551032
O O12 0.634629 0.316484 0.316778
#
# Coordination Sequence:
#
# PCOD9439914 Si02
#       7
#     4   8   8   4   4   4   8
#     4  11  24  45  66 116 142 184 237 292 384 421
#     4  10  25  46  67 101 140 194 239 286 362 419
#     4  11  25  42  72 103 145 184 240 297 354 438
#     4  11  23  45  65 107 139 183 235 289 371 418
#     4  10  24  48  70 102 146 192 240 282 366 428
#     4  12  25  44  81 101 145 187 236 315 357 435
#     4  12  24  48  69 108 145 185 248 297 362 432
#
# _framework density 21.320879000000001
#
# number of rings (size 3 to 8) (size 9 to 14) (size 15 to 20)
#    0.600    0.400    3.000    3.000    5.600    2.400 
#    0.000    0.000    0.000    0.000    0.000    0.000 
#    0.000    0.000    0.000    0.000    0.000    0.000 
#
# Total GULP energy -223220.069971 kJ/mol
# GULP energy per Si atom -5580.501749 kJ/mol
# Density = 2.127235 g / cm^3
# Si number density = 21.320879 Si / 1000 Ang^3
#
#
#
# Elastic Constant Matrix: (Units=GPa)
#
#
# Indices 1 2 3 4 5 6 
#
# 1 67.5130 12.9092 29.1576 0.0000 0.0000 0.0000
# 2 12.9092 125.5281 18.2932 0.0000 0.0000 0.0000
# 3 29.1576 18.2932 71.5554 0.0000 0.0000 0.0000
# 4 0.0000 0.0000 0.0000 18.8676 0.0000 0.0000
# 5 0.0000 0.0000 0.0000 0.0000 59.2399 0.0000
# 6 0.0000 0.0000 0.0000 0.0000 0.0000 24.4631
#
#
#
# Elastic Compliance Matrix: (Units=1/GPa)
#
#
# Indices 1 2 3 4 5 6 
#
# 1 0.018055 -0.000815 -0.007149 0.000000 0.000000 0.000000
# 2 -0.000815 0.008311 -0.001793 0.000000 0.000000 0.000000
# 3 -0.007149 -0.001793 0.017347 0.000000 0.000000 0.000000
# 4 0.000000 0.000000 0.000000 0.053001 0.000000 0.000000
# 5 0.000000 0.000000 0.000000 0.000000 0.016881 0.000000
# 6 0.000000 0.000000 0.000000 0.000000 0.000000 0.040878
#
#
# Mechanical properties :
#
#
# Convention : Reuss Voigt Hill
#
# Bulk Modulus (GPa) = 41.32219 42.81293 42.06756
# Shear Modulus (GPa) = 27.46462 34.12989 30.79726
#
# Velocity S-wave (km/s) = 3.59298 4.00531 3.80473
# Velocity P-wave (km/s) = 6.05276 6.44312 6.25099
#
# Compressibility (1/GPa) = 0.02420007
#
# Stress axis : x y z
#
# Youngs Moduli (GPa) = 55.38555 120.31655 57.64843
#
# Poissons Ratio (x) = 0.09806 0.41212
# Poissons Ratio (y) = 0.04514 0.10335
# Poissons Ratio (z) = 0.39594 0.21569
#
# Static dielectric constant tensor:
#      x y z
#    x 1.764780 0.000000 0.000000 
#    y 0.000000 1.778880 0.000000 
#    z 0.000000 0.000000 1.725020 
# 
# From -- ./inp_files/26175.got.cif
#   From: 2010.05.17/outbox.cif.g08.bks.cpg/sg57_14_cif.got.tgz:26175.got - 2010.06.03 13:58:18.
