data_PCOD9439087
_publ_section_title
;
Structure prediction by ZEFSAII (Michael W. Deem and Ramdas Pophale) SiO2 
 PCOD9439087
Probable space group: P B C M
;
_chemical_formula_sum "Si O2"
_cell_formula_units_Z 56
_cell_length_a 15.526589
_cell_length_b 10.923882
_cell_length_c 16.350028
_cell_angle_alpha 90.000000
_cell_angle_beta 90.000000
_cell_angle_gamma 90.000000
_cell_volume 2773.138486
_symmetry_space_group_name_H-M "P B C M"
_symmetry_group_IT_number 57
_symmetry_cell_setting 'orthorhombic'
loop_
_space_group_symop_operation_xyz
x,y,z
-x,-y,1/2+z
x,1/2-y,-z
-x,1/2+y,1/2-z
-x,-y,-z
x,y,1/2-z
-x,1/2+y,z
x,1/2-y,1/2+z
loop_
_atom_site_type_symbol
_atom_site_label
_atom_site_fract_x
_atom_site_fract_y
_atom_site_fract_z
Si Si1 0.885370 0.388590 0.847838
Si Si2 0.055192 0.433795 0.931563
Si Si3 0.328298 0.997152 0.100878
Si Si4 0.505387 0.125811 0.553728
Si Si5 0.654730 0.725839 0.847630
Si Si6 0.209746 0.410035 0.042832
Si Si7 0.835882 0.367879 0.158405
O O1 0.880842 0.409218 0.750000
O O2 0.841348 0.500493 0.895618
O O3 0.833866 0.267937 0.877070
O O4 0.984700 0.366000 0.875932
O O5 0.095973 0.544146 0.881806
O O6 0.136438 0.371574 0.976469
O O7 0.000000 0.500000 0.000000
O O8 0.357836 0.129647 0.133873
O O9 0.405304 0.900618 0.098828
O O10 0.253301 0.938431 0.154250
O O11 0.282725 0.021921 0.012522
O O12 0.509155 0.250000 0.500000
O O13 0.425458 0.149215 0.614911
O O14 0.500000 0.000000 0.500000
O O15 0.664713 0.706815 0.750000
O O16 0.737874 0.685301 0.901142
O O17 0.864689 0.347851 0.250000
#
# Coordination Sequence:
#
# PCOD9439087 Si02
#       7
#     8   8   8   8   8   8   8
#     4  10  21  40  63  95 133 169 223 289 349 408
#     4   9  20  38  60  87 123 169 220 271 330 408
#     4  11  24  43  69  95 138 177 229 272 341 416
#     4  12  24  46  74 104 137 181 229 282 338 414
#     4  12  25  44  68 101 141 179 227 287 350 413
#     4  10  21  40  65  96 124 177 229 278 333 410
#     4  10  22  40  62  91 131 172 215 279 351 407
#
# _framework density 20.193726999999999
#
# number of rings (size 3 to 8) (size 9 to 14) (size 15 to 20)
#    0.000    1.429    2.857    1.714    2.000    5.714 
#   18.000    0.000    0.000    0.000    0.000    0.000 
#    0.000    0.000    0.000    0.000    0.000    0.000 
#
# Total GULP energy -312226.647411 kJ/mol
# GULP energy per Si atom -5575.475847 kJ/mol
# Density = 2.014776 g / cm^3
# Si number density = 20.193727 Si / 1000 Ang^3
#
#
#
# Elastic Constant Matrix: (Units=GPa)
#
#
# Indices 1 2 3 4 5 6 
#
# 1 103.9348 21.2675 29.8969 0.0000 0.0000 0.0000
# 2 21.2675 86.7858 24.1529 0.0000 0.0000 0.0000
# 3 29.8969 24.1529 85.8146 0.0000 0.0000 0.0000
# 4 0.0000 0.0000 0.0000 17.3823 0.0000 0.0000
# 5 0.0000 0.0000 0.0000 0.0000 32.1358 0.0000
# 6 0.0000 0.0000 0.0000 0.0000 0.0000 14.6507
#
#
#
# Elastic Compliance Matrix: (Units=1/GPa)
#
#
# Indices 1 2 3 4 5 6 
#
# 1 0.010934 -0.001757 -0.003315 0.000000 0.000000 0.000000
# 2 -0.001757 0.012784 -0.002986 0.000000 0.000000 0.000000
# 3 -0.003315 -0.002986 0.013648 0.000000 0.000000 0.000000
# 4 0.000000 0.000000 0.000000 0.057530 0.000000 0.000000
# 5 0.000000 0.000000 0.000000 0.000000 0.031118 0.000000
# 6 0.000000 0.000000 0.000000 0.000000 0.000000 0.068256
#
#
# Mechanical properties :
#
#
# Convention : Reuss Voigt Hill
#
# Bulk Modulus (GPa) = 47.05650 47.46332 47.25991
# Shear Modulus (GPa) = 22.99161 26.24829 24.61995
#
# Velocity S-wave (km/s) = 3.37790 3.60922 3.49548
# Velocity P-wave (km/s) = 6.21022 6.39716 6.30438
#
# Compressibility (1/GPa) = 0.02125105
#
# Stress axis : x y z
#
# Youngs Moduli (GPa) = 91.45383 78.22143 73.26892
#
# Poissons Ratio (x) = 0.13744 0.24288
# Poissons Ratio (y) = 0.16069 0.21878
# Poissons Ratio (z) = 0.30316 0.23357
#
# Static dielectric constant tensor:
#      x y z
#    x 1.752320 0.000000 0.000000 
#    y 0.000000 1.721460 0.000000 
#    z 0.000000 0.000000 1.733390 
# 
# From -- ./inp_files/18552.got.cif
#   From: 2010.05.17/outbox.cif.g08.bks.cpg/sg57_10_cif.got.tgz:18552.got - 2010.06.03 13:58:18.
