data_PCOD9439770
_publ_section_title
;
Structure prediction by ZEFSAII (Michael W. Deem and Ramdas Pophale) SiO2 
 PCOD9439770
Probable space group: P B C M
;
_chemical_formula_sum "Si O2"
_cell_formula_units_Z 24
_cell_length_a 7.323277
_cell_length_b 9.121892
_cell_length_c 13.658745
_cell_angle_alpha 90.000000
_cell_angle_beta 90.000000
_cell_angle_gamma 90.000000
_cell_volume 912.433421
_symmetry_space_group_name_H-M "P B C M"
_symmetry_group_IT_number 57
_symmetry_cell_setting 'orthorhombic'
loop_
_space_group_symop_operation_xyz
x,y,z
-x,-y,1/2+z
x,1/2-y,-z
-x,1/2+y,1/2-z
-x,-y,-z
x,y,1/2-z
-x,1/2+y,z
x,1/2-y,1/2+z
loop_
_atom_site_type_symbol
_atom_site_label
_atom_site_fract_x
_atom_site_fract_y
_atom_site_fract_z
Si Si1 0.914324 0.732094 0.139296
Si Si2 0.231315 0.562257 0.937623
Si Si3 0.625501 0.991922 0.357445
O O1 0.939005 0.675114 0.250000
O O2 0.868949 0.595363 0.070808
O O3 0.743864 0.843325 0.140736
O O4 0.089203 0.823890 0.106410
O O5 0.414829 0.546753 0.874238
O O6 0.304509 0.582113 0.048513
O O7 0.648323 0.061031 0.250000
#
# Coordination Sequence:
#
# PCOD9439770 Si02
#       3
#     8   8   8
#     4  11  23  42  71 105 141 184 235 293 359 427
#     4  11  24  45  72 105 144 185 238 299 359 425
#     4  10  23  43  69 102 142 189 238 290 353 427
#
# _framework density 26.303291000000002
#
# number of rings (size 3 to 8) (size 9 to 14) (size 15 to 20)
#    0.000    1.333    0.000    5.000    0.000    2.667 
#    0.000   15.000    0.000    0.000    0.000    0.000 
#    0.000    0.000    0.000    0.000    0.000    0.000 
#
# Total GULP energy -134839.942630 kJ/mol
# GULP energy per Si atom -5618.330943 kJ/mol
# Density = 2.624342 g / cm^3
# Si number density = 26.303291 Si / 1000 Ang^3
#
#
#
# Elastic Constant Matrix: (Units=GPa)
#
#
# Indices 1 2 3 4 5 6 
#
# 1 203.8791 61.5721 28.2697 0.0000 0.0000 0.0000
# 2 61.5721 52.3583 0.5508 0.0000 0.0000 0.0000
# 3 28.2697 0.5508 209.6901 0.0000 0.0000 0.0000
# 4 0.0000 0.0000 0.0000 32.2675 0.0000 0.0000
# 5 0.0000 0.0000 0.0000 0.0000 16.5351 0.0000
# 6 0.0000 0.0000 0.0000 0.0000 0.0000 20.6924
#
#
#
# Elastic Compliance Matrix: (Units=1/GPa)
#
#
# Indices 1 2 3 4 5 6 
#
# 1 0.007823 -0.009188 -0.001030 0.000000 0.000000 0.000000
# 2 -0.009188 0.029892 0.001160 0.000000 0.000000 0.000000
# 3 -0.001030 0.001160 0.004905 0.000000 0.000000 0.000000
# 4 0.000000 0.000000 0.000000 0.030991 0.000000 0.000000
# 5 0.000000 0.000000 0.000000 0.000000 0.060477 0.000000
# 6 0.000000 0.000000 0.000000 0.000000 0.000000 0.048327
#
#
# Mechanical properties :
#
#
# Convention : Reuss Voigt Hill
#
# Bulk Modulus (GPa) = 40.81222 71.85696 56.33459
# Shear Modulus (GPa) = 23.95783 38.93467 31.44625
#
# Velocity S-wave (km/s) = 3.02127 3.85154 3.46139
# Velocity P-wave (km/s) = 5.26502 6.86710 6.11872
#
# Compressibility (1/GPa) = 0.02450247
#
# Stress axis : x y z
#
# Youngs Moduli (GPa) = 127.83302 33.45332 203.88098
#
# Poissons Ratio (x) = 0.30739 0.21010
# Poissons Ratio (y) = 1.17459 -0.23655
# Poissons Ratio (z) = 0.13173 -0.03881
#
# Static dielectric constant tensor:
#      x y z
#    x 1.998950 0.000000 0.000000 
#    y 0.000000 2.021110 0.000000 
#    z 0.000000 0.000000 2.084500 
# 
# From -- ./inp_files/15362.got.cif
#   From: 2010.05.17/outbox.cif.g08.bks.cpg/sg57_8_cif.got.tgz:15362.got - 2010.06.03 13:58:18.
