data_PCOD9439015
_publ_section_title
;
Structure prediction by ZEFSAII (Michael W. Deem and Ramdas Pophale) SiO2 
 PCOD9439015
Probable space group: P B C M
;
_chemical_formula_sum "Si O2"
_cell_formula_units_Z 40
_cell_length_a 9.250225
_cell_length_b 10.451227
_cell_length_c 19.303593
_cell_angle_alpha 90.000000
_cell_angle_beta 90.000000
_cell_angle_gamma 90.000000
_cell_volume 1866.198042
_symmetry_space_group_name_H-M "P B C M"
_symmetry_group_IT_number 57
_symmetry_cell_setting 'orthorhombic'
loop_
_space_group_symop_operation_xyz
x,y,z
-x,-y,1/2+z
x,1/2-y,-z
-x,1/2+y,1/2-z
-x,-y,-z
x,y,1/2-z
-x,1/2+y,z
x,1/2-y,1/2+z
loop_
_atom_site_type_symbol
_atom_site_label
_atom_site_fract_x
_atom_site_fract_y
_atom_site_fract_z
Si Si1 0.637370 0.841112 0.829238
Si Si2 0.790470 0.386733 0.171964
Si Si3 0.070507 0.253938 0.669023
Si Si4 0.626971 0.308587 0.572208
Si Si5 0.927133 0.385121 0.542056
O O1 0.586913 0.821897 0.750000
O O2 0.759779 0.734817 0.846167
O O3 0.506067 0.852023 0.881546
O O4 0.729480 0.971502 0.832154
O O5 0.758170 0.339247 0.250000
O O6 0.708811 0.300821 0.116279
O O7 0.962145 0.366065 0.162795
O O8 0.063599 0.295635 0.750000
O O9 0.004653 0.353926 0.614551
O O10 0.574419 0.250000 0.500000
O O11 0.756144 0.407355 0.554801
O O12 0.937631 0.250000 0.500000
O O13 0.000000 0.500000 0.500000
#
# Coordination Sequence:
#
# PCOD9439015 Si02
#       5
#     8   8   8   8   8
#     4  10  21  39  65  94 126 166 218 274 333 396
#     4   9  19  39  62  86 125 166 210 270 323 387
#     4   9  20  38  64  91 121 169 220 269 325 394
#     4  10  22  39  62  92 130 169 209 269 336 405
#     4  10  23  43  67  97 134 175 225 279 339 407
#
# _framework density 21.433949999999999
#
# number of rings (size 3 to 8) (size 9 to 14) (size 15 to 20)
#    0.000    2.400    0.000    0.600    8.400    2.400 
#    3.600    0.000    0.000    0.000    0.000    0.000 
#    0.000    0.000    0.000    0.000    0.000    0.000 
#
# Total GULP energy -223258.304299 kJ/mol
# GULP energy per Si atom -5581.457607 kJ/mol
# Density = 2.138517 g / cm^3
# Si number density = 21.433950 Si / 1000 Ang^3
#
#
#
# Elastic Constant Matrix: (Units=GPa)
#
#
# Indices 1 2 3 4 5 6 
#
# 1 177.7497 50.3980 83.3340 0.0000 0.0000 0.0000
# 2 50.3980 58.3331 36.2609 0.0000 0.0000 0.0000
# 3 83.3340 36.2609 131.2798 0.0000 0.0000 0.0000
# 4 0.0000 0.0000 0.0000 27.7737 0.0000 0.0000
# 5 0.0000 0.0000 0.0000 0.0000 48.8136 0.0000
# 6 0.0000 0.0000 0.0000 0.0000 0.0000 24.9203
#
#
#
# Elastic Compliance Matrix: (Units=1/GPa)
#
#
# Indices 1 2 3 4 5 6 
#
# 1 0.009146 -0.005183 -0.004374 0.000000 0.000000 0.000000
# 2 -0.005183 0.023633 -0.003238 0.000000 0.000000 0.000000
# 3 -0.004374 -0.003238 0.011288 0.000000 0.000000 0.000000
# 4 0.000000 0.000000 0.000000 0.036005 0.000000 0.000000
# 5 0.000000 0.000000 0.000000 0.000000 0.020486 0.000000
# 6 0.000000 0.000000 0.000000 0.000000 0.000000 0.040128
#
#
# Mechanical properties :
#
#
# Convention : Reuss Voigt Hill
#
# Bulk Modulus (GPa) = 54.11827 78.59426 66.35627
# Shear Modulus (GPa) = 28.99616 33.45949 31.22782
#
# Velocity S-wave (km/s) = 3.68205 3.95530 3.82112
# Velocity P-wave (km/s) = 6.58638 7.58992 7.10589
#
# Compressibility (1/GPa) = 0.01847805
#
# Stress axis : x y z
#
# Youngs Moduli (GPa) = 109.33509 42.31289 88.58694
#
# Poissons Ratio (x) = 0.21930 0.38750
# Poissons Ratio (y) = 0.56667 0.28683
# Poissons Ratio (z) = 0.47826 0.13700
#
# Static dielectric constant tensor:
#      x y z
#    x 1.805390 0.000000 0.000000 
#    y 0.000000 1.808190 0.000000 
#    z 0.000000 0.000000 1.802540 
# 
# From -- ./inp_files/20535.got.cif
#   From: 2010.05.17/outbox.cif.g08.bks.cpg/sg57_11_cif.got.tgz:20535.got - 2010.06.03 13:58:18.
