data_PCOD9439071
_publ_section_title
;
Structure prediction by ZEFSAII (Michael W. Deem and Ramdas Pophale) SiO2 
 PCOD9439071
Probable space group: P B C M
;
_chemical_formula_sum "Si O2"
_cell_formula_units_Z 36
_cell_length_a 21.701107
_cell_length_b 5.022033
_cell_length_c 14.528146
_cell_angle_alpha 90.000000
_cell_angle_beta 90.000000
_cell_angle_gamma 90.000000
_cell_volume 1583.330749
_symmetry_space_group_name_H-M "P B C M"
_symmetry_group_IT_number 57
_symmetry_cell_setting 'orthorhombic'
loop_
_space_group_symop_operation_xyz
x,y,z
-x,-y,1/2+z
x,1/2-y,-z
-x,1/2+y,1/2-z
-x,-y,-z
x,y,1/2-z
-x,1/2+y,z
x,1/2-y,1/2+z
loop_
_atom_site_type_symbol
_atom_site_label
_atom_site_fract_x
_atom_site_fract_y
_atom_site_fract_z
Si Si1 0.281590 0.740832 0.111626
Si Si2 0.643953 0.742586 0.111014
Si Si3 0.037051 0.275287 0.139338
Si Si4 0.164074 0.494044 0.061820
Si Si5 0.540804 0.920616 0.750000
O O1 0.333977 0.534063 0.140213
O O2 0.215009 0.613298 0.131798
O O3 0.302105 0.034202 0.138690
O O4 0.280911 0.750000 0.000000
O O5 0.582856 0.647426 0.161808
O O6 0.636810 0.750000 0.000000
O O7 0.039067 0.277644 0.250000
O O8 0.103028 0.369482 0.104730
O O9 0.984556 0.484322 0.109679
O O10 0.191374 0.250000 0.000000
O O11 0.147375 0.750000 0.000000
O O12 0.482951 0.721013 0.750000
#
# Coordination Sequence:
#
# PCOD9439071 Si02
#       5
#     8   8   8   8   4
#     4   9  18  36  61  85 117 151 189 241 301 355
#     4  10  21  40  63  87 121 164 194 239 303 351
#     4  10  22  39  54  75 117 162 198 243 300 362
#     4  11  21  35  60  89 115 146 197 257 301 350
#     4  12  26  42  62  94 128 156 204 252 278 344
#
# _framework density 22.736879999999999
#
# number of rings (size 3 to 8) (size 9 to 14) (size 15 to 20)
#    0.000    1.778    0.000    6.000    0.000    3.556 
#    4.000    0.000    0.000    0.000    2.889    0.000 
#    0.000    0.000    0.000    0.000    0.000    0.000 
#
# Total GULP energy -201250.822562 kJ/mol
# GULP energy per Si atom -5590.300627 kJ/mol
# Density = 2.268513 g / cm^3
# Si number density = 22.736880 Si / 1000 Ang^3
#
#
#
# Elastic Constant Matrix: (Units=GPa)
#
#
# Indices 1 2 3 4 5 6 
#
# 1 83.6058 -7.8788 15.4675 0.0000 0.0000 0.0000
# 2 -7.8788 95.1211 8.1887 0.0000 0.0000 0.0000
# 3 15.4675 8.1887 83.4012 0.0000 0.0000 0.0000
# 4 0.0000 0.0000 0.0000 4.8589 0.0000 0.0000
# 5 0.0000 0.0000 0.0000 0.0000 19.1132 0.0000
# 6 0.0000 0.0000 0.0000 0.0000 0.0000 49.6659
#
#
#
# Elastic Compliance Matrix: (Units=1/GPa)
#
#
# Indices 1 2 3 4 5 6 
#
# 1 0.012531 0.001249 -0.002447 0.000000 0.000000 0.000000
# 2 0.001249 0.010727 -0.001285 0.000000 0.000000 0.000000
# 3 -0.002447 -0.001285 0.012570 0.000000 0.000000 0.000000
# 4 0.000000 0.000000 0.000000 0.205806 0.000000 0.000000
# 5 0.000000 0.000000 0.000000 0.000000 0.052320 0.000000
# 6 0.000000 0.000000 0.000000 0.000000 0.000000 0.020135
#
#
# Mechanical properties :
#
#
# Convention : Reuss Voigt Hill
#
# Bulk Modulus (GPa) = 32.40167 32.63144 32.51656
# Shear Modulus (GPa) = 15.18178 31.15099 23.16638
#
# Velocity S-wave (km/s) = 2.58682 3.70545 3.19547
# Velocity P-wave (km/s) = 4.81704 5.71753 5.28649
#
# Compressibility (1/GPa) = 0.03086261
#
# Stress axis : x y z
#
# Youngs Moduli (GPa) = 79.80090 93.22324 79.55371
#
# Poissons Ratio (x) = -0.11640 0.19464
# Poissons Ratio (y) = -0.09964 0.10221
# Poissons Ratio (z) = 0.19524 0.11977
#
# Static dielectric constant tensor:
#      x y z
#    x 1.852990 0.000000 0.000000 
#    y 0.000000 1.809880 0.000000 
#    z 0.000000 0.000000 1.880200 
# 
# From -- ./inp_files/19213.got.cif
#   From: 2010.05.17/outbox.cif.g08.bks.cpg/sg57_10_cif.got.tgz:19213.got - 2010.06.03 13:58:18.
