data_PCOD9439842
_publ_section_title
;
Structure prediction by ZEFSAII (Michael W. Deem and Ramdas Pophale) SiO2 
 PCOD9439842
Probable space group: P B C M
;
_chemical_formula_sum "Si O2"
_cell_formula_units_Z 48
_cell_length_a 7.988334
_cell_length_b 15.219237
_cell_length_c 19.065843
_cell_angle_alpha 90.000000
_cell_angle_beta 90.000000
_cell_angle_gamma 90.000000
_cell_volume 2317.955571
_symmetry_space_group_name_H-M "P B C M"
_symmetry_group_IT_number 57
_symmetry_cell_setting 'orthorhombic'
loop_
_space_group_symop_operation_xyz
x,y,z
-x,-y,1/2+z
x,1/2-y,-z
-x,1/2+y,1/2-z
-x,-y,-z
x,y,1/2-z
-x,1/2+y,z
x,1/2-y,1/2+z
loop_
_atom_site_type_symbol
_atom_site_label
_atom_site_fract_x
_atom_site_fract_y
_atom_site_fract_z
Si Si1 0.155039 0.623304 0.119280
Si Si2 0.239267 0.120772 0.099343
Si Si3 0.297307 0.814292 0.114836
Si Si4 0.493674 0.641895 0.750000
Si Si5 0.282481 0.529236 0.250000
Si Si6 0.170386 0.548178 0.523370
Si Si7 0.556067 0.750000 0.000000
Si Si8 0.397300 0.155482 0.250000
O O1 0.234275 0.717746 0.136568
O O2 0.176756 0.553388 0.181180
O O3 0.960048 0.636583 0.102229
O O4 0.242397 0.585253 0.049362
O O5 0.304288 0.130399 0.178326
O O6 0.271534 0.024903 0.066016
O O7 0.329482 0.188288 0.047859
O O8 0.377806 0.862663 0.181083
O O9 0.152829 0.870455 0.076650
O O10 0.438113 0.801088 0.055138
O O11 0.634373 0.566603 0.750000
O O12 0.571082 0.739966 0.750000
O O13 0.432948 0.599739 0.250000
O O14 0.000000 0.500000 0.500000
#
# Coordination Sequence:
#
# PCOD9439842 Si02
#       8
#     8   8   8   4   4   8   4   4
#     4  11  23  45  71  96 144 188 238 288 367 435
#     4  11  26  42  69 102 146 180 239 306 359 425
#     4  12  23  46  71 103 141 194 235 292 364 435
#     4  12  26  43  72 107 140 186 247 291 356 439
#     4  12  25  45  73  98 143 191 235 295 352 435
#     4  10  24  41  68 104 135 181 236 295 351 424
#     4  12  24  38  72 106 136 188 230 298 366 412
#     4  12  23  48  63 105 141 189 238 300 364 430
#
# _framework density 20.707903999999999
#
# number of rings (size 3 to 8) (size 9 to 14) (size 15 to 20)
#    0.000    0.667    5.000    1.500    7.000    0.667 
#    3.000    0.833    0.000    0.000    0.000    0.000 
#    0.000    0.000    0.000    0.000    0.000    0.000 
#
# Total GULP energy -268251.732409 kJ/mol
# GULP energy per Si atom -5588.577759 kJ/mol
# Density = 2.066077 g / cm^3
# Si number density = 20.707904 Si / 1000 Ang^3
#
#
#
# Elastic Constant Matrix: (Units=GPa)
#
#
# Indices 1 2 3 4 5 6 
#
# 1 69.9445 11.6312 17.7384 0.0000 0.0000 0.0000
# 2 11.6312 82.1903 9.3379 0.0000 0.0000 0.0000
# 3 17.7384 9.3379 119.1094 0.0000 0.0000 0.0000
# 4 0.0000 0.0000 0.0000 43.3052 0.0000 0.0000
# 5 0.0000 0.0000 0.0000 0.0000 35.6785 0.0000
# 6 0.0000 0.0000 0.0000 0.0000 0.0000 33.6768
#
#
#
# Elastic Compliance Matrix: (Units=1/GPa)
#
#
# Indices 1 2 3 4 5 6 
#
# 1 0.015148 -0.001904 -0.002107 0.000000 0.000000 0.000000
# 2 -0.001904 0.012516 -0.000698 0.000000 0.000000 0.000000
# 3 -0.002107 -0.000698 0.008764 0.000000 0.000000 0.000000
# 4 0.000000 0.000000 0.000000 0.023092 0.000000 0.000000
# 5 0.000000 0.000000 0.000000 0.000000 0.028028 0.000000
# 6 0.000000 0.000000 0.000000 0.000000 0.000000 0.029694
#
#
# Mechanical properties :
#
#
# Convention : Reuss Voigt Hill
#
# Bulk Modulus (GPa) = 37.02253 38.73991 37.88122
# Shear Modulus (GPa) = 36.85620 38.03453 37.44537
#
# Velocity S-wave (km/s) = 4.22336 4.29034 4.25698
# Velocity P-wave (km/s) = 6.45752 6.57960 6.51885
#
# Compressibility (1/GPa) = 0.02701058
#
# Stress axis : x y z
#
# Youngs Moduli (GPa) = 66.01540 79.90006 114.10230
#
# Poissons Ratio (x) = 0.15216 0.24037
# Poissons Ratio (y) = 0.12572 0.07960
# Poissons Ratio (z) = 0.13907 0.05574
#
# Static dielectric constant tensor:
#      x y z
#    x 1.758150 0.000000 0.000000 
#    y 0.000000 1.762190 0.000000 
#    z 0.000000 0.000000 1.802780 
# 
# From -- ./inp_files/21046.got.cif
#   From: 2010.05.17/outbox.cif.g08.bks.cpg/sg57_11_cif.got.tgz:21046.got - 2010.06.03 13:58:18.
