data_PCOD9439132
_publ_section_title
;
Structure prediction by ZEFSAII (Michael W. Deem and Ramdas Pophale) SiO2 
 PCOD9439132
Probable space group: P B C M
;
_chemical_formula_sum "Si O2"
_cell_formula_units_Z 64
_cell_length_a 13.478375
_cell_length_b 12.372609
_cell_length_c 17.386879
_cell_angle_alpha 90.000000
_cell_angle_beta 90.000000
_cell_angle_gamma 90.000000
_cell_volume 2899.482258
_symmetry_space_group_name_H-M "P B C M"
_symmetry_group_IT_number 57
_symmetry_cell_setting 'orthorhombic'
loop_
_space_group_symop_operation_xyz
x,y,z
-x,-y,1/2+z
x,1/2-y,-z
-x,1/2+y,1/2-z
-x,-y,-z
x,y,1/2-z
-x,1/2+y,z
x,1/2-y,1/2+z
loop_
_atom_site_type_symbol
_atom_site_label
_atom_site_fract_x
_atom_site_fract_y
_atom_site_fract_z
Si Si1 0.660497 0.098976 0.962615
Si Si2 0.692479 0.251523 0.666050
Si Si3 0.914285 0.311741 0.382295
Si Si4 0.410053 0.541262 0.116270
Si Si5 0.874266 0.094636 0.034892
Si Si6 0.677124 0.679949 0.839133
Si Si7 0.110555 0.413991 0.165467
Si Si8 0.631527 0.576018 0.161284
O O1 0.636759 0.196155 0.905094
O O2 0.679084 0.000943 0.903270
O O3 0.580570 0.076880 0.027602
O O4 0.759304 0.119786 0.013435
O O5 0.656597 0.215922 0.750000
O O6 0.806626 0.209864 0.656930
O O7 0.668524 0.378713 0.658607
O O8 0.926044 0.196952 0.424898
O O9 0.913039 0.406073 0.447595
O O10 0.009265 0.345722 0.334537
O O11 0.371052 0.419377 0.116370
O O12 0.514819 0.550626 0.157657
O O13 0.882723 0.996796 0.094053
O O14 0.646550 0.666253 0.750000
O O15 0.795342 0.664459 0.842895
O O16 0.647325 0.799866 0.861841
O O17 0.119545 0.469107 0.250000
O O18 0.667107 0.561237 0.250000
#
# Coordination Sequence:
#
# PCOD9439132 Si02
#       8
#     8   8   8   8   8   8   8   8
#     4  11  23  44  67  96 136 176 226 282 341 408
#     4  11  22  39  67  99 134 175 226 285 344 404
#     4  10  21  40  66  96 134 173 222 280 336 403
#     4  12  23  44  72  98 135 183 227 283 345 411
#     4  10  21  43  65  95 135 175 220 279 336 404
#     4  10  23  44  66  97 134 172 229 276 333 414
#     4  11  22  41  67  95 131 176 225 278 334 402
#     4  11  26  45  68 100 136 175 226 288 349 409
#
# _framework density 22.072904999999999
#
# number of rings (size 3 to 8) (size 9 to 14) (size 15 to 20)
#    0.000    1.250    2.500    3.000    1.750    2.500 
#   11.250    0.000    0.000    0.000    0.000    0.000 
#    0.000    0.000    0.000    0.000    0.000    0.000 
#
# Total GULP energy -357143.711673 kJ/mol
# GULP energy per Si atom -5580.370495 kJ/mol
# Density = 2.202267 g / cm^3
# Si number density = 22.072905 Si / 1000 Ang^3
#
#
#
# Elastic Constant Matrix: (Units=GPa)
#
#
# Indices 1 2 3 4 5 6 
#
# 1 60.6624 19.6918 16.9471 0.0000 0.0000 0.0000
# 2 19.6918 111.4264 34.4711 0.0000 0.0000 0.0000
# 3 16.9471 34.4711 97.4908 0.0000 0.0000 0.0000
# 4 0.0000 0.0000 0.0000 28.8637 0.0000 0.0000
# 5 0.0000 0.0000 0.0000 0.0000 7.1982 0.0000
# 6 0.0000 0.0000 0.0000 0.0000 0.0000 18.9762
#
#
#
# Elastic Compliance Matrix: (Units=1/GPa)
#
#
# Indices 1 2 3 4 5 6 
#
# 1 0.017913 -0.002473 -0.002240 0.000000 0.000000 0.000000
# 2 -0.002473 0.010418 -0.003254 0.000000 0.000000 0.000000
# 3 -0.002240 -0.003254 0.011797 0.000000 0.000000 0.000000
# 4 0.000000 0.000000 0.000000 0.034646 0.000000 0.000000
# 5 0.000000 0.000000 0.000000 0.000000 0.138924 0.000000
# 6 0.000000 0.000000 0.000000 0.000000 0.000000 0.052698
#
#
# Mechanical properties :
#
#
# Convention : Reuss Voigt Hill
#
# Bulk Modulus (GPa) = 41.32916 45.75551 43.54234
# Shear Modulus (GPa) = 17.21801 24.23891 20.72846
#
# Velocity S-wave (km/s) = 2.79597 3.31740 3.06778
# Velocity P-wave (km/s) = 5.40258 5.95380 5.68488
#
# Compressibility (1/GPa) = 0.02419599
#
# Stress axis : x y z
#
# Youngs Moduli (GPa) = 55.82529 95.98624 84.76602
#
# Poissons Ratio (x) = 0.23736 0.18983
# Poissons Ratio (y) = 0.13805 0.27581
# Poissons Ratio (z) = 0.12502 0.31232
#
# Static dielectric constant tensor:
#      x y z
#    x 1.844340 0.000000 0.000000 
#    y 0.000000 1.827570 0.000000 
#    z 0.000000 0.000000 1.849180 
# 
# From -- ./inp_files/22671.got.cif
#   From: 2010.05.17/outbox.cif.g08.bks.cpg/sg57_12_cif.got.tgz:22671.got - 2010.06.03 13:58:18.
