data_PCOD9439322
_publ_section_title
;
Structure prediction by ZEFSAII (Michael W. Deem and Ramdas Pophale) SiO2 
 PCOD9439322
Probable space group: P B C M
;
_chemical_formula_sum "Si O2"
_cell_formula_units_Z 48
_cell_length_a 16.151995
_cell_length_b 10.017960
_cell_length_c 15.577879
_cell_angle_alpha 90.000000
_cell_angle_beta 90.000000
_cell_angle_gamma 90.000000
_cell_volume 2520.657221
_symmetry_space_group_name_H-M "P B C M"
_symmetry_group_IT_number 57
_symmetry_cell_setting 'orthorhombic'
loop_
_space_group_symop_operation_xyz
x,y,z
-x,-y,1/2+z
x,1/2-y,-z
-x,1/2+y,1/2-z
-x,-y,-z
x,y,1/2-z
-x,1/2+y,z
x,1/2-y,1/2+z
loop_
_atom_site_type_symbol
_atom_site_label
_atom_site_fract_x
_atom_site_fract_y
_atom_site_fract_z
Si Si1 0.767176 0.907718 0.007345
Si Si2 0.934748 0.964328 0.925099
Si Si3 0.363676 0.759532 0.647981
Si Si4 0.974301 0.263041 0.349184
Si Si5 0.810339 0.388695 0.849588
Si Si6 0.405545 0.544665 0.504301
O O1 0.837963 0.974067 0.947554
O O2 0.671228 0.942425 0.989562
O O3 0.777450 0.750000 0.000000
O O4 0.788705 0.979001 0.097660
O O5 0.952309 0.811787 0.898102
O O6 0.959955 0.079899 0.858648
O O7 0.000000 0.000000 0.000000
O O8 0.387061 0.757786 0.750000
O O9 0.264825 0.783136 0.644612
O O10 0.392150 0.635544 0.589500
O O11 0.394607 0.880451 0.587494
O O12 0.985523 0.232368 0.250000
O O13 0.892324 0.185544 0.381359
O O14 0.821194 0.423286 0.750000
O O15 0.500000 0.500000 0.500000
#
# Coordination Sequence:
#
# PCOD9439322 Si02
#       6
#     8   8   8   8   8   8
#     4  11  23  39  60  90 126 162 198 255 315 374
#     4  12  23  38  60  89 120 160 209 249 301 366
#     4   9  19  38  63  89 116 155 206 257 305 370
#     4  11  23  39  60  86 122 163 205 256 304 359
#     4   9  19  38  62  86 116 158 208 251 300 362
#     4  10  22  38  64  90 123 159 203 256 317 381
#
# _framework density 19.042652
#
# number of rings (size 3 to 8) (size 9 to 14) (size 15 to 20)
#    0.000    1.667    1.667    3.000    2.333    2.000 
#    0.000    2.500    0.000    0.000    0.000    0.000 
#    0.000    0.000    0.000    0.000    0.000    0.000 
#
# Total GULP energy -267311.716698 kJ/mol
# GULP energy per Si atom -5568.994098 kJ/mol
# Density = 1.899931 g / cm^3
# Si number density = 19.042652 Si / 1000 Ang^3
#
#
#
# Elastic Constant Matrix: (Units=GPa)
#
#
# Indices 1 2 3 4 5 6 
#
# 1 114.3669 24.4656 39.3798 0.0000 0.0000 0.0000
# 2 24.4656 80.6350 32.6115 0.0000 0.0000 0.0000
# 3 39.3798 32.6115 97.8356 0.0000 0.0000 0.0000
# 4 0.0000 0.0000 0.0000 23.8312 0.0000 0.0000
# 5 0.0000 0.0000 0.0000 0.0000 21.9113 0.0000
# 6 0.0000 0.0000 0.0000 0.0000 0.0000 2.4926
#
#
#
# Elastic Compliance Matrix: (Units=1/GPa)
#
#
# Indices 1 2 3 4 5 6 
#
# 1 0.010344 -0.001681 -0.003603 0.000000 0.000000 0.000000
# 2 -0.001681 0.014607 -0.004192 0.000000 0.000000 0.000000
# 3 -0.003603 -0.004192 0.013069 0.000000 0.000000 0.000000
# 4 0.000000 0.000000 0.000000 0.041962 0.000000 0.000000
# 5 0.000000 0.000000 0.000000 0.000000 0.045639 0.000000
# 6 0.000000 0.000000 0.000000 0.000000 0.000000 0.401179
#
#
# Mechanical properties :
#
#
# Convention : Reuss Voigt Hill
#
# Bulk Modulus (GPa) = 52.44725 53.97238 53.20982
# Shear Modulus (GPa) = 9.05618 22.73907 15.89763
#
# Velocity S-wave (km/s) = 2.18313 3.45934 2.89250
# Velocity P-wave (km/s) = 5.82722 6.66037 6.25768
#
# Compressibility (1/GPa) = 0.01906678
#
# Stress axis : x y z
#
# Youngs Moduli (GPa) = 96.67308 68.45948 76.51722
#
# Poissons Ratio (x) = 0.11510 0.27571
# Poissons Ratio (y) = 0.16253 0.32078
# Poissons Ratio (z) = 0.34833 0.28700
#
# Static dielectric constant tensor:
#      x y z
#    x 1.697840 0.000000 0.000000 
#    y 0.000000 1.685810 0.000000 
#    z 0.000000 0.000000 1.678110 
# 
# From -- ./inp_files/18932.got.cif
#   From: 2010.05.17/outbox.cif.g08.bks.cpg/sg57_10_cif.got.tgz:18932.got - 2010.06.03 13:58:18.
