data_PCOD9439857
_publ_section_title
;
Structure prediction by ZEFSAII (Michael W. Deem and Ramdas Pophale) SiO2 
 PCOD9439857
Probable space group: P B C M
;
_chemical_formula_sum "Si O2"
_cell_formula_units_Z 40
_cell_length_a 11.879237
_cell_length_b 8.558745
_cell_length_c 15.265330
_cell_angle_alpha 90.000000
_cell_angle_beta 90.000000
_cell_angle_gamma 90.000000
_cell_volume 1552.046866
_symmetry_space_group_name_H-M "P B C M"
_symmetry_group_IT_number 57
_symmetry_cell_setting 'orthorhombic'
loop_
_space_group_symop_operation_xyz
x,y,z
-x,-y,1/2+z
x,1/2-y,-z
-x,1/2+y,1/2-z
-x,-y,-z
x,y,1/2-z
-x,1/2+y,z
x,1/2-y,1/2+z
loop_
_atom_site_type_symbol
_atom_site_label
_atom_site_fract_x
_atom_site_fract_y
_atom_site_fract_z
Si Si1 0.740329 0.105970 0.056695
Si Si2 0.657198 0.911608 0.604029
Si Si3 0.534972 0.220458 0.850448
Si Si4 0.972053 0.237055 0.750000
Si Si5 0.070409 0.110753 0.933811
Si Si6 0.164836 0.471921 0.750000
O O1 0.637816 0.181631 0.108756
O O2 0.833822 0.005122 0.104953
O O3 0.792185 0.250000 0.000000
O O4 0.693053 0.983943 0.986810
O O5 0.582950 0.757212 0.603424
O O6 0.765020 0.910822 0.667145
O O7 0.571410 0.041761 0.641774
O O8 0.520005 0.260820 0.750000
O O9 0.009436 0.177961 0.847951
O O10 0.038895 0.402013 0.750000
O O11 0.845590 0.161304 0.750000
O O12 0.108858 0.250000 0.000000
O O13 0.000000 0.000000 0.000000
#
# Coordination Sequence:
#
# PCOD9439857 Si02
#       6
#     8   8   8   4   8   4
#     4  10  24  42  68  99 145 192 234 297 366 432
#     4  11  23  45  68 100 145 189 235 297 364 432
#     4  11  22  41  66 103 138 186 238 292 358 435
#     4  12  28  46  76 106 140 190 244 306 376 438
#     4  12  26  48  72 107 145 190 250 310 372 447
#     4  12  26  48  70 102 144 184 244 302 366 442
#
# _framework density 25.772417000000001
#
# number of rings (size 3 to 8) (size 9 to 14) (size 15 to 20)
#    0.000    0.800    2.000    4.800    1.400    8.000 
#    0.000    0.000    0.000    0.000    0.000    0.000 
#    0.000    0.000    0.000    0.000    0.000    0.000 
#
# Total GULP energy -223882.927266 kJ/mol
# GULP energy per Si atom -5597.073182 kJ/mol
# Density = 2.571376 g / cm^3
# Si number density = 25.772417 Si / 1000 Ang^3
#
#
#
# Elastic Constant Matrix: (Units=GPa)
#
#
# Indices 1 2 3 4 5 6 
#
# 1 66.2639 40.5847 -2.7057 0.0000 0.0000 0.0000
# 2 40.5847 83.5661 26.2845 0.0000 0.0000 0.0000
# 3 -2.7057 26.2845 110.0121 0.0000 0.0000 0.0000
# 4 0.0000 0.0000 0.0000 41.0609 0.0000 0.0000
# 5 0.0000 0.0000 0.0000 0.0000 35.5170 0.0000
# 6 0.0000 0.0000 0.0000 0.0000 0.0000 23.9571
#
#
#
# Elastic Compliance Matrix: (Units=1/GPa)
#
#
# Indices 1 2 3 4 5 6 
#
# 1 0.022624 -0.012070 0.003440 0.000000 0.000000 0.000000
# 2 -0.012070 0.019378 -0.004927 0.000000 0.000000 0.000000
# 3 0.003440 -0.004927 0.010352 0.000000 0.000000 0.000000
# 4 0.000000 0.000000 0.000000 0.024354 0.000000 0.000000
# 5 0.000000 0.000000 0.000000 0.000000 0.028156 0.000000
# 6 0.000000 0.000000 0.000000 0.000000 0.000000 0.041741
#
#
# Mechanical properties :
#
#
# Convention : Reuss Voigt Hill
#
# Bulk Modulus (GPa) = 39.61782 43.12991 41.37386
# Shear Modulus (GPa) = 27.45288 33.15224 30.30256
#
# Velocity S-wave (km/s) = 3.26729 3.59046 3.43268
# Velocity P-wave (km/s) = 5.44418 5.82750 5.63910
#
# Compressibility (1/GPa) = 0.02524117
#
# Stress axis : x y z
#
# Youngs Moduli (GPa) = 44.20108 51.60523 96.60331
#
# Poissons Ratio (x) = 0.62285 -0.33233
# Poissons Ratio (y) = 0.53349 0.47593
# Poissons Ratio (z) = -0.15206 0.25424
#
# Static dielectric constant tensor:
#      x y z
#    x 2.154700 0.000000 0.000000 
#    y 0.000000 2.095150 0.000000 
#    z 0.000000 0.000000 1.973060 
# 
# From -- ./inp_files/21640.got.cif
#   From: 2010.05.17/outbox.cif.g08.bks.cpg/sg57_11_cif.got.tgz:21640.got - 2010.06.03 13:58:18.
