data_PCOD9439436
_publ_section_title
;
Structure prediction by ZEFSAII (Michael W. Deem and Ramdas Pophale) SiO2 
 PCOD9439436
Probable space group: P B C M
;
_chemical_formula_sum "Si O2"
_cell_formula_units_Z 32
_cell_length_a 11.152787
_cell_length_b 5.170735
_cell_length_c 22.099062
_cell_angle_alpha 90.000000
_cell_angle_beta 90.000000
_cell_angle_gamma 90.000000
_cell_volume 1274.411052
_symmetry_space_group_name_H-M "P B C M"
_symmetry_group_IT_number 57
_symmetry_cell_setting 'orthorhombic'
loop_
_space_group_symop_operation_xyz
x,y,z
-x,-y,1/2+z
x,1/2-y,-z
-x,1/2+y,1/2-z
-x,-y,-z
x,y,1/2-z
-x,1/2+y,z
x,1/2-y,1/2+z
loop_
_atom_site_type_symbol
_atom_site_label
_atom_site_fract_x
_atom_site_fract_y
_atom_site_fract_z
Si Si1 0.731622 0.576690 0.848269
Si Si2 0.576377 0.856456 0.750000
Si Si3 0.067644 0.179812 0.070603
Si Si4 0.089189 0.636670 0.250000
Si Si5 0.633456 0.007887 0.028877
O O1 0.655308 0.769531 0.806873
O O2 0.821464 0.736278 0.889746
O O3 0.817390 0.399266 0.806270
O O4 0.641414 0.460186 0.899041
O O5 0.463918 0.654365 0.750000
O O6 0.962996 0.385978 0.086226
O O7 0.078829 0.250000 0.000000
O O8 0.008222 0.897655 0.250000
O O9 0.684280 0.750000 0.000000
O O10 0.700603 0.250000 0.000000
O O11 0.500000 0.000000 0.000000
#
# Coordination Sequence:
#
# PCOD9439436 Si02
#       5
#     8   4   8   4   8
#     4  11  25  45  74 100 141 189 231 291 358 409
#     4  11  30  47  68  98 136 185 242 293 344 408
#     4  10  22  40  65 102 138 172 220 277 340 416
#     4  11  26  47  72 108 138 185 244 291 348 424
#     4  10  24  41  66 100 136 182 231 283 346 418
#
# _framework density 25.109635999999998
#
# number of rings (size 3 to 8) (size 9 to 14) (size 15 to 20)
#    0.000    1.500    0.000    2.250    7.000   13.000 
#    0.000    0.000    0.000    0.000    0.000    0.000 
#    0.000    0.000    0.000    0.000    0.000    0.000 
#
# Total GULP energy -178850.394686 kJ/mol
# GULP energy per Si atom -5589.074834 kJ/mol
# Density = 2.505249 g / cm^3
# Si number density = 25.109636 Si / 1000 Ang^3
#
#
#
# Elastic Constant Matrix: (Units=GPa)
#
#
# Indices 1 2 3 4 5 6 
#
# 1 101.5493 -6.8507 43.4208 0.0000 0.0000 0.0000
# 2 -6.8507 113.1795 13.7135 0.0000 0.0000 0.0000
# 3 43.4208 13.7135 177.7290 0.0000 0.0000 0.0000
# 4 0.0000 0.0000 0.0000 21.1616 0.0000 0.0000
# 5 0.0000 0.0000 0.0000 0.0000 55.1560 0.0000
# 6 0.0000 0.0000 0.0000 0.0000 0.0000 -7.8132
#
#
#
# Elastic Compliance Matrix: (Units=1/GPa)
#
#
# Indices 1 2 3 4 5 6 
#
# 1 0.011109 0.001011 -0.002792 0.000000 0.000000 0.000000
# 2 0.001011 0.009011 -0.000942 0.000000 0.000000 0.000000
# 3 -0.002792 -0.000942 0.006381 0.000000 0.000000 0.000000
# 4 0.000000 0.000000 0.000000 0.047255 0.000000 0.000000
# 5 0.000000 0.000000 0.000000 0.000000 0.018130 0.000000
# 6 0.000000 0.000000 0.000000 0.000000 0.000000 -0.127988
#
#
# Mechanical properties :
#
#
# Convention : Reuss Voigt Hill
#
# Bulk Modulus (GPa) = 47.49564 54.78056 51.13810
# Shear Modulus (GPa) = -211.54824 36.51248 -87.51788
#
# Velocity S-wave (km/s) = -9.18873 3.81743 -5.91016
# Velocity P-wave (km/s) = 9.67577 6.42606 5.11499
#
# Compressibility (1/GPa) = 0.02105457
#
# Stress axis : x y z
#
# Youngs Moduli (GPa) = 90.01311 110.97710 156.70565
#
# Poissons Ratio (x) = -0.11217 0.43754
# Poissons Ratio (y) = -0.09098 0.14765
# Poissons Ratio (z) = 0.25133 0.10456
#
# Static dielectric constant tensor:
#      x y z
#    x 1.235820 0.000000 0.000000 
#    y 0.000000 2.104000 0.000000 
#    z 0.000000 0.000000 2.747370 
# 
# From -- ./inp_files/27000.got.cif
#   From: 2010.05.17/outbox.cif.g08.bks.cpg/sg57_14_cif.got.tgz:27000.got - 2010.06.03 13:58:18.
