data_PCOD9439159
_publ_section_title
;
Structure prediction by ZEFSAII (Michael W. Deem and Ramdas Pophale) SiO2 
 PCOD9439159
Probable space group: P B C M
;
_chemical_formula_sum "Si O2"
_cell_formula_units_Z 48
_cell_length_a 16.889746
_cell_length_b 8.685890
_cell_length_c 15.657544
_cell_angle_alpha 90.000000
_cell_angle_beta 90.000000
_cell_angle_gamma 90.000000
_cell_volume 2297.000471
_symmetry_space_group_name_H-M "P B C M"
_symmetry_group_IT_number 57
_symmetry_cell_setting 'orthorhombic'
loop_
_space_group_symop_operation_xyz
x,y,z
-x,-y,1/2+z
x,1/2-y,-z
-x,1/2+y,1/2-z
-x,-y,-z
x,y,1/2-z
-x,1/2+y,z
x,1/2-y,1/2+z
loop_
_atom_site_type_symbol
_atom_site_label
_atom_site_fract_x
_atom_site_fract_y
_atom_site_fract_z
Si Si1 0.928564 0.655124 0.750000
Si Si2 0.687144 0.911716 0.348983
Si Si3 0.897633 0.209295 0.250000
Si Si4 0.521417 0.866470 0.430122
Si Si5 0.195089 0.847563 0.090542
Si Si6 0.356596 0.745820 0.601435
Si Si7 0.166108 0.208246 0.091324
O O1 0.914247 0.472485 0.750000
O O2 0.887069 0.730057 0.667883
O O3 0.020581 0.697198 0.750000
O O4 0.706780 0.892246 0.250000
O O5 0.594619 0.882948 0.367272
O O6 0.749455 0.802395 0.398860
O O7 0.684305 0.094065 0.371152
O O8 0.849950 0.256041 0.335259
O O9 0.553151 0.750000 0.500000
O O10 0.445188 0.807040 0.375927
O O11 0.500000 0.000000 0.500000
O O12 0.286963 0.871568 0.118644
O O13 0.167233 0.023275 0.088539
O O14 0.191363 0.750000 0.000000
O O15 0.367019 0.750000 0.500000
O O16 0.131268 0.250000 0.000000
#
# Coordination Sequence:
#
# PCOD9439159 Si02
#       7
#     4   8   4   8   8   8   8
#     4  12  26  50  74 113 142 187 234 292 356 435
#     4  12  25  41  65 100 140 182 237 301 355 421
#     4  12  26  48  78 103 152 181 230 298 360 425
#     4  11  22  41  64  89 133 188 240 292 356 419
#     4  11  25  44  71 107 139 188 240 289 359 432
#     4  10  21  41  64  91 132 182 236 282 348 413
#     4  12  25  45  74 105 145 188 239 291 361 433
#
# _framework density 20.896818
#
# number of rings (size 3 to 8) (size 9 to 14) (size 15 to 20)
#    0.000    0.667    4.167    6.000    3.500    1.333 
#    0.000    3.333    0.000    0.000    0.000    0.000 
#    0.000    0.000    0.000    0.000    0.000    0.000 
#
# Total GULP energy -267344.193690 kJ/mol
# GULP energy per Si atom -5569.670702 kJ/mol
# Density = 2.084926 g / cm^3
# Si number density = 20.896818 Si / 1000 Ang^3
#
#
#
# Elastic Constant Matrix: (Units=GPa)
#
#
# Indices 1 2 3 4 5 6 
#
# 1 111.1386 -5.3428 33.8293 0.0000 0.0000 0.0000
# 2 -5.3428 83.1223 25.9371 0.0000 0.0000 0.0000
# 3 33.8293 25.9371 117.3087 0.0000 0.0000 0.0000
# 4 0.0000 0.0000 0.0000 30.4656 0.0000 0.0000
# 5 0.0000 0.0000 0.0000 0.0000 -80.5494 0.0000
# 6 0.0000 0.0000 0.0000 0.0000 0.0000 28.3635
#
#
#
# Elastic Compliance Matrix: (Units=1/GPa)
#
#
# Indices 1 2 3 4 5 6 
#
# 1 0.010075 0.001669 -0.003274 0.000000 0.000000 0.000000
# 2 0.001669 0.013199 -0.003400 0.000000 0.000000 0.000000
# 3 -0.003274 -0.003400 0.010220 0.000000 0.000000 0.000000
# 4 0.000000 0.000000 0.000000 0.032824 0.000000 0.000000
# 5 0.000000 0.000000 0.000000 0.000000 -0.012415 0.000000
# 6 0.000000 0.000000 0.000000 0.000000 0.000000 0.035257
#
#
# Mechanical properties :
#
#
# Convention : Reuss Voigt Hill
#
# Bulk Modulus (GPa) = 42.58168 46.71297 44.64733
# Shear Modulus (GPa) = 46.73029 12.79901 29.76465
#
# Velocity S-wave (km/s) = 4.73402 2.47753 3.77817
# Velocity P-wave (km/s) = 7.09243 5.53054 6.35962
#
# Compressibility (1/GPa) = 0.02348428
#
# Stress axis : x y z
#
# Youngs Moduli (GPa) = 99.25838 75.76580 97.84307
#
# Poissons Ratio (x) = -0.12648 0.32038
# Poissons Ratio (y) = -0.16569 0.33263
# Poissons Ratio (z) = 0.32501 0.25757
#
# Static dielectric constant tensor:
#      x y z
#    x 1.914630 0.000000 0.000000 
#    y 0.000000 1.860420 0.000000 
#    z 0.000000 0.000000 1.760260 
# 
# From -- ./inp_files/19008.got.cif
#   From: 2010.05.17/outbox.cif.g08.bks.cpg/sg57_10_cif.got.tgz:19008.got - 2010.06.03 13:58:18.
