data_PCOD9439320
_publ_section_title
;
Structure prediction by ZEFSAII (Michael W. Deem and Ramdas Pophale) SiO2 
 PCOD9439320
Probable space group: P B C M
;
_chemical_formula_sum "Si O2"
_cell_formula_units_Z 36
_cell_length_a 8.904826
_cell_length_b 8.264896
_cell_length_c 21.412871
_cell_angle_alpha 90.000000
_cell_angle_beta 90.000000
_cell_angle_gamma 90.000000
_cell_volume 1575.932934
_symmetry_space_group_name_H-M "P B C M"
_symmetry_group_IT_number 57
_symmetry_cell_setting 'orthorhombic'
loop_
_space_group_symop_operation_xyz
x,y,z
-x,-y,1/2+z
x,1/2-y,-z
-x,1/2+y,1/2-z
-x,-y,-z
x,y,1/2-z
-x,1/2+y,z
x,1/2-y,1/2+z
loop_
_atom_site_type_symbol
_atom_site_label
_atom_site_fract_x
_atom_site_fract_y
_atom_site_fract_z
Si Si1 0.439124 0.684818 0.068399
Si Si2 0.989713 0.750000 0.500000
Si Si3 0.168092 0.684392 0.625479
Si Si4 0.902163 0.664800 0.321287
Si Si5 0.733961 0.645598 0.921918
O O1 0.344665 0.786615 0.118967
O O2 0.617941 0.704723 0.071025
O O3 0.376093 0.505606 0.076568
O O4 0.399492 0.750000 0.000000
O O5 0.862654 0.622033 0.524944
O O6 0.094280 0.751405 0.560716
O O7 0.130853 0.499073 0.640700
O O8 0.078425 0.791681 0.675516
O O9 0.852958 0.648840 0.250000
O O10 0.821094 0.811177 0.358400
#
# Coordination Sequence:
#
# PCOD9439320 Si02
#       5
#     8   4   8   8   8
#     4  12  24  41  66 102 141 172 213 273 342 414
#     4  10  22  38  64 100 134 170 214 270 334 404
#     4  11  23  39  70  99 134 171 224 274 343 395
#     4  11  25  47  67  94 133 179 232 282 325 396
#     4  11  25  41  66  97 135 178 220 269 340 398
#
# _framework density 22.843612
#
# number of rings (size 3 to 8) (size 9 to 14) (size 15 to 20)
#    0.000    0.889    2.222    5.333    6.222    4.444 
#    0.000    6.667    0.000    0.000    0.000    0.000 
#    0.000    0.000    0.000    0.000    0.000    0.000 
#
# Total GULP energy -200906.337341 kJ/mol
# GULP energy per Si atom -5580.731593 kJ/mol
# Density = 2.279162 g / cm^3
# Si number density = 22.843612 Si / 1000 Ang^3
#
#
#
# Elastic Constant Matrix: (Units=GPa)
#
#
# Indices 1 2 3 4 5 6 
#
# 1 100.5293 0.3330 32.9224 0.0000 0.0000 0.0000
# 2 0.3330 95.3706 35.8539 0.0000 0.0000 0.0000
# 3 32.9224 35.8539 127.3015 0.0000 0.0000 0.0000
# 4 0.0000 0.0000 0.0000 5.1232 0.0000 0.0000
# 5 0.0000 0.0000 0.0000 0.0000 16.8444 0.0000
# 6 0.0000 0.0000 0.0000 0.0000 0.0000 41.1419
#
#
#
# Elastic Compliance Matrix: (Units=1/GPa)
#
#
# Indices 1 2 3 4 5 6 
#
# 1 0.010980 0.001151 -0.003164 0.000000 0.000000 0.000000
# 2 0.001151 0.011848 -0.003635 0.000000 0.000000 0.000000
# 3 -0.003164 -0.003635 0.009697 0.000000 0.000000 0.000000
# 4 0.000000 0.000000 0.000000 0.195190 0.000000 0.000000
# 5 0.000000 0.000000 0.000000 0.000000 0.059367 0.000000
# 6 0.000000 0.000000 0.000000 0.000000 0.000000 0.024306
#
#
# Mechanical properties :
#
#
# Convention : Reuss Voigt Hill
#
# Bulk Modulus (GPa) = 47.10279 51.26890 49.18584
# Shear Modulus (GPa) = 15.16259 29.56138 22.36198
#
# Velocity S-wave (km/s) = 2.57914 3.60123 3.13216
# Velocity P-wave (km/s) = 5.43449 6.30745 5.88718
#
# Compressibility (1/GPa) = 0.02123017
#
# Stress axis : x y z
#
# Youngs Moduli (GPa) = 91.07780 84.40403 103.12238
#
# Poissons Ratio (x) = -0.09715 0.32625
# Poissons Ratio (y) = -0.10483 0.37480
# Poissons Ratio (z) = 0.28814 0.30677
#
# Static dielectric constant tensor:
#      x y z
#    x 1.881260 0.000000 0.000000 
#    y 0.000000 1.962500 0.000000 
#    z 0.000000 0.000000 1.855450 
# 
# From -- ./inp_files/23985.got.cif
#   From: 2010.05.17/outbox.cif.g08.bks.cpg/sg57_12_cif.got.tgz:23985.got - 2010.06.03 13:58:18.
