data_PCOD9439696
_publ_section_title
;
Structure prediction by ZEFSAII (Michael W. Deem and Ramdas Pophale) SiO2 
 PCOD9439696
Probable space group: P B C M
;
_chemical_formula_sum "Si O2"
_cell_formula_units_Z 40
_cell_length_a 8.100088
_cell_length_b 12.801343
_cell_length_c 17.283112
_cell_angle_alpha 90.000000
_cell_angle_beta 90.000000
_cell_angle_gamma 90.000000
_cell_volume 1792.120533
_symmetry_space_group_name_H-M "P B C M"
_symmetry_group_IT_number 57
_symmetry_cell_setting 'orthorhombic'
loop_
_space_group_symop_operation_xyz
x,y,z
-x,-y,1/2+z
x,1/2-y,-z
-x,1/2+y,1/2-z
-x,-y,-z
x,y,1/2-z
-x,1/2+y,z
x,1/2-y,1/2+z
loop_
_atom_site_type_symbol
_atom_site_label
_atom_site_fract_x
_atom_site_fract_y
_atom_site_fract_z
Si Si1 0.134414 0.849725 0.658182
Si Si2 0.240433 0.083216 0.376655
Si Si3 0.326017 0.857927 0.164153
Si Si4 0.176867 0.022268 0.958439
Si Si5 0.354559 0.208803 0.587251
O O1 0.159301 0.872333 0.750000
O O2 0.193047 0.731324 0.643408
O O3 0.224788 0.927961 0.598114
O O4 0.943904 0.872283 0.637073
O O5 0.347086 0.186406 0.360875
O O6 0.256612 0.974590 0.333282
O O7 0.279794 0.045507 0.464439
O O8 0.387068 0.831531 0.250000
O O9 0.480399 0.851748 0.107589
O O10 0.199777 0.128645 0.908866
O O11 0.000000 0.000000 0.000000
O O12 0.355746 0.250000 0.500000
#
# Coordination Sequence:
#
# PCOD9439696 Si02
#       5
#     8   8   8   8   8
#     4  10  23  41  63  94 132 176 223 279 340 400
#     4  10  23  43  67  92 131 174 228 277 333 404
#     4  11  26  42  64 100 137 178 226 275 341 411
#     4   9  21  41  69  97 123 169 230 278 331 406
#     4  10  24  43  67  97 132 173 220 280 344 398
#
# _framework density 22.319928000000001
#
# number of rings (size 3 to 8) (size 9 to 14) (size 15 to 20)
#    0.000    2.000    0.000    0.600   11.200    4.000 
#    0.000    0.000    0.000    0.000    0.000    0.000 
#    0.000    0.000    0.000    0.000    0.000    0.000 
#
# Total GULP energy -222765.296961 kJ/mol
# GULP energy per Si atom -5569.132424 kJ/mol
# Density = 2.226913 g / cm^3
# Si number density = 22.319928 Si / 1000 Ang^3
#
#
#
# Elastic Constant Matrix: (Units=GPa)
#
#
# Indices 1 2 3 4 5 6 
#
# 1 62.4448 68.9902 3.6942 0.0000 0.0000 0.0000
# 2 68.9902 199.1895 54.9526 0.0000 0.0000 0.0000
# 3 3.6942 54.9526 51.4002 0.0000 0.0000 0.0000
# 4 0.0000 0.0000 0.0000 21.5442 0.0000 0.0000
# 5 0.0000 0.0000 0.0000 0.0000 15.8995 0.0000
# 6 0.0000 0.0000 0.0000 0.0000 0.0000 33.5427
#
#
#
# Elastic Compliance Matrix: (Units=1/GPa)
#
#
# Indices 1 2 3 4 5 6 
#
# 1 0.031194 -0.014447 0.013203 0.000000 0.000000 0.000000
# 2 -0.014447 0.013811 -0.013727 0.000000 0.000000 0.000000
# 3 0.013203 -0.013727 0.033182 0.000000 0.000000 0.000000
# 4 0.000000 0.000000 0.000000 0.046416 0.000000 0.000000
# 5 0.000000 0.000000 0.000000 0.000000 0.062895 0.000000
# 6 0.000000 0.000000 0.000000 0.000000 0.000000 0.029813
#
#
# Mechanical properties :
#
#
# Convention : Reuss Voigt Hill
#
# Bulk Modulus (GPa) = 20.72726 63.14539 41.93633
# Shear Modulus (GPa) = 18.98722 26.55711 22.77216
#
# Velocity S-wave (km/s) = 2.91981 3.45315 3.19762
# Velocity P-wave (km/s) = 4.54683 6.65217 5.69759
#
# Compressibility (1/GPa) = 0.04824564
#
# Stress axis : x y z
#
# Youngs Moduli (GPa) = 32.05749 72.40551 30.13659
#
# Poissons Ratio (x) = 1.04602 -0.39790
# Poissons Ratio (y) = 0.46312 0.41369
# Poissons Ratio (z) = -0.42326 0.99393
#
# Static dielectric constant tensor:
#      x y z
#    x 1.908370 0.000000 0.000000 
#    y 0.000000 1.639410 0.000000 
#    z 0.000000 0.000000 1.852510 
# 
# From -- ./inp_files/20520.got.cif
#   From: 2010.05.17/outbox.cif.g08.bks.cpg/sg57_11_cif.got.tgz:20520.got - 2010.06.03 13:58:18.
