data_PCOD9439755
_publ_section_title
;
Structure prediction by ZEFSAII (Michael W. Deem and Ramdas Pophale) SiO2 
 PCOD9439755
Probable space group: P B C M
;
_chemical_formula_sum "Si O2"
_cell_formula_units_Z 40
_cell_length_a 6.565622
_cell_length_b 10.580010
_cell_length_c 24.845835
_cell_angle_alpha 90.000000
_cell_angle_beta 90.000000
_cell_angle_gamma 90.000000
_cell_volume 1725.899689
_symmetry_space_group_name_H-M "P B C M"
_symmetry_group_IT_number 57
_symmetry_cell_setting 'orthorhombic'
loop_
_space_group_symop_operation_xyz
x,y,z
-x,-y,1/2+z
x,1/2-y,-z
-x,1/2+y,1/2-z
-x,-y,-z
x,y,1/2-z
-x,1/2+y,z
x,1/2-y,1/2+z
loop_
_atom_site_type_symbol
_atom_site_label
_atom_site_fract_x
_atom_site_fract_y
_atom_site_fract_z
Si Si1 0.137313 0.015801 0.946362
Si Si2 0.187168 0.069005 0.187756
Si Si3 0.861321 0.241965 0.935244
Si Si4 0.480966 0.563252 0.608744
Si Si5 0.164029 0.141014 0.688925
O O1 0.096734 0.883905 0.916443
O O2 0.382250 0.022729 0.942937
O O3 0.050382 0.148799 0.925983
O O4 0.000000 0.000000 0.000000
O O5 0.268571 0.058131 0.250000
O O6 0.103621 0.211807 0.183691
O O7 0.350543 0.042370 0.140345
O O8 0.019636 0.958355 0.182497
O O9 0.669911 0.174516 0.908533
O O10 0.825184 0.250000 0.000000
O O11 0.648229 0.608887 0.650941
O O12 0.237520 0.125006 0.750000
#
# Coordination Sequence:
#
# PCOD9439755 Si02
#       5
#     8   8   8   8   8
#     4  10  24  44  64  90 128 169 214 270 327 382
#     4  10  23  43  66  96 133 171 214 266 325 389
#     4  10  24  43  64  91 125 169 216 267 321 379
#     4  12  23  38  68  98 126 167 220 266 318 384
#     4  10  23  43  66  95 132 169 208 261 321 383
#
# _framework density 23.176318999999999
#
# number of rings (size 3 to 8) (size 9 to 14) (size 15 to 20)
#    0.000    1.600    0.000    3.000    0.000   15.200 
#    0.000    4.000    0.000    0.000    0.000    0.000 
#    0.000    0.000    0.000    0.000    0.000    0.000 
#
# Total GULP energy -223343.324704 kJ/mol
# GULP energy per Si atom -5583.583118 kJ/mol
# Density = 2.312357 g / cm^3
# Si number density = 23.176319 Si / 1000 Ang^3
#
#
#
# Elastic Constant Matrix: (Units=GPa)
#
#
# Indices 1 2 3 4 5 6 
#
# 1 110.8415 59.8661 45.1218 0.0000 0.0000 0.0000
# 2 59.8661 172.2591 14.1002 0.0000 0.0000 0.0000
# 3 45.1218 14.1002 103.4107 0.0000 0.0000 0.0000
# 4 0.0000 0.0000 0.0000 38.6778 0.0000 0.0000
# 5 0.0000 0.0000 0.0000 0.0000 35.2781 0.0000
# 6 0.0000 0.0000 0.0000 0.0000 0.0000 35.6584
#
#
#
# Elastic Compliance Matrix: (Units=1/GPa)
#
#
# Indices 1 2 3 4 5 6 
#
# 1 0.013474 -0.004249 -0.005300 0.000000 0.000000 0.000000
# 2 -0.004249 0.007211 0.000871 0.000000 0.000000 0.000000
# 3 -0.005300 0.000871 0.011864 0.000000 0.000000 0.000000
# 4 0.000000 0.000000 0.000000 0.025855 0.000000 0.000000
# 5 0.000000 0.000000 0.000000 0.000000 0.028346 0.000000
# 6 0.000000 0.000000 0.000000 0.000000 0.000000 0.028044
#
#
# Mechanical properties :
#
#
# Convention : Reuss Voigt Hill
#
# Bulk Modulus (GPa) = 65.82133 69.40971 67.61552
# Shear Modulus (GPa) = 36.43939 39.75107 38.09523
#
# Velocity S-wave (km/s) = 3.96949 4.14594 4.05867
# Velocity P-wave (km/s) = 7.03356 7.27544 7.15552
#
# Compressibility (1/GPa) = 0.01519264
#
# Stress axis : x y z
#
# Youngs Moduli (GPa) = 74.21522 138.68481 84.28848
#
# Poissons Ratio (x) = 0.58927 0.44673
# Poissons Ratio (y) = 0.31534 -0.07340
# Poissons Ratio (z) = 0.39334 -0.12077
#
# Static dielectric constant tensor:
#      x y z
#    x 1.856680 0.000000 0.000000 
#    y 0.000000 1.864370 0.000000 
#    z 0.000000 0.000000 2.050730 
# 
# From -- ./inp_files/27791.got.cif
#   From: 2010.05.17/outbox.cif.g08.bks.cpg/sg57_14_cif.got.tgz:27791.got - 2010.06.03 13:58:18.
