data_PCOD9439395
_publ_section_title
;
Structure prediction by ZEFSAII (Michael W. Deem and Ramdas Pophale) SiO2 
 PCOD9439395
Probable space group: P B C M
;
_chemical_formula_sum "Si O2"
_cell_formula_units_Z 32
_cell_length_a 12.894390
_cell_length_b 5.068688
_cell_length_c 21.912312
_cell_angle_alpha 90.000000
_cell_angle_beta 90.000000
_cell_angle_gamma 90.000000
_cell_volume 1432.136996
_symmetry_space_group_name_H-M "P B C M"
_symmetry_group_IT_number 57
_symmetry_cell_setting 'orthorhombic'
loop_
_space_group_symop_operation_xyz
x,y,z
-x,-y,1/2+z
x,1/2-y,-z
-x,1/2+y,1/2-z
-x,-y,-z
x,y,1/2-z
-x,1/2+y,z
x,1/2-y,1/2+z
loop_
_atom_site_type_symbol
_atom_site_label
_atom_site_fract_x
_atom_site_fract_y
_atom_site_fract_z
Si Si1 0.427417 0.191495 0.067035
Si Si2 0.074497 0.211516 0.866171
Si Si3 0.423371 0.718994 0.250000
Si Si4 0.925378 0.750000 0.500000
Si Si5 0.295678 0.357067 0.317147
O O1 0.521320 0.403666 0.069593
O O2 0.354182 0.234858 0.125207
O O3 0.378019 0.250000 0.000000
O O4 0.172967 0.146988 0.825539
O O5 0.011701 0.483404 0.858758
O O6 0.125432 0.229533 0.934252
O O7 0.493676 0.974945 0.250000
O O8 0.348037 0.646707 0.306820
O O9 0.000000 0.500000 0.500000
O O10 0.311484 0.228099 0.250000
#
# Coordination Sequence:
#
# PCOD9439395 Si02
#       5
#     8   8   4   4   8
#     4  10  22  41  64  92 125 160 204 259 307 359
#     4  10  22  40  60  87 123 157 203 253 298 358
#     4  10  22  40  60  86 120 154 198 244 290 360
#     4   8  16  34  58  80 110 154 194 244 298 340
#     4  10  24  40  64  95 119 172 200 248 311 368
#
# _framework density 22.34423
#
# number of rings (size 3 to 8) (size 9 to 14) (size 15 to 20)
#    0.750    1.500    0.000    1.500    1.750    5.000 
#    0.000    0.000    0.000    0.000    0.000    0.000 
#    0.000    0.000    0.000    0.000    0.000    0.000 
#
# Total GULP energy -178322.231386 kJ/mol
# GULP energy per Si atom -5572.569731 kJ/mol
# Density = 2.229337 g / cm^3
# Si number density = 22.344230 Si / 1000 Ang^3
#
#
#
# Elastic Constant Matrix: (Units=GPa)
#
#
# Indices 1 2 3 4 5 6 
#
# 1 91.0753 -2.4340 53.2119 0.0000 0.0000 0.0000
# 2 -2.4340 90.0868 -0.7965 0.0000 0.0000 0.0000
# 3 53.2119 -0.7965 152.6204 0.0000 0.0000 0.0000
# 4 0.0000 0.0000 0.0000 -388.6372 0.0000 0.0000
# 5 0.0000 0.0000 0.0000 0.0000 53.0731 0.0000
# 6 0.0000 0.0000 0.0000 0.0000 0.0000 8.5631
#
#
#
# Elastic Compliance Matrix: (Units=1/GPa)
#
#
# Indices 1 2 3 4 5 6 
#
# 1 0.013799 0.000330 -0.004809 0.000000 0.000000 0.000000
# 2 0.000330 0.011109 -0.000057 0.000000 0.000000 0.000000
# 3 -0.004809 -0.000057 0.008229 0.000000 0.000000 0.000000
# 4 0.000000 0.000000 0.000000 -0.002573 0.000000 0.000000
# 5 0.000000 0.000000 0.000000 0.000000 0.018842 0.000000
# 6 0.000000 0.000000 0.000000 0.000000 0.000000 0.116780
#
#
# Mechanical properties :
#
#
# Convention : Reuss Voigt Hill
#
# Bulk Modulus (GPa) = 41.55608 48.19390 44.87499
# Shear Modulus (GPa) = 27.28084 -46.48013 -9.59965
#
# Velocity S-wave (km/s) = 3.49798 -4.56585 -2.07499
# Velocity P-wave (km/s) = 5.91210 2.48603 3.79293
#
# Compressibility (1/GPa) = 0.02406387
#
# Stress axis : x y z
#
# Youngs Moduli (GPa) = 72.47109 90.01856 121.52631
#
# Poissons Ratio (x) = -0.02973 0.58445
# Poissons Ratio (y) = -0.02394 0.00695
# Poissons Ratio (z) = 0.34853 0.00515
#
# Static dielectric constant tensor:
#      x y z
#    x 1.760760 0.000000 0.000000 
#    y 0.000000 1.878450 0.000000 
#    z 0.000000 0.000000 1.953360 
# 
# From -- ./inp_files/24801.got.cif
#   From: 2010.05.17/outbox.cif.g08.bks.cpg/sg57_13_cif.got.tgz:24801.got - 2010.06.03 13:58:18.
