data_PCOD9439020
_publ_section_title
;
Structure prediction by ZEFSAII (Michael W. Deem and Ramdas Pophale) SiO2 
 PCOD9439020
Probable space group: P B C M
;
_chemical_formula_sum "Si O2"
_cell_formula_units_Z 40
_cell_length_a 7.572585
_cell_length_b 12.037431
_cell_length_c 18.941616
_cell_angle_alpha 90.000000
_cell_angle_beta 90.000000
_cell_angle_gamma 90.000000
_cell_volume 1726.612957
_symmetry_space_group_name_H-M "P B C M"
_symmetry_group_IT_number 57
_symmetry_cell_setting 'orthorhombic'
loop_
_space_group_symop_operation_xyz
x,y,z
-x,-y,1/2+z
x,1/2-y,-z
-x,1/2+y,1/2-z
-x,-y,-z
x,y,1/2-z
-x,1/2+y,z
x,1/2-y,1/2+z
loop_
_atom_site_type_symbol
_atom_site_label
_atom_site_fract_x
_atom_site_fract_y
_atom_site_fract_z
Si Si1 0.158208 0.853089 0.537779
Si Si2 0.861078 0.998017 0.831579
Si Si3 0.265626 0.760914 0.170825
Si Si4 0.676405 0.735443 0.167240
Si Si5 0.157847 0.415611 0.436066
O O1 0.256275 0.750000 0.500000
O O2 0.144020 0.803305 0.616021
O O3 0.972081 0.868874 0.496781
O O4 0.252779 0.972913 0.535000
O O5 0.916712 0.995126 0.750000
O O6 0.737481 0.106635 0.840271
O O7 0.023831 0.027273 0.880768
O O8 0.763669 0.883601 0.847089
O O9 0.201388 0.739748 0.250000
O O10 0.465757 0.721611 0.163686
O O11 0.717442 0.767952 0.250000
O O12 0.737219 0.824866 0.108748
#
# Coordination Sequence:
#
# PCOD9439020 Si02
#       5
#     8   8   8   8   8
#     4  11  23  43  66  93 135 180 225 277 335 408
#     4  10  21  39  65  96 133 172 222 283 337 405
#     4  10  23  43  69  96 134 178 223 281 346 407
#     4  10  23  43  69 105 136 175 232 285 345 406
#     4  11  23  41  68  95 135 178 228 283 337 406
#
# _framework density 23.166744000000001
#
# number of rings (size 3 to 8) (size 9 to 14) (size 15 to 20)
#    0.000    1.600    2.000    1.800    2.800    1.600 
#    0.000    7.000    0.000    0.000    0.000    0.000 
#    0.000    0.000    0.000    0.000    0.000    0.000 
#
# Total GULP energy -223545.499737 kJ/mol
# GULP energy per Si atom -5588.637493 kJ/mol
# Density = 2.311402 g / cm^3
# Si number density = 23.166744 Si / 1000 Ang^3
#
#
#
# Elastic Constant Matrix: (Units=GPa)
#
#
# Indices 1 2 3 4 5 6 
#
# 1 47.3988 26.2438 29.3770 0.0000 0.0000 0.0000
# 2 26.2438 166.2189 80.0487 0.0000 0.0000 0.0000
# 3 29.3770 80.0487 120.6844 0.0000 0.0000 0.0000
# 4 0.0000 0.0000 0.0000 49.2556 0.0000 0.0000
# 5 0.0000 0.0000 0.0000 0.0000 27.1219 0.0000
# 6 0.0000 0.0000 0.0000 0.0000 0.0000 23.9814
#
#
#
# Elastic Compliance Matrix: (Units=1/GPa)
#
#
# Indices 1 2 3 4 5 6 
#
# 1 0.025098 -0.001499 -0.005115 0.000000 0.000000 0.000000
# 2 -0.001499 0.008929 -0.005558 0.000000 0.000000 0.000000
# 3 -0.005115 -0.005558 0.013218 0.000000 0.000000 0.000000
# 4 0.000000 0.000000 0.000000 0.020302 0.000000 0.000000
# 5 0.000000 0.000000 0.000000 0.000000 0.036871 0.000000
# 6 0.000000 0.000000 0.000000 0.000000 0.000000 0.041699
#
#
# Mechanical properties :
#
#
# Convention : Reuss Voigt Hill
#
# Bulk Modulus (GPa) = 43.66652 67.29344 55.47998
# Shear Modulus (GPa) = 28.07502 33.31396 30.69449
#
# Velocity S-wave (km/s) = 3.48496 3.79622 3.64392
# Velocity P-wave (km/s) = 5.92309 6.95166 6.45789
#
# Compressibility (1/GPa) = 0.02290084
#
# Stress axis : x y z
#
# Youngs Moduli (GPa) = 39.84406 111.98856 75.65690
#
# Poissons Ratio (x) = 0.16792 0.38697
# Poissons Ratio (y) = 0.05974 0.42049
# Poissons Ratio (z) = 0.20379 0.62241
#
# Static dielectric constant tensor:
#      x y z
#    x 1.816520 0.000000 0.000000 
#    y 0.000000 1.963170 0.000000 
#    z 0.000000 0.000000 1.977160 
# 
# From -- ./inp_files/20541.got.cif
#   From: 2010.05.17/outbox.cif.g08.bks.cpg/sg57_11_cif.got.tgz:20541.got - 2010.06.03 13:58:18.
