data_PCOD9439128
_publ_section_title
;
Structure prediction by ZEFSAII (Michael W. Deem and Ramdas Pophale) SiO2 
 PCOD9439128
Probable space group: P B C M
;
_chemical_formula_sum "Si O2"
_cell_formula_units_Z 40
_cell_length_a 22.451346
_cell_length_b 9.934900
_cell_length_c 9.536182
_cell_angle_alpha 90.000000
_cell_angle_beta 90.000000
_cell_angle_gamma 90.000000
_cell_volume 2127.063298
_symmetry_space_group_name_H-M "P B C M"
_symmetry_group_IT_number 57
_symmetry_cell_setting 'orthorhombic'
loop_
_space_group_symop_operation_xyz
x,y,z
-x,-y,1/2+z
x,1/2-y,-z
-x,1/2+y,1/2-z
-x,-y,-z
x,y,1/2-z
-x,1/2+y,z
x,1/2-y,1/2+z
loop_
_atom_site_type_symbol
_atom_site_label
_atom_site_fract_x
_atom_site_fract_y
_atom_site_fract_z
Si Si1 0.221887 0.501826 0.910357
Si Si2 0.858651 0.750000 0.000000
Si Si3 0.943130 0.154420 0.250000
Si Si4 0.677932 0.888337 0.413389
Si Si5 0.859518 0.250000 0.000000
Si Si6 0.942316 0.655662 0.750000
Si Si7 0.461755 0.109508 0.583451
O O1 0.242822 0.500690 0.750000
O O2 0.182131 0.368786 0.938028
O O3 0.277214 0.493305 0.016429
O O4 0.181598 0.632157 0.937853
O O5 0.901012 0.686547 0.882851
O O6 0.902088 0.186303 0.383099
O O7 0.000665 0.248620 0.250000
O O8 0.961654 0.999100 0.250000
O O9 0.684959 0.750000 0.500000
O O10 0.692926 0.867005 0.250000
O O11 0.608516 0.926857 0.422814
O O12 0.468841 0.250000 0.500000
O O13 0.477249 0.120627 0.750000
O O14 0.500000 0.000000 0.500000
#
# Coordination Sequence:
#
# PCOD9439128 Si02
#       7
#     8   4   4   8   4   4   8
#     4  12  25  42  67  95 126 169 213 262 325 385
#     4  12  25  42  66  96 123 162 206 258 316 388
#     4  12  28  46  68  94 126 164 207 264 319 391
#     4  10  22  38  65  99 133 170 219 269 319 381
#     4  12  27  46  66  92 129 164 208 266 328 382
#     4  12  28  44  68  94 126 162 209 260 319 387
#     4  10  21  40  65  97 134 179 223 274 327 383
#
# _framework density 18.80527
#
# number of rings (size 3 to 8) (size 9 to 14) (size 15 to 20)
#    0.000    0.800    5.000    1.800    5.600    4.000 
#    1.800    0.000    0.000    0.000    0.000    0.000 
#    0.000    0.000    0.000    0.000    0.000    0.000 
#
# Total GULP energy -223660.166835 kJ/mol
# GULP energy per Si atom -5591.504171 kJ/mol
# Density = 1.876247 g / cm^3
# Si number density = 18.805270 Si / 1000 Ang^3
#
#
#
# Elastic Constant Matrix: (Units=GPa)
#
#
# Indices 1 2 3 4 5 6 
#
# 1 94.0466 52.9500 62.6511 0.0000 0.0000 0.0000
# 2 52.9500 123.3761 43.2218 0.0000 0.0000 0.0000
# 3 62.6511 43.2218 166.1030 0.0000 0.0000 0.0000
# 4 0.0000 0.0000 0.0000 27.2293 0.0000 0.0000
# 5 0.0000 0.0000 0.0000 0.0000 40.2018 0.0000
# 6 0.0000 0.0000 0.0000 0.0000 0.0000 28.0674
#
#
#
# Elastic Compliance Matrix: (Units=1/GPa)
#
#
# Indices 1 2 3 4 5 6 
#
# 1 0.017112 -0.005593 -0.004999 0.000000 0.000000 0.000000
# 2 -0.005593 0.010746 -0.000687 0.000000 0.000000 0.000000
# 3 -0.004999 -0.000687 0.008085 0.000000 0.000000 0.000000
# 4 0.000000 0.000000 0.000000 0.036725 0.000000 0.000000
# 5 0.000000 0.000000 0.000000 0.000000 0.024875 0.000000
# 6 0.000000 0.000000 0.000000 0.000000 0.000000 0.035629
#
#
# Mechanical properties :
#
#
# Convention : Reuss Voigt Hill
#
# Bulk Modulus (GPa) = 74.70696 77.90795 76.30745
# Shear Modulus (GPa) = 31.21287 34.07988 32.64637
#
# Velocity S-wave (km/s) = 4.07848 4.26167 4.17108
# Velocity P-wave (km/s) = 7.87347 8.10768 7.99143
#
# Compressibility (1/GPa) = 0.01338563
#
# Stress axis : x y z
#
# Youngs Moduli (GPa) = 58.43812 93.05629 123.69148
#
# Poissons Ratio (x) = 0.52045 0.61834
# Poissons Ratio (y) = 0.32683 0.08495
# Poissons Ratio (z) = 0.29214 0.06391
#
# Static dielectric constant tensor:
#      x y z
#    x 1.628940 0.000000 0.000000 
#    y 0.000000 1.630610 0.000000 
#    z 0.000000 0.000000 1.642320 
# 
# From -- ./inp_files/9025.got.cif
#   From: 2010.05.17/outbox.cif.g08.bks.cpg/sg57_5_cif.got.tgz:9025.got - 2010.06.03 13:58:18.
