data_PCOD9439785
_publ_section_title
;
Structure prediction by ZEFSAII (Michael W. Deem and Ramdas Pophale) SiO2 
 PCOD9439785
Probable space group: P B C M
;
_chemical_formula_sum "Si O2"
_cell_formula_units_Z 40
_cell_length_a 13.275403
_cell_length_b 8.691040
_cell_length_c 14.582236
_cell_angle_alpha 90.000000
_cell_angle_beta 90.000000
_cell_angle_gamma 90.000000
_cell_volume 1682.455496
_symmetry_space_group_name_H-M "P B C M"
_symmetry_group_IT_number 57
_symmetry_cell_setting 'orthorhombic'
loop_
_space_group_symop_operation_xyz
x,y,z
-x,-y,1/2+z
x,1/2-y,-z
-x,1/2+y,1/2-z
-x,-y,-z
x,y,1/2-z
-x,1/2+y,z
x,1/2-y,1/2+z
loop_
_atom_site_type_symbol
_atom_site_label
_atom_site_fract_x
_atom_site_fract_y
_atom_site_fract_z
Si Si1 0.216466 0.250000 0.000000
Si Si2 0.135611 0.705146 0.652025
Si Si3 0.587411 0.452700 0.856429
Si Si4 0.368329 0.317070 0.645397
Si Si5 0.057951 0.035713 0.594020
Si Si6 0.285515 0.750000 0.000000
O O1 0.287538 0.346896 0.932785
O O2 0.146239 0.152035 0.932547
O O3 0.186104 0.683753 0.750000
O O4 0.208876 0.664069 0.568982
O O5 0.031073 0.613518 0.650661
O O6 0.104449 0.883167 0.637186
O O7 0.612998 0.409320 0.750000
O O8 0.605319 0.635104 0.864041
O O9 0.469747 0.413719 0.868706
O O10 0.648964 0.357197 0.932427
O O11 0.332663 0.341919 0.750000
O O12 0.000000 0.000000 0.500000
#
# Coordination Sequence:
#
# PCOD9439785 Si02
#       6
#     4   8   8   8   8   4
#     4  12  24  40  76  98 136 180 230 286 346 402
#     4  12  26  44  69  98 136 184 230 288 349 412
#     4  10  23  44  68  97 140 183 223 282 344 408
#     4  10  24  45  69 102 138 180 232 280 345 418
#     4  12  23  48  67  97 140 178 233 288 349 414
#     4  12  22  38  68  96 134 168 236 276 338 410
#
# _framework density 23.774775000000002
#
# number of rings (size 3 to 8) (size 9 to 14) (size 15 to 20)
#    0.000    0.800    4.000    3.000    0.000    8.000 
#    0.000    0.000    0.000    0.000    0.000    0.000 
#    0.000    0.000    0.000    0.000    0.000    0.000 
#
# Total GULP energy -224120.680323 kJ/mol
# GULP energy per Si atom -5603.017008 kJ/mol
# Density = 2.372066 g / cm^3
# Si number density = 23.774775 Si / 1000 Ang^3
#
#
#
# Elastic Constant Matrix: (Units=GPa)
#
#
# Indices 1 2 3 4 5 6 
#
# 1 75.7916 9.0197 39.9188 0.0000 0.0000 0.0000
# 2 9.0197 75.6674 10.0003 0.0000 0.0000 0.0000
# 3 39.9188 10.0003 148.5521 0.0000 0.0000 0.0000
# 4 0.0000 0.0000 0.0000 3.4529 0.0000 0.0000
# 5 0.0000 0.0000 0.0000 0.0000 -69.7295 0.0000
# 6 0.0000 0.0000 0.0000 0.0000 0.0000 13.4007
#
#
#
# Elastic Compliance Matrix: (Units=1/GPa)
#
#
# Indices 1 2 3 4 5 6 
#
# 1 0.015497 -0.001309 -0.004076 0.000000 0.000000 0.000000
# 2 -0.001309 0.013445 -0.000553 0.000000 0.000000 0.000000
# 3 -0.004076 -0.000553 0.007864 0.000000 0.000000 0.000000
# 4 0.000000 0.000000 0.000000 0.289613 0.000000 0.000000
# 5 0.000000 0.000000 0.000000 0.000000 -0.014341 0.000000
# 6 0.000000 0.000000 0.000000 0.000000 0.000000 0.074623
#
#
# Mechanical properties :
#
#
# Convention : Reuss Voigt Hill
#
# Bulk Modulus (GPa) = 40.11318 46.43210 43.27264
# Shear Modulus (GPa) = 12.28842 5.49630 8.89236
#
# Velocity S-wave (km/s) = 2.27594 1.52212 1.93607
# Velocity P-wave (km/s) = 4.88009 4.76041 4.82062
#
# Compressibility (1/GPa) = 0.02492946
#
# Stress axis : x y z
#
# Youngs Moduli (GPa) = 64.52993 74.37791 127.15771
#
# Poissons Ratio (x) = 0.09733 0.51832
# Poissons Ratio (y) = 0.08444 0.07038
# Poissons Ratio (z) = 0.26304 0.04117
#
# Static dielectric constant tensor:
#      x y z
#    x 1.911010 0.000000 0.000000 
#    y 0.000000 1.772260 0.000000 
#    z 0.000000 0.000000 1.894420 
# 
# From -- ./inp_files/18251.got.cif
#   From: 2010.05.17/outbox.cif.g08.bks.cpg/sg57_10_cif.got.tgz:18251.got - 2010.06.03 13:58:18.
