data_PCOD9439209
_publ_section_title
;
Structure prediction by ZEFSAII (Michael W. Deem and Ramdas Pophale) SiO2 
 PCOD9439209
Probable space group: P B C M
;
_chemical_formula_sum "Si O2"
_cell_formula_units_Z 32
_cell_length_a 5.211372
_cell_length_b 20.659056
_cell_length_c 12.612838
_cell_angle_alpha 90.000000
_cell_angle_beta 90.000000
_cell_angle_gamma 90.000000
_cell_volume 1357.923692
_symmetry_space_group_name_H-M "P B C M"
_symmetry_group_IT_number 57
_symmetry_cell_setting 'orthorhombic'
loop_
_space_group_symop_operation_xyz
x,y,z
-x,-y,1/2+z
x,1/2-y,-z
-x,1/2+y,1/2-z
-x,-y,-z
x,y,1/2-z
-x,1/2+y,z
x,1/2-y,1/2+z
loop_
_atom_site_type_symbol
_atom_site_label
_atom_site_fract_x
_atom_site_fract_y
_atom_site_fract_z
Si Si1 0.473182 0.228695 0.750000
Si Si2 0.014402 0.643465 0.750000
Si Si3 0.662386 0.156327 0.365369
Si Si4 0.121243 0.912486 0.035110
Si Si5 0.289458 0.032426 0.372829
O O1 0.196686 0.198506 0.750000
O O2 0.506298 0.278199 0.651741
O O3 0.700546 0.175464 0.750000
O O4 0.975839 0.602674 0.856731
O O5 0.808529 0.152277 0.250000
O O6 0.798798 0.153787 0.477892
O O7 0.493621 0.090615 0.371562
O O8 0.342925 0.962154 0.074702
O O9 0.950734 0.943743 0.942288
O O10 0.224277 0.021151 0.250000
#
# Coordination Sequence:
#
# PCOD9439209 Si02
#       5
#     4   4   8   8   8
#     4  10  28  49  69 100 144 194 238 294 334 440
#     4  12  28  49  67 110 146 182 250 290 360 408
#     4   9  22  43  67  99 131 188 239 287 352 432
#     4  11  23  41  71 102 142 185 230 312 355 434
#     4  10  21  42  69 104 139 181 242 293 377 420
#
# _framework density 23.565387999999999
#
# number of rings (size 3 to 8) (size 9 to 14) (size 15 to 20)
#    0.750    1.000    1.250    1.500    7.000    1.000 
#    0.000    0.000    0.000    0.000    0.000    0.000 
#    0.000    0.000    0.000    0.000    0.000    0.000 
#
# Total GULP energy -178333.928887 kJ/mol
# GULP energy per Si atom -5572.935278 kJ/mol
# Density = 2.351175 g / cm^3
# Si number density = 23.565388 Si / 1000 Ang^3
#
#
#
# Elastic Constant Matrix: (Units=GPa)
#
#
# Indices 1 2 3 4 5 6 
#
# 1 17.5095 -10.1524 12.9292 0.0000 0.0000 0.0000
# 2 -10.1524 36.9747 8.9478 0.0000 0.0000 0.0000
# 3 12.9292 8.9478 167.6583 0.0000 0.0000 0.0000
# 4 0.0000 0.0000 0.0000 16.0299 0.0000 0.0000
# 5 0.0000 0.0000 0.0000 0.0000 16.9893 0.0000
# 6 0.0000 0.0000 0.0000 0.0000 0.0000 37.2828
#
#
#
# Elastic Compliance Matrix: (Units=1/GPa)
#
#
# Indices 1 2 3 4 5 6 
#
# 1 0.075236 0.022351 -0.006995 0.000000 0.000000 0.000000
# 2 0.022351 0.034039 -0.003540 0.000000 0.000000 0.000000
# 3 -0.006995 -0.003540 0.006693 0.000000 0.000000 0.000000
# 4 0.000000 0.000000 0.000000 0.062383 0.000000 0.000000
# 5 0.000000 0.000000 0.000000 0.000000 0.058861 0.000000
# 6 0.000000 0.000000 0.000000 0.000000 0.000000 0.026822
#
#
# Mechanical properties :
#
#
# Convention : Reuss Voigt Hill
#
# Bulk Modulus (GPa) = 7.16332 27.28797 17.22564
# Shear Modulus (GPa) = 17.42547 28.08827 22.75687
#
# Velocity S-wave (km/s) = 2.72224 3.45618 3.11093
# Velocity P-wave (km/s) = 3.59543 5.24707 4.49771
#
# Compressibility (1/GPa) = 0.13960016
#
# Stress axis : x y z
#
# Youngs Moduli (GPa) = 13.29144 29.37781 149.41283
#
# Poissons Ratio (x) = -0.65662 1.04511
# Poissons Ratio (y) = -0.29708 0.52896
# Poissons Ratio (z) = 0.09297 0.10401
#
# Static dielectric constant tensor:
#      x y z
#    x 1.957880 0.000000 0.000000 
#    y 0.000000 1.980750 0.000000 
#    z 0.000000 0.000000 1.902450 
# 
# From -- ./inp_files/10694.got.cif
#   From: 2010.05.17/outbox.cif.g08.bks.cpg/sg57_6_cif.got.tgz:10694.got - 2010.06.03 13:58:18.
