data_PCOD9439163
_publ_section_title
;
Structure prediction by ZEFSAII (Michael W. Deem and Ramdas Pophale) SiO2 
 PCOD9439163
Probable space group: P B C M
;
_chemical_formula_sum "Si O2"
_cell_formula_units_Z 60
_cell_length_a 19.527392
_cell_length_b 17.023620
_cell_length_c 9.256753
_cell_angle_alpha 90.000000
_cell_angle_beta 90.000000
_cell_angle_gamma 90.000000
_cell_volume 3077.193713
_symmetry_space_group_name_H-M "P B C M"
_symmetry_group_IT_number 57
_symmetry_cell_setting 'orthorhombic'
loop_
_space_group_symop_operation_xyz
x,y,z
-x,-y,1/2+z
x,1/2-y,-z
-x,1/2+y,1/2-z
-x,-y,-z
x,y,1/2-z
-x,1/2+y,z
x,1/2-y,1/2+z
loop_
_atom_site_type_symbol
_atom_site_label
_atom_site_fract_x
_atom_site_fract_y
_atom_site_fract_z
Si Si1 0.014280 0.584623 0.573807
Si Si2 0.891852 0.672010 0.420137
Si Si3 0.168956 0.889261 0.082275
Si Si4 0.385952 0.865222 0.914739
Si Si5 0.477342 0.327505 0.077610
Si Si6 0.768879 0.548788 0.080925
Si Si7 0.266689 0.750000 0.500000
Si Si8 0.635393 0.547582 0.578137
O O1 0.008844 0.580015 0.750000
O O2 0.090629 0.613856 0.530431
O O3 0.000000 0.500000 0.500000
O O4 0.958339 0.642463 0.506285
O O5 0.866882 0.750000 0.500000
O O6 0.906630 0.685141 0.250000
O O7 0.833936 0.605302 0.429366
O O8 0.161389 0.910026 0.250000
O O9 0.208561 0.964052 0.017337
O O10 0.214517 0.811339 0.073669
O O11 0.412326 0.864644 0.750000
O O12 0.319791 0.808673 0.920352
O O13 0.369652 0.955052 0.955978
O O14 0.445388 0.837658 0.021564
O O15 0.476773 0.318285 0.250000
O O16 0.431881 0.403231 0.037345
O O17 0.448818 0.250000 0.000000
O O18 0.750324 0.540560 0.250000
O O19 0.702858 0.579671 0.998349
O O20 0.642980 0.554188 0.750000
#
# Coordination Sequence:
#
# PCOD9439163 Si02
#       8
#     8   8   8   8   8   8   4   8
#     4  11  22  41  66  93 130 173 218 268 320 385
#     4  11  24  43  64  93 127 168 221 272 326 384
#     4  10  22  40  60  91 130 167 207 257 317 381
#     4  11  23  40  63  93 128 163 207 253 310 384
#     4  11  24  41  64  90 126 165 208 261 315 374
#     4  10  21  41  65  88 122 167 210 258 317 381
#     4  12  22  38  66  96 130 162 206 256 324 378
#     4  10  23  42  62  93 128 163 208 261 316 379
#
# _framework density 19.498284000000002
#
# number of rings (size 3 to 8) (size 9 to 14) (size 15 to 20)
#    0.000    1.333    3.333    2.000    0.933    3.733 
#    0.000    4.667    0.000    0.000    0.000    0.000 
#    0.000    0.000    0.000    0.000    0.000    0.000 
#
# Total GULP energy -334771.327070 kJ/mol
# GULP energy per Si atom -5579.522118 kJ/mol
# Density = 1.945390 g / cm^3
# Si number density = 19.498284 Si / 1000 Ang^3
#
#
#
# Elastic Constant Matrix: (Units=GPa)
#
#
# Indices 1 2 3 4 5 6 
#
# 1 117.3726 35.3058 37.5607 0.0000 0.0000 0.0000
# 2 35.3058 98.3294 33.9967 0.0000 0.0000 0.0000
# 3 37.5607 33.9967 61.5164 0.0000 0.0000 0.0000
# 4 0.0000 0.0000 0.0000 27.0948 0.0000 0.0000
# 5 0.0000 0.0000 0.0000 0.0000 22.0953 0.0000
# 6 0.0000 0.0000 0.0000 0.0000 0.0000 30.3586
#
#
#
# Elastic Compliance Matrix: (Units=1/GPa)
#
#
# Indices 1 2 3 4 5 6 
#
# 1 0.010896 -0.001993 -0.005551 0.000000 0.000000 0.000000
# 2 -0.001993 0.012937 -0.005933 0.000000 0.000000 0.000000
# 3 -0.005551 -0.005933 0.022924 0.000000 0.000000 0.000000
# 4 0.000000 0.000000 0.000000 0.036907 0.000000 0.000000
# 5 0.000000 0.000000 0.000000 0.000000 0.045258 0.000000
# 6 0.000000 0.000000 0.000000 0.000000 0.000000 0.032940
#
#
# Mechanical properties :
#
#
# Convention : Reuss Voigt Hill
#
# Bulk Modulus (GPa) = 50.49800 54.54944 52.52372
# Shear Modulus (GPa) = 25.58637 27.26676 26.42657
#
# Velocity S-wave (km/s) = 3.62641 3.74360 3.68547
# Velocity P-wave (km/s) = 6.59465 6.83545 6.71613
#
# Compressibility (1/GPa) = 0.01980276
#
# Stress axis : x y z
#
# Youngs Moduli (GPa) = 91.77795 77.30020 43.62238
#
# Poissons Ratio (x) = 0.15405 0.24217
# Poissons Ratio (y) = 0.18290 0.25879
# Poissons Ratio (z) = 0.50950 0.45859
#
# Static dielectric constant tensor:
#      x y z
#    x 1.687050 0.000000 0.000000 
#    y 0.000000 1.717360 0.000000 
#    z 0.000000 0.000000 1.652470 
# 
# From -- ./inp_files/6935.got.cif
#   From: 2010.05.17/outbox.cif.g08.bks.cpg/sg57_4_cif.got.tgz:6935.got - 2010.06.03 13:58:18.
