data_PCOD9439216
_publ_section_title
;
Structure prediction by ZEFSAII (Michael W. Deem and Ramdas Pophale) SiO2 
 PCOD9439216
Probable space group: P B C M
;
_chemical_formula_sum "Si O2"
_cell_formula_units_Z 48
_cell_length_a 13.334555
_cell_length_b 11.678261
_cell_length_c 15.012170
_cell_angle_alpha 90.000000
_cell_angle_beta 90.000000
_cell_angle_gamma 90.000000
_cell_volume 2337.761370
_symmetry_space_group_name_H-M "P B C M"
_symmetry_group_IT_number 57
_symmetry_cell_setting 'orthorhombic'
loop_
_space_group_symop_operation_xyz
x,y,z
-x,-y,1/2+z
x,1/2-y,-z
-x,1/2+y,1/2-z
-x,-y,-z
x,y,1/2-z
-x,1/2+y,z
x,1/2-y,1/2+z
loop_
_atom_site_type_symbol
_atom_site_label
_atom_site_fract_x
_atom_site_fract_y
_atom_site_fract_z
Si Si1 0.372605 0.042210 0.408907
Si Si2 0.312280 0.803015 0.352027
Si Si3 0.598258 0.426510 0.922301
Si Si4 0.098553 0.751653 0.893709
Si Si5 0.717000 0.692726 0.250000
Si Si6 0.936747 0.812098 0.250000
Si Si7 0.856635 0.056844 0.250000
Si Si8 0.360439 0.058969 0.750000
O O1 0.479776 0.095670 0.437494
O O2 0.311232 0.120281 0.339393
O O3 0.377168 0.916650 0.363571
O O4 0.337080 0.999210 0.506401
O O5 0.316648 0.765670 0.250000
O O6 0.350441 0.695312 0.407684
O O7 0.196198 0.827579 0.375439
O O8 0.591237 0.505010 0.836083
O O9 0.129769 0.867705 0.839603
O O10 0.000559 0.717310 0.838175
O O11 0.082854 0.750000 0.000000
O O12 0.831189 0.742064 0.250000
O O13 0.646869 0.805119 0.250000
O O14 0.928947 0.948870 0.250000
O O15 0.749943 0.996172 0.250000
#
# Coordination Sequence:
#
# PCOD9439216 Si02
#       8
#     8   8   8   8   4   4   4   4
#     4  11  26  40  65 101 132 173 218 274 322 398
#     4  12  22  41  71  96 130 171 223 272 330 395
#     4  11  23  42  65  98 133 168 220 267 327 394
#     4  11  22  42  70  97 126 170 223 279 337 389
#     4  11  26  46  62  92 137 175 218 263 338 386
#     4  10  25  46  65  98 133 172 225 278 330 411
#     4  10  21  43  62  95 131 167 217 267 337 390
#     4  11  22  41  65  85 129 180 204 264 319 399
#
# _framework density 20.532464000000001
#
# number of rings (size 3 to 8) (size 9 to 14) (size 15 to 20)
#    0.000    1.000    5.000    2.000    2.333    4.000 
#    6.000    0.000    0.000    0.000    0.000    0.000 
#    0.000    0.000    0.000    0.000    0.000    0.000 
#
# Total GULP energy -267434.675580 kJ/mol
# GULP energy per Si atom -5571.555741 kJ/mol
# Density = 2.048573 g / cm^3
# Si number density = 20.532464 Si / 1000 Ang^3
#
#
#
# Elastic Constant Matrix: (Units=GPa)
#
#
# Indices 1 2 3 4 5 6 
#
# 1 57.6500 14.2325 10.8764 0.0000 0.0000 0.0000
# 2 14.2325 100.6932 36.8670 0.0000 0.0000 0.0000
# 3 10.8764 36.8670 152.4937 0.0000 0.0000 0.0000
# 4 0.0000 0.0000 0.0000 17.0721 0.0000 0.0000
# 5 0.0000 0.0000 0.0000 0.0000 22.2442 0.0000
# 6 0.0000 0.0000 0.0000 0.0000 0.0000 25.0530
#
#
#
# Elastic Compliance Matrix: (Units=1/GPa)
#
#
# Indices 1 2 3 4 5 6 
#
# 1 0.018048 -0.002282 -0.000736 0.000000 0.000000 0.000000
# 2 -0.002282 0.011184 -0.002541 0.000000 0.000000 0.000000
# 3 -0.000736 -0.002541 0.007224 0.000000 0.000000 0.000000
# 4 0.000000 0.000000 0.000000 0.058575 0.000000 0.000000
# 5 0.000000 0.000000 0.000000 0.000000 0.044956 0.000000
# 6 0.000000 0.000000 0.000000 0.000000 0.000000 0.039915
#
#
# Mechanical properties :
#
#
# Convention : Reuss Voigt Hill
#
# Bulk Modulus (GPa) = 39.46368 48.30986 43.88677
# Shear Modulus (GPa) = 25.06692 29.46459 27.26575
#
# Velocity S-wave (km/s) = 3.49785 3.79228 3.64804
# Velocity P-wave (km/s) = 5.96449 6.53872 6.25819
#
# Compressibility (1/GPa) = 0.02533976
#
# Stress axis : x y z
#
# Youngs Moduli (GPa) = 55.40737 89.41299 138.41855
#
# Poissons Ratio (x) = 0.20401 0.10183
# Poissons Ratio (y) = 0.12642 0.35174
# Poissons Ratio (z) = 0.04076 0.22721
#
# Static dielectric constant tensor:
#      x y z
#    x 1.803920 0.000000 0.000000 
#    y 0.000000 1.743300 0.000000 
#    z 0.000000 0.000000 1.808630 
# 
# From -- ./inp_files/18466.got.cif
#   From: 2010.05.17/outbox.cif.g08.bks.cpg/sg57_10_cif.got.tgz:18466.got - 2010.06.03 13:58:18.
