data_PCOD9439261
_publ_section_title
;
Structure prediction by ZEFSAII (Michael W. Deem and Ramdas Pophale) SiO2 
 PCOD9439261
Probable space group: P B C M
;
_chemical_formula_sum "Si O2"
_cell_formula_units_Z 60
_cell_length_a 14.276603
_cell_length_b 8.423677
_cell_length_c 27.478842
_cell_angle_alpha 90.000000
_cell_angle_beta 90.000000
_cell_angle_gamma 90.000000
_cell_volume 3304.646546
_symmetry_space_group_name_H-M "P B C M"
_symmetry_group_IT_number 57
_symmetry_cell_setting 'orthorhombic'
loop_
_space_group_symop_operation_xyz
x,y,z
-x,-y,1/2+z
x,1/2-y,-z
-x,1/2+y,1/2-z
-x,-y,-z
x,y,1/2-z
-x,1/2+y,z
x,1/2-y,1/2+z
loop_
_atom_site_type_symbol
_atom_site_label
_atom_site_fract_x
_atom_site_fract_y
_atom_site_fract_z
Si Si1 0.974348 0.440443 0.192188
Si Si2 0.453737 0.250000 0.500000
Si Si3 0.592967 0.466774 0.437401
Si Si4 0.854546 0.120177 0.191852
Si Si5 0.368706 0.305748 0.305189
Si Si6 0.517725 0.097030 0.154927
Si Si7 0.208728 0.400996 0.808828
Si Si8 0.303366 0.697210 0.858805
O O1 0.980569 0.469579 0.250000
O O2 0.926737 0.269202 0.187175
O O3 0.895941 0.564098 0.173008
O O4 0.080415 0.472255 0.176286
O O5 0.523592 0.338787 0.462164
O O6 0.392968 0.390770 0.524099
O O7 0.537583 0.555774 0.394050
O O8 0.682088 0.378913 0.412710
O O9 0.827113 0.110969 0.250000
O O10 0.768941 0.163114 0.156223
O O11 0.354713 0.356918 0.250000
O O12 0.421275 0.444886 0.332157
O O13 0.438849 0.155388 0.307704
O O14 0.269144 0.248915 0.325837
O O15 0.593289 0.237491 0.151465
O O16 0.205930 0.392583 0.750000
O O17 0.268161 0.555200 0.824509
#
# Coordination Sequence:
#
# PCOD9439261 Si02
#       8
#     8   4   8   8   8   8   8   8
#     4   8  15  29  47  66  93 132 176 217 251 277
#     4  10  22  36  60  74  94 126 168 206 274 332
#     4  11  20  37  54  76  96 132 159 213 261 315
#     4   9  18  31  50  72 102 142 178 215 249 285
#     4  11  21  30  43  66 100 147 185 207 232 284
#     4  12  21  34  47  68 103 140 172 212 249 287
#     4   9  18  32  48  68 100 141 180 217 249 283
#     4  11  20  32  52  73 104 134 168 214 257 298
#
# _framework density 18.156253
#
# number of rings (size 3 to 8) (size 9 to 14) (size 15 to 20)
#    0.000    1.867    4.000    1.600    0.000    4.267 
#    0.000    2.667    0.000    0.000    0.000    0.000 
#    0.000   12.800    0.000    0.000    0.000    0.000 
#
# Total GULP energy -334092.672425 kJ/mol
# GULP energy per Si atom -5568.211207 kJ/mol
# Density = 1.811493 g / cm^3
# Si number density = 18.156253 Si / 1000 Ang^3
#
#
#
# Elastic Constant Matrix: (Units=GPa)
#
#
# Indices 1 2 3 4 5 6 
#
# 1 85.4041 19.0007 14.2943 0.0000 0.0000 0.0000
# 2 19.0007 34.9129 3.5292 0.0000 0.0000 0.0000
# 3 14.2943 3.5292 34.8519 0.0000 0.0000 0.0000
# 4 0.0000 0.0000 0.0000 20.5656 0.0000 0.0000
# 5 0.0000 0.0000 0.0000 0.0000 17.8131 0.0000
# 6 0.0000 0.0000 0.0000 0.0000 0.0000 34.7531
#
#
#
# Elastic Compliance Matrix: (Units=1/GPa)
#
#
# Indices 1 2 3 4 5 6 
#
# 1 0.014159 -0.007193 -0.005079 0.000000 0.000000 0.000000
# 2 -0.007193 0.032593 -0.000350 0.000000 0.000000 0.000000
# 3 -0.005079 -0.000350 0.030811 0.000000 0.000000 0.000000
# 4 0.000000 0.000000 0.000000 0.048625 0.000000 0.000000
# 5 0.000000 0.000000 0.000000 0.000000 0.056138 0.000000
# 6 0.000000 0.000000 0.000000 0.000000 0.000000 0.028774
#
#
# Mechanical properties :
#
#
# Convention : Reuss Voigt Hill
#
# Bulk Modulus (GPa) = 19.11341 25.42416 22.26879
# Shear Modulus (GPa) = 19.70175 22.51602 21.10889
#
# Velocity S-wave (km/s) = 3.29769 3.52536 3.41343
# Velocity P-wave (km/s) = 5.00497 5.53211 5.27513
#
# Compressibility (1/GPa) = 0.05231928
#
# Stress axis : x y z
#
# Youngs Moduli (GPa) = 70.62476 30.68189 32.45549
#
# Poissons Ratio (x) = 0.22068 0.16484
# Poissons Ratio (y) = 0.50797 0.01137
# Poissons Ratio (z) = 0.35871 0.01075
#
# Static dielectric constant tensor:
#      x y z
#    x 1.668470 0.000000 0.000000 
#    y 0.000000 1.750400 0.000000 
#    z 0.000000 0.000000 1.621800 
# 
# From -- ./inp_files/28803.got.cif
#   From: 2010.05.17/outbox.cif.g08.bks.cpg/sg57_15_cif.got.tgz:28803.got - 2010.06.03 13:58:18.
