data_PCOD9439446
_publ_section_title
;
Structure prediction by ZEFSAII (Michael W. Deem and Ramdas Pophale) SiO2 
 PCOD9439446
Probable space group: P B C M
;
_chemical_formula_sum "Si O2"
_cell_formula_units_Z 36
_cell_length_a 14.178304
_cell_length_b 11.517806
_cell_length_c 9.281059
_cell_angle_alpha 90.000000
_cell_angle_beta 90.000000
_cell_angle_gamma 90.000000
_cell_volume 1515.624359
_symmetry_space_group_name_H-M "P B C M"
_symmetry_group_IT_number 57
_symmetry_cell_setting 'orthorhombic'
loop_
_space_group_symop_operation_xyz
x,y,z
-x,-y,1/2+z
x,1/2-y,-z
-x,1/2+y,1/2-z
-x,-y,-z
x,y,1/2-z
-x,1/2+y,z
x,1/2-y,1/2+z
loop_
_atom_site_type_symbol
_atom_site_label
_atom_site_fract_x
_atom_site_fract_y
_atom_site_fract_z
Si Si1 0.097043 0.722305 0.250000
Si Si2 0.670335 0.015859 0.506009
Si Si3 0.969439 0.750000 0.000000
Si Si4 0.845152 0.759529 0.750000
Si Si5 0.827938 0.025096 0.750000
Si Si6 0.343279 0.158004 0.750000
Si Si7 0.681853 0.313376 0.750000
Si Si8 0.555742 0.088498 0.750000
O O1 0.102635 0.864415 0.250000
O O2 0.041699 0.684379 0.106664
O O3 0.870759 0.603776 0.250000
O O4 0.761402 0.031687 0.607701
O O5 0.653569 0.121187 0.395484
O O6 0.580827 0.010474 0.612218
O O7 0.681815 0.909592 0.397121
O O8 0.894983 0.801977 0.114302
O O9 0.731604 0.761525 0.750000
O O10 0.794894 0.313092 0.750000
O O11 0.456250 0.153591 0.750000
O O12 0.633951 0.189347 0.750000
#
# Coordination Sequence:
#
# PCOD9439446 Si02
#       8
#     4   8   4   4   4   4   4   4
#     4  11  21  39  70  94 125 166 206 282 346 367
#     4  10  22  40  65  96 132 167 216 269 314 390
#     4  10  24  42  66  92 126 168 226 272 320 402
#     4  11  24  46  61  93 133 178 223 262 312 399
#     4  11  22  40  69  94 128 173 214 269 328 384
#     4  11  24  44  64  89 134 186 211 259 328 373
#     4  11  21  41  66 100 133 154 212 277 334 381
#     4  11  22  40  64 102 131 167 220 267 316 398
#
# _framework density 23.752586999999998
#
# number of rings (size 3 to 8) (size 9 to 14) (size 15 to 20)
#    0.000    1.333    2.222    4.000    0.000    0.889 
#   20.000    8.889    0.000    0.000    0.000    0.000 
#    0.000    0.000    0.000    0.000    0.000    0.000 
#
# Total GULP energy -200869.562451 kJ/mol
# GULP energy per Si atom -5579.710068 kJ/mol
# Density = 2.369852 g / cm^3
# Si number density = 23.752587 Si / 1000 Ang^3
#
#
#
# Elastic Constant Matrix: (Units=GPa)
#
#
# Indices 1 2 3 4 5 6 
#
# 1 127.0748 -3.6291 41.6445 0.0000 0.0000 0.0000
# 2 -3.6291 47.4077 7.5459 0.0000 0.0000 0.0000
# 3 41.6445 7.5459 179.8521 0.0000 0.0000 0.0000
# 4 0.0000 0.0000 0.0000 25.8828 0.0000 0.0000
# 5 0.0000 0.0000 0.0000 0.0000 24.0790 0.0000
# 6 0.0000 0.0000 0.0000 0.0000 0.0000 19.4675
#
#
#
# Elastic Compliance Matrix: (Units=1/GPa)
#
#
# Indices 1 2 3 4 5 6 
#
# 1 0.008560 0.000977 -0.002023 0.000000 0.000000 0.000000
# 2 0.000977 0.021347 -0.001122 0.000000 0.000000 0.000000
# 3 -0.002023 -0.001122 0.006076 0.000000 0.000000 0.000000
# 4 0.000000 0.000000 0.000000 0.038636 0.000000 0.000000
# 5 0.000000 0.000000 0.000000 0.000000 0.041530 0.000000
# 6 0.000000 0.000000 0.000000 0.000000 0.000000 0.051368
#
#
# Mechanical properties :
#
#
# Convention : Reuss Voigt Hill
#
# Bulk Modulus (GPa) = 31.59814 49.49529 40.54671
# Shear Modulus (GPa) = 27.41214 34.47075 30.94145
#
# Velocity S-wave (km/s) = 3.40085 3.81365 3.61315
# Velocity P-wave (km/s) = 5.36217 6.34626 5.87486
#
# Compressibility (1/GPa) = 0.03164744
#
# Stress axis : x y z
#
# Youngs Moduli (GPa) = 116.81831 46.84500 164.59148
#
# Poissons Ratio (x) = -0.04578 0.33299
# Poissons Ratio (y) = -0.11417 0.18466
# Poissons Ratio (z) = 0.23634 0.05256
#
# Static dielectric constant tensor:
#      x y z
#    x 1.915930 0.000000 0.000000 
#    y 0.000000 1.918540 0.000000 
#    z 0.000000 0.000000 1.898060 
# 
# From -- ./inp_files/4389.got.cif
#   From: 2010.05.17/outbox.cif.g08.bks.cpg/sg57_3_cif.got.tgz:4389.got - 2010.06.03 13:58:18.
