data_PCOD9439246
_publ_section_title
;
Structure prediction by ZEFSAII (Michael W. Deem and Ramdas Pophale) SiO2 
 PCOD9439246
Probable space group: P B C M
;
_chemical_formula_sum "Si O2"
_cell_formula_units_Z 40
_cell_length_a 6.711710
_cell_length_b 17.156646
_cell_length_c 12.410452
_cell_angle_alpha 90.000000
_cell_angle_beta 90.000000
_cell_angle_gamma 90.000000
_cell_volume 1429.068916
_symmetry_space_group_name_H-M "P B C M"
_symmetry_group_IT_number 57
_symmetry_cell_setting 'orthorhombic'
loop_
_space_group_symop_operation_xyz
x,y,z
-x,-y,1/2+z
x,1/2-y,-z
-x,1/2+y,1/2-z
-x,-y,-z
x,y,1/2-z
-x,1/2+y,z
x,1/2-y,1/2+z
loop_
_atom_site_type_symbol
_atom_site_label
_atom_site_fract_x
_atom_site_fract_y
_atom_site_fract_z
Si Si1 0.919545 0.007064 0.750000
Si Si2 0.293463 0.333135 0.053792
Si Si3 0.194179 0.810416 0.750000
Si Si4 0.866591 0.333239 0.988212
Si Si5 0.400818 0.647713 0.750000
Si Si6 0.528023 0.561594 0.250000
Si Si7 0.258182 0.997703 0.934563
O O1 0.756983 0.076905 0.750000
O O2 0.066530 0.006846 0.646074
O O3 0.763877 0.935443 0.750000
O O4 0.444972 0.344256 0.151076
O O5 0.289534 0.420985 0.003313
O O6 0.340093 0.250000 0.000000
O O7 0.054391 0.325795 0.066995
O O8 0.084781 0.833078 0.639812
O O9 0.256978 0.721818 0.750000
O O10 0.405066 0.857668 0.750000
O O11 0.765136 0.417333 0.000516
O O12 0.756267 0.250000 0.000000
O O13 0.437939 0.516307 0.147654
#
# Coordination Sequence:
#
# PCOD9439246 Si02
#       7
#     4   8   4   8   4   4   8
#     4  11  22  40  82 103 137 206 245 309 386 429
#     4  11  25  45  73 106 152 197 246 313 378 436
#     4  10  25  46  73 107 149 190 251 311 367 460
#     4  10  24  45  77 107 145 195 246 306 375 442
#     4  12  26  47  72 109 153 191 255 315 374 446
#     4   9  19  43  71 103 137 183 249 309 367 435
#     4  10  21  45  70 108 144 190 255 304 368 453
#
# _framework density 27.990251000000001
#
# number of rings (size 3 to 8) (size 9 to 14) (size 15 to 20)
#    0.000    1.600    2.000    1.800    5.600    7.200 
#    0.000    3.000    0.000    1.200    0.000    0.000 
#    0.000    0.000    0.000    0.000    0.000    0.000 
#
# Total GULP energy -223658.506193 kJ/mol
# GULP energy per Si atom -5591.462655 kJ/mol
# Density = 2.792654 g / cm^3
# Si number density = 27.990251 Si / 1000 Ang^3
#
#
#
# Elastic Constant Matrix: (Units=GPa)
#
#
# Indices 1 2 3 4 5 6 
#
# 1 212.6769 66.6761 69.8707 0.0000 0.0000 0.0000
# 2 66.6761 301.8161 62.1844 0.0000 0.0000 0.0000
# 3 69.8707 62.1844 109.4098 0.0000 0.0000 0.0000
# 4 0.0000 0.0000 0.0000 33.7206 0.0000 0.0000
# 5 0.0000 0.0000 0.0000 0.0000 19.0629 0.0000
# 6 0.0000 0.0000 0.0000 0.0000 0.0000 28.9145
#
#
#
# Elastic Compliance Matrix: (Units=1/GPa)
#
#
# Indices 1 2 3 4 5 6 
#
# 1 0.006049 -0.000612 -0.003515 0.000000 0.000000 0.000000
# 2 -0.000612 0.003815 -0.001777 0.000000 0.000000 0.000000
# 3 -0.003515 -0.001777 0.012395 0.000000 0.000000 0.000000
# 4 0.000000 0.000000 0.000000 0.029655 0.000000 0.000000
# 5 0.000000 0.000000 0.000000 0.000000 0.052458 0.000000
# 6 0.000000 0.000000 0.000000 0.000000 0.000000 0.034585
#
#
# Mechanical properties :
#
#
# Convention : Reuss Voigt Hill
#
# Bulk Modulus (GPa) = 95.69690 113.48503 104.59096
# Shear Modulus (GPa) = 32.41544 44.68437 38.54991
#
# Velocity S-wave (km/s) = 3.40677 3.99987 3.71517
# Velocity P-wave (km/s) = 7.05255 7.87175 7.47338
#
# Compressibility (1/GPa) = 0.01044966
#
# Stress axis : x y z
#
# Youngs Moduli (GPa) = 165.32792 262.14645 80.67961
#
# Poissons Ratio (x) = 0.16045 0.28358
# Poissons Ratio (y) = 0.10119 0.14339
# Poissons Ratio (z) = 0.58110 0.46590
#
# Static dielectric constant tensor:
#      x y z
#    x 2.139410 0.000000 0.000000 
#    y 0.000000 2.234380 0.000000 
#    z 0.000000 0.000000 2.237250 
# 
# From -- ./inp_files/11614.got.cif
#   From: 2010.05.17/outbox.cif.g08.bks.cpg/sg57_6_cif.got.tgz:11614.got - 2010.06.03 13:58:18.
