data_PCOD9439503
_publ_section_title
;
Structure prediction by ZEFSAII (Michael W. Deem and Ramdas Pophale) SiO2 
 PCOD9439503
Probable space group: P B C M
;
_chemical_formula_sum "Si O2"
_cell_formula_units_Z 56
_cell_length_a 6.670053
_cell_length_b 13.874257
_cell_length_c 27.084378
_cell_angle_alpha 90.000000
_cell_angle_beta 90.000000
_cell_angle_gamma 90.000000
_cell_volume 2506.443309
_symmetry_space_group_name_H-M "P B C M"
_symmetry_group_IT_number 57
_symmetry_cell_setting 'orthorhombic'
loop_
_space_group_symop_operation_xyz
x,y,z
-x,-y,1/2+z
x,1/2-y,-z
-x,1/2+y,1/2-z
-x,-y,-z
x,y,1/2-z
-x,1/2+y,z
x,1/2-y,1/2+z
loop_
_atom_site_type_symbol
_atom_site_label
_atom_site_fract_x
_atom_site_fract_y
_atom_site_fract_z
Si Si1 0.722047 0.536837 0.004933
Si Si2 0.749318 0.377573 0.366566
Si Si3 0.699188 0.597150 0.381662
Si Si4 0.336817 0.585825 0.305330
Si Si5 0.948023 0.151034 0.528917
Si Si6 0.618619 0.862043 0.303115
Si Si7 0.971294 0.727010 0.323719
O O1 0.710029 0.583644 0.059509
O O2 0.847700 0.437676 0.999490
O O3 0.500000 0.500000 0.000000
O O4 0.821480 0.613789 0.967642
O O5 0.766009 0.492066 0.361813
O O6 0.822878 0.347238 0.420741
O O7 0.527100 0.349274 0.349649
O O8 0.894080 0.319984 0.331438
O O9 0.490271 0.612809 0.350542
O O10 0.864779 0.676585 0.369989
O O11 0.428407 0.601315 0.250000
O O12 0.295284 0.470799 0.309134
O O13 0.130901 0.646809 0.306019
O O14 0.937154 0.250000 0.500000
O O15 0.506454 0.863553 0.250000
O O16 0.776909 0.776202 0.299699
#
# Coordination Sequence:
#
# PCOD9439503 Si02
#       7
#     8   8   8   8   8   8   8
#     4  10  23  41  65  92 124 164 207 260 320 382
#     4  10  23  40  61  91 128 164 205 263 323 383
#     4  10  23  41  61  90 126 163 206 260 318 377
#     4  10  23  42  63  89 126 170 212 259 316 379
#     4  10  22  41  65  94 124 160 209 259 313 383
#     4  10  23  42  62  91 130 169 215 268 321 379
#     4  12  22  37  65  92 122 165 217 264 313 372
#
# _framework density 22.342416
#
# number of rings (size 3 to 8) (size 9 to 14) (size 15 to 20)
#    0.000    1.714    0.000    3.000    0.000   13.143 
#    0.000    4.286    0.000    0.000    0.000    0.000 
#    0.000    0.000    0.000    0.000    0.000    0.000 
#
# Total GULP energy -311869.509216 kJ/mol
# GULP energy per Si atom -5569.098379 kJ/mol
# Density = 2.229156 g / cm^3
# Si number density = 22.342416 Si / 1000 Ang^3
#
#
#
# Elastic Constant Matrix: (Units=GPa)
#
#
# Indices 1 2 3 4 5 6 
#
# 1 105.9883 53.8230 37.6101 0.0000 0.0000 0.0000
# 2 53.8230 59.6008 35.6097 0.0000 0.0000 0.0000
# 3 37.6101 35.6097 69.1270 0.0000 0.0000 0.0000
# 4 0.0000 0.0000 0.0000 -9.6057 0.0000 0.0000
# 5 0.0000 0.0000 0.0000 0.0000 -4.8879 0.0000
# 6 0.0000 0.0000 0.0000 0.0000 0.0000 41.2989
#
#
#
# Elastic Compliance Matrix: (Units=1/GPa)
#
#
# Indices 1 2 3 4 5 6 
#
# 1 0.017618 -0.014710 -0.002007 0.000000 0.000000 0.000000
# 2 -0.014710 0.036521 -0.010810 0.000000 0.000000 0.000000
# 3 -0.002007 -0.010810 0.021127 0.000000 0.000000 0.000000
# 4 0.000000 0.000000 0.000000 -0.104105 0.000000 0.000000
# 5 0.000000 0.000000 0.000000 0.000000 -0.204586 0.000000
# 6 0.000000 0.000000 0.000000 0.000000 0.000000 0.024214
#
#
# Mechanical properties :
#
#
# Convention : Reuss Voigt Hill
#
# Bulk Modulus (GPa) = 49.47952 54.31130 51.89541
# Shear Modulus (GPa) = -33.91673 12.53928 -10.68873
#
# Velocity S-wave (km/s) = -3.90043 2.37160 -2.18962
# Velocity P-wave (km/s) = 1.38187 5.64453 4.10915
#
# Compressibility (1/GPa) = 0.02021038
#
# Stress axis : x y z
#
# Youngs Moduli (GPa) = 56.76167 27.38145 47.33324
#
# Poissons Ratio (x) = 0.40279 0.09502
# Poissons Ratio (y) = 0.83498 0.51166
# Poissons Ratio (z) = 0.11395 0.29599
#
# Static dielectric constant tensor:
#      x y z
#    x 1.905760 0.000000 0.000000 
#    y 0.000000 1.799970 0.000000 
#    z 0.000000 0.000000 1.880940 
# 
# From -- ./inp_files/29164.got.cif
#   From: 2010.05.17/outbox.cif.g08.bks.cpg/sg57_15_cif.got.tgz:29164.got - 2010.06.03 13:58:18.
