data_PCOD9439244
_publ_section_title
;
Structure prediction by ZEFSAII (Michael W. Deem and Ramdas Pophale) SiO2 
 PCOD9439244
Probable space group: P B C M
;
_chemical_formula_sum "Si O2"
_cell_formula_units_Z 64
_cell_length_a 9.243083
_cell_length_b 14.149565
_cell_length_c 23.212058
_cell_angle_alpha 90.000000
_cell_angle_beta 90.000000
_cell_angle_gamma 90.000000
_cell_volume 3035.803019
_symmetry_space_group_name_H-M "P B C M"
_symmetry_group_IT_number 57
_symmetry_cell_setting 'orthorhombic'
loop_
_space_group_symop_operation_xyz
x,y,z
-x,-y,1/2+z
x,1/2-y,-z
-x,1/2+y,1/2-z
-x,-y,-z
x,y,1/2-z
-x,1/2+y,z
x,1/2-y,1/2+z
loop_
_atom_site_type_symbol
_atom_site_label
_atom_site_fract_x
_atom_site_fract_y
_atom_site_fract_z
Si Si1 0.253032 0.527682 0.685663
Si Si2 0.588202 0.297395 0.359195
Si Si3 0.117779 0.757895 0.087040
Si Si4 0.492208 0.095200 0.125314
Si Si5 0.002039 0.109916 0.015171
Si Si6 0.320598 0.358297 0.984440
Si Si7 0.685250 0.577163 0.610980
Si Si8 0.970838 0.633728 0.680265
O O1 0.244408 0.491431 0.750000
O O2 0.337040 0.628951 0.684380
O O3 0.349904 0.455724 0.650265
O O4 0.091148 0.553026 0.666154
O O5 0.714751 0.286342 0.406795
O O6 0.537677 0.192209 0.343981
O O7 0.444544 0.348963 0.379660
O O8 0.107059 0.652296 0.062430
O O9 0.038960 0.774722 0.148194
O O10 0.037115 0.828488 0.041993
O O11 0.445708 0.111247 0.058917
O O12 0.623886 0.023098 0.130144
O O13 0.158818 0.136919 0.041078
O O14 0.000000 0.000000 0.000000
O O15 0.348397 0.250000 0.000000
O O16 0.297689 0.419389 0.042154
O O17 0.822310 0.608175 0.648429
O O18 0.959372 0.642227 0.750000
#
# Coordination Sequence:
#
# PCOD9439244 Si02
#       8
#     8   8   8   8   8   8   8   8
#     4   9  22  46  70  96 132 175 229 285 336 399
#     4  10  23  40  65  95 137 177 217 272 333 402
#     4  10  22  43  62 101 133 177 228 272 333 405
#     4  11  25  40  67  97 137 182 219 275 343 411
#     4  11  24  37  68  96 138 179 220 278 331 400
#     4  12  22  40  62  95 138 176 222 275 330 404
#     4  11  23  41  64  98 135 176 222 276 334 406
#     4  10  21  44  74  97 130 175 225 288 339 394
#
# _framework density 21.081737
#
# number of rings (size 3 to 8) (size 9 to 14) (size 15 to 20)
#    0.000    1.500    3.750    0.375    7.000    4.500 
#    0.000    0.000    0.000    6.750    0.000    0.000 
#    0.000    0.000    0.000    0.000    0.000    0.000 
#
# Total GULP energy -357054.325498 kJ/mol
# GULP energy per Si atom -5578.973836 kJ/mol
# Density = 2.103375 g / cm^3
# Si number density = 21.081737 Si / 1000 Ang^3
#
#
#
# Elastic Constant Matrix: (Units=GPa)
#
#
# Indices 1 2 3 4 5 6 
#
# 1 134.5222 33.0543 34.1232 0.0000 0.0000 0.0000
# 2 33.0543 116.8920 13.9313 0.0000 0.0000 0.0000
# 3 34.1232 13.9313 49.7642 0.0000 0.0000 0.0000
# 4 0.0000 0.0000 0.0000 16.8927 0.0000 0.0000
# 5 0.0000 0.0000 0.0000 0.0000 18.5275 0.0000
# 6 0.0000 0.0000 0.0000 0.0000 0.0000 19.9248
#
#
#
# Elastic Compliance Matrix: (Units=1/GPa)
#
#
# Indices 1 2 3 4 5 6 
#
# 1 0.009413 -0.001958 -0.005906 0.000000 0.000000 0.000000
# 2 -0.001958 0.009257 -0.001249 0.000000 0.000000 0.000000
# 3 -0.005906 -0.001249 0.024494 0.000000 0.000000 0.000000
# 4 0.000000 0.000000 0.000000 0.059197 0.000000 0.000000
# 5 0.000000 0.000000 0.000000 0.000000 0.053974 0.000000
# 6 0.000000 0.000000 0.000000 0.000000 0.000000 0.050189
#
#
# Mechanical properties :
#
#
# Convention : Reuss Voigt Hill
#
# Bulk Modulus (GPa) = 40.09909 51.48844 45.79377
# Shear Modulus (GPa) = 21.45334 25.74031 23.59683
#
# Velocity S-wave (km/s) = 3.19349 3.49804 3.34923
# Velocity P-wave (km/s) = 5.71488 6.38681 6.06016
#
# Compressibility (1/GPa) = 0.02493822
#
# Stress axis : x y z
#
# Youngs Moduli (GPa) = 106.23577 108.02167 40.82556
#
# Poissons Ratio (x) = 0.21149 0.24113
# Poissons Ratio (y) = 0.20799 0.05099
# Poissons Ratio (z) = 0.62747 0.13493
#
# Static dielectric constant tensor:
#      x y z
#    x 1.779900 0.000000 0.000000 
#    y 0.000000 1.782720 0.000000 
#    z 0.000000 0.000000 1.814650 
# 
# From -- ./inp_files/26870.got.cif
#   From: 2010.05.17/outbox.cif.g08.bks.cpg/sg57_14_cif.got.tgz:26870.got - 2010.06.03 13:58:18.
