data_PCOD9439342
_publ_section_title
;
Structure prediction by ZEFSAII (Michael W. Deem and Ramdas Pophale) SiO2 
 PCOD9439342
Probable space group: P B C M
;
_chemical_formula_sum "Si O2"
_cell_formula_units_Z 56
_cell_length_a 19.332970
_cell_length_b 8.553673
_cell_length_c 15.870236
_cell_angle_alpha 90.000000
_cell_angle_beta 90.000000
_cell_angle_gamma 90.000000
_cell_volume 2624.427655
_symmetry_space_group_name_H-M "P B C M"
_symmetry_group_IT_number 57
_symmetry_cell_setting 'orthorhombic'
loop_
_space_group_symop_operation_xyz
x,y,z
-x,-y,1/2+z
x,1/2-y,-z
-x,1/2+y,1/2-z
-x,-y,-z
x,y,1/2-z
-x,1/2+y,z
x,1/2-y,1/2+z
loop_
_atom_site_type_symbol
_atom_site_label
_atom_site_fract_x
_atom_site_fract_y
_atom_site_fract_z
Si Si1 0.210781 0.634292 0.435314
Si Si2 0.076859 0.829307 0.847852
Si Si3 0.068315 0.295103 0.150923
Si Si4 0.805210 0.622138 0.438357
Si Si5 0.577789 0.436709 0.003086
Si Si6 0.329884 0.079934 0.154038
Si Si7 0.332862 0.457656 0.345534
O O1 0.250058 0.750000 0.500000
O O2 0.148945 0.720668 0.388305
O O3 0.173995 0.510695 0.496703
O O4 0.260521 0.539363 0.372876
O O5 0.078784 0.783697 0.750000
O O6 0.006254 0.758055 0.883625
O O7 0.073824 0.017810 0.852932
O O8 0.071953 0.250825 0.250000
O O9 0.130880 0.207354 0.105034
O O10 0.768733 0.750000 0.500000
O O11 0.749212 0.552297 0.374585
O O12 0.619487 0.504375 0.084371
O O13 0.576938 0.250000 0.000000
O O14 0.500000 0.500000 0.000000
O O15 0.615228 0.492054 0.918110
O O16 0.343209 0.025846 0.250000
O O17 0.332854 0.269257 0.153990
O O18 0.349838 0.507358 0.250000
#
# Coordination Sequence:
#
# PCOD9439342 Si02
#       7
#     8   8   8   8   8   8   8
#     4  12  25  40  61  95 130 173 223 282 342 403
#     4  10  22  41  60  83 121 166 221 281 344 411
#     4  10  22  39  59  86 119 167 221 278 345 408
#     4  12  21  39  64  90 129 168 222 277 336 406
#     4  12  26  47  73 105 144 181 222 272 325 389
#     4  11  23  43  73 103 135 178 225 274 334 397
#     4  11  23  44  72 101 136 179 224 274 335 397
#
# _framework density 21.337985
#
# number of rings (size 3 to 8) (size 9 to 14) (size 15 to 20)
#    0.000    0.857    4.286    2.571    2.000    4.571 
#    0.000    1.429    0.000    0.000    0.000    0.000 
#    0.000    0.000    0.000    0.000    0.000    0.000 
#
# Total GULP energy -312974.263061 kJ/mol
# GULP energy per Si atom -5588.826126 kJ/mol
# Density = 2.128942 g / cm^3
# Si number density = 21.337985 Si / 1000 Ang^3
#
#
#
# Elastic Constant Matrix: (Units=GPa)
#
#
# Indices 1 2 3 4 5 6 
#
# 1 138.5781 20.2759 72.2824 0.0000 0.0000 0.0000
# 2 20.2759 44.8717 40.1450 0.0000 0.0000 0.0000
# 3 72.2824 40.1450 163.6835 0.0000 0.0000 0.0000
# 4 0.0000 0.0000 0.0000 21.6167 0.0000 0.0000
# 5 0.0000 0.0000 0.0000 0.0000 4.7079 0.0000
# 6 0.0000 0.0000 0.0000 0.0000 0.0000 35.1575
#
#
#
# Elastic Compliance Matrix: (Units=1/GPa)
#
#
# Indices 1 2 3 4 5 6 
#
# 1 0.009392 -0.000683 -0.003980 0.000000 0.000000 0.000000
# 2 -0.000683 0.028600 -0.006713 0.000000 0.000000 0.000000
# 3 -0.003980 -0.006713 0.009513 0.000000 0.000000 0.000000
# 4 0.000000 0.000000 0.000000 0.046261 0.000000 0.000000
# 5 0.000000 0.000000 0.000000 0.000000 0.212410 0.000000
# 6 0.000000 0.000000 0.000000 0.000000 0.000000 0.028443
#
#
# Mechanical properties :
#
#
# Convention : Reuss Voigt Hill
#
# Bulk Modulus (GPa) = 40.39818 68.05999 54.22908
# Shear Modulus (GPa) = 13.67530 26.59174 20.13352
#
# Velocity S-wave (km/s) = 2.53433 3.53401 3.07506
# Velocity P-wave (km/s) = 5.24761 6.97264 6.17070
#
# Compressibility (1/GPa) = 0.02475359
#
# Stress axis : x y z
#
# Youngs Moduli (GPa) = 106.47296 34.96489 105.11646
#
# Poissons Ratio (x) = 0.02389 0.41836
# Poissons Ratio (y) = 0.07274 0.70562
# Poissons Ratio (z) = 0.42376 0.23471
#
# Static dielectric constant tensor:
#      x y z
#    x 1.758000 0.000000 0.000000 
#    y 0.000000 1.902090 0.000000 
#    z 0.000000 0.000000 1.790540 
# 
# From -- ./inp_files/19356.got.cif
#   From: 2010.05.17/outbox.cif.g08.bks.cpg/sg57_10_cif.got.tgz:19356.got - 2010.06.03 13:58:18.
