data_PCOD9439663
_publ_section_title
;
Structure prediction by ZEFSAII (Michael W. Deem and Ramdas Pophale) SiO2 
 PCOD9439663
Probable space group: P B C M
;
_chemical_formula_sum "Si O2"
_cell_formula_units_Z 64
_cell_length_a 8.655658
_cell_length_b 20.125285
_cell_length_c 17.390664
_cell_angle_alpha 90.000000
_cell_angle_beta 90.000000
_cell_angle_gamma 90.000000
_cell_volume 3029.411655
_symmetry_space_group_name_H-M "P B C M"
_symmetry_group_IT_number 57
_symmetry_cell_setting 'orthorhombic'
loop_
_space_group_symop_operation_xyz
x,y,z
-x,-y,1/2+z
x,1/2-y,-z
-x,1/2+y,1/2-z
-x,-y,-z
x,y,1/2-z
-x,1/2+y,z
x,1/2-y,1/2+z
loop_
_atom_site_type_symbol
_atom_site_label
_atom_site_fract_x
_atom_site_fract_y
_atom_site_fract_z
Si Si1 0.838003 0.861492 0.427903
Si Si2 0.522614 0.687230 0.949349
Si Si3 0.627233 0.057308 0.489999
Si Si4 0.313009 0.734819 0.165334
Si Si5 0.202102 0.394102 0.888987
Si Si6 0.067993 0.525089 0.580236
Si Si7 0.446459 0.912140 0.836239
Si Si8 0.954562 0.738240 0.162000
O O1 0.660538 0.849084 0.403751
O O2 0.818877 0.877430 0.519468
O O3 0.914738 0.792506 0.402326
O O4 0.948197 0.918684 0.393181
O O5 0.392473 0.718183 0.895824
O O6 0.583054 0.750000 0.000000
O O7 0.446023 0.629913 0.999733
O O8 0.764266 0.051544 0.551559
O O9 0.665088 0.053572 0.399218
O O10 0.500000 0.000000 0.500000
O O11 0.324795 0.765820 0.250000
O O12 0.399723 0.664894 0.166768
O O13 0.133813 0.720747 0.150402
O O14 0.098970 0.459011 0.870734
O O15 0.376372 0.413217 0.865751
O O16 0.147937 0.327499 0.847338
O O17 0.000000 0.500000 0.500000
O O18 0.435552 0.939675 0.750000
O O19 0.934889 0.763643 0.250000
#
# Coordination Sequence:
#
# PCOD9439663 Si02
#       8
#     8   8   8   8   8   8   8   8
#     4  11  22  39  63  96 126 168 219 269 335 392
#     4  12  22  39  66  95 126 165 223 268 321 392
#     4  12  22  41  66  95 131 169 216 272 324 383
#     4  10  23  40  60  93 131 170 216 272 332 388
#     4  11  21  42  64  95 125 170 218 270 328 398
#     4  10  23  39  63  95 130 166 213 272 325 390
#     4  11  22  40  65  95 129 169 213 265 327 387
#     4  11  24  40  62  93 131 171 217 276 329 391
#
# _framework density 21.126215999999999
#
# number of rings (size 3 to 8) (size 9 to 14) (size 15 to 20)
#    0.000    1.000    3.750    3.750    3.500    2.500 
#    0.000    1.875    0.000    6.000    0.000    0.000 
#    0.000    0.000    0.000    0.000    0.000    0.000 
#
# Total GULP energy -357068.992621 kJ/mol
# GULP energy per Si atom -5579.203010 kJ/mol
# Density = 2.107813 g / cm^3
# Si number density = 21.126216 Si / 1000 Ang^3
#
#
#
# Elastic Constant Matrix: (Units=GPa)
#
#
# Indices 1 2 3 4 5 6 
#
# 1 42.3791 -0.8665 -13.1238 0.0000 0.0000 0.0000
# 2 -0.8665 78.7107 3.0281 0.0000 0.0000 0.0000
# 3 -13.1238 3.0281 48.1174 0.0000 0.0000 0.0000
# 4 0.0000 0.0000 0.0000 13.8959 0.0000 0.0000
# 5 0.0000 0.0000 0.0000 0.0000 22.6980 0.0000
# 6 0.0000 0.0000 0.0000 0.0000 0.0000 23.0625
#
#
#
# Elastic Compliance Matrix: (Units=1/GPa)
#
#
# Indices 1 2 3 4 5 6 
#
# 1 0.025773 0.000013 0.007029 0.000000 0.000000 0.000000
# 2 0.000013 0.012736 -0.000798 0.000000 0.000000 0.000000
# 3 0.007029 -0.000798 0.022750 0.000000 0.000000 0.000000
# 4 0.000000 0.000000 0.000000 0.071963 0.000000 0.000000
# 5 0.000000 0.000000 0.000000 0.000000 0.044057 0.000000
# 6 0.000000 0.000000 0.000000 0.000000 0.000000 0.043360
#
#
# Mechanical properties :
#
#
# Convention : Reuss Voigt Hill
#
# Bulk Modulus (GPa) = 13.55983 16.36476 14.96229
# Shear Modulus (GPa) = 21.48381 23.94258 22.71319
#
# Velocity S-wave (km/s) = 3.19239 3.37012 3.28246
# Velocity P-wave (km/s) = 4.47447 4.78609 4.63290
#
# Compressibility (1/GPa) = 0.07374722
#
# Stress axis : x y z
#
# Youngs Moduli (GPa) = 38.79967 78.52006 43.95652
#
# Poissons Ratio (x) = -0.00105 -0.30896
# Poissons Ratio (y) = -0.00052 0.03507
# Poissons Ratio (z) = -0.27271 0.06265
#
# Static dielectric constant tensor:
#      x y z
#    x 1.868730 0.000000 0.000000 
#    y 0.000000 1.790220 0.000000 
#    z 0.000000 0.000000 1.823350 
# 
# From -- ./inp_files/21417.got.cif
#   From: 2010.05.17/outbox.cif.g08.bks.cpg/sg57_11_cif.got.tgz:21417.got - 2010.06.03 13:58:18.
