data_PCOD9439974
_publ_section_title
;
Structure prediction by ZEFSAII (Michael W. Deem and Ramdas Pophale) SiO2 
 PCOD9439974
Probable space group: P B C M
;
_chemical_formula_sum "Si O2"
_cell_formula_units_Z 48
_cell_length_a 8.333069
_cell_length_b 17.537047
_cell_length_c 15.070961
_cell_angle_alpha 90.000000
_cell_angle_beta 90.000000
_cell_angle_gamma 90.000000
_cell_volume 2202.431398
_symmetry_space_group_name_H-M "P B C M"
_symmetry_group_IT_number 57
_symmetry_cell_setting 'orthorhombic'
loop_
_space_group_symop_operation_xyz
x,y,z
-x,-y,1/2+z
x,1/2-y,-z
-x,1/2+y,1/2-z
-x,-y,-z
x,y,1/2-z
-x,1/2+y,z
x,1/2-y,1/2+z
loop_
_atom_site_type_symbol
_atom_site_label
_atom_site_fract_x
_atom_site_fract_y
_atom_site_fract_z
Si Si1 0.799960 0.109455 0.850981
Si Si2 0.250588 0.321143 0.645476
Si Si3 0.554774 0.244531 0.893680
Si Si4 0.047369 0.834485 0.515149
Si Si5 0.432327 0.025265 0.095445
Si Si6 0.733332 0.100272 0.344293
O O1 0.854263 0.111291 0.750000
O O2 0.660523 0.172535 0.866578
O O3 0.703863 0.032244 0.871939
O O4 0.946047 0.128277 0.917864
O O5 0.211577 0.334118 0.750000
O O6 0.371834 0.249587 0.640030
O O7 0.349534 0.392290 0.604371
O O8 0.102388 0.315180 0.578193
O O9 0.643659 0.318085 0.852222
O O10 0.542798 0.250000 0.000000
O O11 0.121791 0.750000 0.500000
O O12 0.150370 0.894590 0.572478
O O13 0.597050 0.036209 0.149990
O O14 0.500000 0.000000 0.000000
O O15 0.819089 0.095602 0.250000
#
# Coordination Sequence:
#
# PCOD9439974 Si02
#       6
#     8   8   8   8   8   8
#     4  12  22  38  66  98 131 167 216 277 331 382
#     4  11  25  43  66  96 133 176 220 266 327 404
#     4  11  19  39  65  94 125 165 218 272 323 379
#     4  12  24  41  63  98 129 172 218 270 331 392
#     4  11  22  42  66  95 127 170 221 270 320 382
#     4  11  20  38  64  90 126 172 219 259 316 396
#
# _framework density 21.794094999999999
#
# number of rings (size 3 to 8) (size 9 to 14) (size 15 to 20)
#    0.000    0.667    5.000    6.000    0.000    1.333 
#    0.000    0.000    0.000    2.000    0.000    0.000 
#    0.000    0.000    0.000    0.000    0.000    0.000 
#
# Total GULP energy -267733.677751 kJ/mol
# GULP energy per Si atom -5577.784953 kJ/mol
# Density = 2.174449 g / cm^3
# Si number density = 21.794095 Si / 1000 Ang^3
#
#
#
# Elastic Constant Matrix: (Units=GPa)
#
#
# Indices 1 2 3 4 5 6 
#
# 1 70.6634 -9.8163 30.7742 0.0000 0.0000 0.0000
# 2 -9.8163 37.9182 1.9799 0.0000 0.0000 0.0000
# 3 30.7742 1.9799 202.4502 0.0000 0.0000 0.0000
# 4 0.0000 0.0000 0.0000 11.7195 0.0000 0.0000
# 5 0.0000 0.0000 0.0000 0.0000 -14.4618 0.0000
# 6 0.0000 0.0000 0.0000 0.0000 0.0000 13.7681
#
#
#
# Elastic Compliance Matrix: (Units=1/GPa)
#
#
# Indices 1 2 3 4 5 6 
#
# 1 0.015802 0.004218 -0.002443 0.000000 0.000000 0.000000
# 2 0.004218 0.027512 -0.000910 0.000000 0.000000 0.000000
# 3 -0.002443 -0.000910 0.005320 0.000000 0.000000 0.000000
# 4 0.000000 0.000000 0.000000 0.085328 0.000000 0.000000
# 5 0.000000 0.000000 0.000000 0.000000 -0.069148 0.000000
# 6 0.000000 0.000000 0.000000 0.000000 0.000000 0.072632
#
#
# Mechanical properties :
#
#
# Convention : Reuss Voigt Hill
#
# Bulk Modulus (GPa) = 19.85581 39.65638 29.75610
# Shear Modulus (GPa) = 32.78628 21.41145 27.09886
#
# Velocity S-wave (km/s) = 3.88282 3.13779 3.53002
# Velocity P-wave (km/s) = 5.40668 5.60028 5.50433
#
# Compressibility (1/GPa) = 0.05036310
#
# Stress axis : x y z
#
# Youngs Moduli (GPa) = 63.28465 36.34759 187.97758
#
# Poissons Ratio (x) = -0.15332 0.45927
# Poissons Ratio (y) = -0.26695 0.17111
# Poissons Ratio (z) = 0.15462 0.03309
#
# Static dielectric constant tensor:
#      x y z
#    x 1.861820 0.000000 0.000000 
#    y 0.000000 1.797320 0.000000 
#    z 0.000000 0.000000 1.845650 
# 
# From -- ./inp_files/16332.got.cif
#   From: 2010.05.17/outbox.cif.g08.bks.cpg/sg57_9_cif.got.tgz:16332.got - 2010.06.03 13:58:18.
