data_PCOD9439056
_publ_section_title
;
Structure prediction by ZEFSAII (Michael W. Deem and Ramdas Pophale) SiO2 
 PCOD9439056
Probable space group: P B C M
;
_chemical_formula_sum "Si O2"
_cell_formula_units_Z 40
_cell_length_a 10.753597
_cell_length_b 8.660795
_cell_length_c 20.542065
_cell_angle_alpha 90.000000
_cell_angle_beta 90.000000
_cell_angle_gamma 90.000000
_cell_volume 1913.179043
_symmetry_space_group_name_H-M "P B C M"
_symmetry_group_IT_number 57
_symmetry_cell_setting 'orthorhombic'
loop_
_space_group_symop_operation_xyz
x,y,z
-x,-y,1/2+z
x,1/2-y,-z
-x,1/2+y,1/2-z
-x,-y,-z
x,y,1/2-z
-x,1/2+y,z
x,1/2-y,1/2+z
loop_
_atom_site_type_symbol
_atom_site_label
_atom_site_fract_x
_atom_site_fract_y
_atom_site_fract_z
Si Si1 0.837855 0.521643 0.404040
Si Si2 0.512137 0.253613 0.907789
Si Si3 0.317219 0.011703 0.538681
Si Si4 0.097827 0.686640 0.073956
Si Si5 0.375073 0.489121 0.675498
O O1 0.748389 0.534820 0.468438
O O2 0.876300 0.344787 0.388730
O O3 0.759529 0.577440 0.342593
O O4 0.962323 0.616543 0.416921
O O5 0.581394 0.372243 0.956937
O O6 0.602457 0.128989 0.875061
O O7 0.471061 0.360512 0.847778
O O8 0.393056 0.159599 0.935549
O O9 0.203094 0.944878 0.581889
O O10 0.107994 0.750000 0.000000
O O11 0.388670 0.532574 0.750000
#
# Coordination Sequence:
#
# PCOD9439056 Si02
#       5
#     8   8   8   8   8
#     4  11  24  39  65  89 128 158 205 250 303 365
#     4  10  23  40  66  89 129 156 198 253 310 365
#     4  10  21  40  61  99 120 158 195 252 320 364
#     4  10  21  40  60  93 123 160 194 248 311 368
#     4  11  24  42  62  88 122 166 208 247 294 359
#
# _framework density 20.907610999999999
#
# number of rings (size 3 to 8) (size 9 to 14) (size 15 to 20)
#    0.000    1.600    2.000    3.000    5.600    4.800 
#    0.000    1.000    0.000    0.000    0.000    0.000 
#    0.000    0.000    0.000    0.000    0.000    0.000 
#
# Total GULP energy -223275.183548 kJ/mol
# GULP energy per Si atom -5581.879589 kJ/mol
# Density = 2.086002 g / cm^3
# Si number density = 20.907611 Si / 1000 Ang^3
#
#
#
# Elastic Constant Matrix: (Units=GPa)
#
#
# Indices 1 2 3 4 5 6 
#
# 1 126.5827 42.2934 25.9930 0.0000 0.0000 0.0000
# 2 42.2934 78.8043 16.4548 0.0000 0.0000 0.0000
# 3 25.9930 16.4548 40.8609 0.0000 0.0000 0.0000
# 4 0.0000 0.0000 0.0000 18.2416 0.0000 0.0000
# 5 0.0000 0.0000 0.0000 0.0000 15.7042 0.0000
# 6 0.0000 0.0000 0.0000 0.0000 0.0000 49.2499
#
#
#
# Elastic Compliance Matrix: (Units=1/GPa)
#
#
# Indices 1 2 3 4 5 6 
#
# 1 0.010415 -0.004592 -0.004776 0.000000 0.000000 0.000000
# 2 -0.004592 0.015880 -0.003473 0.000000 0.000000 0.000000
# 3 -0.004776 -0.003473 0.028910 0.000000 0.000000 0.000000
# 4 0.000000 0.000000 0.000000 0.054820 0.000000 0.000000
# 5 0.000000 0.000000 0.000000 0.000000 0.063677 0.000000
# 6 0.000000 0.000000 0.000000 0.000000 0.000000 0.020305
#
#
# Mechanical properties :
#
#
# Convention : Reuss Voigt Hill
#
# Bulk Modulus (GPa) = 33.87385 46.19227 40.03306
# Shear Modulus (GPa) = 21.78359 27.40626 24.59492
#
# Velocity S-wave (km/s) = 3.23135 3.62446 3.43353
# Velocity P-wave (km/s) = 5.49172 6.29739 5.90830
#
# Compressibility (1/GPa) = 0.02952129
#
# Stress axis : x y z
#
# Youngs Moduli (GPa) = 96.01442 62.97374 34.58984
#
# Poissons Ratio (x) = 0.28920 0.16520
# Poissons Ratio (y) = 0.44094 0.12014
# Poissons Ratio (z) = 0.45857 0.21873
#
# Static dielectric constant tensor:
#      x y z
#    x 1.797990 0.000000 0.000000 
#    y 0.000000 1.809550 0.000000 
#    z 0.000000 0.000000 1.748300 
# 
# From -- ./inp_files/24864.got.cif
#   From: 2010.05.17/outbox.cif.g08.bks.cpg/sg57_13_cif.got.tgz:24864.got - 2010.06.03 13:58:18.
