data_PCOD9439147
_publ_section_title
;
Structure prediction by ZEFSAII (Michael W. Deem and Ramdas Pophale) SiO2 
 PCOD9439147
Probable space group: P B C M
;
_chemical_formula_sum "Si O2"
_cell_formula_units_Z 64
_cell_length_a 11.907508
_cell_length_b 14.207650
_cell_length_c 16.718438
_cell_angle_alpha 90.000000
_cell_angle_beta 90.000000
_cell_angle_gamma 90.000000
_cell_volume 2828.386989
_symmetry_space_group_name_H-M "P B C M"
_symmetry_group_IT_number 57
_symmetry_cell_setting 'orthorhombic'
loop_
_space_group_symop_operation_xyz
x,y,z
-x,-y,1/2+z
x,1/2-y,-z
-x,1/2+y,1/2-z
-x,-y,-z
x,y,1/2-z
-x,1/2+y,z
x,1/2-y,1/2+z
loop_
_atom_site_type_symbol
_atom_site_label
_atom_site_fract_x
_atom_site_fract_y
_atom_site_fract_z
Si Si1 0.287258 0.003068 0.014071
Si Si2 0.487385 0.303460 0.843593
Si Si3 0.091210 0.147107 0.008605
Si Si4 0.065534 0.638148 0.161825
Si Si5 0.573563 0.477418 0.163533
Si Si6 0.640837 0.633543 0.887452
Si Si7 0.103659 0.086282 0.661270
Si Si8 0.724853 0.310439 0.577937
O O1 0.172400 0.059523 0.027788
O O2 0.341273 0.958978 0.092253
O O3 0.363911 0.083959 0.973907
O O4 0.277072 0.919026 0.951040
O O5 0.496973 0.277919 0.750000
O O6 0.462142 0.413910 0.845648
O O7 0.388177 0.242705 0.882475
O O8 0.603036 0.283584 0.889188
O O9 0.007976 0.156218 0.082903
O O10 0.148679 0.250000 0.000000
O O11 0.044152 0.124766 0.919351
O O12 0.017848 0.660871 0.250000
O O13 0.089123 0.526017 0.161970
O O14 0.181463 0.692992 0.146290
O O15 0.627301 0.464043 0.250000
O O16 0.460872 0.416762 0.158409
O O17 0.764360 0.611638 0.852909
O O18 0.070050 0.120737 0.750000
O O19 0.754566 0.250000 0.500000
#
# Coordination Sequence:
#
# PCOD9439147 Si02
#       8
#     8   8   8   8   8   8   8   8
#     4  11  25  42  65  94 134 175 230 283 340 411
#     4  11  24  38  62  96 133 175 228 277 327 403
#     4  11  25  44  69 100 136 175 224 291 350 417
#     4  11  23  46  74  97 134 176 225 290 352 417
#     4  11  23  38  57  87 132 175 219 275 332 397
#     4  11  21  40  65  93 135 179 224 272 326 404
#     4  10  21  40  71 101 132 178 227 279 340 410
#     4  12  24  42  68  98 132 178 228 285 341 407
#
# _framework density 22.627738999999998
#
# number of rings (size 3 to 8) (size 9 to 14) (size 15 to 20)
#    0.000    1.000    3.750    3.375    5.250    3.000 
#    0.000    0.625    0.000    0.000    0.000    0.000 
#    0.000    0.000    0.000    0.000    0.000    0.000 
#
# Total GULP energy -357753.930976 kJ/mol
# GULP energy per Si atom -5589.905172 kJ/mol
# Density = 2.257624 g / cm^3
# Si number density = 22.627739 Si / 1000 Ang^3
#
#
#
# Elastic Constant Matrix: (Units=GPa)
#
#
# Indices 1 2 3 4 5 6 
#
# 1 55.4906 8.0904 31.2555 0.0000 0.0000 0.0000
# 2 8.0904 71.3469 -3.4694 0.0000 0.0000 0.0000
# 3 31.2555 -3.4694 170.3981 0.0000 0.0000 0.0000
# 4 0.0000 0.0000 0.0000 19.0754 0.0000 0.0000
# 5 0.0000 0.0000 0.0000 0.0000 15.2968 0.0000
# 6 0.0000 0.0000 0.0000 0.0000 0.0000 31.7621
#
#
#
# Elastic Compliance Matrix: (Units=1/GPa)
#
#
# Indices 1 2 3 4 5 6 
#
# 1 0.020538 -0.002515 -0.003818 0.000000 0.000000 0.000000
# 2 -0.002515 0.014338 0.000753 0.000000 0.000000 0.000000
# 3 -0.003818 0.000753 0.006584 0.000000 0.000000 0.000000
# 4 0.000000 0.000000 0.000000 0.052424 0.000000 0.000000
# 5 0.000000 0.000000 0.000000 0.000000 0.065373 0.000000
# 6 0.000000 0.000000 0.000000 0.000000 0.000000 0.031484
#
#
# Mechanical properties :
#
#
# Convention : Reuss Voigt Hill
#
# Bulk Modulus (GPa) = 33.00253 40.99874 37.00063
# Shear Modulus (GPa) = 23.58474 30.65081 27.11778
#
# Velocity S-wave (km/s) = 3.23196 3.68444 3.46559
# Velocity P-wave (km/s) = 5.34266 6.02148 5.69220
#
# Compressibility (1/GPa) = 0.03030071
#
# Stress axis : x y z
#
# Youngs Moduli (GPa) = 48.68910 69.74576 151.87515
#
# Poissons Ratio (x) = 0.17539 0.57993
# Poissons Ratio (y) = 0.12244 -0.11439
# Poissons Ratio (z) = 0.18592 -0.05253
#
# Static dielectric constant tensor:
#      x y z
#    x 1.823400 0.000000 0.000000 
#    y 0.000000 1.828310 0.000000 
#    z 0.000000 0.000000 1.864110 
# 
# From -- ./inp_files/22060.got.cif
#   From: 2010.05.17/outbox.cif.g08.bks.cpg/sg57_12_cif.got.tgz:22060.got - 2010.06.03 13:58:18.
