data_PCOD9439169
_publ_section_title
;
Structure prediction by ZEFSAII (Michael W. Deem and Ramdas Pophale) SiO2 
 PCOD9439169
Probable space group: P B C M
;
_chemical_formula_sum "Si O2"
_cell_formula_units_Z 48
_cell_length_a 8.316136
_cell_length_b 16.388130
_cell_length_c 15.937406
_cell_angle_alpha 90.000000
_cell_angle_beta 90.000000
_cell_angle_gamma 90.000000
_cell_volume 2172.044005
_symmetry_space_group_name_H-M "P B C M"
_symmetry_group_IT_number 57
_symmetry_cell_setting 'orthorhombic'
loop_
_space_group_symop_operation_xyz
x,y,z
-x,-y,1/2+z
x,1/2-y,-z
-x,1/2+y,1/2-z
-x,-y,-z
x,y,1/2-z
-x,1/2+y,z
x,1/2-y,1/2+z
loop_
_atom_site_type_symbol
_atom_site_label
_atom_site_fract_x
_atom_site_fract_y
_atom_site_fract_z
Si Si1 0.216777 0.508426 0.657084
Si Si2 0.876132 0.563793 0.654744
Si Si3 0.640816 0.290322 0.908875
Si Si4 0.706349 0.677365 0.344719
Si Si5 0.978776 0.262949 0.401927
Si Si6 0.674562 0.032449 0.477548
O O1 0.259735 0.543263 0.750000
O O2 0.301543 0.420710 0.649687
O O3 0.251685 0.552602 0.569204
O O4 0.024077 0.500017 0.657785
O O5 0.806807 0.567769 0.750000
O O6 0.762644 0.535466 0.579096
O O7 0.957091 0.650203 0.630861
O O8 0.464385 0.283828 0.868299
O O9 0.801720 0.256112 0.863907
O O10 0.672487 0.385985 0.923454
O O11 0.619621 0.250000 0.000000
O O12 0.740121 0.700803 0.250000
O O13 0.867154 0.704518 0.391097
O O14 0.944694 0.250000 0.500000
O O15 0.500000 0.000000 0.500000
#
# Coordination Sequence:
#
# PCOD9439169 Si02
#       6
#     8   8   8   8   8   8
#     4  10  21  41  65  96 135 176 233 295 354 425
#     4  11  25  44  70 104 141 186 245 303 364 437
#     4  11  25  44  68 101 135 181 239 290 359 441
#     4  11  23  39  64  95 132 177 225 284 354 427
#     4  11  23  43  70  94 138 184 232 296 358 433
#     4  12  24  42  70 101 139 191 234 298 369 429
#
# _framework density 22.099
#
# number of rings (size 3 to 8) (size 9 to 14) (size 15 to 20)
#    0.000    1.000    1.667    5.500    2.333    2.667 
#    0.000    0.833    0.000    0.000    0.000    0.000 
#    0.000    0.000    0.000    0.000    0.000    0.000 
#
# Total GULP energy -267743.615921 kJ/mol
# GULP energy per Si atom -5577.991998 kJ/mol
# Density = 2.204870 g / cm^3
# Si number density = 22.099000 Si / 1000 Ang^3
#
#
#
# Elastic Constant Matrix: (Units=GPa)
#
#
# Indices 1 2 3 4 5 6 
#
# 1 96.0207 8.9870 25.1961 0.0000 0.0000 0.0000
# 2 8.9870 60.3900 -4.1301 0.0000 0.0000 0.0000
# 3 25.1961 -4.1301 98.0742 0.0000 0.0000 0.0000
# 4 0.0000 0.0000 0.0000 6.2116 0.0000 0.0000
# 5 0.0000 0.0000 0.0000 0.0000 65.9556 0.0000
# 6 0.0000 0.0000 0.0000 0.0000 0.0000 31.7705
#
#
#
# Elastic Compliance Matrix: (Units=1/GPa)
#
#
# Indices 1 2 3 4 5 6 
#
# 1 0.011380 -0.001899 -0.003004 0.000000 0.000000 0.000000
# 2 -0.001899 0.016924 0.001201 0.000000 0.000000 0.000000
# 3 -0.003004 0.001201 0.011019 0.000000 0.000000 0.000000
# 4 0.000000 0.000000 0.000000 0.160988 0.000000 0.000000
# 5 0.000000 0.000000 0.000000 0.000000 0.015162 0.000000
# 6 0.000000 0.000000 0.000000 0.000000 0.000000 0.031476
#
#
# Mechanical properties :
#
#
# Convention : Reuss Voigt Hill
#
# Bulk Modulus (GPa) = 31.32986 34.95455 33.14221
# Shear Modulus (GPa) = 18.86850 35.74967 27.30908
#
# Velocity S-wave (km/s) = 2.92518 4.02643 3.51915
# Velocity P-wave (km/s) = 5.06130 6.12110 5.61625
#
# Compressibility (1/GPa) = 0.03191843
#
# Stress axis : x y z
#
# Youngs Moduli (GPa) = 87.87090 59.08857 90.75567
#
# Poissons Ratio (x) = 0.11221 0.27260
# Poissons Ratio (y) = 0.16687 -0.10896
# Poissons Ratio (z) = 0.26394 -0.07094
#
# Static dielectric constant tensor:
#      x y z
#    x 1.854150 0.000000 0.000000 
#    y 0.000000 1.878300 0.000000 
#    z 0.000000 0.000000 1.832500 
# 
# From -- ./inp_files/16307.got.cif
#   From: 2010.05.17/outbox.cif.g08.bks.cpg/sg57_9_cif.got.tgz:16307.got - 2010.06.03 13:58:18.
