data_PCOD9439107
_publ_section_title
;
Structure prediction by ZEFSAII (Michael W. Deem and Ramdas Pophale) SiO2 
 PCOD9439107
Probable space group: P B C M
;
_chemical_formula_sum "Si O2"
_cell_formula_units_Z 40
_cell_length_a 6.989018
_cell_length_b 13.306225
_cell_length_c 18.845940
_cell_angle_alpha 90.000000
_cell_angle_beta 90.000000
_cell_angle_gamma 90.000000
_cell_volume 1752.624288
_symmetry_space_group_name_H-M "P B C M"
_symmetry_group_IT_number 57
_symmetry_cell_setting 'orthorhombic'
loop_
_space_group_symop_operation_xyz
x,y,z
-x,-y,1/2+z
x,1/2-y,-z
-x,1/2+y,1/2-z
-x,-y,-z
x,y,1/2-z
-x,1/2+y,z
x,1/2-y,1/2+z
loop_
_atom_site_type_symbol
_atom_site_label
_atom_site_fract_x
_atom_site_fract_y
_atom_site_fract_z
Si Si1 0.008124 0.653645 0.831298
Si Si2 0.306431 0.032240 0.915165
Si Si3 0.690068 0.971682 0.668586
Si Si4 0.227537 0.805028 0.927124
Si Si5 0.664439 0.834103 0.549047
O O1 0.954016 0.673471 0.750000
O O2 0.160593 0.562240 0.833004
O O3 0.117370 0.747663 0.865505
O O4 0.828211 0.611904 0.875190
O O5 0.491584 0.008949 0.866873
O O6 0.201340 0.925164 0.927166
O O7 0.361445 0.077806 0.991297
O O8 0.660103 0.940608 0.750000
O O9 0.759622 0.881095 0.618092
O O10 0.459294 0.792729 0.924194
O O11 0.174297 0.750000 0.000000
O O12 0.758865 0.750000 0.500000
#
# Coordination Sequence:
#
# PCOD9439107 Si02
#       5
#     8   8   8   8   8
#     4  11  25  42  64  98 134 170 215 269 330 392
#     4  11  23  42  66  92 130 174 221 267 321 396
#     4  10  21  40  64  92 129 170 216 275 337 395
#     4  10  21  40  65  93 128 167 213 268 323 380
#     4  10  21  40  66  96 128 170 220 267 323 391
#
# _framework density 22.822917
#
# number of rings (size 3 to 8) (size 9 to 14) (size 15 to 20)
#    0.000    1.600    0.000    6.600    0.000    9.600 
#    0.000    4.000    0.000    0.000    0.000    0.000 
#    0.000    0.000    0.000    0.000    0.000    0.000 
#
# Total GULP energy -223757.567486 kJ/mol
# GULP energy per Si atom -5593.939187 kJ/mol
# Density = 2.277097 g / cm^3
# Si number density = 22.822917 Si / 1000 Ang^3
#
#
#
# Elastic Constant Matrix: (Units=GPa)
#
#
# Indices 1 2 3 4 5 6 
#
# 1 100.2089 10.2973 33.7761 0.0000 0.0000 0.0000
# 2 10.2973 82.9656 44.2789 0.0000 0.0000 0.0000
# 3 33.7761 44.2789 172.8354 0.0000 0.0000 0.0000
# 4 0.0000 0.0000 0.0000 37.2842 0.0000 0.0000
# 5 0.0000 0.0000 0.0000 0.0000 59.0326 0.0000
# 6 0.0000 0.0000 0.0000 0.0000 0.0000 37.1526
#
#
#
# Elastic Compliance Matrix: (Units=1/GPa)
#
#
# Indices 1 2 3 4 5 6 
#
# 1 0.010687 -0.000245 -0.002026 0.000000 0.000000 0.000000
# 2 -0.000245 0.013968 -0.003531 0.000000 0.000000 0.000000
# 3 -0.002026 -0.003531 0.007086 0.000000 0.000000 0.000000
# 4 0.000000 0.000000 0.000000 0.026821 0.000000 0.000000
# 5 0.000000 0.000000 0.000000 0.000000 0.016940 0.000000
# 6 0.000000 0.000000 0.000000 0.000000 0.000000 0.026916
#
#
# Mechanical properties :
#
#
# Convention : Reuss Voigt Hill
#
# Bulk Modulus (GPa) = 49.65690 59.19052 54.42371
# Shear Modulus (GPa) = 41.41344 44.53772 42.97558
#
# Velocity S-wave (km/s) = 4.26438 4.42231 4.34406
# Velocity P-wave (km/s) = 6.78611 7.21573 7.00422
#
# Compressibility (1/GPa) = 0.02013819
#
# Stress axis : x y z
#
# Youngs Moduli (GPa) = 93.57045 71.59286 141.11933
#
# Poissons Ratio (x) = 0.01756 0.28586
# Poissons Ratio (y) = 0.02296 0.49822
# Poissons Ratio (z) = 0.18954 0.25276
#
# Static dielectric constant tensor:
#      x y z
#    x 1.870400 0.000000 0.000000 
#    y 0.000000 1.893830 0.000000 
#    z 0.000000 0.000000 1.819380 
# 
# From -- ./inp_files/20729.got.cif
#   From: 2010.05.17/outbox.cif.g08.bks.cpg/sg57_11_cif.got.tgz:20729.got - 2010.06.03 13:58:18.
