data_PCOD9439392
_publ_section_title
;
Structure prediction by ZEFSAII (Michael W. Deem and Ramdas Pophale) SiO2 
 PCOD9439392
Probable space group: P B C M
;
_chemical_formula_sum "Si O2"
_cell_formula_units_Z 48
_cell_length_a 18.841967
_cell_length_b 8.844683
_cell_length_c 14.107819
_cell_angle_alpha 90.000000
_cell_angle_beta 90.000000
_cell_angle_gamma 90.000000
_cell_volume 2351.085321
_symmetry_space_group_name_H-M "P B C M"
_symmetry_group_IT_number 57
_symmetry_cell_setting 'orthorhombic'
loop_
_space_group_symop_operation_xyz
x,y,z
-x,-y,1/2+z
x,1/2-y,-z
-x,1/2+y,1/2-z
-x,-y,-z
x,y,1/2-z
-x,1/2+y,z
x,1/2-y,1/2+z
loop_
_atom_site_type_symbol
_atom_site_label
_atom_site_fract_x
_atom_site_fract_y
_atom_site_fract_z
Si Si1 0.570851 0.581126 0.460771
Si Si2 0.821547 0.920720 0.473217
Si Si3 0.539105 0.998541 0.750000
Si Si4 0.096859 0.972008 0.140536
Si Si5 0.397109 0.831871 0.750000
Si Si6 0.956744 0.815985 0.359778
Si Si7 0.307433 0.893376 0.563617
O O1 0.570679 0.750000 0.500000
O O2 0.500000 0.500000 0.500000
O O3 0.568801 0.572941 0.346939
O O4 0.638302 0.493611 0.501809
O O5 0.798412 0.750000 0.500000
O O6 0.838183 0.013640 0.568924
O O7 0.896126 0.900131 0.418892
O O8 0.761754 0.006814 0.415206
O O9 0.454957 0.966132 0.750000
O O10 0.559181 0.175164 0.750000
O O11 0.116991 0.942790 0.250000
O O12 0.060219 0.138268 0.136293
O O13 0.036220 0.855210 0.109034
O O14 0.348901 0.842645 0.657180
O O15 0.952265 0.864530 0.250000
O O16 0.288058 0.750000 0.500000
#
# Coordination Sequence:
#
# PCOD9439392 Si02
#       7
#     8   8   4   8   4   8   8
#     4  12  24  43  69  99 132 165 215 266 320 392
#     4  10  22  40  59  86 126 173 215 261 328 388
#     4  12  24  44  74 100 128 169 211 270 332 380
#     4   9  18  35  57  87 121 159 215 269 317 379
#     4  12  26  44  72 102 130 165 219 266 336 390
#     4   9  18  33  59  88 119 158 211 270 319 379
#     4  12  26  45  63  94 135 172 213 270 322 398
#
# _framework density 20.416104000000001
#
# number of rings (size 3 to 8) (size 9 to 14) (size 15 to 20)
#    0.000    1.333    3.333    2.500    1.167    1.333 
#    3.000    0.000    0.000    0.000    0.000    0.000 
#    0.000    0.000    0.000    0.000    0.000    0.000 
#
# Total GULP energy -268405.370357 kJ/mol
# GULP energy per Si atom -5591.778549 kJ/mol
# Density = 2.036964 g / cm^3
# Si number density = 20.416104 Si / 1000 Ang^3
#
#
#
# Elastic Constant Matrix: (Units=GPa)
#
#
# Indices 1 2 3 4 5 6 
#
# 1 41.6188 25.5959 14.1661 0.0000 0.0000 0.0000
# 2 25.5959 76.2070 28.5135 0.0000 0.0000 0.0000
# 3 14.1661 28.5135 115.5981 0.0000 0.0000 0.0000
# 4 0.0000 0.0000 0.0000 27.6907 0.0000 0.0000
# 5 0.0000 0.0000 0.0000 0.0000 10.6971 0.0000
# 6 0.0000 0.0000 0.0000 0.0000 0.0000 29.4638
#
#
#
# Elastic Compliance Matrix: (Units=1/GPa)
#
#
# Indices 1 2 3 4 5 6 
#
# 1 0.030468 -0.009735 -0.001333 0.000000 0.000000 0.000000
# 2 -0.009735 0.017567 -0.003140 0.000000 0.000000 0.000000
# 3 -0.001333 -0.003140 0.009588 0.000000 0.000000 0.000000
# 4 0.000000 0.000000 0.000000 0.036113 0.000000 0.000000
# 5 0.000000 0.000000 0.000000 0.000000 0.093484 0.000000
# 6 0.000000 0.000000 0.000000 0.000000 0.000000 0.033940
#
#
# Mechanical properties :
#
#
# Convention : Reuss Voigt Hill
#
# Bulk Modulus (GPa) = 34.23664 41.10834 37.67249
# Shear Modulus (GPa) = 19.28185 24.58021 21.93103
#
# Velocity S-wave (km/s) = 3.07651 3.47358 3.28106
# Velocity P-wave (km/s) = 5.42455 6.02218 5.73116
#
# Compressibility (1/GPa) = 0.02920847
#
# Stress axis : x y z
#
# Youngs Moduli (GPa) = 32.82106 56.92587 104.29177
#
# Poissons Ratio (x) = 0.55417 0.13897
# Poissons Ratio (y) = 0.31951 0.32748
# Poissons Ratio (z) = 0.04374 0.17875
#
# Static dielectric constant tensor:
#      x y z
#    x 1.690030 0.000000 0.000000 
#    y 0.000000 1.711620 0.000000 
#    z 0.000000 0.000000 1.748650 
# 
# From -- ./inp_files/18992.got.cif
#   From: 2010.05.17/outbox.cif.g08.bks.cpg/sg57_10_cif.got.tgz:18992.got - 2010.06.03 13:58:18.
