data_PCOD9439559
_publ_section_title
;
Structure prediction by ZEFSAII (Michael W. Deem and Ramdas Pophale) SiO2 
 PCOD9439559
Probable space group: P B C M
;
_chemical_formula_sum "Si O2"
_cell_formula_units_Z 48
_cell_length_a 5.524799
_cell_length_b 22.375343
_cell_length_c 18.163949
_cell_angle_alpha 90.000000
_cell_angle_beta 90.000000
_cell_angle_gamma 90.000000
_cell_volume 2245.414163
_symmetry_space_group_name_H-M "P B C M"
_symmetry_group_IT_number 57
_symmetry_cell_setting 'orthorhombic'
loop_
_space_group_symop_operation_xyz
x,y,z
-x,-y,1/2+z
x,1/2-y,-z
-x,1/2+y,1/2-z
-x,-y,-z
x,y,1/2-z
-x,1/2+y,z
x,1/2-y,1/2+z
loop_
_atom_site_type_symbol
_atom_site_label
_atom_site_fract_x
_atom_site_fract_y
_atom_site_fract_z
Si Si1 0.197623 0.791930 0.669470
Si Si2 0.845249 0.486717 0.835826
Si Si3 0.061309 0.123971 0.429759
Si Si4 0.449323 0.097659 0.171029
Si Si5 0.966685 0.616589 0.602819
Si Si6 0.468517 0.671025 0.837313
O O1 0.084823 0.776722 0.750000
O O2 0.345091 0.852802 0.678971
O O3 0.382823 0.739395 0.650526
O O4 0.015591 0.812565 0.606102
O O5 0.920900 0.486146 0.750000
O O6 0.562218 0.468137 0.834049
O O7 0.904309 0.549852 0.870753
O O8 0.957808 0.433857 0.885351
O O9 0.336676 0.115342 0.406355
O O10 0.009853 0.120363 0.514960
O O11 0.310050 0.102807 0.250000
O O12 0.728048 0.654911 0.626834
O O13 0.227210 0.635603 0.636079
O O14 0.497588 0.661169 0.750000
#
# Coordination Sequence:
#
# PCOD9439559 Si02
#       6
#     8   8   8   8   8   8
#     4   9  21  42  68  95 131 180 238 285 330 401
#     4  10  22  42  67  98 135 185 235 280 337 416
#     4  11  23  40  66 103 138 175 226 292 355 396
#     4   9  19  37  66  96 128 175 233 286 334 397
#     4  12  28  44  70 104 143 182 221 287 354 419
#     4  11  26  49  70  96 134 189 240 279 337 419
#
# _framework density 21.376902999999999
#
# number of rings (size 3 to 8) (size 9 to 14) (size 15 to 20)
#    0.000    1.667    0.000    4.500    9.333    1.333 
#    0.000    0.000    0.000    0.000    0.000    0.000 
#    0.000    0.000    0.000    0.000    0.000    0.000 
#
# Total GULP energy -267343.943121 kJ/mol
# GULP energy per Si atom -5569.665482 kJ/mol
# Density = 2.132825 g / cm^3
# Si number density = 21.376903 Si / 1000 Ang^3
#
#
#
# Elastic Constant Matrix: (Units=GPa)
#
#
# Indices 1 2 3 4 5 6 
#
# 1 41.5114 7.3919 15.6732 0.0000 0.0000 0.0000
# 2 7.3919 77.0225 26.0769 0.0000 0.0000 0.0000
# 3 15.6732 26.0769 123.0647 0.0000 0.0000 0.0000
# 4 0.0000 0.0000 0.0000 25.1416 0.0000 0.0000
# 5 0.0000 0.0000 0.0000 0.0000 -188.3083 0.0000
# 6 0.0000 0.0000 0.0000 0.0000 0.0000 27.7223
#
#
#
# Elastic Compliance Matrix: (Units=1/GPa)
#
#
# Indices 1 2 3 4 5 6 
#
# 1 0.025456 -0.001449 -0.002935 0.000000 0.000000 0.000000
# 2 -0.001449 0.014069 -0.002797 0.000000 0.000000 0.000000
# 3 -0.002935 -0.002797 0.009092 0.000000 0.000000 0.000000
# 4 0.000000 0.000000 0.000000 0.039775 0.000000 0.000000
# 5 0.000000 0.000000 0.000000 0.000000 -0.005310 0.000000
# 6 0.000000 0.000000 0.000000 0.000000 0.000000 0.036072
#
#
# Mechanical properties :
#
#
# Convention : Reuss Voigt Hill
#
# Bulk Modulus (GPa) = 29.19235 37.76471 33.47853
# Shear Modulus (GPa) = 34.49852 -14.25843 10.12005
#
# Velocity S-wave (km/s) = 4.02160 -2.58544 2.17816
# Velocity P-wave (km/s) = 5.93717 2.96510 4.69264
#
# Compressibility (1/GPa) = 0.03425555
#
# Stress axis : x y z
#
# Youngs Moduli (GPa) = 39.28355 71.07754 109.98475
#
# Poissons Ratio (x) = 0.10302 0.32279
# Poissons Ratio (y) = 0.05694 0.30758
# Poissons Ratio (z) = 0.11529 0.19878
#
# Static dielectric constant tensor:
#      x y z
#    x 1.951850 0.000000 0.000000 
#    y 0.000000 1.757190 0.000000 
#    z 0.000000 0.000000 1.766190 
# 
# From -- ./inp_files/20201.got.cif
#   From: 2010.05.17/outbox.cif.g08.bks.cpg/sg57_11_cif.got.tgz:20201.got - 2010.06.03 13:58:18.
