data_PCOD9439527
_publ_section_title
;
Structure prediction by ZEFSAII (Michael W. Deem and Ramdas Pophale) SiO2 
 PCOD9439527
Probable space group: P B C M
;
_chemical_formula_sum "Si O2"
_cell_formula_units_Z 40
_cell_length_a 12.366698
_cell_length_b 7.684671
_cell_length_c 16.318404
_cell_angle_alpha 90.000000
_cell_angle_beta 90.000000
_cell_angle_gamma 90.000000
_cell_volume 1550.803295
_symmetry_space_group_name_H-M "P B C M"
_symmetry_group_IT_number 57
_symmetry_cell_setting 'orthorhombic'
loop_
_space_group_symop_operation_xyz
x,y,z
-x,-y,1/2+z
x,1/2-y,-z
-x,1/2+y,1/2-z
-x,-y,-z
x,y,1/2-z
-x,1/2+y,z
x,1/2-y,1/2+z
loop_
_atom_site_type_symbol
_atom_site_label
_atom_site_fract_x
_atom_site_fract_y
_atom_site_fract_z
Si Si1 0.142748 0.305862 0.615943
Si Si2 0.920529 0.188188 0.845305
Si Si3 0.260490 0.551966 0.155973
Si Si4 0.519566 0.903619 0.153999
Si Si5 0.369514 0.116954 0.430418
O O1 0.110110 0.486242 0.658818
O O2 0.240289 0.381545 0.560060
O O3 0.025432 0.223040 0.598671
O O4 0.202419 0.137318 0.654492
O O5 0.945560 0.241195 0.750000
O O6 0.822321 0.306494 0.877548
O O7 0.277769 0.604070 0.250000
O O8 0.381137 0.528205 0.122856
O O9 0.492779 0.924932 0.250000
O O10 0.420479 0.932285 0.091580
O O11 0.580685 0.718602 0.148005
O O12 0.408156 0.250000 0.500000
#
# Coordination Sequence:
#
# PCOD9439527 Si02
#       5
#     8   8   8   8   8
#     4  11  22  36  60  89 127 172 220 265 329 403
#     4  11  20  33  59  91 129 171 215 278 343 391
#     4   9  19  35  55  89 130 164 209 272 336 392
#     4  10  22  41  68  98 129 167 227 287 330 396
#     4  11  25  45  66  94 137 180 219 272 346 415
#
# _framework density 25.793084
#
# number of rings (size 3 to 8) (size 9 to 14) (size 15 to 20)
#    0.000    1.600    2.000    3.000    2.800    4.000 
#    0.000    1.000    0.000    0.000    0.000    0.000 
#    0.000    0.000    0.000    0.000    0.000    0.000 
#
# Total GULP energy -222713.943502 kJ/mol
# GULP energy per Si atom -5567.848588 kJ/mol
# Density = 2.573438 g / cm^3
# Si number density = 25.793084 Si / 1000 Ang^3
#
#
#
# Elastic Constant Matrix: (Units=GPa)
#
#
# Indices 1 2 3 4 5 6 
#
# 1 141.9024 27.8808 7.5340 0.0000 0.0000 0.0000
# 2 27.8808 118.3758 -1.3704 0.0000 0.0000 0.0000
# 3 7.5340 -1.3704 38.3954 0.0000 0.0000 0.0000
# 4 0.0000 0.0000 0.0000 17.9395 0.0000 0.0000
# 5 0.0000 0.0000 0.0000 0.0000 4.1948 0.0000
# 6 0.0000 0.0000 0.0000 0.0000 0.0000 52.0503
#
#
#
# Elastic Compliance Matrix: (Units=1/GPa)
#
#
# Indices 1 2 3 4 5 6 
#
# 1 0.007478 -0.001779 -0.001531 0.000000 0.000000 0.000000
# 2 -0.001779 0.008874 0.000666 0.000000 0.000000 0.000000
# 3 -0.001531 0.000666 0.026369 0.000000 0.000000 0.000000
# 4 0.000000 0.000000 0.000000 0.055743 0.000000 0.000000
# 5 0.000000 0.000000 0.000000 0.000000 0.238390 0.000000
# 6 0.000000 0.000000 0.000000 0.000000 0.000000 0.019212
#
#
# Mechanical properties :
#
#
# Convention : Reuss Voigt Hill
#
# Bulk Modulus (GPa) = 26.71424 40.75139 33.73282
# Shear Modulus (GPa) = 13.37500 32.47887 22.92694
#
# Velocity S-wave (km/s) = 2.27964 3.55238 2.98464
# Velocity P-wave (km/s) = 4.16036 5.71485 4.99841
#
# Compressibility (1/GPa) = 0.03743321
#
# Stress axis : x y z
#
# Youngs Moduli (GPa) = 133.72735 112.68396 37.92347
#
# Poissons Ratio (x) = 0.20046 0.05805
# Poissons Ratio (y) = 0.23790 -0.02525
# Poissons Ratio (z) = 0.20471 -0.07503
#
# Static dielectric constant tensor:
#      x y z
#    x 2.086780 0.000000 0.000000 
#    y 0.000000 2.214830 0.000000 
#    z 0.000000 0.000000 2.056030 
# 
# From -- ./inp_files/21586.got.cif
#   From: 2010.05.17/outbox.cif.g08.bks.cpg/sg57_11_cif.got.tgz:21586.got - 2010.06.03 13:58:18.
