data_PCOD9439377
_publ_section_title
;
Structure prediction by ZEFSAII (Michael W. Deem and Ramdas Pophale) SiO2 
 PCOD9439377
Probable space group: P B C M
;
_chemical_formula_sum "Si O2"
_cell_formula_units_Z 48
_cell_length_a 16.316050
_cell_length_b 10.158178
_cell_length_c 14.377204
_cell_angle_alpha 90.000000
_cell_angle_beta 90.000000
_cell_angle_gamma 90.000000
_cell_volume 2382.897059
_symmetry_space_group_name_H-M "P B C M"
_symmetry_group_IT_number 57
_symmetry_cell_setting 'orthorhombic'
loop_
_space_group_symop_operation_xyz
x,y,z
-x,-y,1/2+z
x,1/2-y,-z
-x,1/2+y,1/2-z
-x,-y,-z
x,y,1/2-z
-x,1/2+y,z
x,1/2-y,1/2+z
loop_
_atom_site_type_symbol
_atom_site_label
_atom_site_fract_x
_atom_site_fract_y
_atom_site_fract_z
Si Si1 0.820748 0.617121 0.140623
Si Si2 0.236730 0.595358 0.004106
Si Si3 0.020568 0.284069 0.137249
Si Si4 0.903260 0.056620 0.362180
Si Si5 0.405936 0.038520 0.493894
Si Si6 0.352445 0.254875 0.642591
O O1 0.828507 0.583588 0.250000
O O2 0.901362 0.694964 0.111003
O O3 0.744175 0.716571 0.130173
O O4 0.801320 0.487979 0.081220
O O5 0.186020 0.542648 0.092851
O O6 0.334105 0.568389 0.003965
O O7 0.223808 0.750000 0.000000
O O8 0.017693 0.288417 0.250000
O O9 0.038269 0.434084 0.108185
O O10 0.943043 0.196312 0.108524
O O11 0.897938 0.053318 0.250000
O O12 0.383947 0.141524 0.575359
O O13 0.393185 0.111696 0.395513
O O14 0.500000 0.000000 0.500000
O O15 0.369375 0.229333 0.750000
#
# Coordination Sequence:
#
# PCOD9439377 Si02
#       6
#     8   8   8   8   8   8
#     4   9  19  39  62  84 116 158 206 251 296 355
#     4  11  25  39  58  91 122 160 203 248 314 378
#     4   9  19  36  62  88 120 163 205 252 303 354
#     4  10  22  40  61  90 126 164 210 257 307 365
#     4  10  22  39  64  87 123 157 193 257 318 374
#     4   9  19  38  64  89 113 153 204 248 298 370
#
# _framework density 20.143549
#
# number of rings (size 3 to 8) (size 9 to 14) (size 15 to 20)
#    0.000    2.333    0.000    1.000    4.667    6.000 
#    0.000    0.000    0.000    0.000    0.000    0.000 
#    0.000    0.000    0.000    0.000    0.000    0.000 
#
# Total GULP energy -268024.351679 kJ/mol
# GULP energy per Si atom -5583.840660 kJ/mol
# Density = 2.009770 g / cm^3
# Si number density = 20.143549 Si / 1000 Ang^3
#
#
#
# Elastic Constant Matrix: (Units=GPa)
#
#
# Indices 1 2 3 4 5 6 
#
# 1 84.4619 29.0231 24.1728 0.0000 0.0000 0.0000
# 2 29.0231 113.3081 36.6414 0.0000 0.0000 0.0000
# 3 24.1728 36.6414 86.4416 0.0000 0.0000 0.0000
# 4 0.0000 0.0000 0.0000 20.6964 0.0000 0.0000
# 5 0.0000 0.0000 0.0000 0.0000 21.6535 0.0000
# 6 0.0000 0.0000 0.0000 0.0000 0.0000 0.2946
#
#
#
# Elastic Compliance Matrix: (Units=1/GPa)
#
#
# Indices 1 2 3 4 5 6 
#
# 1 0.013496 -0.002592 -0.002675 0.000000 0.000000 0.000000
# 2 -0.002592 0.010725 -0.003821 0.000000 0.000000 0.000000
# 3 -0.002675 -0.003821 0.013937 0.000000 0.000000 0.000000
# 4 0.000000 0.000000 0.000000 0.048318 0.000000 0.000000
# 5 0.000000 0.000000 0.000000 0.000000 0.046182 0.000000
# 6 0.000000 0.000000 0.000000 0.000000 0.000000 3.394080
#
#
# Mechanical properties :
#
#
# Convention : Reuss Voigt Hill
#
# Bulk Modulus (GPa) = 50.04921 51.54288 50.79605
# Shear Modulus (GPa) = 1.40783 21.48718 11.44750
#
# Velocity S-wave (km/s) = 0.83691 3.26959 2.38648
# Velocity P-wave (km/s) = 5.08273 6.31640 5.73284
#
# Compressibility (1/GPa) = 0.01998034
#
# Stress axis : x y z
#
# Youngs Moduli (GPa) = 74.09634 93.23900 71.75376
#
# Poissons Ratio (x) = 0.24165 0.19197
# Poissons Ratio (y) = 0.19204 0.27421
# Poissons Ratio (z) = 0.19824 0.35631
#
# Static dielectric constant tensor:
#      x y z
#    x 1.729070 0.000000 0.000000 
#    y 0.000000 1.717670 0.000000 
#    z 0.000000 0.000000 1.716080 
# 
# From -- ./inp_files/18942.got.cif
#   From: 2010.05.17/outbox.cif.g08.bks.cpg/sg57_10_cif.got.tgz:18942.got - 2010.06.03 13:58:18.
