data_PCOD9439281
_publ_section_title
;
Structure prediction by ZEFSAII (Michael W. Deem and Ramdas Pophale) SiO2 
 PCOD9439281
Probable space group: P B C M
;
_chemical_formula_sum "Si O2"
_cell_formula_units_Z 48
_cell_length_a 15.838002
_cell_length_b 20.491296
_cell_length_c 9.115421
_cell_angle_alpha 90.000000
_cell_angle_beta 90.000000
_cell_angle_gamma 90.000000
_cell_volume 2958.329552
_symmetry_space_group_name_H-M "P B C M"
_symmetry_group_IT_number 57
_symmetry_cell_setting 'orthorhombic'
loop_
_space_group_symop_operation_xyz
x,y,z
-x,-y,1/2+z
x,1/2-y,-z
-x,1/2+y,1/2-z
-x,-y,-z
x,y,1/2-z
-x,1/2+y,z
x,1/2-y,1/2+z
loop_
_atom_site_type_symbol
_atom_site_label
_atom_site_fract_x
_atom_site_fract_y
_atom_site_fract_z
Si Si1 0.540411 0.436275 0.425424
Si Si2 0.713523 0.044267 0.076190
Si Si3 0.100437 0.555629 0.074766
Si Si4 0.414611 0.181249 0.573495
Si Si5 0.920691 0.584781 0.423936
Si Si6 0.245626 0.391559 0.074803
O O1 0.500000 0.500000 0.500000
O O2 0.538627 0.444125 0.250000
O O3 0.635580 0.430057 0.483466
O O4 0.483425 0.373800 0.463889
O O5 0.694763 0.049357 0.250000
O O6 0.803991 0.078349 0.047084
O O7 0.727448 0.966898 0.044096
O O8 0.096814 0.539218 0.250000
O O9 0.019137 0.600635 0.043459
O O10 0.089262 0.489435 0.982393
O O11 0.432797 0.250000 0.500000
O O12 0.413860 0.187656 0.750000
O O13 0.322351 0.154477 0.527733
O O14 0.908873 0.587179 0.250000
O O15 0.844315 0.622468 0.500819
O O16 0.236005 0.387145 0.250000
#
# Coordination Sequence:
#
# PCOD9439281 Si02
#       6
#     8   8   8   8   8   8
#     4  11  21  34  51  73  99 128 164 207 250 298
#     4   9  16  29  47  68  96 129 161 196 244 292
#     4   8  15  26  38  58  95 129 152 190 239 278
#     4  10  22  38  52  70  98 130 165 205 251 299
#     4   9  15  23  39  64  90 122 161 192 225 279
#     4   9  17  31  46  64  96 130 155 193 245 289
#
# _framework density 16.225372
#
# number of rings (size 3 to 8) (size 9 to 14) (size 15 to 20)
#    0.000    2.667    1.667    2.000    0.000    5.333 
#    0.000    0.000    0.000    0.000    0.000    1.167 
#    0.000    0.000    0.000    0.000    0.000    0.000 
#
# Total GULP energy -267255.686601 kJ/mol
# GULP energy per Si atom -5567.826804 kJ/mol
# Density = 1.618844 g / cm^3
# Si number density = 16.225372 Si / 1000 Ang^3
#
#
#
# Elastic Constant Matrix: (Units=GPa)
#
#
# Indices 1 2 3 4 5 6 
#
# 1 165.1082 56.2228 56.0175 0.0000 0.0000 0.0000
# 2 56.2228 65.2282 31.3248 0.0000 0.0000 0.0000
# 3 56.0175 31.3248 34.0914 0.0000 0.0000 0.0000
# 4 0.0000 0.0000 0.0000 17.8476 0.0000 0.0000
# 5 0.0000 0.0000 0.0000 0.0000 33.0797 0.0000
# 6 0.0000 0.0000 0.0000 0.0000 0.0000 14.0260
#
#
#
# Elastic Compliance Matrix: (Units=1/GPa)
#
#
# Indices 1 2 3 4 5 6 
#
# 1 0.013804 -0.001800 -0.021028 0.000000 0.000000 0.000000
# 2 -0.001800 0.027673 -0.022470 0.000000 0.000000 0.000000
# 3 -0.021028 -0.022470 0.084533 0.000000 0.000000 0.000000
# 4 0.000000 0.000000 0.000000 0.056030 0.000000 0.000000
# 5 0.000000 0.000000 0.000000 0.000000 0.030230 0.000000
# 6 0.000000 0.000000 0.000000 0.000000 0.000000 0.071296
#
#
# Mechanical properties :
#
#
# Convention : Reuss Voigt Hill
#
# Bulk Modulus (GPa) = 28.23822 61.28422 44.76122
# Shear Modulus (GPa) = 12.95450 21.04816 17.00133
#
# Velocity S-wave (km/s) = 2.82868 3.60563 3.24052
# Velocity P-wave (km/s) = 5.30190 7.42877 6.45356
#
# Compressibility (1/GPa) = 0.03541300
#
# Stress axis : x y z
#
# Youngs Moduli (GPa) = 72.44320 36.13650 11.82977
#
# Poissons Ratio (x) = 0.06503 0.24876
# Poissons Ratio (y) = 0.13037 0.26582
# Poissons Ratio (z) = 1.52337 0.81199
#
# Static dielectric constant tensor:
#      x y z
#    x 1.605450 0.000000 0.000000 
#    y 0.000000 1.510610 0.000000 
#    z 0.000000 0.000000 1.540470 
# 
# From -- ./inp_files/4899.got.cif
#   From: 2010.05.17/outbox.cif.g08.bks.cpg/sg57_3_cif.got.tgz:4899.got - 2010.06.03 13:58:18.
