data_PCOD9439880
_publ_section_title
;
Structure prediction by ZEFSAII (Michael W. Deem and Ramdas Pophale) SiO2 
 PCOD9439880
Probable space group: P B C M
;
_chemical_formula_sum "Si O2"
_cell_formula_units_Z 20
_cell_length_a 6.937303
_cell_length_b 6.731042
_cell_length_c 16.892131
_cell_angle_alpha 90.000000
_cell_angle_beta 90.000000
_cell_angle_gamma 90.000000
_cell_volume 788.782751
_symmetry_space_group_name_H-M "P B C M"
_symmetry_group_IT_number 57
_symmetry_cell_setting 'orthorhombic'
loop_
_space_group_symop_operation_xyz
x,y,z
-x,-y,1/2+z
x,1/2-y,-z
-x,1/2+y,1/2-z
-x,-y,-z
x,y,1/2-z
-x,1/2+y,z
x,1/2-y,1/2+z
loop_
_atom_site_type_symbol
_atom_site_label
_atom_site_fract_x
_atom_site_fract_y
_atom_site_fract_z
Si Si1 0.723703 0.705577 0.750000
Si Si2 0.666735 0.063386 0.111704
Si Si3 0.175672 0.840634 0.250000
Si Si4 0.660428 0.750000 0.000000
O O1 0.621501 0.604676 0.823548
O O2 0.945530 0.636645 0.750000
O O3 0.734233 0.940558 0.750000
O O4 0.770901 0.224845 0.168045
O O5 0.774318 0.926293 0.044993
O O6 0.485999 0.145896 0.062505
#
# Coordination Sequence:
#
# PCOD9439880 Si02
#       4
#     4   8   4   4
#     4  11  23  44  68  96 130 171 226 265 318 385
#     4  10  24  44  67  94 138 170 217 270 314 402
#     4  11  23  44  68  96 130 171 226 265 318 385
#     4  10  24  48  60 100 138 172 212 260 342 378
#
# _framework density 25.355525
#
# number of rings (size 3 to 8) (size 9 to 14) (size 15 to 20)
#    0.000    1.600    4.000    0.000   11.200    6.400 
#    0.000    6.000    0.000    0.000    0.000    0.000 
#    0.000    0.000    0.000    0.000    0.000    0.000 
#
# Total GULP energy -111527.103187 kJ/mol
# GULP energy per Si atom -5576.355159 kJ/mol
# Density = 2.529782 g / cm^3
# Si number density = 25.355525 Si / 1000 Ang^3
#
#
#
# Elastic Constant Matrix: (Units=GPa)
#
#
# Indices 1 2 3 4 5 6 
#
# 1 97.4236 32.9983 40.3571 0.0000 0.0000 0.0000
# 2 32.9983 186.8664 84.0319 0.0000 0.0000 0.0000
# 3 40.3571 84.0319 181.9670 0.0000 0.0000 0.0000
# 4 0.0000 0.0000 0.0000 98.9166 0.0000 0.0000
# 5 0.0000 0.0000 0.0000 0.0000 5.7304 0.0000
# 6 0.0000 0.0000 0.0000 0.0000 0.0000 238.0679
#
#
#
# Elastic Compliance Matrix: (Units=1/GPa)
#
#
# Indices 1 2 3 4 5 6 
#
# 1 0.011484 -0.001114 -0.002032 0.000000 0.000000 0.000000
# 2 -0.001114 0.006862 -0.002922 0.000000 0.000000 0.000000
# 3 -0.002032 -0.002922 0.007296 0.000000 0.000000 0.000000
# 4 0.000000 0.000000 0.000000 0.010110 0.000000 0.000000
# 5 0.000000 0.000000 0.000000 0.000000 0.174508 0.000000
# 6 0.000000 0.000000 0.000000 0.000000 0.000000 0.004200
#
#
# Mechanical properties :
#
#
# Convention : Reuss Voigt Hill
#
# Bulk Modulus (GPa) = 74.04739 86.78130 80.41434
# Shear Modulus (GPa) = 21.63588 89.13430 55.38509
#
# Velocity S-wave (km/s) = 2.92430 5.93550 4.67876
# Velocity P-wave (km/s) = 6.37723 9.01519 7.80841
#
# Compressibility (1/GPa) = 0.01350487
#
# Stress axis : x y z
#
# Youngs Moduli (GPa) = 87.08008 145.72941 137.06952
#
# Poissons Ratio (x) = 0.16233 0.27859
# Poissons Ratio (y) = 0.09700 0.40049
# Poissons Ratio (z) = 0.17699 0.42580
#
# Static dielectric constant tensor:
#      x y z
#    x 1.937810 0.000000 0.000000 
#    y 0.000000 2.124680 0.000000 
#    z 0.000000 0.000000 2.072830 
# 
# From -- ./inp_files/15353.got.cif
#   From: 2010.05.17/outbox.cif.g08.bks.cpg/sg57_8_cif.got.tgz:15353.got - 2010.06.03 13:58:18.
