data_PCOD9439343
_publ_section_title
;
Structure prediction by ZEFSAII (Michael W. Deem and Ramdas Pophale) SiO2 
 PCOD9439343
Probable space group: P B C M
;
_chemical_formula_sum "Si O2"
_cell_formula_units_Z 40
_cell_length_a 22.954065
_cell_length_b 5.040109
_cell_length_c 15.213238
_cell_angle_alpha 90.000000
_cell_angle_beta 90.000000
_cell_angle_gamma 90.000000
_cell_volume 1760.034559
_symmetry_space_group_name_H-M "P B C M"
_symmetry_group_IT_number 57
_symmetry_cell_setting 'orthorhombic'
loop_
_space_group_symop_operation_xyz
x,y,z
-x,-y,1/2+z
x,1/2-y,-z
-x,1/2+y,1/2-z
-x,-y,-z
x,y,1/2-z
-x,1/2+y,z
x,1/2-y,1/2+z
loop_
_atom_site_type_symbol
_atom_site_label
_atom_site_fract_x
_atom_site_fract_y
_atom_site_fract_z
Si Si1 0.535662 0.691109 0.144081
Si Si2 0.033903 0.906837 0.642498
Si Si3 0.655767 0.505834 0.439800
Si Si4 0.154453 0.353773 0.349890
Si Si5 0.774902 0.152694 0.900007
O O1 0.539512 0.684661 0.250000
O O2 0.513938 0.980784 0.116993
O O3 0.597267 0.605533 0.105817
O O4 0.036522 0.902446 0.750000
O O5 0.095124 0.024564 0.611198
O O6 0.983104 0.111184 0.615706
O O7 0.677418 0.750000 0.500000
O O8 0.709135 0.430331 0.375816
O O9 0.642957 0.250000 0.500000
O O10 0.141354 0.266938 0.250000
O O11 0.199355 0.598063 0.348859
O O12 0.182894 0.099690 0.394641
O O13 0.771312 0.250000 0.000000
#
# Coordination Sequence:
#
# PCOD9439343 Si02
#       5
#     8   8   8   8   8
#     4  10  22  39  59  87 121 152 184 233 296 344
#     4   9  17  31  53  82 114 145 184 240 294 339
#     4  11  23  40  61  85 113 153 202 238 277 344
#     4  11  22  37  62  91 114 149 203 247 287 351
#     4  11  23  41  59  83 122 160 192 239 303 351
#
# _framework density 22.726828000000001
#
# number of rings (size 3 to 8) (size 9 to 14) (size 15 to 20)
#    0.000    1.600    0.000    6.000    0.000    7.200 
#    0.000    2.000    0.000   12.000    0.000    0.000 
#    0.000    0.000    0.000    0.000    0.000    0.000 
#
# Total GULP energy -223791.808843 kJ/mol
# GULP energy per Si atom -5594.795221 kJ/mol
# Density = 2.267510 g / cm^3
# Si number density = 22.726828 Si / 1000 Ang^3
#
#
#
# Elastic Constant Matrix: (Units=GPa)
#
#
# Indices 1 2 3 4 5 6 
#
# 1 75.1558 -10.3072 7.0456 0.0000 0.0000 0.0000
# 2 -10.3072 98.9552 2.5205 0.0000 0.0000 0.0000
# 3 7.0456 2.5205 24.2104 0.0000 0.0000 0.0000
# 4 0.0000 0.0000 0.0000 29.2671 0.0000 0.0000
# 5 0.0000 0.0000 0.0000 0.0000 24.3891 0.0000
# 6 0.0000 0.0000 0.0000 0.0000 0.0000 39.2815
#
#
#
# Elastic Compliance Matrix: (Units=1/GPa)
#
#
# Indices 1 2 3 4 5 6 
#
# 1 0.013914 0.001557 -0.004211 0.000000 0.000000 0.000000
# 2 0.001557 0.010307 -0.001526 0.000000 0.000000 0.000000
# 3 -0.004211 -0.001526 0.042689 0.000000 0.000000 0.000000
# 4 0.000000 0.000000 0.000000 0.034168 0.000000 0.000000
# 5 0.000000 0.000000 0.000000 0.000000 0.041002 0.000000
# 6 0.000000 0.000000 0.000000 0.000000 0.000000 0.025457
#
#
# Mechanical properties :
#
#
# Convention : Reuss Voigt Hill
#
# Bulk Modulus (GPa) = 17.07994 21.87100 19.47547
# Shear Modulus (GPa) = 25.58669 31.85838 28.72254
#
# Velocity S-wave (km/s) = 3.35899 3.74812 3.55888
# Velocity P-wave (km/s) = 4.75136 5.32687 5.04732
#
# Compressibility (1/GPa) = 0.05854822
#
# Stress axis : x y z
#
# Youngs Moduli (GPa) = 71.87034 97.02536 23.42527
#
# Poissons Ratio (x) = -0.15102 0.09865
# Poissons Ratio (y) = -0.11187 0.03575
# Poissons Ratio (z) = 0.30266 0.14806
#
# Static dielectric constant tensor:
#      x y z
#    x 1.858410 0.000000 0.000000 
#    y 0.000000 1.799890 0.000000 
#    z 0.000000 0.000000 1.874040 
# 
# From -- ./inp_files/22766.got.cif
#   From: 2010.05.17/outbox.cif.g08.bks.cpg/sg57_12_cif.got.tgz:22766.got - 2010.06.03 13:58:18.
