data_PCOD9439272
_publ_section_title
;
Structure prediction by ZEFSAII (Michael W. Deem and Ramdas Pophale) SiO2 
 PCOD9439272
Probable space group: P B C M
;
_chemical_formula_sum "Si O2"
_cell_formula_units_Z 40
_cell_length_a 26.370907
_cell_length_b 9.416519
_cell_length_c 8.477473
_cell_angle_alpha 90.000000
_cell_angle_beta 90.000000
_cell_angle_gamma 90.000000
_cell_volume 2105.144295
_symmetry_space_group_name_H-M "P B C M"
_symmetry_group_IT_number 57
_symmetry_cell_setting 'orthorhombic'
loop_
_space_group_symop_operation_xyz
x,y,z
-x,-y,1/2+z
x,1/2-y,-z
-x,1/2+y,1/2-z
-x,-y,-z
x,y,1/2-z
-x,1/2+y,z
x,1/2-y,1/2+z
loop_
_atom_site_type_symbol
_atom_site_label
_atom_site_fract_x
_atom_site_fract_y
_atom_site_fract_z
Si Si1 0.047914 0.588989 0.939380
Si Si2 0.146297 0.409906 0.559428
Si Si3 0.452551 0.090312 0.439346
Si Si4 0.241963 0.590974 0.559350
Si Si5 0.356661 0.908753 0.440434
O O1 0.046916 0.591331 0.750000
O O2 0.099151 0.508035 0.991064
O O3 0.046669 0.750000 0.000000
O O4 0.000000 0.500000 0.000000
O O5 0.140830 0.250000 0.500000
O O6 0.146447 0.407322 0.750000
O O7 0.198850 0.482142 0.505518
O O8 0.455809 0.250000 0.500000
O O9 0.453211 0.090269 0.250000
O O10 0.500000 0.000000 0.500000
O O11 0.400275 0.015852 0.493686
O O12 0.230887 0.750000 0.500000
O O13 0.241327 0.593440 0.750000
O O14 0.299335 0.553679 0.508029
O O15 0.367680 0.750000 0.500000
O O16 0.356966 0.906419 0.250000
#
# Coordination Sequence:
#
# PCOD9439272 Si02
#       5
#     8   8   8   8   8
#     4  11  23  39  59  84 112 145 183 226 273 325
#     4  10  22  37  55  80 111 144 181 223 269 319
#     4  11  23  38  56  80 109 143 181 224 271 323
#     4   9  18  35  56  80 108 140 178 221 267 319
#     4   9  19  35  56  80 108 140 177 220 268 320
#
# _framework density 19.001071
#
# number of rings (size 3 to 8) (size 9 to 14) (size 15 to 20)
#    0.000    2.000    0.000    3.000    0.000    8.000 
#    0.000    0.000    0.000    0.000    0.000    0.000 
#    0.000    0.000    0.000    0.000    0.000    0.000 
#
# Total GULP energy -223446.846672 kJ/mol
# GULP energy per Si atom -5586.171167 kJ/mol
# Density = 1.895782 g / cm^3
# Si number density = 19.001071 Si / 1000 Ang^3
#
#
#
# Elastic Constant Matrix: (Units=GPa)
#
#
# Indices 1 2 3 4 5 6 
#
# 1 169.2714 135.2815 34.3625 0.0000 0.0000 0.0000
# 2 135.2815 192.4939 29.7264 0.0000 0.0000 0.0000
# 3 34.3625 29.7264 22.0060 0.0000 0.0000 0.0000
# 4 0.0000 0.0000 0.0000 37.8927 0.0000 0.0000
# 5 0.0000 0.0000 0.0000 0.0000 23.5581 0.0000
# 6 0.0000 0.0000 0.0000 0.0000 0.0000 44.0018
#
#
#
# Elastic Compliance Matrix: (Units=1/GPa)
#
#
# Indices 1 2 3 4 5 6 
#
# 1 0.015680 -0.009146 -0.012129 0.000000 0.000000 0.000000
# 2 -0.009146 0.011900 -0.001792 0.000000 0.000000 0.000000
# 3 -0.012129 -0.001792 0.066802 0.000000 0.000000 0.000000
# 4 0.000000 0.000000 0.000000 0.026390 0.000000 0.000000
# 5 0.000000 0.000000 0.000000 0.000000 0.042448 0.000000
# 6 0.000000 0.000000 0.000000 0.000000 0.000000 0.022726
#
#
# Mechanical properties :
#
#
# Convention : Reuss Voigt Hill
#
# Bulk Modulus (GPa) = 20.72674 86.94580 53.83627
# Shear Modulus (GPa) = 20.14805 33.38391 26.76598
#
# Velocity S-wave (km/s) = 3.25986 4.19614 3.75728
# Velocity P-wave (km/s) = 5.01007 8.32674 6.87151
#
# Compressibility (1/GPa) = 0.04824686
#
# Stress axis : x y z
#
# Youngs Moduli (GPa) = 63.77751 84.03616 14.96957
#
# Poissons Ratio (x) = 0.76862 0.18156
# Poissons Ratio (y) = 0.58333 0.02683
# Poissons Ratio (z) = 0.77353 0.15063
#
# Static dielectric constant tensor:
#      x y z
#    x 1.673070 0.000000 0.000000 
#    y 0.000000 1.604530 0.000000 
#    z 0.000000 0.000000 1.655990 
# 
# From -- ./inp_files/8851.got.cif
#   From: 2010.05.17/outbox.cif.g08.bks.cpg/sg57_5_cif.got.tgz:8851.got - 2010.06.03 13:58:18.
