data_PCOD9439275
_publ_section_title
;
Structure prediction by ZEFSAII (Michael W. Deem and Ramdas Pophale) SiO2 
 PCOD9439275
Probable space group: P B C M
;
_chemical_formula_sum "Si O2"
_cell_formula_units_Z 40
_cell_length_a 7.961066
_cell_length_b 29.222233
_cell_length_c 8.820285
_cell_angle_alpha 90.000000
_cell_angle_beta 90.000000
_cell_angle_gamma 90.000000
_cell_volume 2051.952210
_symmetry_space_group_name_H-M "P B C M"
_symmetry_group_IT_number 57
_symmetry_cell_setting 'orthorhombic'
loop_
_space_group_symop_operation_xyz
x,y,z
-x,-y,1/2+z
x,1/2-y,-z
-x,1/2+y,1/2-z
-x,-y,-z
x,y,1/2-z
-x,1/2+y,z
x,1/2-y,1/2+z
loop_
_atom_site_type_symbol
_atom_site_label
_atom_site_fract_x
_atom_site_fract_y
_atom_site_fract_z
Si Si1 0.572592 0.145705 0.932612
Si Si2 0.077523 0.641591 0.431176
Si Si3 0.743862 0.699479 0.067844
Si Si4 0.555405 0.952185 0.070172
Si Si5 0.951014 0.951319 0.430384
O O1 0.568299 0.147392 0.750000
O O2 0.542990 0.092860 0.982812
O O3 0.753332 0.160809 0.993886
O O4 0.419517 0.174902 0.998839
O O5 0.095232 0.640938 0.250000
O O6 0.911676 0.670748 0.470435
O O7 0.048265 0.590399 0.492948
O O8 0.729243 0.701170 0.250000
O O9 0.757577 0.750000 0.000000
O O10 0.530064 0.955726 0.250000
O O11 0.752667 0.944305 0.042563
O O12 0.500000 0.000000 0.000000
O O13 0.982280 0.951249 0.250000
O O14 0.000000 0.000000 0.500000
#
# Coordination Sequence:
#
# PCOD9439275 Si02
#       5
#     8   8   8   8   8
#     4  11  23  42  67  95 130 172 216 267 326 386
#     4  11  24  42  65  96 131 171 217 268 326 387
#     4  11  25  45  70  97 129 169 216 271 327 387
#     4  10  22  37  57  87 125 168 213 262 316 378
#     4  11  22  38  59  89 128 171 219 267 322 385
#
# _framework density 19.493631000000001
#
# number of rings (size 3 to 8) (size 9 to 14) (size 15 to 20)
#    0.000    1.200    2.000    3.600    0.000    9.600 
#    0.000    2.000    0.000    0.000    0.000    0.000 
#    0.000    0.000    0.000    0.000    0.000    0.000 
#
# Total GULP energy -223737.553099 kJ/mol
# GULP energy per Si atom -5593.438827 kJ/mol
# Density = 1.944926 g / cm^3
# Si number density = 19.493631 Si / 1000 Ang^3
#
#
#
# Elastic Constant Matrix: (Units=GPa)
#
#
# Indices 1 2 3 4 5 6 
#
# 1 147.7399 82.1671 80.4405 0.0000 0.0000 0.0000
# 2 82.1671 123.1615 41.1414 0.0000 0.0000 0.0000
# 3 80.4405 41.1414 63.5766 0.0000 0.0000 0.0000
# 4 0.0000 0.0000 0.0000 33.4165 0.0000 0.0000
# 5 0.0000 0.0000 0.0000 0.0000 35.4915 0.0000
# 6 0.0000 0.0000 0.0000 0.0000 0.0000 26.3664
#
#
#
# Elastic Compliance Matrix: (Units=1/GPa)
#
#
# Indices 1 2 3 4 5 6 
#
# 1 0.027345 -0.008530 -0.029079 0.000000 0.000000 0.000000
# 2 -0.008530 0.013019 0.002367 0.000000 0.000000 0.000000
# 3 -0.029079 0.002367 0.050989 0.000000 0.000000 0.000000
# 4 0.000000 0.000000 0.000000 0.029925 0.000000 0.000000
# 5 0.000000 0.000000 0.000000 0.000000 0.028176 0.000000
# 6 0.000000 0.000000 0.000000 0.000000 0.000000 0.037927
#
#
# Mechanical properties :
#
#
# Convention : Reuss Voigt Hill
#
# Bulk Modulus (GPa) = 47.91310 82.44178 65.17744
# Shear Modulus (GPa) = 18.88061 27.77013 23.32537
#
# Velocity S-wave (km/s) = 3.11553 3.77845 3.46289
# Velocity P-wave (km/s) = 6.12979 7.83703 7.03539
#
# Compressibility (1/GPa) = 0.02087112
#
# Stress axis : x y z
#
# Youngs Moduli (GPa) = 36.56941 76.80945 19.61190
#
# Poissons Ratio (x) = 0.65516 0.57029
# Poissons Ratio (y) = 0.31193 -0.04643
# Poissons Ratio (z) = 1.06340 -0.18183
#
# Static dielectric constant tensor:
#      x y z
#    x 1.555700 0.000000 0.000000 
#    y 0.000000 1.648890 0.000000 
#    z 0.000000 0.000000 1.652470 
# 
# From -- ./inp_files/1479.got.cif
#   From: 2010.05.17/outbox.cif.g08.bks.cpg/sg57_1_cif.got.tgz:1479.got - 2010.06.03 13:58:18.
