data_PCOD9439708
_publ_section_title
;
Structure prediction by ZEFSAII (Michael W. Deem and Ramdas Pophale) SiO2 
 PCOD9439708
Probable space group: P B C M
;
_chemical_formula_sum "Si O2"
_cell_formula_units_Z 56
_cell_length_a 7.824543
_cell_length_b 21.499338
_cell_length_c 15.165712
_cell_angle_alpha 90.000000
_cell_angle_beta 90.000000
_cell_angle_gamma 90.000000
_cell_volume 2551.213906
_symmetry_space_group_name_H-M "P B C M"
_symmetry_group_IT_number 57
_symmetry_cell_setting 'orthorhombic'
loop_
_space_group_symop_operation_xyz
x,y,z
-x,-y,1/2+z
x,1/2-y,-z
-x,1/2+y,1/2-z
-x,-y,-z
x,y,1/2-z
-x,1/2+y,z
x,1/2-y,1/2+z
loop_
_atom_site_type_symbol
_atom_site_label
_atom_site_fract_x
_atom_site_fract_y
_atom_site_fract_z
Si Si1 0.622660 0.799325 0.577468
Si Si2 0.052566 0.627672 0.848062
Si Si3 0.794223 0.579695 0.507240
Si Si4 0.628820 0.010237 0.352729
Si Si5 0.725870 0.353819 0.854247
Si Si6 0.018773 0.261977 0.603616
Si Si7 0.774506 0.002532 0.847687
O O1 0.589554 0.750000 0.500000
O O2 0.691464 0.863848 0.536711
O O3 0.443301 0.814444 0.622612
O O4 0.785176 0.773487 0.633830
O O5 0.976292 0.616897 0.750000
O O6 0.074191 0.701723 0.855428
O O7 0.204664 0.577264 0.854158
O O8 0.936318 0.609142 0.930062
O O9 0.681627 0.540841 0.576510
O O10 0.857948 0.534504 0.428586
O O11 0.681496 0.998294 0.250000
O O12 0.703456 0.075714 0.386038
O O13 0.424133 0.014633 0.351336
O O14 0.733863 0.358219 0.750000
O O15 0.897810 0.320868 0.884989
O O16 0.035261 0.250000 0.500000
O O17 0.841546 0.984339 0.750000
#
# Coordination Sequence:
#
# PCOD9439708 Si02
#       7
#     8   8   8   8   8   8   8
#     4  11  24  45  67 103 131 178 236 281 341 415
#     4  11  24  43  66  98 135 174 228 282 342 418
#     4  12  22  42  70  94 135 178 221 280 351 395
#     4  10  23  42  64 102 139 171 226 282 343 418
#     4  11  25  44  69 100 138 182 228 283 344 409
#     4  11  24  45  69  99 140 180 232 287 342 411
#     4  10  23  41  66  98 133 176 226 280 343 414
#
# _framework density 21.950336
#
# number of rings (size 3 to 8) (size 9 to 14) (size 15 to 20)
#    0.000    1.143    4.286    2.143    2.000    3.429 
#    0.000    2.857    0.000    0.000    0.000    0.000 
#    0.000    0.000    0.000    0.000    0.000    0.000 
#
# Total GULP energy -312864.293430 kJ/mol
# GULP energy per Si atom -5586.862383 kJ/mol
# Density = 2.190038 g / cm^3
# Si number density = 21.950336 Si / 1000 Ang^3
#
#
#
# Elastic Constant Matrix: (Units=GPa)
#
#
# Indices 1 2 3 4 5 6 
#
# 1 40.8445 0.4779 4.1185 0.0000 0.0000 0.0000
# 2 0.4779 97.9393 29.5530 0.0000 0.0000 0.0000
# 3 4.1185 29.5530 85.7019 0.0000 0.0000 0.0000
# 4 0.0000 0.0000 0.0000 16.1516 0.0000 0.0000
# 5 0.0000 0.0000 0.0000 0.0000 -65.0078 0.0000
# 6 0.0000 0.0000 0.0000 0.0000 0.0000 41.2164
#
#
#
# Elastic Compliance Matrix: (Units=1/GPa)
#
#
# Indices 1 2 3 4 5 6 
#
# 1 0.024608 0.000264 -0.001274 0.000000 0.000000 0.000000
# 2 0.000264 0.011399 -0.003943 0.000000 0.000000 0.000000
# 3 -0.001274 -0.003943 0.013089 0.000000 0.000000 0.000000
# 4 0.000000 0.000000 0.000000 0.061913 0.000000 0.000000
# 5 0.000000 0.000000 0.000000 0.000000 -0.015383 0.000000
# 6 0.000000 0.000000 0.000000 0.000000 0.000000 0.024262
#
#
# Mechanical properties :
#
#
# Convention : Reuss Voigt Hill
#
# Bulk Modulus (GPa) = 25.51604 32.53161 29.02383
# Shear Modulus (GPa) = 34.99949 11.16112 23.08031
#
# Velocity S-wave (km/s) = 3.99743 2.25738 3.24617
# Velocity P-wave (km/s) = 5.74070 4.65264 5.22507
#
# Compressibility (1/GPa) = 0.03919104
#
# Stress axis : x y z
#
# Youngs Moduli (GPa) = 40.63642 87.72654 76.39760
#
# Poissons Ratio (x) = -0.02318 0.09731
# Poissons Ratio (y) = -0.01074 0.30127
# Poissons Ratio (z) = 0.05176 0.34595
#
# Static dielectric constant tensor:
#      x y z
#    x 1.831840 0.000000 0.000000 
#    y 0.000000 1.833750 0.000000 
#    z 0.000000 0.000000 1.814730 
# 
# From -- ./inp_files/16696.got.cif
#   From: 2010.05.17/outbox.cif.g08.bks.cpg/sg57_9_cif.got.tgz:16696.got - 2010.06.03 13:58:18.
