data_PCOD9439675
_publ_section_title
;
Structure prediction by ZEFSAII (Michael W. Deem and Ramdas Pophale) SiO2 
 PCOD9439675
Probable space group: P B C M
;
_chemical_formula_sum "Si O2"
_cell_formula_units_Z 60
_cell_length_a 17.425872
_cell_length_b 19.222912
_cell_length_c 9.384467
_cell_angle_alpha 90.000000
_cell_angle_beta 90.000000
_cell_angle_gamma 90.000000
_cell_volume 3143.571255
_symmetry_space_group_name_H-M "P B C M"
_symmetry_group_IT_number 57
_symmetry_cell_setting 'orthorhombic'
loop_
_space_group_symop_operation_xyz
x,y,z
-x,-y,1/2+z
x,1/2-y,-z
-x,1/2+y,1/2-z
-x,-y,-z
x,y,1/2-z
-x,1/2+y,z
x,1/2-y,1/2+z
loop_
_atom_site_type_symbol
_atom_site_label
_atom_site_fract_x
_atom_site_fract_y
_atom_site_fract_z
Si Si1 0.285298 0.931904 0.918252
Si Si2 0.032163 0.009422 0.250000
Si Si3 0.841898 0.821855 0.084490
Si Si4 0.585872 0.320964 0.920615
Si Si5 0.846244 0.317706 0.582503
Si Si6 0.408227 0.180637 0.082015
Si Si7 0.999163 0.390193 0.484429
Si Si8 0.271258 0.075901 0.419697
O O1 0.290320 0.951362 0.750000
O O2 0.359252 0.885231 0.956208
O O3 0.212031 0.881897 0.935080
O O4 0.277011 0.999304 0.015265
O O5 0.028832 0.948084 0.373203
O O6 0.026983 0.069560 0.374750
O O7 0.818699 0.814724 0.250000
O O8 0.831655 0.750000 0.000000
O O9 0.792314 0.880701 0.004974
O O10 0.929826 0.846552 0.076600
O O11 0.591809 0.310315 0.750000
O O12 0.496646 0.335043 0.957000
O O13 0.608507 0.250000 0.000000
O O14 0.817740 0.250000 0.500000
O O15 0.851241 0.302411 0.750000
O O16 0.928376 0.340803 0.523837
O O17 0.406736 0.196075 0.250000
O O18 0.351000 0.117108 0.057294
O O19 0.383257 0.250000 0.000000
O O20 0.254451 0.073960 0.250000
#
# Coordination Sequence:
#
# PCOD9439675 Si02
#       8
#     8   4   8   8   8   8   8   8
#     4  10  23  40  60  88 123 160 198 245 300 355
#     4  10  24  40  64  96 122 156 196 254 298 360
#     4  12  27  44  64  89 121 157 203 253 304 363
#     4   9  18  36  62  88 121 160 198 244 295 353
#     4  11  25  41  61  88 121 155 201 249 295 353
#     4   9  19  37  60  89 120 155 199 243 295 355
#     4  11  24  41  66  90 124 161 201 246 302 357
#     4  11  25  40  61  89 121 158 201 251 302 360
#
# _framework density 19.086573000000001
#
# number of rings (size 3 to 8) (size 9 to 14) (size 15 to 20)
#    0.000    1.600    1.333    2.000    6.533    4.800 
#    0.000    0.000    0.000    0.000    0.000    0.000 
#    0.000    0.000    0.000    0.000    0.000    0.000 
#
# Total GULP energy -334250.030859 kJ/mol
# GULP energy per Si atom -5570.833848 kJ/mol
# Density = 1.904313 g / cm^3
# Si number density = 19.086573 Si / 1000 Ang^3
#
#
#
# Elastic Constant Matrix: (Units=GPa)
#
#
# Indices 1 2 3 4 5 6 
#
# 1 66.9893 28.0140 35.0859 0.0000 0.0000 0.0000
# 2 28.0140 99.0550 67.7650 0.0000 0.0000 0.0000
# 3 35.0859 67.7650 118.9475 0.0000 0.0000 0.0000
# 4 0.0000 0.0000 0.0000 39.1984 0.0000 0.0000
# 5 0.0000 0.0000 0.0000 0.0000 -9.8925 0.0000
# 6 0.0000 0.0000 0.0000 0.0000 0.0000 -28.8338
#
#
#
# Elastic Compliance Matrix: (Units=1/GPa)
#
#
# Indices 1 2 3 4 5 6 
#
# 1 0.017994 -0.002389 -0.003947 0.000000 0.000000 0.000000
# 2 -0.002389 0.016860 -0.008901 0.000000 0.000000 0.000000
# 3 -0.003947 -0.008901 0.014642 0.000000 0.000000 0.000000
# 4 0.000000 0.000000 0.000000 0.025511 0.000000 0.000000
# 5 0.000000 0.000000 0.000000 0.000000 -0.101087 0.000000
# 6 0.000000 0.000000 0.000000 0.000000 0.000000 -0.034681
#
#
# Mechanical properties :
#
#
# Convention : Reuss Voigt Hill
#
# Bulk Modulus (GPa) = 52.56664 60.74686 56.65675
# Shear Modulus (GPa) = -208.79066 10.36954 -99.21056
#
# Velocity S-wave (km/s) = -10.47038 2.33339 -7.21748
# Velocity P-wave (km/s) = 10.88902 6.25745 6.30140
#
# Compressibility (1/GPa) = 0.01902347
#
# Stress axis : x y z
#
# Youngs Moduli (GPa) = 55.57454 59.31177 68.29693
#
# Poissons Ratio (x) = 0.14169 0.26954
# Poissons Ratio (y) = 0.13276 0.60788
# Poissons Ratio (z) = 0.21933 0.52791
#
# Static dielectric constant tensor:
#      x y z
#    x 1.691330 0.000000 0.000000 
#    y 0.000000 1.619100 0.000000 
#    z 0.000000 0.000000 1.640690 
# 
# From -- ./inp_files/6902.got.cif
#   From: 2010.05.17/outbox.cif.g08.bks.cpg/sg57_4_cif.got.tgz:6902.got - 2010.06.03 13:58:18.
