data_PCOD9439180
_publ_section_title
;
Structure prediction by ZEFSAII (Michael W. Deem and Ramdas Pophale) SiO2 
 PCOD9439180
Probable space group: P B C M
;
_chemical_formula_sum "Si O2"
_cell_formula_units_Z 40
_cell_length_a 9.095982
_cell_length_b 13.461630
_cell_length_c 14.130751
_cell_angle_alpha 90.000000
_cell_angle_beta 90.000000
_cell_angle_gamma 90.000000
_cell_volume 1730.264453
_symmetry_space_group_name_H-M "P B C M"
_symmetry_group_IT_number 57
_symmetry_cell_setting 'orthorhombic'
loop_
_space_group_symop_operation_xyz
x,y,z
-x,-y,1/2+z
x,1/2-y,-z
-x,1/2+y,1/2-z
-x,-y,-z
x,y,1/2-z
-x,1/2+y,z
x,1/2-y,1/2+z
loop_
_atom_site_type_symbol
_atom_site_label
_atom_site_fract_x
_atom_site_fract_y
_atom_site_fract_z
Si Si1 0.455460 0.135098 0.499471
Si Si2 0.976659 0.720524 0.641285
Si Si3 0.220148 0.088223 0.138057
Si Si4 0.764330 0.971022 0.141327
Si Si5 0.801525 0.106459 0.980179
O O1 0.413562 0.250000 0.500000
O O2 0.387050 0.100958 0.399447
O O3 0.371717 0.070497 0.579019
O O4 0.628063 0.128672 0.516954
O O5 0.024086 0.736925 0.750000
O O6 0.111407 0.692014 0.574413
O O7 0.876980 0.814912 0.612153
O O8 0.874612 0.622362 0.639996
O O9 0.213485 0.075538 0.250000
O O10 0.167063 0.991283 0.083190
O O11 0.728025 0.993404 0.250000
O O12 0.830786 0.066495 0.086743
#
# Coordination Sequence:
#
# PCOD9439180 Si02
#       5
#     8   8   8   8   8
#     4  11  23  42  64  99 137 178 230 281 350 408
#     4  10  21  41  68  98 134 179 227 280 345 416
#     4  10  21  42  73 100 136 186 232 280 352 422
#     4  10  21  41  67  94 132 181 228 280 342 413
#     4  11  24  40  67 104 137 172 232 295 344 410
#
# _framework density 23.117853
#
# number of rings (size 3 to 8) (size 9 to 14) (size 15 to 20)
#    0.000    1.600    2.000    3.600    0.000    4.000 
#   10.800    0.000    0.000    4.800    0.000    0.000 
#    0.000    0.000    0.000    0.000    0.000    0.000 
#
# Total GULP energy -223732.313340 kJ/mol
# GULP energy per Si atom -5593.307834 kJ/mol
# Density = 2.306524 g / cm^3
# Si number density = 23.117853 Si / 1000 Ang^3
#
#
#
# Elastic Constant Matrix: (Units=GPa)
#
#
# Indices 1 2 3 4 5 6 
#
# 1 127.1808 28.8141 61.8816 0.0000 0.0000 0.0000
# 2 28.8141 100.1218 59.0544 0.0000 0.0000 0.0000
# 3 61.8816 59.0544 168.8485 0.0000 0.0000 0.0000
# 4 0.0000 0.0000 0.0000 23.6337 0.0000 0.0000
# 5 0.0000 0.0000 0.0000 0.0000 13.2295 0.0000
# 6 0.0000 0.0000 0.0000 0.0000 0.0000 36.8190
#
#
#
# Elastic Compliance Matrix: (Units=1/GPa)
#
#
# Indices 1 2 3 4 5 6 
#
# 1 0.009629 -0.000869 -0.003225 0.000000 0.000000 0.000000
# 2 -0.000869 0.012662 -0.004110 0.000000 0.000000 0.000000
# 3 -0.003225 -0.004110 0.008542 0.000000 0.000000 0.000000
# 4 0.000000 0.000000 0.000000 0.042312 0.000000 0.000000
# 5 0.000000 0.000000 0.000000 0.000000 0.075589 0.000000
# 6 0.000000 0.000000 0.000000 0.000000 0.000000 0.027160
#
#
# Mechanical properties :
#
#
# Convention : Reuss Voigt Hill
#
# Bulk Modulus (GPa) = 69.32468 77.29456 73.30962
# Shear Modulus (GPa) = 25.36653 31.16317 28.26485
#
# Velocity S-wave (km/s) = 3.31610 3.67551 3.50042
# Velocity P-wave (km/s) = 6.68690 7.17775 6.93667
#
# Compressibility (1/GPa) = 0.01442488
#
# Stress axis : x y z
#
# Youngs Moduli (GPa) = 103.85456 78.97555 117.06992
#
# Poissons Ratio (x) = 0.06862 0.37755
# Poissons Ratio (y) = 0.09024 0.48117
# Poissons Ratio (z) = 0.33493 0.32460
#
# Static dielectric constant tensor:
#      x y z
#    x 1.884070 0.000000 0.000000 
#    y 0.000000 1.903640 0.000000 
#    z 0.000000 0.000000 1.832880 
# 
# From -- ./inp_files/15901.got.cif
#   From: 2010.05.17/outbox.cif.g08.bks.cpg/sg57_8_cif.got.tgz:15901.got - 2010.06.03 13:58:18.
