data_PCOD9439884
_publ_section_title
;
Structure prediction by ZEFSAII (Michael W. Deem and Ramdas Pophale) SiO2 
 PCOD9439884
Probable space group: P B C M
;
_chemical_formula_sum "Si O2"
_cell_formula_units_Z 36
_cell_length_a 15.968878
_cell_length_b 8.977119
_cell_length_c 13.464676
_cell_angle_alpha 90.000000
_cell_angle_beta 90.000000
_cell_angle_gamma 90.000000
_cell_volume 1930.222139
_symmetry_space_group_name_H-M "P B C M"
_symmetry_group_IT_number 57
_symmetry_cell_setting 'orthorhombic'
loop_
_space_group_symop_operation_xyz
x,y,z
-x,-y,1/2+z
x,1/2-y,-z
-x,1/2+y,1/2-z
-x,-y,-z
x,y,1/2-z
-x,1/2+y,z
x,1/2-y,1/2+z
loop_
_atom_site_type_symbol
_atom_site_label
_atom_site_fract_x
_atom_site_fract_y
_atom_site_fract_z
Si Si1 0.456572 0.998665 0.250000
Si Si2 0.992756 0.250000 0.000000
Si Si3 0.270273 0.111538 0.567339
Si Si4 0.908306 0.505555 0.869296
Si Si5 0.384488 0.181218 0.750000
Si Si6 0.413971 0.919535 0.465576
O O1 0.442605 0.174524 0.250000
O O2 0.554505 0.960015 0.250000
O O3 0.415242 0.930914 0.347428
O O4 0.046269 0.356964 0.073440
O O5 0.939725 0.141722 0.072588
O O6 0.241900 0.250000 0.500000
O O7 0.190515 0.027901 0.611993
O O8 0.326524 0.179718 0.654528
O O9 0.333125 0.003598 0.508196
O O10 0.925264 0.502778 0.750000
O O11 0.416320 0.750000 0.500000
O O12 0.500000 0.000000 0.500000
#
# Coordination Sequence:
#
# PCOD9439884 Si02
#       6
#     4   4   8   8   4   8
#     4  12  24  40  64  88 124 175 223 267 324 377
#     4  10  24  44  70 104 134 170 216 272 336 404
#     4  12  24  42  64  97 132 173 215 274 326 391
#     4  11  23  44  72 100 135 174 218 269 335 403
#     4  12  24  40  64  92 128 173 229 267 330 389
#     4  12  25  41  62  90 126 169 219 268 320 376
#
# _framework density 18.650701999999999
#
# number of rings (size 3 to 8) (size 9 to 14) (size 15 to 20)
#    0.000    0.444    6.667    2.667    1.556    0.000 
#    0.000    0.000    4.889    0.000    0.000    0.000 
#    0.000    0.000    0.000    0.000    0.000    0.000 
#
# Total GULP energy -201220.334486 kJ/mol
# GULP energy per Si atom -5589.453736 kJ/mol
# Density = 1.860825 g / cm^3
# Si number density = 18.650702 Si / 1000 Ang^3
#
#
#
# Elastic Constant Matrix: (Units=GPa)
#
#
# Indices 1 2 3 4 5 6 
#
# 1 98.2658 54.3176 44.7618 0.0000 0.0000 0.0000
# 2 54.3176 125.3753 58.2383 0.0000 0.0000 0.0000
# 3 44.7618 58.2383 175.2288 0.0000 0.0000 0.0000
# 4 0.0000 0.0000 0.0000 31.0850 0.0000 0.0000
# 5 0.0000 0.0000 0.0000 0.0000 45.3923 0.0000
# 6 0.0000 0.0000 0.0000 0.0000 0.0000 28.4444
#
#
#
# Elastic Compliance Matrix: (Units=1/GPa)
#
#
# Indices 1 2 3 4 5 6 
#
# 1 0.013858 -0.005155 -0.001827 0.000000 0.000000 0.000000
# 2 -0.005155 0.011350 -0.002455 0.000000 0.000000 0.000000
# 3 -0.001827 -0.002455 0.006989 0.000000 0.000000 0.000000
# 4 0.000000 0.000000 0.000000 0.032170 0.000000 0.000000
# 5 0.000000 0.000000 0.000000 0.000000 0.022030 0.000000
# 6 0.000000 0.000000 0.000000 0.000000 0.000000 0.035156
#
#
# Mechanical properties :
#
#
# Convention : Reuss Voigt Hill
#
# Bulk Modulus (GPa) = 75.05789 79.27840 77.16814
# Shear Modulus (GPa) = 34.51367 37.08782 35.80075
#
# Velocity S-wave (km/s) = 4.30645 4.46415 4.38601
# Velocity P-wave (km/s) = 8.06589 8.31689 8.19236
#
# Compressibility (1/GPa) = 0.01332305
#
# Stress axis : x y z
#
# Youngs Moduli (GPa) = 72.15891 88.10458 143.07232
#
# Poissons Ratio (x) = 0.45422 0.26134
# Poissons Ratio (y) = 0.37201 0.35129
# Poissons Ratio (z) = 0.13181 0.21633
#
# Static dielectric constant tensor:
#      x y z
#    x 1.615490 0.000000 0.000000 
#    y 0.000000 1.614290 0.000000 
#    z 0.000000 0.000000 1.645650 
# 
# From -- ./inp_files/18161.got.cif
#   From: 2010.05.17/outbox.cif.g08.bks.cpg/sg57_10_cif.got.tgz:18161.got - 2010.06.03 13:58:18.
