data_PCOD9439028
_publ_section_title
;
Structure prediction by ZEFSAII (Michael W. Deem and Ramdas Pophale) SiO2 
 PCOD9439028
Probable space group: P B C M
;
_chemical_formula_sum "Si O2"
_cell_formula_units_Z 64
_cell_length_a 19.481707
_cell_length_b 10.474450
_cell_length_c 15.419015
_cell_angle_alpha 90.000000
_cell_angle_beta 90.000000
_cell_angle_gamma 90.000000
_cell_volume 3146.406759
_symmetry_space_group_name_H-M "P B C M"
_symmetry_group_IT_number 57
_symmetry_cell_setting 'orthorhombic'
loop_
_space_group_symop_operation_xyz
x,y,z
-x,-y,1/2+z
x,1/2-y,-z
-x,1/2+y,1/2-z
-x,-y,-z
x,y,1/2-z
-x,1/2+y,z
x,1/2-y,1/2+z
loop_
_atom_site_type_symbol
_atom_site_label
_atom_site_fract_x
_atom_site_fract_y
_atom_site_fract_z
Si Si1 0.792169 0.506527 0.354180
Si Si2 0.927761 0.129541 0.065184
Si Si3 0.080125 0.379241 0.554023
Si Si4 0.345481 0.128943 0.149717
Si Si5 0.580133 0.116933 0.595473
Si Si6 0.356741 0.621627 0.097147
Si Si7 0.428069 0.131730 0.648975
Si Si8 0.789023 0.209531 0.353048
O O1 0.787595 0.501700 0.250000
O O2 0.859397 0.582418 0.381828
O O3 0.725667 0.580291 0.389976
O O4 0.791960 0.358162 0.382642
O O5 0.862642 0.146902 0.127082
O O6 0.005780 0.131966 0.100443
O O7 0.924537 0.250000 0.000000
O O8 0.922325 0.997339 0.013198
O O9 0.092431 0.250000 0.500000
O O10 0.331176 0.161785 0.250000
O O11 0.382649 0.252303 0.112692
O O12 0.395727 0.008201 0.145516
O O13 0.610434 0.247774 0.634482
O O14 0.613522 0.109464 0.500114
O O15 0.498283 0.120992 0.595711
O O16 0.384151 0.497053 0.144869
O O17 0.274965 0.640055 0.101242
O O18 0.446720 0.157689 0.750000
O O19 0.775925 0.206829 0.250000
#
# Coordination Sequence:
#
# PCOD9439028 Si02
#       8
#     8   8   8   8   8   8   8   8
#     4  10  21  40  66  92 127 169 212 258 318 384
#     4  10  21  39  66  92 131 165 211 259 304 375
#     4  10  22  39  63  98 128 171 207 253 318 371
#     4  10  22  40  62  91 124 162 208 256 316 383
#     4  11  23  39  63  90 120 166 208 257 315 385
#     4  11  25  40  63  93 124 158 211 267 311 375
#     4  11  24  42  63  87 125 165 207 267 325 375
#     4  11  23  40  68  96 124 168 215 263 316 374
#
# _framework density 20.340664
#
# number of rings (size 3 to 8) (size 9 to 14) (size 15 to 20)
#    0.000    1.500    2.500    1.875    3.500    5.500 
#    0.000    1.875    0.000    0.000    0.000    0.000 
#    0.000    0.000    0.000    0.000    0.000    0.000 
#
# Total GULP energy -357512.559734 kJ/mol
# GULP energy per Si atom -5586.133746 kJ/mol
# Density = 2.029437 g / cm^3
# Si number density = 20.340664 Si / 1000 Ang^3
#
#
#
# Elastic Constant Matrix: (Units=GPa)
#
#
# Indices 1 2 3 4 5 6 
#
# 1 188.1582 57.6157 35.1431 0.0000 0.0000 0.0000
# 2 57.6157 120.7508 10.8564 0.0000 0.0000 0.0000
# 3 35.1431 10.8564 45.0563 0.0000 0.0000 0.0000
# 4 0.0000 0.0000 0.0000 18.8781 0.0000 0.0000
# 5 0.0000 0.0000 0.0000 0.0000 59.7689 0.0000
# 6 0.0000 0.0000 0.0000 0.0000 0.0000 33.8075
#
#
#
# Elastic Compliance Matrix: (Units=1/GPa)
#
#
# Indices 1 2 3 4 5 6 
#
# 1 0.007128 -0.002965 -0.004845 0.000000 0.000000 0.000000
# 2 -0.002965 0.009699 -0.000024 0.000000 0.000000 0.000000
# 3 -0.004845 -0.000024 0.025979 0.000000 0.000000 0.000000
# 4 0.000000 0.000000 0.000000 0.052971 0.000000 0.000000
# 5 0.000000 0.000000 0.000000 0.000000 0.016731 0.000000
# 6 0.000000 0.000000 0.000000 0.000000 0.000000 0.029579
#
#
# Mechanical properties :
#
#
# Convention : Reuss Voigt Hill
#
# Bulk Modulus (GPa) = 36.85016 62.35507 49.60261
# Shear Modulus (GPa) = 29.97581 39.18089 34.57835
#
# Velocity S-wave (km/s) = 3.84303 4.39365 4.12753
# Velocity P-wave (km/s) = 6.15205 7.51404 6.86689
#
# Compressibility (1/GPa) = 0.02713692
#
# Stress axis : x y z
#
# Youngs Moduli (GPa) = 140.29999 103.10810 38.49238
#
# Poissons Ratio (x) = 0.30575 0.18649
# Poissons Ratio (y) = 0.41603 0.00092
# Poissons Ratio (z) = 0.67974 0.00247
#
# Static dielectric constant tensor:
#      x y z
#    x 1.731030 0.000000 0.000000 
#    y 0.000000 1.714540 0.000000 
#    z 0.000000 0.000000 1.765440 
# 
# From -- ./inp_files/19103.got.cif
#   From: 2010.05.17/outbox.cif.g08.bks.cpg/sg57_10_cif.got.tgz:19103.got - 2010.06.03 13:58:18.
