data_PCOD9439912
_publ_section_title
;
Structure prediction by ZEFSAII (Michael W. Deem and Ramdas Pophale) SiO2 
 PCOD9439912
Probable space group: P B C M
;
_chemical_formula_sum "Si O2"
_cell_formula_units_Z 32
_cell_length_a 10.237196
_cell_length_b 9.512513
_cell_length_c 12.153344
_cell_angle_alpha 90.000000
_cell_angle_beta 90.000000
_cell_angle_gamma 90.000000
_cell_volume 1183.510383
_symmetry_space_group_name_H-M "P B C M"
_symmetry_group_IT_number 57
_symmetry_cell_setting 'orthorhombic'
loop_
_space_group_symop_operation_xyz
x,y,z
-x,-y,1/2+z
x,1/2-y,-z
-x,1/2+y,1/2-z
-x,-y,-z
x,y,1/2-z
-x,1/2+y,z
x,1/2-y,1/2+z
loop_
_atom_site_type_symbol
_atom_site_label
_atom_site_fract_x
_atom_site_fract_y
_atom_site_fract_z
Si Si1 0.971314 0.999186 0.250000
Si Si2 0.345575 0.890486 0.441309
Si Si3 0.256551 0.778706 0.750000
Si Si4 0.154425 0.390486 0.558691
Si Si5 0.756551 0.778706 0.250000
Si Si6 0.471314 0.500814 0.250000
O O1 0.853180 0.107481 0.250000
O O2 0.049527 0.032321 0.363035
O O3 0.901378 0.848010 0.250000
O O4 0.599837 0.250000 0.500000
O O5 0.250000 0.000000 0.505724
O O6 0.450473 0.967679 0.363035
O O7 0.246634 0.819337 0.354929
O O8 0.401378 0.848010 0.750000
O O9 0.099837 0.250000 0.500000
O O10 0.253366 0.319337 0.645071
O O11 0.646819 0.892519 0.250000
#
# Coordination Sequence:
#
# PCOD9439912 Si02
#       6
#     4   8   4   8   4   4
#     4  10  24  47  74 102 142 195 236 301 357 420
#     4  11  27  46  73 108 146 191 242 297 361 432
#     4  10  24  47  73 105 142 189 247 291 359 428
#     4  11  27  46  73 108 146 191 242 297 361 432
#     4  10  24  47  73 105 142 189 247 291 359 428
#     4  10  24  47  74 102 142 195 236 301 357 420
#
# _framework density 27.038208999999998
#
# number of rings (size 3 to 8) (size 9 to 14) (size 15 to 20)
#    0.000    1.500    0.000    3.000   21.000    4.000 
#    0.000    0.000    0.000    0.000    0.000    0.000 
#    0.000    0.000    0.000    0.000    0.000    0.000 
#
# Total GULP energy -179038.006603 kJ/mol
# GULP energy per Si atom -5594.937706 kJ/mol
# Density = 2.697667 g / cm^3
# Si number density = 27.038209 Si / 1000 Ang^3
#
#
#
# Elastic Constant Matrix: (Units=GPa)
#
#
# Indices 1 2 3 4 5 6 
#
# 1 131.6404 80.1291 28.9127 0.0000 0.0000 0.0000
# 2 80.1291 132.7261 17.3041 0.0000 0.0000 0.0000
# 3 28.9127 17.3041 73.9690 0.0000 0.0000 0.0000
# 4 0.0000 0.0000 0.0000 36.0534 0.0000 0.0000
# 5 0.0000 0.0000 0.0000 0.0000 -37.8478 0.0000
# 6 0.0000 0.0000 0.0000 0.0000 0.0000 70.2218
#
#
#
# Elastic Compliance Matrix: (Units=1/GPa)
#
#
# Indices 1 2 3 4 5 6 
#
# 1 0.012737 -0.007262 -0.003280 0.000000 0.000000 0.000000
# 2 -0.007262 0.011912 0.000052 0.000000 0.000000 0.000000
# 3 -0.003280 0.000052 0.014789 0.000000 0.000000 0.000000
# 4 0.000000 0.000000 0.000000 0.027737 0.000000 0.000000
# 5 0.000000 0.000000 0.000000 0.000000 -0.026422 0.000000
# 6 0.000000 0.000000 0.000000 0.000000 0.000000 0.014241
#
#
# Mechanical properties :
#
#
# Convention : Reuss Voigt Hill
#
# Bulk Modulus (GPa) = 54.17653 65.66971 59.92312
# Shear Modulus (GPa) = 60.88195 27.81814 44.35005
#
# Velocity S-wave (km/s) = 4.75036 3.21104 4.05442
# Velocity P-wave (km/s) = 7.08296 6.17156 6.64291
#
# Compressibility (1/GPa) = 0.01845818
#
# Stress axis : x y z
#
# Youngs Moduli (GPa) = 78.51006 83.95050 67.61776
#
# Poissons Ratio (x) = 0.60966 0.22177
# Poissons Ratio (y) = 0.57015 -0.00351
# Poissons Ratio (z) = 0.25750 -0.00436
#
# Static dielectric constant tensor:
#      x y z
#    x 2.090440 0.000000 0.000000 
#    y 0.000000 2.085050 0.000000 
#    z 0.000000 0.000000 2.187490 
# 
# From -- ./inp_files/15624.got.cif
#   From: 2010.05.17/outbox.cif.g08.bks.cpg/sg57_8_cif.got.tgz:15624.got - 2010.06.03 13:58:18.
