data_PCOD9439855
_publ_section_title
;
Structure prediction by ZEFSAII (Michael W. Deem and Ramdas Pophale) SiO2 
 PCOD9439855
Probable space group: P B C M
;
_chemical_formula_sum "Si O2"
_cell_formula_units_Z 60
_cell_length_a 9.113659
_cell_length_b 12.644096
_cell_length_c 24.917019
_cell_angle_alpha 90.000000
_cell_angle_beta 90.000000
_cell_angle_gamma 90.000000
_cell_volume 2871.287252
_symmetry_space_group_name_H-M "P B C M"
_symmetry_group_IT_number 57
_symmetry_cell_setting 'orthorhombic'
loop_
_space_group_symop_operation_xyz
x,y,z
-x,-y,1/2+z
x,1/2-y,-z
-x,1/2+y,1/2-z
-x,-y,-z
x,y,1/2-z
-x,1/2+y,z
x,1/2-y,1/2+z
loop_
_atom_site_type_symbol
_atom_site_label
_atom_site_fract_x
_atom_site_fract_y
_atom_site_fract_z
Si Si1 0.012374 0.577074 0.186782
Si Si2 0.517397 0.782875 0.149164
Si Si3 0.392898 0.893673 0.250000
Si Si4 0.676548 0.559117 0.346295
Si Si5 0.198682 0.092255 0.873945
Si Si6 0.308578 0.884429 0.071994
Si Si7 0.952597 0.247500 0.392006
Si Si8 0.134294 0.938925 0.970231
O O1 0.998249 0.581871 0.250000
O O2 0.105561 0.475386 0.168992
O O3 0.082708 0.682521 0.161795
O O4 0.851379 0.574357 0.160455
O O5 0.421553 0.806170 0.201706
O O6 0.590285 0.668478 0.153076
O O7 0.646763 0.870760 0.148805
O O8 0.428467 0.801410 0.093653
O O9 0.368993 0.984516 0.202909
O O10 0.650095 0.495437 0.401229
O O11 0.110003 0.198041 0.889054
O O12 0.202124 0.017342 0.925964
O O13 0.159431 0.842682 0.099563
O O14 0.260017 0.900344 0.011013
O O15 0.931911 0.162854 0.439578
O O16 0.000000 0.000000 0.000000
#
# Coordination Sequence:
#
# PCOD9439855 Si02
#       8
#     8   8   4   8   8   8   8   8
#     4  11  23  40  70 104 141 178 232 294 341 419
#     4  11  26  44  69 100 145 185 230 287 352 429
#     4  10  24  42  68  94 142 188 222 274 352 418
#     4  11  21  44  70 100 136 184 237 278 352 417
#     4  11  24  42  69 106 135 180 237 289 346 416
#     4  11  24  45  68 100 140 179 232 291 345 423
#     4  11  22  42  69 101 139 179 235 286 350 405
#     4  11  23  42  73 100 136 184 231 293 350 409
#
# _framework density 20.896550000000001
#
# number of rings (size 3 to 8) (size 9 to 14) (size 15 to 20)
#    0.000    1.067    4.667    1.600    0.933    5.333 
#    4.800    1.333    0.000    0.000    0.000    0.000 
#    0.000    0.000    0.000    0.000    0.000    0.000 
#
# Total GULP energy -334229.008060 kJ/mol
# GULP energy per Si atom -5570.483468 kJ/mol
# Density = 2.084899 g / cm^3
# Si number density = 20.896550 Si / 1000 Ang^3
#
#
#
# Elastic Constant Matrix: (Units=GPa)
#
#
# Indices 1 2 3 4 5 6 
#
# 1 37.7708 5.0148 6.5458 0.0000 0.0000 0.0000
# 2 5.0148 75.0921 23.7771 0.0000 0.0000 0.0000
# 3 6.5458 23.7771 62.6652 0.0000 0.0000 0.0000
# 4 0.0000 0.0000 0.0000 15.2573 0.0000 0.0000
# 5 0.0000 0.0000 0.0000 0.0000 8.4418 0.0000
# 6 0.0000 0.0000 0.0000 0.0000 0.0000 27.7453
#
#
#
# Elastic Compliance Matrix: (Units=1/GPa)
#
#
# Indices 1 2 3 4 5 6 
#
# 1 0.027034 -0.001036 -0.002431 0.000000 0.000000 0.000000
# 2 -0.001036 0.015175 -0.005650 0.000000 0.000000 0.000000
# 3 -0.002431 -0.005650 0.018355 0.000000 0.000000 0.000000
# 4 0.000000 0.000000 0.000000 0.065542 0.000000 0.000000
# 5 0.000000 0.000000 0.000000 0.000000 0.118457 0.000000
# 6 0.000000 0.000000 0.000000 0.000000 0.000000 0.036042
#
#
# Mechanical properties :
#
#
# Convention : Reuss Voigt Hill
#
# Bulk Modulus (GPa) = 23.62272 27.35595 25.48934
# Shear Modulus (GPa) = 15.97699 19.63493 17.80596
#
# Velocity S-wave (km/s) = 2.76810 3.06866 2.92224
# Velocity P-wave (km/s) = 4.64173 5.06706 4.85905
#
# Compressibility (1/GPa) = 0.04233212
#
# Stress axis : x y z
#
# Youngs Moduli (GPa) = 36.99007 65.89758 54.47983
#
# Poissons Ratio (x) = 0.06825 0.13244
# Poissons Ratio (y) = 0.03831 0.30780
# Poissons Ratio (z) = 0.08992 0.37230
#
# Static dielectric constant tensor:
#      x y z
#    x 1.801100 0.000000 0.000000 
#    y 0.000000 1.781240 0.000000 
#    z 0.000000 0.000000 1.743870 
# 
# From -- ./inp_files/28390.got.cif
#   From: 2010.05.17/outbox.cif.g08.bks.cpg/sg57_15_cif.got.tgz:28390.got - 2010.06.03 13:58:18.
