data_PCOD9439236
_publ_section_title
;
Structure prediction by ZEFSAII (Michael W. Deem and Ramdas Pophale) SiO2 
 PCOD9439236
Probable space group: P B C M
;
_chemical_formula_sum "Si O2"
_cell_formula_units_Z 40
_cell_length_a 10.964818
_cell_length_b 8.192409
_cell_length_c 19.127660
_cell_angle_alpha 90.000000
_cell_angle_beta 90.000000
_cell_angle_gamma 90.000000
_cell_volume 1718.204677
_symmetry_space_group_name_H-M "P B C M"
_symmetry_group_IT_number 57
_symmetry_cell_setting 'orthorhombic'
loop_
_space_group_symop_operation_xyz
x,y,z
-x,-y,1/2+z
x,1/2-y,-z
-x,1/2+y,1/2-z
-x,-y,-z
x,y,1/2-z
-x,1/2+y,z
x,1/2-y,1/2+z
loop_
_atom_site_type_symbol
_atom_site_label
_atom_site_fract_x
_atom_site_fract_y
_atom_site_fract_z
Si Si1 0.139452 0.992063 0.020725
Si Si2 0.683301 0.838714 0.606375
Si Si3 0.180136 0.165227 0.250000
Si Si4 0.784073 0.182776 0.113413
Si Si5 0.451737 0.827383 0.077342
Si Si6 0.912158 0.461463 0.750000
O O1 0.158494 0.844630 0.076681
O O2 0.197167 0.147663 0.058569
O O3 0.207499 0.947577 0.949114
O O4 0.000000 0.000000 0.000000
O O5 0.735090 0.861413 0.683216
O O6 0.591182 0.688936 0.600075
O O7 0.598479 0.989296 0.580456
O O8 0.130194 0.350858 0.250000
O O9 0.058766 0.054356 0.250000
O O10 0.643167 0.228392 0.126247
O O11 0.856800 0.124478 0.180937
O O12 0.438875 0.750000 0.000000
#
# Coordination Sequence:
#
# PCOD9439236 Si02
#       6
#     8   8   4   8   8   4
#     4  10  21  43  73 108 148 193 261 316 379 451
#     4  11  26  46  75 108 156 197 260 312 395 454
#     4  12  32  51  71 110 146 209 260 316 394 475
#     4  10  23  44  71 105 146 204 243 321 383 449
#     4  11  23  46  75 108 151 190 252 319 382 464
#     4  12  30  49  75 102 156 197 266 314 398 467
#
# _framework density 23.280114000000001
#
# number of rings (size 3 to 8) (size 9 to 14) (size 15 to 20)
#    0.000    1.200    4.000    1.800   11.200    1.600 
#    3.600    0.000    0.000    0.000    0.000    0.000 
#    0.000    0.000    0.000    0.000    0.000    0.000 
#
# Total GULP energy -223949.923940 kJ/mol
# GULP energy per Si atom -5598.748099 kJ/mol
# Density = 2.322713 g / cm^3
# Si number density = 23.280114 Si / 1000 Ang^3
#
#
#
# Elastic Constant Matrix: (Units=GPa)
#
#
# Indices 1 2 3 4 5 6 
#
# 1 166.7287 28.4644 44.0734 0.0000 0.0000 0.0000
# 2 28.4644 70.2622 34.9638 0.0000 0.0000 0.0000
# 3 44.0734 34.9638 156.6776 0.0000 0.0000 0.0000
# 4 0.0000 0.0000 0.0000 18.3681 0.0000 0.0000
# 5 0.0000 0.0000 0.0000 0.0000 42.0376 0.0000
# 6 0.0000 0.0000 0.0000 0.0000 0.0000 29.3430
#
#
#
# Elastic Compliance Matrix: (Units=1/GPa)
#
#
# Indices 1 2 3 4 5 6 
#
# 1 0.006722 -0.002005 -0.001443 0.000000 0.000000 0.000000
# 2 -0.002005 0.016608 -0.003142 0.000000 0.000000 0.000000
# 3 -0.001443 -0.003142 0.007490 0.000000 0.000000 0.000000
# 4 0.000000 0.000000 0.000000 0.054442 0.000000 0.000000
# 5 0.000000 0.000000 0.000000 0.000000 0.023788 0.000000
# 6 0.000000 0.000000 0.000000 0.000000 0.000000 0.034080
#
#
# Mechanical properties :
#
#
# Convention : Reuss Voigt Hill
#
# Bulk Modulus (GPa) = 56.69367 67.63019 62.16193
# Shear Modulus (GPa) = 30.82799 37.02754 33.92777
#
# Velocity S-wave (km/s) = 3.64293 3.99246 3.82169
# Velocity P-wave (km/s) = 6.48847 7.09695 6.79952
#
# Compressibility (1/GPa) = 0.01763865
#
# Stress axis : x y z
#
# Youngs Moduli (GPa) = 148.77462 60.21109 133.51510
#
# Poissons Ratio (x) = 0.12071 0.19272
# Poissons Ratio (y) = 0.29826 0.41955
# Poissons Ratio (z) = 0.21474 0.18920
#
# Static dielectric constant tensor:
#      x y z
#    x 1.891860 0.000000 0.000000 
#    y 0.000000 2.009490 0.000000 
#    z 0.000000 0.000000 1.822500 
# 
# From -- ./inp_files/21635.got.cif
#   From: 2010.05.17/outbox.cif.g08.bks.cpg/sg57_11_cif.got.tgz:21635.got - 2010.06.03 13:58:18.
