data_PCOD9439502
_publ_section_title
;
Structure prediction by ZEFSAII (Michael W. Deem and Ramdas Pophale) SiO2 
 PCOD9439502
Probable space group: P B C M
;
_chemical_formula_sum "Si O2"
_cell_formula_units_Z 48
_cell_length_a 15.004962
_cell_length_b 9.772200
_cell_length_c 17.099120
_cell_angle_alpha 90.000000
_cell_angle_beta 90.000000
_cell_angle_gamma 90.000000
_cell_volume 2507.269437
_symmetry_space_group_name_H-M "P B C M"
_symmetry_group_IT_number 57
_symmetry_cell_setting 'orthorhombic'
loop_
_space_group_symop_operation_xyz
x,y,z
-x,-y,1/2+z
x,1/2-y,-z
-x,1/2+y,1/2-z
-x,-y,-z
x,y,1/2-z
-x,1/2+y,z
x,1/2-y,1/2+z
loop_
_atom_site_type_symbol
_atom_site_label
_atom_site_fract_x
_atom_site_fract_y
_atom_site_fract_z
Si Si1 0.048241 0.983640 0.416499
Si Si2 0.260356 0.643715 0.430459
Si Si3 0.080288 0.692768 0.158930
Si Si4 0.569966 0.231809 0.843270
Si Si5 0.762192 0.604946 0.039016
Si Si6 0.600470 0.586994 0.156601
O O1 0.148116 0.039926 0.425778
O O2 0.991573 0.074889 0.356841
O O3 0.052123 0.827293 0.389188
O O4 0.000000 0.000000 0.500000
O O5 0.239460 0.750000 0.500000
O O6 0.175986 0.643911 0.373120
O O7 0.348212 0.697692 0.387618
O O8 0.271864 0.497926 0.471626
O O9 0.086481 0.726656 0.250000
O O10 0.582722 0.248795 0.750000
O O11 0.478116 0.307393 0.863915
O O12 0.570004 0.069500 0.859510
O O13 0.687636 0.615622 0.105738
O O14 0.782039 0.750000 0.000000
O O15 0.617852 0.597450 0.250000
#
# Coordination Sequence:
#
# PCOD9439502 Si02
#       6
#     8   8   8   8   8   8
#     4  12  23  45  68  94 132 172 214 270 328 389
#     4  12  22  43  65  92 125 169 216 261 324 388
#     4  12  25  42  67  99 129 170 219 266 322 391
#     4  10  22  41  65  92 126 170 212 266 325 384
#     4  12  26  42  65  97 127 170 217 265 328 384
#     4  10  23  43  65  93 130 170 215 266 327 388
#
# _framework density 19.144331999999999
#
# number of rings (size 3 to 8) (size 9 to 14) (size 15 to 20)
#    0.000    0.667    5.000    2.500    2.333    4.000 
#    0.000    0.833    0.000    0.000    0.000    0.000 
#    0.000    0.000    0.000    0.000    0.000    0.000 
#
# Total GULP energy -268517.348476 kJ/mol
# GULP energy per Si atom -5594.111427 kJ/mol
# Density = 1.910076 g / cm^3
# Si number density = 19.144332 Si / 1000 Ang^3
#
#
#
# Elastic Constant Matrix: (Units=GPa)
#
#
# Indices 1 2 3 4 5 6 
#
# 1 104.3425 -12.0165 22.4169 0.0000 0.0000 0.0000
# 2 -12.0165 37.5681 -13.9124 0.0000 0.0000 0.0000
# 3 22.4169 -13.9124 54.0608 0.0000 0.0000 0.0000
# 4 0.0000 0.0000 0.0000 25.4884 0.0000 0.0000
# 5 0.0000 0.0000 0.0000 0.0000 36.8647 0.0000
# 6 0.0000 0.0000 0.0000 0.0000 0.0000 30.1037
#
#
#
# Elastic Compliance Matrix: (Units=1/GPa)
#
#
# Indices 1 2 3 4 5 6 
#
# 1 0.010650 0.001958 -0.003912 0.000000 0.000000 0.000000
# 2 0.001958 0.029782 0.006853 0.000000 0.000000 0.000000
# 3 -0.003912 0.006853 0.021883 0.000000 0.000000 0.000000
# 4 0.000000 0.000000 0.000000 0.039233 0.000000 0.000000
# 5 0.000000 0.000000 0.000000 0.000000 0.027126 0.000000
# 6 0.000000 0.000000 0.000000 0.000000 0.000000 0.033219
#
#
# Mechanical properties :
#
#
# Convention : Reuss Voigt Hill
#
# Bulk Modulus (GPa) = 13.86743 20.99414 17.43079
# Shear Modulus (GPa) = 28.38736 31.79027 30.08882
#
# Velocity S-wave (km/s) = 3.85490 4.07942 3.96875
# Velocity P-wave (km/s) = 5.20318 5.76011 5.48871
#
# Compressibility (1/GPa) = 0.07211141
#
# Stress axis : x y z
#
# Youngs Moduli (GPa) = 93.89869 33.57713 45.69665
#
# Poissons Ratio (x) = -0.06573 0.17878
# Poissons Ratio (y) = -0.18382 -0.31314
# Poissons Ratio (z) = 0.36735 -0.23009
#
# Static dielectric constant tensor:
#      x y z
#    x 1.634700 0.000000 0.000000 
#    y 0.000000 1.663450 0.000000 
#    z 0.000000 0.000000 1.674310 
# 
# From -- ./inp_files/22410.got.cif
#   From: 2010.05.17/outbox.cif.g08.bks.cpg/sg57_12_cif.got.tgz:22410.got - 2010.06.03 13:58:18.
