data_PCOD9439993
_publ_section_title
;
Structure prediction by ZEFSAII (Michael W. Deem and Ramdas Pophale) SiO2 
 PCOD9439993
Probable space group: P B C M
;
_chemical_formula_sum "Si O2"
_cell_formula_units_Z 40
_cell_length_a 10.857027
_cell_length_b 9.839560
_cell_length_c 15.234190
_cell_angle_alpha 90.000000
_cell_angle_beta 90.000000
_cell_angle_gamma 90.000000
_cell_volume 1627.443664
_symmetry_space_group_name_H-M "P B C M"
_symmetry_group_IT_number 57
_symmetry_cell_setting 'orthorhombic'
loop_
_space_group_symop_operation_xyz
x,y,z
-x,-y,1/2+z
x,1/2-y,-z
-x,1/2+y,1/2-z
-x,-y,-z
x,y,1/2-z
-x,1/2+y,z
x,1/2-y,1/2+z
loop_
_atom_site_type_symbol
_atom_site_label
_atom_site_fract_x
_atom_site_fract_y
_atom_site_fract_z
Si Si1 0.729123 0.121448 0.067551
Si Si2 0.653476 0.989257 0.596888
Si Si3 0.503316 0.241221 0.851398
Si Si4 0.003486 0.346106 0.750000
Si Si5 0.002422 0.627187 0.066117
Si Si6 0.159590 0.588563 0.750000
O O1 0.621938 0.161201 0.133311
O O2 0.862060 0.105765 0.108028
O O3 0.736595 0.250000 0.000000
O O4 0.703404 0.998149 0.001588
O O5 0.607010 0.838607 0.618086
O O6 0.754517 0.048603 0.666274
O O7 0.541367 0.100385 0.601552
O O8 0.487373 0.208015 0.750000
O O9 0.069886 0.326248 0.653986
O O10 0.028467 0.509604 0.750000
O O11 0.889272 0.241311 0.750000
O O12 0.994409 0.750000 0.000000
O O13 0.000000 0.500000 0.000000
#
# Coordination Sequence:
#
# PCOD9439993 Si02
#       6
#     8   8   8   4   8   4
#     4   9  20  36  61  89 125 171 211 261 327 392
#     4  11  22  41  64  91 132 170 213 269 334 394
#     4  11  20  37  62  94 124 169 215 263 323 400
#     4  12  24  42  74  98 132 182 228 286 350 404
#     4  11  23  42  66  98 134 174 232 283 338 406
#     4  12  24  44  68  96 130 176 230 278 340 414
#
# _framework density 24.578423999999998
#
# number of rings (size 3 to 8) (size 9 to 14) (size 15 to 20)
#    0.000    1.200    2.000    6.600    1.400    0.000 
#    0.000    8.000    0.000    1.200    0.000    0.000 
#    0.000    0.000    0.000    0.000    0.000    0.000 
#
# Total GULP energy -222761.432055 kJ/mol
# GULP energy per Si atom -5569.035801 kJ/mol
# Density = 2.452248 g / cm^3
# Si number density = 24.578424 Si / 1000 Ang^3
#
#
#
# Elastic Constant Matrix: (Units=GPa)
#
#
# Indices 1 2 3 4 5 6 
#
# 1 73.6220 38.7024 0.0721 0.0000 0.0000 0.0000
# 2 38.7024 115.0965 34.9693 0.0000 0.0000 0.0000
# 3 0.0721 34.9693 84.4041 0.0000 0.0000 0.0000
# 4 0.0000 0.0000 0.0000 22.5443 0.0000 0.0000
# 5 0.0000 0.0000 0.0000 0.0000 20.3523 0.0000
# 6 0.0000 0.0000 0.0000 0.0000 0.0000 36.3647
#
#
#
# Elastic Compliance Matrix: (Units=1/GPa)
#
#
# Indices 1 2 3 4 5 6 
#
# 1 0.017019 -0.006542 0.002696 0.000000 0.000000 0.000000
# 2 -0.006542 0.012454 -0.005154 0.000000 0.000000 0.000000
# 3 0.002696 -0.005154 0.013981 0.000000 0.000000 0.000000
# 4 0.000000 0.000000 0.000000 0.044357 0.000000 0.000000
# 5 0.000000 0.000000 0.000000 0.000000 0.049135 0.000000
# 6 0.000000 0.000000 0.000000 0.000000 0.000000 0.027499
#
#
# Mechanical properties :
#
#
# Convention : Reuss Voigt Hill
#
# Bulk Modulus (GPa) = 39.28718 46.73447 43.01083
# Shear Modulus (GPa) = 26.18751 29.14417 27.66584
#
# Velocity S-wave (km/s) = 3.26769 3.44723 3.35866
# Velocity P-wave (km/s) = 5.50056 5.90764 5.70773
#
# Compressibility (1/GPa) = 0.02545359
#
# Stress axis : x y z
#
# Youngs Moduli (GPa) = 58.75677 80.29437 71.52606
#
# Poissons Ratio (x) = 0.52528 -0.19282
# Poissons Ratio (y) = 0.38439 0.36867
# Poissons Ratio (z) = -0.15840 0.41386
#
# Static dielectric constant tensor:
#      x y z
#    x 2.130820 0.000000 0.000000 
#    y 0.000000 1.954350 0.000000 
#    z 0.000000 0.000000 2.054050 
# 
# From -- ./inp_files/21664.got.cif
#   From: 2010.05.17/outbox.cif.g08.bks.cpg/sg57_11_cif.got.tgz:21664.got - 2010.06.03 13:58:18.
