data_PCOD9439893
_publ_section_title
;
Structure prediction by ZEFSAII (Michael W. Deem and Ramdas Pophale) SiO2 
 PCOD9439893
Probable space group: P B C M
;
_chemical_formula_sum "Si O2"
_cell_formula_units_Z 48
_cell_length_a 13.255890
_cell_length_b 10.165238
_cell_length_c 16.613370
_cell_angle_alpha 90.000000
_cell_angle_beta 90.000000
_cell_angle_gamma 90.000000
_cell_volume 2238.639592
_symmetry_space_group_name_H-M "P B C M"
_symmetry_group_IT_number 57
_symmetry_cell_setting 'orthorhombic'
loop_
_space_group_symop_operation_xyz
x,y,z
-x,-y,1/2+z
x,1/2-y,-z
-x,1/2+y,1/2-z
-x,-y,-z
x,y,1/2-z
-x,1/2+y,z
x,1/2-y,1/2+z
loop_
_atom_site_type_symbol
_atom_site_label
_atom_site_fract_x
_atom_site_fract_y
_atom_site_fract_z
Si Si1 0.833747 0.970750 0.342164
Si Si2 0.792710 0.815613 0.652188
Si Si3 0.783807 0.257666 0.405470
Si Si4 0.573428 0.925618 0.655934
Si Si5 0.951525 0.018227 0.910170
Si Si6 0.439991 0.803412 0.091744
O O1 0.802579 0.974805 0.250000
O O2 0.805277 0.110001 0.378619
O O3 0.953856 0.961243 0.352200
O O4 0.788640 0.835683 0.376976
O O5 0.805655 0.816188 0.750000
O O6 0.688797 0.890105 0.633700
O O7 0.886417 0.889995 0.611936
O O8 0.770992 0.250000 0.500000
O O9 0.875258 0.359948 0.395141
O O10 0.674602 0.300221 0.373820
O O11 0.569965 0.962702 0.750000
O O12 0.509297 0.794474 0.641968
O O13 0.530250 0.044791 0.602723
O O14 0.000000 0.000000 0.000000
O O15 0.443926 0.750000 0.000000
#
# Coordination Sequence:
#
# PCOD9439893 Si02
#       6
#     8   8   8   8   8   8
#     4  11  25  41  66  99 135 182 230 278 340 417
#     4  10  24  45  66  99 143 184 230 285 350 415
#     4  11  24  45  67  99 137 175 230 286 344 409
#     4  11  24  46  72 103 139 183 233 289 355 426
#     4  12  23  43  68  99 137 182 229 285 343 410
#     4  11  25  46  72 101 138 180 233 293 355 419
#
# _framework density 21.441593999999998
#
# number of rings (size 3 to 8) (size 9 to 14) (size 15 to 20)
#    0.000    1.000    3.333    2.500    2.333    4.000 
#    3.000    0.000    0.000    0.000    0.000    0.000 
#    0.000    0.000    0.000    0.000    0.000    0.000 
#
# Total GULP energy -268205.664465 kJ/mol
# GULP energy per Si atom -5587.618010 kJ/mol
# Density = 2.139279 g / cm^3
# Si number density = 21.441594 Si / 1000 Ang^3
#
#
#
# Elastic Constant Matrix: (Units=GPa)
#
#
# Indices 1 2 3 4 5 6 
#
# 1 55.9116 23.8638 4.4880 0.0000 0.0000 0.0000
# 2 23.8638 161.6164 31.5316 0.0000 0.0000 0.0000
# 3 4.4880 31.5316 44.4547 0.0000 0.0000 0.0000
# 4 0.0000 0.0000 0.0000 32.7855 0.0000 0.0000
# 5 0.0000 0.0000 0.0000 0.0000 28.5462 0.0000
# 6 0.0000 0.0000 0.0000 0.0000 0.0000 49.1083
#
#
#
# Elastic Compliance Matrix: (Units=1/GPa)
#
#
# Indices 1 2 3 4 5 6 
#
# 1 0.019089 -0.002835 0.000084 0.000000 0.000000 0.000000
# 2 -0.002835 0.007602 -0.005106 0.000000 0.000000 0.000000
# 3 0.000084 -0.005106 0.026108 0.000000 0.000000 0.000000
# 4 0.000000 0.000000 0.000000 0.030501 0.000000 0.000000
# 5 0.000000 0.000000 0.000000 0.000000 0.035031 0.000000
# 6 0.000000 0.000000 0.000000 0.000000 0.000000 0.020363
#
#
# Mechanical properties :
#
#
# Convention : Reuss Voigt Hill
#
# Bulk Modulus (GPa) = 26.96551 42.41662 34.69106
# Shear Modulus (GPa) = 29.98131 35.56129 32.77130
#
# Velocity S-wave (km/s) = 3.74341 4.07691 3.91372
# Velocity P-wave (km/s) = 5.59355 6.47973 6.05288
#
# Compressibility (1/GPa) = 0.03708441
#
# Stress axis : x y z
#
# Youngs Moduli (GPa) = 52.38721 131.53929 38.30226
#
# Poissons Ratio (x) = 0.37290 -0.00321
# Poissons Ratio (y) = 0.14851 0.19557
# Poissons Ratio (z) = -0.00438 0.67165
#
# Static dielectric constant tensor:
#      x y z
#    x 1.790350 0.000000 0.000000 
#    y 0.000000 1.762650 0.000000 
#    z 0.000000 0.000000 1.778130 
# 
# From -- ./inp_files/22480.got.cif
#   From: 2010.05.17/outbox.cif.g08.bks.cpg/sg57_12_cif.got.tgz:22480.got - 2010.06.03 13:58:18.
