data_PCOD9439833
_publ_section_title
;
Structure prediction by ZEFSAII (Michael W. Deem and Ramdas Pophale) SiO2 
 PCOD9439833
Probable space group: P B C M
;
_chemical_formula_sum "Si O2"
_cell_formula_units_Z 36
_cell_length_a 20.814856
_cell_length_b 9.132155
_cell_length_c 9.194028
_cell_angle_alpha 90.000000
_cell_angle_beta 90.000000
_cell_angle_gamma 90.000000
_cell_volume 1747.642135
_symmetry_space_group_name_H-M "P B C M"
_symmetry_group_IT_number 57
_symmetry_cell_setting 'orthorhombic'
loop_
_space_group_symop_operation_xyz
x,y,z
-x,-y,1/2+z
x,1/2-y,-z
-x,1/2+y,1/2-z
-x,-y,-z
x,y,1/2-z
-x,1/2+y,z
x,1/2-y,1/2+z
loop_
_atom_site_type_symbol
_atom_site_label
_atom_site_fract_x
_atom_site_fract_y
_atom_site_fract_z
Si Si1 0.212497 0.904758 0.422802
Si Si2 0.682418 0.598482 0.579338
Si Si3 0.909757 0.025373 0.405179
Si Si4 0.015004 0.250000 0.500000
Si Si5 0.554227 0.404986 0.920474
O O1 0.226570 0.750000 0.500000
O O2 0.221065 0.896083 0.250000
O O3 0.139336 0.945105 0.464925
O O4 0.258558 0.024622 0.494939
O O5 0.666379 0.750000 0.500000
O O6 0.697402 0.621818 0.750000
O O7 0.621442 0.491043 0.570356
O O8 0.875430 0.044060 0.250000
O O9 0.967293 0.142722 0.412963
O O10 0.940173 0.864416 0.415786
O O11 0.538229 0.385043 0.750000
O O12 0.559572 0.250000 0.000000
O O13 0.500000 0.500000 0.000000
#
# Coordination Sequence:
#
# PCOD9439833 Si02
#       5
#     8   8   8   4   8
#     4  12  26  44  67  94 128 172 221 272 333 395
#     4  11  25  45  69  99 135 176 223 274 329 388
#     4  11  23  42  66  94 128 167 216 267 327 397
#     4  10  24  40  66  96 128 166 212 266 332 390
#     4  11  24  42  69 103 141 183 226 275 328 387
#
# _framework density 20.599183
#
# number of rings (size 3 to 8) (size 9 to 14) (size 15 to 20)
#    0.000    0.889    1.111    5.333    1.556   11.556 
#    0.000    0.000    0.000    0.000    0.000    0.000 
#    0.000    0.000    0.000    0.000    0.000    0.000 
#
# Total GULP energy -201380.937278 kJ/mol
# GULP energy per Si atom -5593.914924 kJ/mol
# Density = 2.055230 g / cm^3
# Si number density = 20.599183 Si / 1000 Ang^3
#
#
#
# Elastic Constant Matrix: (Units=GPa)
#
#
# Indices 1 2 3 4 5 6 
#
# 1 35.9430 14.8629 39.8326 0.0000 0.0000 0.0000
# 2 14.8629 153.5428 71.9184 0.0000 0.0000 0.0000
# 3 39.8326 71.9184 201.1911 0.0000 0.0000 0.0000
# 4 0.0000 0.0000 0.0000 23.9143 0.0000 0.0000
# 5 0.0000 0.0000 0.0000 0.0000 22.3529 0.0000
# 6 0.0000 0.0000 0.0000 0.0000 0.0000 36.6901
#
#
#
# Elastic Compliance Matrix: (Units=1/GPa)
#
#
# Indices 1 2 3 4 5 6 
#
# 1 0.035646 -0.000174 -0.006995 0.000000 0.000000 0.000000
# 2 -0.000174 0.007823 -0.002762 0.000000 0.000000 0.000000
# 3 -0.006995 -0.002762 0.007343 0.000000 0.000000 0.000000
# 4 0.000000 0.000000 0.000000 0.041816 0.000000 0.000000
# 5 0.000000 0.000000 0.000000 0.000000 0.044737 0.000000
# 6 0.000000 0.000000 0.000000 0.000000 0.000000 0.027255
#
#
# Mechanical properties :
#
#
# Convention : Reuss Voigt Hill
#
# Bulk Modulus (GPa) = 32.31078 71.54494 51.92786
# Shear Modulus (GPa) = 25.66747 34.19567 29.93157
#
# Velocity S-wave (km/s) = 3.53376 4.07879 3.81602
# Velocity P-wave (km/s) = 5.68942 7.54913 6.68427
#
# Compressibility (1/GPa) = 0.03094943
#
# Stress axis : x y z
#
# Youngs Moduli (GPa) = 28.05377 127.82077 136.19018
#
# Poissons Ratio (x) = 0.02225 0.95266
# Poissons Ratio (y) = 0.00488 0.37618
# Poissons Ratio (z) = 0.19624 0.35306
#
# Static dielectric constant tensor:
#      x y z
#    x 1.713000 0.000000 0.000000 
#    y 0.000000 1.711800 0.000000 
#    z 0.000000 0.000000 1.739090 
# 
# From -- ./inp_files/7623.got.cif
#   From: 2010.05.17/outbox.cif.g08.bks.cpg/sg57_4_cif.got.tgz:7623.got - 2010.06.03 13:58:18.
