data_PCOD9439753
_publ_section_title
;
Structure prediction by ZEFSAII (Michael W. Deem and Ramdas Pophale) SiO2 
 PCOD9439753
Probable space group: P B C M
;
_chemical_formula_sum "Si O2"
_cell_formula_units_Z 64
_cell_length_a 9.762241
_cell_length_b 23.246497
_cell_length_c 14.566800
_cell_angle_alpha 90.000000
_cell_angle_beta 90.000000
_cell_angle_gamma 90.000000
_cell_volume 3305.759091
_symmetry_space_group_name_H-M "P B C M"
_symmetry_group_IT_number 57
_symmetry_cell_setting 'orthorhombic'
loop_
_space_group_symop_operation_xyz
x,y,z
-x,-y,1/2+z
x,1/2-y,-z
-x,1/2+y,1/2-z
-x,-y,-z
x,y,1/2-z
-x,1/2+y,z
x,1/2-y,1/2+z
loop_
_atom_site_type_symbol
_atom_site_label
_atom_site_fract_x
_atom_site_fract_y
_atom_site_fract_z
Si Si1 0.390220 0.472362 0.140204
Si Si2 0.713303 0.182100 0.492426
Si Si3 0.963789 0.817933 0.992791
Si Si4 0.458962 0.898970 0.861105
Si Si5 0.919097 0.489804 0.094105
Si Si6 0.217553 0.109955 0.143753
Si Si7 0.863728 0.597344 0.647513
Si Si8 0.677968 0.408658 0.140581
O O1 0.363440 0.476078 0.250000
O O2 0.402932 0.538129 0.108640
O O3 0.269478 0.432439 0.102024
O O4 0.533151 0.440013 0.128714
O O5 0.687442 0.250000 0.500000
O O6 0.622389 0.149856 0.416050
O O7 0.680188 0.152138 0.589858
O O8 0.875082 0.172974 0.472215
O O9 0.864423 0.844848 0.917069
O O10 0.941429 0.750000 0.000000
O O11 0.926237 0.852662 0.085302
O O12 0.442562 0.894093 0.750000
O O13 0.621871 0.896715 0.880720
O O14 0.860880 0.549304 0.132007
O O15 0.790304 0.447459 0.089779
O O16 0.028290 0.454548 0.153183
O O17 0.000000 0.500000 0.000000
O O18 0.212968 0.126755 0.250000
O O19 0.832037 0.618707 0.750000
O O20 0.707443 0.405660 0.250000
#
# Coordination Sequence:
#
# PCOD9439753 Si02
#       8
#     8   8   8   8   8   8   8   8
#     4   9  21  38  61  96 127 160 202 251 319 384
#     4  11  26  43  63  91 123 169 223 265 314 373
#     4  11  26  45  62  89 126 168 222 265 310 373
#     4  10  23  43  66  94 129 164 207 264 325 385
#     4  12  22  37  63  97 130 161 205 256 319 382
#     4  11  23  42  66  94 128 168 209 259 324 384
#     4  11  23  40  64  95 130 166 209 260 317 382
#     4  11  22  41  65  92 129 169 208 257 321 388
#
# _framework density 19.360151999999999
#
# number of rings (size 3 to 8) (size 9 to 14) (size 15 to 20)
#    0.000    1.250    3.750    1.125    5.250    2.500 
#    0.000    2.500    0.000    0.000    0.000    0.000 
#    0.000    0.000    0.000    0.000    0.000    0.000 
#
# Total GULP energy -357597.342625 kJ/mol
# GULP energy per Si atom -5587.458479 kJ/mol
# Density = 1.931609 g / cm^3
# Si number density = 19.360152 Si / 1000 Ang^3
#
#
#
# Elastic Constant Matrix: (Units=GPa)
#
#
# Indices 1 2 3 4 5 6 
#
# 1 112.8530 66.5206 53.5172 0.0000 0.0000 0.0000
# 2 66.5206 141.3755 58.3832 0.0000 0.0000 0.0000
# 3 53.5172 58.3832 95.3896 0.0000 0.0000 0.0000
# 4 0.0000 0.0000 0.0000 -436.3222 0.0000 0.0000
# 5 0.0000 0.0000 0.0000 0.0000 28.6963 0.0000
# 6 0.0000 0.0000 0.0000 0.0000 0.0000 29.2821
#
#
#
# Elastic Compliance Matrix: (Units=1/GPa)
#
#
# Indices 1 2 3 4 5 6 
#
# 1 0.013882 -0.004437 -0.005073 0.000000 0.000000 0.000000
# 2 -0.004437 0.010884 -0.004172 0.000000 0.000000 0.000000
# 3 -0.005073 -0.004172 0.015883 0.000000 0.000000 0.000000
# 4 0.000000 0.000000 0.000000 -0.002292 0.000000 0.000000
# 5 0.000000 0.000000 0.000000 0.000000 0.034848 0.000000
# 6 0.000000 0.000000 0.000000 0.000000 0.000000 0.034151
#
#
# Mechanical properties :
#
#
# Convention : Reuss Voigt Hill
#
# Bulk Modulus (GPa) = 75.27213 78.49557 76.88385
# Shear Modulus (GPa) = 35.93306 -64.25561 -14.16127
#
# Velocity S-wave (km/s) = 4.31284 -5.76729 -2.70749
# Velocity P-wave (km/s) = 7.98531 1.92768 5.47947
#
# Compressibility (1/GPa) = 0.01328513
#
# Stress axis : x y z
#
# Youngs Moduli (GPa) = 72.03564 91.87735 62.96068
#
# Poissons Ratio (x) = 0.40766 0.31938
# Poissons Ratio (y) = 0.31962 0.26269
# Poissons Ratio (z) = 0.36541 0.38334
#
# Static dielectric constant tensor:
#      x y z
#    x 1.687040 0.000000 0.000000 
#    y 0.000000 1.646690 0.000000 
#    z 0.000000 0.000000 1.700430 
# 
# From -- ./inp_files/16952.got.cif
#   From: 2010.05.17/outbox.cif.g08.bks.cpg/sg57_9_cif.got.tgz:16952.got - 2010.06.03 13:58:18.
