data_PCOD9439625
_publ_section_title
;
Structure prediction by ZEFSAII (Michael W. Deem and Ramdas Pophale) SiO2 
 PCOD9439625
Probable space group: P B C M
;
_chemical_formula_sum "Si O2"
_cell_formula_units_Z 52
_cell_length_a 8.390630
_cell_length_b 12.062464
_cell_length_c 25.922997
_cell_angle_alpha 90.000000
_cell_angle_beta 90.000000
_cell_angle_gamma 90.000000
_cell_volume 2623.709878
_symmetry_space_group_name_H-M "P B C M"
_symmetry_group_IT_number 57
_symmetry_cell_setting 'orthorhombic'
loop_
_space_group_symop_operation_xyz
x,y,z
-x,-y,1/2+z
x,1/2-y,-z
-x,1/2+y,1/2-z
-x,-y,-z
x,y,1/2-z
-x,1/2+y,z
x,1/2-y,1/2+z
loop_
_atom_site_type_symbol
_atom_site_label
_atom_site_fract_x
_atom_site_fract_y
_atom_site_fract_z
Si Si1 0.834802 0.113981 0.112610
Si Si2 0.192551 0.445022 0.579937
Si Si3 0.330319 0.020097 0.527134
Si Si4 0.154465 0.609308 0.750000
Si Si5 0.347804 0.285148 0.390356
Si Si6 0.175150 0.073257 0.806783
Si Si7 0.702874 0.159549 0.643322
O O1 0.820945 0.242198 0.125909
O O2 0.012140 0.079391 0.096358
O O3 0.718010 0.077348 0.066434
O O4 0.793420 0.040975 0.163165
O O5 0.206032 0.468931 0.519329
O O6 0.297062 0.337168 0.593477
O O7 0.261589 0.549497 0.610755
O O8 0.330537 0.131147 0.561452
O O9 0.500000 0.000000 0.500000
O O10 0.279669 0.635557 0.796377
O O11 0.012422 0.585398 0.705915
O O12 0.235173 0.330475 0.344389
O O13 0.527441 0.296050 0.370503
O O14 0.253331 0.076413 0.750000
#
# Coordination Sequence:
#
# PCOD9439625 Si02
#       7
#     8   8   8   4   8   8   8
#     4  11  25  43  70 103 139 181 236 292 340 423
#     4  12  24  46  69 101 142 184 230 289 346 424
#     4  11  23  46  72  98 140 188 234 288 359 407
#     4  10  22  44  68  98 128 180 226 284 348 412
#     4  11  25  44  69 101 140 179 233 290 347 420
#     4   9  21  45  69  93 132 177 227 282 351 402
#     4  12  26  44  70 102 140 176 237 284 351 415
#
# _framework density 19.819265000000001
#
# number of rings (size 3 to 8) (size 9 to 14) (size 15 to 20)
#    0.462    0.615    3.077    2.769    6.462    0.615 
#    6.923    0.000    0.000    0.000    0.000    0.000 
#    0.000    0.000    0.000    0.000    0.000    0.000 
#
# Total GULP energy -289567.396707 kJ/mol
# GULP energy per Si atom -5568.603783 kJ/mol
# Density = 1.977416 g / cm^3
# Si number density = 19.819265 Si / 1000 Ang^3
#
#
#
# Elastic Constant Matrix: (Units=GPa)
#
#
# Indices 1 2 3 4 5 6 
#
# 1 37.1260 0.8821 22.1260 0.0000 0.0000 0.0000
# 2 0.8821 109.4739 58.5470 0.0000 0.0000 0.0000
# 3 22.1260 58.5470 177.5206 0.0000 0.0000 0.0000
# 4 0.0000 0.0000 0.0000 2.9852 0.0000 0.0000
# 5 0.0000 0.0000 0.0000 0.0000 48.7880 0.0000
# 6 0.0000 0.0000 0.0000 0.0000 0.0000 20.5832
#
#
#
# Elastic Compliance Matrix: (Units=1/GPa)
#
#
# Indices 1 2 3 4 5 6 
#
# 1 0.029488 0.002098 -0.004367 0.000000 0.000000 0.000000
# 2 0.002098 0.011240 -0.003969 0.000000 0.000000 0.000000
# 3 -0.004367 -0.003969 0.007486 0.000000 0.000000 0.000000
# 4 0.000000 0.000000 0.000000 0.334984 0.000000 0.000000
# 5 0.000000 0.000000 0.000000 0.000000 0.020497 0.000000
# 6 0.000000 0.000000 0.000000 0.000000 0.000000 0.048583
#
#
# Mechanical properties :
#
#
# Convention : Reuss Voigt Hill
#
# Bulk Modulus (GPa) = 27.98057 54.13672 41.05864
# Shear Modulus (GPa) = 10.48950 30.64231 20.56590
#
# Velocity S-wave (km/s) = 2.30306 3.93630 3.22479
# Velocity P-wave (km/s) = 4.60658 6.93064 5.88449
#
# Compressibility (1/GPa) = 0.03573909
#
# Stress axis : x y z
#
# Youngs Moduli (GPa) = 33.91178 88.96741 133.57693
#
# Poissons Ratio (x) = -0.18666 0.58338
# Poissons Ratio (y) = -0.07115 0.53010
# Poissons Ratio (z) = 0.14810 0.35307
#
# Static dielectric constant tensor:
#      x y z
#    x 1.719950 0.000000 0.000000 
#    y 0.000000 1.667860 0.000000 
#    z 0.000000 0.000000 1.682110 
# 
# From -- ./inp_files/28319.got.cif
#   From: 2010.05.17/outbox.cif.g08.bks.cpg/sg57_15_cif.got.tgz:28319.got - 2010.06.03 13:58:18.
