data_PCOD9439763
_publ_section_title
;
Structure prediction by ZEFSAII (Michael W. Deem and Ramdas Pophale) SiO2 
 PCOD9439763
Probable space group: P B C M
;
_chemical_formula_sum "Si O2"
_cell_formula_units_Z 56
_cell_length_a 29.055418
_cell_length_b 5.169977
_cell_length_c 14.635685
_cell_angle_alpha 90.000000
_cell_angle_beta 90.000000
_cell_angle_gamma 90.000000
_cell_volume 2198.511757
_symmetry_space_group_name_H-M "P B C M"
_symmetry_group_IT_number 57
_symmetry_cell_setting 'orthorhombic'
loop_
_space_group_symop_operation_xyz
x,y,z
-x,-y,1/2+z
x,1/2-y,-z
-x,1/2+y,1/2-z
-x,-y,-z
x,y,1/2-z
-x,1/2+y,z
x,1/2-y,1/2+z
loop_
_atom_site_type_symbol
_atom_site_label
_atom_site_fract_x
_atom_site_fract_y
_atom_site_fract_z
Si Si1 0.336023 0.021054 0.140093
Si Si2 0.720681 0.478549 0.858783
Si Si3 0.028894 0.713575 0.639637
Si Si4 0.111418 0.396772 0.905878
Si Si5 0.407874 0.250000 0.000000
Si Si6 0.469364 0.974358 0.646746
Si Si7 0.120370 0.073142 0.750000
Si Si8 0.819601 0.265226 0.895652
O O1 0.345712 0.043787 0.250000
O O2 0.295874 0.232593 0.117753
O O3 0.377421 0.096756 0.074213
O O4 0.319061 0.730768 0.121249
O O5 0.727492 0.476079 0.750000
O O6 0.767391 0.360485 0.898027
O O7 0.036931 0.724339 0.750000
O O8 0.078120 0.644161 0.596571
O O9 0.003720 0.974977 0.613088
O O10 0.090132 0.214952 0.829189
O O11 0.161911 0.482650 0.865538
O O12 0.114719 0.250000 0.000000
O O13 0.437273 0.445394 0.062972
O O14 0.448785 0.005079 0.750000
O O15 0.510818 0.184820 0.641350
O O16 0.153480 0.950174 0.670931
O O17 0.835288 0.250000 0.000000
#
# Coordination Sequence:
#
# PCOD9439763 Si02
#       8
#     8   8   8   8   4   8   4   8
#     4  10  25  43  63  96 134 181 232 283 344 419
#     4  10  24  45  68  94 136 181 232 289 351 412
#     4  10  24  43  70 100 139 186 227 281 353 428
#     4  12  27  45  73 107 139 182 238 289 359 433
#     4  12  24  42  70  98 138 186 230 288 346 420
#     4  10  23  43  68 102 138 178 230 292 351 414
#     4  12  26  48  70 104 144 184 226 306 354 426
#     4  12  27  43  74 104 140 182 239 298 365 421
#
# _framework density 25.471775000000001
#
# number of rings (size 3 to 8) (size 9 to 14) (size 15 to 20)
#    0.000    1.143    2.857    1.286    6.000    2.857 
#    0.000    4.286    0.000    0.000    0.000    0.000 
#    0.000    0.000    0.000    0.000    0.000    0.000 
#
# Total GULP energy -312656.698833 kJ/mol
# GULP energy per Si atom -5583.155336 kJ/mol
# Density = 2.541380 g / cm^3
# Si number density = 25.471775 Si / 1000 Ang^3
#
#
#
# Elastic Constant Matrix: (Units=GPa)
#
#
# Indices 1 2 3 4 5 6 
#
# 1 62.0685 -9.5925 29.7791 0.0000 0.0000 0.0000
# 2 -9.5925 86.0873 10.8251 0.0000 0.0000 0.0000
# 3 29.7791 10.8251 135.3291 0.0000 0.0000 0.0000
# 4 0.0000 0.0000 0.0000 23.1032 0.0000 0.0000
# 5 0.0000 0.0000 0.0000 0.0000 68.9947 0.0000
# 6 0.0000 0.0000 0.0000 0.0000 0.0000 5.1783
#
#
#
# Elastic Compliance Matrix: (Units=1/GPa)
#
#
# Indices 1 2 3 4 5 6 
#
# 1 0.018576 0.002610 -0.004296 0.000000 0.000000 0.000000
# 2 0.002610 0.012101 -0.001542 0.000000 0.000000 0.000000
# 3 -0.004296 -0.001542 0.008458 0.000000 0.000000 0.000000
# 4 0.000000 0.000000 0.000000 0.043284 0.000000 0.000000
# 5 0.000000 0.000000 0.000000 0.000000 0.014494 0.000000
# 6 0.000000 0.000000 0.000000 0.000000 0.000000 0.193113
#
#
# Mechanical properties :
#
#
# Convention : Reuss Voigt Hill
#
# Bulk Modulus (GPa) = 30.60180 38.38981 34.49581
# Shear Modulus (GPa) = 16.26672 36.28680 26.27676
#
# Velocity S-wave (km/s) = 2.52983 3.77847 3.21534
# Velocity P-wave (km/s) = 4.53580 5.84294 5.23037
#
# Compressibility (1/GPa) = 0.03267782
#
# Stress axis : x y z
#
# Youngs Moduli (GPa) = 53.83309 82.63852 118.22865
#
# Poissons Ratio (x) = -0.21570 0.50796
# Poissons Ratio (y) = -0.14051 0.18235
# Poissons Ratio (z) = 0.23129 0.12745
#
# Static dielectric constant tensor:
#      x y z
#    x 2.061940 0.000000 0.000000 
#    y 0.000000 2.328290 0.000000 
#    z 0.000000 0.000000 2.114350 
# 
# From -- ./inp_files/19664.got.cif
#   From: 2010.05.17/outbox.cif.g08.bks.cpg/sg57_10_cif.got.tgz:19664.got - 2010.06.03 13:58:18.
