data_PCOD9439682
_publ_section_title
;
Structure prediction by ZEFSAII (Michael W. Deem and Ramdas Pophale) SiO2 
 PCOD9439682
Probable space group: P B C M
;
_chemical_formula_sum "Si O2"
_cell_formula_units_Z 40
_cell_length_a 8.324785
_cell_length_b 7.749745
_cell_length_c 26.607798
_cell_angle_alpha 90.000000
_cell_angle_beta 90.000000
_cell_angle_gamma 90.000000
_cell_volume 1716.601048
_symmetry_space_group_name_H-M "P B C M"
_symmetry_group_IT_number 57
_symmetry_cell_setting 'orthorhombic'
loop_
_space_group_symop_operation_xyz
x,y,z
-x,-y,1/2+z
x,1/2-y,-z
-x,1/2+y,1/2-z
-x,-y,-z
x,y,1/2-z
-x,1/2+y,z
x,1/2-y,1/2+z
loop_
_atom_site_type_symbol
_atom_site_label
_atom_site_fract_x
_atom_site_fract_y
_atom_site_fract_z
Si Si1 0.071009 0.161063 0.848400
Si Si2 0.257396 0.701336 0.347707
Si Si3 0.591134 0.341715 0.447004
Si Si4 0.434140 0.909733 0.750000
Si Si5 0.756320 0.783491 0.945865
Si Si6 0.242242 0.270599 0.750000
O O1 0.124970 0.252194 0.899982
O O2 0.136225 0.261564 0.799698
O O3 0.879869 0.154127 0.843476
O O4 0.156901 0.976159 0.849088
O O5 0.351271 0.735232 0.398825
O O6 0.374648 0.686077 0.300356
O O7 0.629294 0.250000 0.500000
O O8 0.397230 0.345630 0.443500
O O9 0.675719 0.527415 0.444774
O O10 0.625801 0.919278 0.750000
O O11 0.348781 0.095087 0.750000
O O12 0.836032 0.750000 0.000000
#
# Coordination Sequence:
#
# PCOD9439682 Si02
#       6
#     8   8   8   4   8   4
#     4  11  23  40  60  88 121 157 197 243 295 351
#     4  11  23  40  60  88 121 157 197 243 295 351
#     4  11  22  39  62  89 119 156 198 245 293 348
#     4  10  23  40  62  88 118 154 197 242 291 348
#     4  11  22  39  62  89 119 156 198 245 293 348
#     4  10  23  40  62  88 118 154 197 242 291 348
#
# _framework density 23.301863000000001
#
# number of rings (size 3 to 8) (size 9 to 14) (size 15 to 20)
#    0.000    1.200    0.000    7.800    0.000    7.200 
#    0.000    4.000    0.000    0.000    0.000    0.000 
#    0.000    0.000    0.000    0.000    0.000    0.000 
#
# Total GULP energy -224116.327073 kJ/mol
# GULP energy per Si atom -5602.908177 kJ/mol
# Density = 2.324883 g / cm^3
# Si number density = 23.301863 Si / 1000 Ang^3
#
#
#
# Elastic Constant Matrix: (Units=GPa)
#
#
# Indices 1 2 3 4 5 6 
#
# 1 44.1068 -19.6173 37.7396 0.0000 0.0000 0.0000
# 2 -19.6173 72.4799 20.5508 0.0000 0.0000 0.0000
# 3 37.7396 20.5508 165.2445 0.0000 0.0000 0.0000
# 4 0.0000 0.0000 0.0000 26.7244 0.0000 0.0000
# 5 0.0000 0.0000 0.0000 0.0000 6.8635 0.0000
# 6 0.0000 0.0000 0.0000 0.0000 0.0000 34.6951
#
#
#
# Elastic Compliance Matrix: (Units=1/GPa)
#
#
# Indices 1 2 3 4 5 6 
#
# 1 0.036989 0.012860 -0.010047 0.000000 0.000000 0.000000
# 2 0.012860 0.018772 -0.005272 0.000000 0.000000 0.000000
# 3 -0.010047 -0.005272 0.009002 0.000000 0.000000 0.000000
# 4 0.000000 0.000000 0.000000 0.037419 0.000000 0.000000
# 5 0.000000 0.000000 0.000000 0.000000 0.145699 0.000000
# 6 0.000000 0.000000 0.000000 0.000000 0.000000 0.028823
#
#
# Mechanical properties :
#
#
# Convention : Reuss Voigt Hill
#
# Bulk Modulus (GPa) = 16.70979 39.90860 28.30920
# Shear Modulus (GPa) = 16.57995 29.86714 23.22354
#
# Velocity S-wave (km/s) = 2.67034 3.58404 3.16038
# Velocity P-wave (km/s) = 4.08586 5.85586 5.04902
#
# Compressibility (1/GPa) = 0.05984516
#
# Stress axis : x y z
#
# Youngs Moduli (GPa) = 27.03542 53.27003 111.08820
#
# Poissons Ratio (x) = -0.68505 1.11610
# Poissons Ratio (y) = -0.34767 0.58562
# Poissons Ratio (z) = 0.27163 0.28082
#
# Static dielectric constant tensor:
#      x y z
#    x 1.820460 0.000000 0.000000 
#    y 0.000000 1.935310 0.000000 
#    z 0.000000 0.000000 1.825540 
# 
# From -- ./inp_files/26547.got.cif
#   From: 2010.05.17/outbox.cif.g08.bks.cpg/sg57_14_cif.got.tgz:26547.got - 2010.06.03 13:58:18.
