data_PCOD9439444
_publ_section_title
;
Structure prediction by ZEFSAII (Michael W. Deem and Ramdas Pophale) SiO2 
 PCOD9439444
Probable space group: P B C M
;
_chemical_formula_sum "Si O2"
_cell_formula_units_Z 48
_cell_length_a 10.503406
_cell_length_b 11.485544
_cell_length_c 18.988217
_cell_angle_alpha 90.000000
_cell_angle_beta 90.000000
_cell_angle_gamma 90.000000
_cell_volume 2290.687834
_symmetry_space_group_name_H-M "P B C M"
_symmetry_group_IT_number 57
_symmetry_cell_setting 'orthorhombic'
loop_
_space_group_symop_operation_xyz
x,y,z
-x,-y,1/2+z
x,1/2-y,-z
-x,1/2+y,1/2-z
-x,-y,-z
x,y,1/2-z
-x,1/2+y,z
x,1/2-y,1/2+z
loop_
_atom_site_type_symbol
_atom_site_label
_atom_site_fract_x
_atom_site_fract_y
_atom_site_fract_z
Si Si1 0.122073 0.156013 0.670581
Si Si2 0.966950 0.827657 0.935947
Si Si3 0.269222 0.488243 0.573469
Si Si4 0.387238 0.202379 0.169031
Si Si5 0.779502 0.451555 0.575082
Si Si6 0.379709 0.734985 0.916012
O O1 0.081213 0.132798 0.750000
O O2 0.024690 0.238442 0.628766
O O3 0.254108 0.228517 0.670723
O O4 0.156471 0.039407 0.629056
O O5 0.101943 0.879721 0.957842
O O6 0.870287 0.931597 0.917358
O O7 0.912818 0.750000 0.000000
O O8 0.362752 0.410281 0.620362
O O9 0.290578 0.482741 0.488956
O O10 0.290407 0.622556 0.592494
O O11 0.421453 0.174851 0.250000
O O12 0.493869 0.277633 0.129768
O O13 0.687914 0.354664 0.607259
O O14 0.405511 0.750000 0.000000
#
# Coordination Sequence:
#
# PCOD9439444 Si02
#       6
#     8   8   8   8   8   8
#     4  10  24  42  61  92 129 169 213 260 321 387
#     4  11  21  39  72  93 126 167 213 263 319 383
#     4  10  22  40  65  96 126 165 213 265 318 376
#     4  10  24  43  64  89 126 174 214 257 323 385
#     4  11  23  38  67  98 127 164 215 268 320 375
#     4  10  24  38  62  98 130 158 219 269 312 370
#
# _framework density 20.954405000000001
#
# number of rings (size 3 to 8) (size 9 to 14) (size 15 to 20)
#    0.000    1.667    1.667    2.000    7.000    3.333 
#    0.000    0.000    0.000    0.000    0.000    0.000 
#    0.000    0.000    0.000    0.000    0.000    0.000 
#
# Total GULP energy -268072.207361 kJ/mol
# GULP energy per Si atom -5584.837653 kJ/mol
# Density = 2.090671 g / cm^3
# Si number density = 20.954405 Si / 1000 Ang^3
#
#
#
# Elastic Constant Matrix: (Units=GPa)
#
#
# Indices 1 2 3 4 5 6 
#
# 1 48.2404 4.0894 15.2509 0.0000 0.0000 0.0000
# 2 4.0894 79.0056 57.4156 0.0000 0.0000 0.0000
# 3 15.2509 57.4156 104.8302 0.0000 0.0000 0.0000
# 4 0.0000 0.0000 0.0000 13.6586 0.0000 0.0000
# 5 0.0000 0.0000 0.0000 0.0000 12.3601 0.0000
# 6 0.0000 0.0000 0.0000 0.0000 0.0000 22.3270
#
#
#
# Elastic Compliance Matrix: (Units=1/GPa)
#
#
# Indices 1 2 3 4 5 6 
#
# 1 0.021911 0.001964 -0.004263 0.000000 0.000000 0.000000
# 2 0.001964 0.021203 -0.011898 0.000000 0.000000 0.000000
# 3 -0.004263 -0.011898 0.016676 0.000000 0.000000 0.000000
# 4 0.000000 0.000000 0.000000 0.073214 0.000000 0.000000
# 5 0.000000 0.000000 0.000000 0.000000 0.080906 0.000000
# 6 0.000000 0.000000 0.000000 0.000000 0.000000 0.044789
#
#
# Mechanical properties :
#
#
# Convention : Reuss Voigt Hill
#
# Bulk Modulus (GPa) = 31.85276 42.84311 37.34793
# Shear Modulus (GPa) = 16.80343 20.02381 18.41362
#
# Velocity S-wave (km/s) = 2.83486 3.09461 2.96758
# Velocity P-wave (km/s) = 5.09404 5.76707 5.44097
#
# Compressibility (1/GPa) = 0.03139445
#
# Stress axis : x y z
#
# Youngs Moduli (GPa) = 45.63940 47.16408 59.96540
#
# Poissons Ratio (x) = -0.09264 0.25566
# Poissons Ratio (y) = -0.08965 0.71349
# Poissons Ratio (z) = 0.19458 0.56118
#
# Static dielectric constant tensor:
#      x y z
#    x 1.739240 0.000000 0.000000 
#    y 0.000000 1.756800 0.000000 
#    z 0.000000 0.000000 1.747140 
# 
# From -- ./inp_files/21801.got.cif
#   From: 2010.05.17/outbox.cif.g08.bks.cpg/sg57_11_cif.got.tgz:21801.got - 2010.06.03 13:58:18.
