data_PCOD9439465
_publ_section_title
;
Structure prediction by ZEFSAII (Michael W. Deem and Ramdas Pophale) SiO2 
 PCOD9439465
Probable space group: P B C M
;
_chemical_formula_sum "Si O2"
_cell_formula_units_Z 48
_cell_length_a 5.319757
_cell_length_b 18.511697
_cell_length_c 23.830395
_cell_angle_alpha 90.000000
_cell_angle_beta 90.000000
_cell_angle_gamma 90.000000
_cell_volume 2346.763197
_symmetry_space_group_name_H-M "P B C M"
_symmetry_group_IT_number 57
_symmetry_cell_setting 'orthorhombic'
loop_
_space_group_symop_operation_xyz
x,y,z
-x,-y,1/2+z
x,1/2-y,-z
-x,1/2+y,1/2-z
-x,-y,-z
x,y,1/2-z
-x,1/2+y,z
x,1/2-y,1/2+z
loop_
_atom_site_type_symbol
_atom_site_label
_atom_site_fract_x
_atom_site_fract_y
_atom_site_fract_z
Si Si1 0.161327 0.134460 0.369897
Si Si2 0.996513 0.900439 0.750000
Si Si3 0.756581 0.129877 0.564194
Si Si4 0.540542 0.490123 0.371263
Si Si5 0.508757 0.005286 0.250000
Si Si6 0.829056 0.046585 0.042051
Si Si7 0.269868 0.221797 0.563638
O O1 0.044668 0.141571 0.308036
O O2 0.378910 0.073880 0.365187
O O3 0.241160 0.209769 0.395820
O O4 0.974656 0.096239 0.413883
O O5 0.775701 0.962138 0.750000
O O6 0.272411 0.934768 0.750000
O O7 0.695288 0.100438 0.501545
O O8 0.519611 0.178682 0.580428
O O9 0.017813 0.172898 0.564784
O O10 0.759616 0.061599 0.606244
O O11 0.457453 0.465491 0.309559
O O12 0.341228 0.493298 0.421460
O O13 0.000000 0.000000 0.000000
O O14 0.298644 0.250000 0.500000
#
# Coordination Sequence:
#
# PCOD9439465 Si02
#       7
#     8   4   8   8   4   8   8
#     4  11  24  42  69  95 132 176 226 278 328 399
#     4  10  22  42  66  98 126 168 229 277 322 378
#     4  12  26  41  62  98 135 172 211 268 338 402
#     4  11  24  42  68  95 132 169 228 272 331 390
#     4  10  22  40  68  96 126 168 219 283 320 380
#     4  12  22  39  66 101 133 170 216 278 334 396
#     4  12  26  42  61  94 136 173 212 265 336 399
#
# _framework density 20.453703999999998
#
# number of rings (size 3 to 8) (size 9 to 14) (size 15 to 20)
#    0.000    0.667    5.000    3.000    2.333    0.000 
#    0.000    1.667    0.000    0.000    0.000    0.000 
#    0.000    0.000    0.000    0.000    0.000    0.000 
#
# Total GULP energy -268193.563008 kJ/mol
# GULP energy per Si atom -5587.365896 kJ/mol
# Density = 2.040715 g / cm^3
# Si number density = 20.453704 Si / 1000 Ang^3
#
#
#
# Elastic Constant Matrix: (Units=GPa)
#
#
# Indices 1 2 3 4 5 6 
#
# 1 71.4124 21.5665 8.5494 0.0000 0.0000 0.0000
# 2 21.5665 76.6138 32.2253 0.0000 0.0000 0.0000
# 3 8.5494 32.2253 152.5720 0.0000 0.0000 0.0000
# 4 0.0000 0.0000 0.0000 22.5653 0.0000 0.0000
# 5 0.0000 0.0000 0.0000 0.0000 -1.2939 0.0000
# 6 0.0000 0.0000 0.0000 0.0000 0.0000 34.7359
#
#
#
# Elastic Compliance Matrix: (Units=1/GPa)
#
#
# Indices 1 2 3 4 5 6 
#
# 1 0.015305 -0.004332 0.000057 0.000000 0.000000 0.000000
# 2 -0.004332 0.015552 -0.003042 0.000000 0.000000 0.000000
# 3 0.000057 -0.003042 0.007194 0.000000 0.000000 0.000000
# 4 0.000000 0.000000 0.000000 0.044316 0.000000 0.000000
# 5 0.000000 0.000000 0.000000 0.000000 -0.772851 0.000000
# 6 0.000000 0.000000 0.000000 0.000000 0.000000 0.028789
#
#
# Mechanical properties :
#
#
# Convention : Reuss Voigt Hill
#
# Bulk Modulus (GPa) = 42.70574 47.25339 44.97957
# Shear Modulus (GPa) = -7.82158 27.08526 9.63184
#
# Velocity S-wave (km/s) = -1.95764 3.64294 2.17240
# Velocity P-wave (km/s) = 3.97678 6.39120 5.32269
#
# Compressibility (1/GPa) = 0.02341606
#
# Stress axis : x y z
#
# Youngs Moduli (GPa) = 65.33951 64.30240 139.01325
#
# Poissons Ratio (x) = 0.27858 -0.00799
# Poissons Ratio (y) = 0.28308 0.42287
# Poissons Ratio (z) = -0.00375 0.19560
#
# Static dielectric constant tensor:
#      x y z
#    x 1.787810 0.000000 0.000000 
#    y 0.000000 1.764310 0.000000 
#    z 0.000000 0.000000 1.757820 
# 
# From -- ./inp_files/26259.got.cif
#   From: 2010.05.17/outbox.cif.g08.bks.cpg/sg57_14_cif.got.tgz:26259.got - 2010.06.03 13:58:18.
