data_PCOD9439904
_publ_section_title
;
Structure prediction by ZEFSAII (Michael W. Deem and Ramdas Pophale) SiO2 
 PCOD9439904
Probable space group: P B C M
;
_chemical_formula_sum "Si O2"
_cell_formula_units_Z 56
_cell_length_a 5.249551
_cell_length_b 15.963379
_cell_length_c 26.786750
_cell_angle_alpha 90.000000
_cell_angle_beta 90.000000
_cell_angle_gamma 90.000000
_cell_volume 2244.744977
_symmetry_space_group_name_H-M "P B C M"
_symmetry_group_IT_number 57
_symmetry_cell_setting 'orthorhombic'
loop_
_space_group_symop_operation_xyz
x,y,z
-x,-y,1/2+z
x,1/2-y,-z
-x,1/2+y,1/2-z
-x,-y,-z
x,y,1/2-z
-x,1/2+y,z
x,1/2-y,1/2+z
loop_
_atom_site_type_symbol
_atom_site_label
_atom_site_fract_x
_atom_site_fract_y
_atom_site_fract_z
Si Si1 0.808109 0.200175 0.308278
Si Si2 0.385761 0.476212 0.382126
Si Si3 0.049297 0.570112 0.457858
Si Si4 0.689432 0.359475 0.046759
Si Si5 0.311780 0.090923 0.190604
Si Si6 0.937088 0.668882 0.871547
Si Si7 0.328988 0.213269 0.053625
O O1 0.820889 0.218371 0.250000
O O2 0.035279 0.132511 0.317360
O O3 0.862137 0.287097 0.336005
O O4 0.534223 0.159787 0.318489
O O5 0.191250 0.541467 0.407724
O O6 0.492505 0.425250 0.430109
O O7 0.601953 0.518125 0.347702
O O8 0.241836 0.403756 0.350407
O O9 0.251249 0.625936 0.489311
O O10 0.000000 0.500000 0.500000
O O11 0.785623 0.619572 0.447455
O O12 0.593309 0.265567 0.056560
O O13 0.931255 0.374155 0.081062
O O14 0.327226 0.067111 0.250000
O O15 0.798362 0.746207 0.897799
O O16 0.229512 0.250000 0.000000
#
# Coordination Sequence:
#
# PCOD9439904 Si02
#       7
#     8   8   8   8   8   8   8
#     4  10  24  46  72 103 142 184 235 293 359 436
#     4  11  25  43  70 100 139 184 230 300 368 427
#     4  12  23  47  65  99 144 183 238 304 359 429
#     4  11  25  43  64  97 135 185 244 286 352 447
#     4  10  24  47  74 108 140 183 241 297 364 436
#     4  11  24  44  66 100 139 177 240 286 350 436
#     4  11  24  41  64  93 130 182 231 282 349 418
#
# _framework density 24.947156
#
# number of rings (size 3 to 8) (size 9 to 14) (size 15 to 20)
#    0.000    1.143    2.857    2.143    8.000    2.857 
#    0.000    0.714    0.000    0.000    0.000    0.000 
#    0.000    0.000    0.000    0.000    0.000    0.000 
#
# Total GULP energy -312921.065866 kJ/mol
# GULP energy per Si atom -5587.876176 kJ/mol
# Density = 2.489038 g / cm^3
# Si number density = 24.947156 Si / 1000 Ang^3
#
#
#
# Elastic Constant Matrix: (Units=GPa)
#
#
# Indices 1 2 3 4 5 6 
#
# 1 82.1461 19.1786 32.7249 0.0000 0.0000 0.0000
# 2 19.1786 73.5892 37.8176 0.0000 0.0000 0.0000
# 3 32.7249 37.8176 83.9358 0.0000 0.0000 0.0000
# 4 0.0000 0.0000 0.0000 29.2551 0.0000 0.0000
# 5 0.0000 0.0000 0.0000 0.0000 34.3159 0.0000
# 6 0.0000 0.0000 0.0000 0.0000 0.0000 37.7361
#
#
#
# Elastic Compliance Matrix: (Units=1/GPa)
#
#
# Indices 1 2 3 4 5 6 
#
# 1 0.014484 -0.001136 -0.005135 0.000000 0.000000 0.000000
# 2 -0.001136 0.017772 -0.007565 0.000000 0.000000 0.000000
# 3 -0.005135 -0.007565 0.017324 0.000000 0.000000 0.000000
# 4 0.000000 0.000000 0.000000 0.034182 0.000000 0.000000
# 5 0.000000 0.000000 0.000000 0.000000 0.029141 0.000000
# 6 0.000000 0.000000 0.000000 0.000000 0.000000 0.026500
#
#
# Mechanical properties :
#
#
# Convention : Reuss Voigt Hill
#
# Bulk Modulus (GPa) = 45.64232 46.56816 46.10524
# Shear Modulus (GPa) = 28.67316 30.25807 29.46562
#
# Velocity S-wave (km/s) = 3.39389 3.48643 3.44047
# Velocity P-wave (km/s) = 5.80460 5.90882 5.85694
#
# Compressibility (1/GPa) = 0.02190949
#
# Stress axis : x y z
#
# Youngs Moduli (GPa) = 69.03953 56.26695 57.72215
#
# Poissons Ratio (x) = 0.06391 0.29643
# Poissons Ratio (y) = 0.07841 0.43665
# Poissons Ratio (z) = 0.35455 0.42564
#
# Static dielectric constant tensor:
#      x y z
#    x 2.145440 0.000000 0.000000 
#    y 0.000000 2.113750 0.000000 
#    z 0.000000 0.000000 1.931430 
# 
# From -- ./inp_files/29137.got.cif
#   From: 2010.05.17/outbox.cif.g08.bks.cpg/sg57_15_cif.got.tgz:29137.got - 2010.06.03 13:58:18.
