data_PCOD9439052
_publ_section_title
;
Structure prediction by ZEFSAII (Michael W. Deem and Ramdas Pophale) SiO2 
 PCOD9439052
Probable space group: P B C M
;
_chemical_formula_sum "Si O2"
_cell_formula_units_Z 32
_cell_length_a 6.828486
_cell_length_b 34.347110
_cell_length_c 5.495222
_cell_angle_alpha 90.000000
_cell_angle_beta 90.000000
_cell_angle_gamma 90.000000
_cell_volume 1288.842553
_symmetry_space_group_name_H-M "P B C M"
_symmetry_group_IT_number 57
_symmetry_cell_setting 'orthorhombic'
loop_
_space_group_symop_operation_xyz
x,y,z
-x,-y,1/2+z
x,1/2-y,-z
-x,1/2+y,1/2-z
-x,-y,-z
x,y,1/2-z
-x,1/2+y,z
x,1/2-y,1/2+z
loop_
_atom_site_type_symbol
_atom_site_label
_atom_site_fract_x
_atom_site_fract_y
_atom_site_fract_z
Si Si1 0.861235 0.772202 0.750000
Si Si2 0.162868 0.635106 0.250000
Si Si3 0.387605 0.149457 0.250000
Si Si4 0.181197 0.463056 0.250000
Si Si5 0.296006 0.742193 0.750000
Si Si6 0.934371 0.048593 0.250000
Si Si7 0.839170 0.346707 0.250000
Si Si8 0.438945 0.107230 0.750000
O O1 0.818976 0.750000 0.500000
O O2 0.735118 0.811272 0.750000
O O3 0.102283 0.769991 0.750000
O O4 0.374853 0.655839 0.250000
O O5 0.184814 0.588640 0.250000
O O6 0.055612 0.646752 0.496566
O O7 0.358055 0.125463 0.499283
O O8 0.197421 0.509765 0.250000
O O9 0.379439 0.437905 0.250000
O O10 0.062209 0.452771 0.499607
O O11 0.403071 0.750000 0.500000
O O12 0.237291 0.697085 0.750000
O O13 0.665226 0.378881 0.250000
#
# Coordination Sequence:
#
# PCOD9439052 Si02
#       8
#     4   4   4   4   4   4   4   4
#     4  10  21  40  59  86 120 158 206 256 312 364
#     4  10  21  40  60  92 121 164 201 254 311 361
#     4  10  21  40  62  87 127 155 210 254 306 375
#     4  10  21  40  63  93 128 163 204 252 303 368
#     4  10  21  40  59  86 120 158 206 256 312 364
#     4  10  21  40  63  93 128 163 204 252 303 368
#     4  10  21  40  62  87 127 155 210 254 306 375
#     4  10  21  40  60  92 121 164 201 254 311 361
#
# _framework density 24.828476999999999
#
# number of rings (size 3 to 8) (size 9 to 14) (size 15 to 20)
#    0.000    2.000    0.000    3.000    0.000    0.000 
#   27.000   20.000    0.000    0.000    0.000    0.000 
#    0.000    0.000    0.000    0.000    0.000    0.000 
#
# Total GULP energy -178978.421642 kJ/mol
# GULP energy per Si atom -5593.075676 kJ/mol
# Density = 2.477197 g / cm^3
# Si number density = 24.828477 Si / 1000 Ang^3
#
#
#
# Elastic Constant Matrix: (Units=GPa)
#
#
# Indices 1 2 3 4 5 6 
#
# 1 105.8092 16.0975 7.5612 0.0000 0.0000 0.0000
# 2 16.0975 112.8461 50.6581 0.0000 0.0000 0.0000
# 3 7.5612 50.6581 277.7757 0.0000 0.0000 0.0000
# 4 0.0000 0.0000 0.0000 37.5155 0.0000 0.0000
# 5 0.0000 0.0000 0.0000 0.0000 -9.1683 0.0000
# 6 0.0000 0.0000 0.0000 0.0000 0.0000 42.3823
#
#
#
# Elastic Compliance Matrix: (Units=1/GPa)
#
#
# Indices 1 2 3 4 5 6 
#
# 1 0.009661 -0.001372 -0.000013 0.000000 0.000000 0.000000
# 2 -0.001372 0.009847 -0.001758 0.000000 0.000000 0.000000
# 3 -0.000013 -0.001758 0.003921 0.000000 0.000000 0.000000
# 4 0.000000 0.000000 0.000000 0.026656 0.000000 0.000000
# 5 0.000000 0.000000 0.000000 0.000000 -0.109071 0.000000
# 6 0.000000 0.000000 0.000000 0.000000 0.000000 0.023595
#
#
# Mechanical properties :
#
#
# Convention : Reuss Voigt Hill
#
# Bulk Modulus (GPa) = 58.33791 71.67386 65.00588
# Shear Modulus (GPa) = -213.75316 42.28686 -85.73315
#
# Velocity S-wave (km/s) = -9.28864 4.13141 -5.88261
# Velocity P-wave (km/s) = 9.56510 7.18946 4.46109
#
# Compressibility (1/GPa) = 0.01714151
#
# Stress axis : x y z
#
# Youngs Moduli (GPa) = 103.51248 101.55611 255.03353
#
# Poissons Ratio (x) = 0.13938 0.00323
# Poissons Ratio (y) = 0.14206 0.44845
# Poissons Ratio (z) = 0.00131 0.17858
#
# Static dielectric constant tensor:
#      x y z
#    x 1.946310 0.000000 0.000000 
#    y 0.000000 1.938610 0.000000 
#    z 0.000000 0.000000 2.057800 
# 
# From -- ./inp_files/208.got.cif
#   From: 2010.05.17/outbox.cif.g08.bks.cpg/sg57_1_cif.got.tgz:208.got - 2010.06.03 13:58:18.
