data_PCOD9439851
_publ_section_title
;
Structure prediction by ZEFSAII (Michael W. Deem and Ramdas Pophale) SiO2 
 PCOD9439851
Probable space group: P B C M
;
_chemical_formula_sum "Si O2"
_cell_formula_units_Z 36
_cell_length_a 7.582110
_cell_length_b 21.496275
_cell_length_c 10.337255
_cell_angle_alpha 90.000000
_cell_angle_beta 90.000000
_cell_angle_gamma 90.000000
_cell_volume 1684.839438
_symmetry_space_group_name_H-M "P B C M"
_symmetry_group_IT_number 57
_symmetry_cell_setting 'orthorhombic'
loop_
_space_group_symop_operation_xyz
x,y,z
-x,-y,1/2+z
x,1/2-y,-z
-x,1/2+y,1/2-z
-x,-y,-z
x,y,1/2-z
-x,1/2+y,z
x,1/2-y,1/2+z
loop_
_atom_site_type_symbol
_atom_site_label
_atom_site_fract_x
_atom_site_fract_y
_atom_site_fract_z
Si Si1 0.731194 0.058396 0.250000
Si Si2 0.696356 0.400625 0.458317
Si Si3 0.970287 0.821345 0.014308
Si Si4 0.377779 0.499879 0.750000
Si Si5 0.892812 0.894084 0.750000
Si Si6 0.412361 0.300189 0.109123
O O1 0.689675 0.091383 0.386751
O O2 0.944822 0.055621 0.250000
O O3 0.590902 0.002304 0.250000
O O4 0.876011 0.363746 0.428702
O O5 0.687221 0.464322 0.378197
O O6 0.533435 0.359584 0.412063
O O7 0.917046 0.851065 0.875833
O O8 0.033355 0.750000 0.000000
O O9 0.791825 0.818395 0.095843
O O10 0.289631 0.431707 0.750000
O O11 0.446364 0.272745 0.250000
O O12 0.451889 0.250000 0.000000
#
# Coordination Sequence:
#
# PCOD9439851 Si02
#       6
#     4   8   8   4   4   8
#     4  10  24  42  66  93 132 175 214 272 334 390
#     4  11  24  44  67 101 133 180 226 276 335 403
#     4  10  24  42  71  97 137 173 222 277 340 401
#     4  12  24  41  70  96 140 177 231 275 327 397
#     4  10  24  45  66 101 134 178 219 277 341 395
#     4  11  25  41  65  99 133 174 224 282 344 403
#
# _framework density 21.367018999999999
#
# number of rings (size 3 to 8) (size 9 to 14) (size 15 to 20)
#    0.000    1.333    1.111    2.667    9.333    5.333 
#    4.000    0.000    0.000    0.000    0.000    0.000 
#    0.000    0.000    0.000    0.000    0.000    0.000 
#
# Total GULP energy -201200.879583 kJ/mol
# GULP energy per Si atom -5588.913322 kJ/mol
# Density = 2.131839 g / cm^3
# Si number density = 21.367019 Si / 1000 Ang^3
#
#
#
# Elastic Constant Matrix: (Units=GPa)
#
#
# Indices 1 2 3 4 5 6 
#
# 1 25.8967 9.2791 7.5154 0.0000 0.0000 0.0000
# 2 9.2791 71.7747 26.1964 0.0000 0.0000 0.0000
# 3 7.5154 26.1964 135.6795 0.0000 0.0000 0.0000
# 4 0.0000 0.0000 0.0000 16.1320 0.0000 0.0000
# 5 0.0000 0.0000 0.0000 0.0000 -89.9222 0.0000
# 6 0.0000 0.0000 0.0000 0.0000 0.0000 44.0166
#
#
#
# Elastic Compliance Matrix: (Units=1/GPa)
#
#
# Indices 1 2 3 4 5 6 
#
# 1 0.040713 -0.004777 -0.001333 0.000000 0.000000 0.000000
# 2 -0.004777 0.015549 -0.002738 0.000000 0.000000 0.000000
# 3 -0.001333 -0.002738 0.007973 0.000000 0.000000 0.000000
# 4 0.000000 0.000000 0.000000 0.061989 0.000000 0.000000
# 5 0.000000 0.000000 0.000000 0.000000 -0.011121 0.000000
# 6 0.000000 0.000000 0.000000 0.000000 0.000000 0.022719
#
#
# Mechanical properties :
#
#
# Convention : Reuss Voigt Hill
#
# Bulk Modulus (GPa) = 21.48665 35.48139 28.48402
# Shear Modulus (GPa) = 29.23462 6.73596 17.98529
#
# Velocity S-wave (km/s) = 3.70295 1.77746 2.90441
# Velocity P-wave (km/s) = 5.32544 4.56664 4.96057
#
# Compressibility (1/GPa) = 0.04654052
#
# Stress axis : x y z
#
# Youngs Moduli (GPa) = 24.56197 64.31195 125.42812
#
# Poissons Ratio (x) = 0.30722 0.16717
# Poissons Ratio (y) = 0.11733 0.34337
# Poissons Ratio (z) = 0.03274 0.17606
#
# Static dielectric constant tensor:
#      x y z
#    x 1.763410 0.000000 0.000000 
#    y 0.000000 1.759600 0.000000 
#    z 0.000000 0.000000 1.848450 
# 
# From -- ./inp_files/1368.got.cif
#   From: 2010.05.17/outbox.cif.g08.bks.cpg/sg57_1_cif.got.tgz:1368.got - 2010.06.03 13:58:18.
