data_PCOD9439379
_publ_section_title
;
Structure prediction by ZEFSAII (Michael W. Deem and Ramdas Pophale) SiO2 
 PCOD9439379
Probable space group: P B C M
;
_chemical_formula_sum "Si O2"
_cell_formula_units_Z 60
_cell_length_a 22.989200
_cell_length_b 5.531085
_cell_length_c 20.712966
_cell_angle_alpha 90.000000
_cell_angle_beta 90.000000
_cell_angle_gamma 90.000000
_cell_volume 2633.761734
_symmetry_space_group_name_H-M "P B C M"
_symmetry_group_IT_number 57
_symmetry_cell_setting 'orthorhombic'
loop_
_space_group_symop_operation_xyz
x,y,z
-x,-y,1/2+z
x,1/2-y,-z
-x,1/2+y,1/2-z
-x,-y,-z
x,y,1/2-z
-x,1/2+y,z
x,1/2-y,1/2+z
loop_
_atom_site_type_symbol
_atom_site_label
_atom_site_fract_x
_atom_site_fract_y
_atom_site_fract_z
Si Si1 0.351527 0.895070 0.677621
Si Si2 0.820318 0.860984 0.932150
Si Si3 0.973332 0.481167 0.826886
Si Si4 0.464369 0.485742 0.398050
Si Si5 0.393989 0.250000 0.500000
Si Si6 0.692923 0.422410 0.060955
Si Si7 0.228042 0.447146 0.319107
Si Si8 0.862367 0.176888 0.822445
O O1 0.357687 0.795821 0.750000
O O2 0.327693 0.705053 0.625749
O O3 0.296961 0.077463 0.679613
O O4 0.411999 0.001272 0.653255
O O5 0.797728 0.656644 0.883831
O O6 0.760807 0.010858 0.944523
O O7 0.863651 0.010463 0.885644
O O8 0.841419 0.750000 0.000000
O O9 0.984746 0.497609 0.750000
O O10 0.906461 0.400246 0.833316
O O11 0.991103 0.745663 0.852372
O O12 0.499388 0.736424 0.391420
O O13 0.433962 0.453908 0.468048
O O14 0.349831 0.351665 0.552739
O O15 0.680886 0.250000 0.000000
O O16 0.207526 0.340221 0.250000
O O17 0.203000 0.719543 0.317915
O O18 0.877866 0.080217 0.750000
#
# Coordination Sequence:
#
# PCOD9439379 Si02
#       8
#     8   8   8   8   4   8   8   8
#     4  11  24  45  69  98 135 178 221 281 360 430
#     4  12  24  36  62  98 138 177 222 281 349 418
#     4   9  19  36  62  97 135 182 237 290 341 394
#     4  12  27  47  72 102 135 177 229 283 339 415
#     4  12  24  44  72 102 130 180 234 298 354 404
#     4  12  23  42  69  99 137 177 230 288 351 421
#     4  10  22  41  64  95 130 170 223 278 347 419
#     4  10  22  39  64  96 139 180 223 289 347 411
#
# _framework density 22.781106000000001
#
# number of rings (size 3 to 8) (size 9 to 14) (size 15 to 20)
#    0.000    1.067    3.333    3.200    1.867    1.067 
#    0.000    3.333    0.000    0.800    0.000    0.000 
#    0.000    0.000    0.000    0.000    0.000    0.000 
#
# Total GULP energy -334969.551683 kJ/mol
# GULP energy per Si atom -5582.825861 kJ/mol
# Density = 2.272925 g / cm^3
# Si number density = 22.781106 Si / 1000 Ang^3
#
#
#
# Elastic Constant Matrix: (Units=GPa)
#
#
# Indices 1 2 3 4 5 6 
#
# 1 109.2970 30.3741 18.2396 0.0000 0.0000 0.0000
# 2 30.3741 72.1283 28.9591 0.0000 0.0000 0.0000
# 3 18.2396 28.9591 145.3037 0.0000 0.0000 0.0000
# 4 0.0000 0.0000 0.0000 25.7487 0.0000 0.0000
# 5 0.0000 0.0000 0.0000 0.0000-2347.1953 0.0000
# 6 0.0000 0.0000 0.0000 0.0000 0.0000 42.1313
#
#
#
# Elastic Compliance Matrix: (Units=1/GPa)
#
#
# Indices 1 2 3 4 5 6 
#
# 1 0.010391 -0.004187 -0.000470 0.000000 0.000000 0.000000
# 2 -0.004187 0.016757 -0.002814 0.000000 0.000000 0.000000
# 3 -0.000470 -0.002814 0.007502 0.000000 0.000000 0.000000
# 4 0.000000 0.000000 0.000000 0.038837 0.000000 0.000000
# 5 0.000000 0.000000 0.000000 0.000000 -0.000426 0.000000
# 6 0.000000 0.000000 0.000000 0.000000 0.000000 0.023735
#
#
# Mechanical properties :
#
#
# Convention : Reuss Voigt Hill
#
# Bulk Modulus (GPa) = 50.74040 53.54162 52.14101
# Shear Modulus (GPa) = 42.26218 -439.25265 -198.49523
#
# Velocity S-wave (km/s) = 4.31181 -13.90083 -9.34455
# Velocity P-wave (km/s) = 6.86369 15.30001 9.66903
#
# Compressibility (1/GPa) = 0.01970816
#
# Stress axis : x y z
#
# Youngs Moduli (GPa) = 96.23274 59.67524 133.29816
#
# Poissons Ratio (x) = 0.24988 0.06263
# Poissons Ratio (y) = 0.40296 0.37512
# Poissons Ratio (z) = 0.04522 0.16793
#
# Static dielectric constant tensor:
#      x y z
#    x 1.881470 0.000000 0.000000 
#    y 0.000000 1.954640 0.000000 
#    z 0.000000 0.000000 1.872900 
# 
# From -- ./inp_files/25870.got.cif
#   From: 2010.05.17/outbox.cif.g08.bks.cpg/sg57_13_cif.got.tgz:25870.got - 2010.06.03 13:58:18.
