data_PCOD9439400
_publ_section_title
;
Structure prediction by ZEFSAII (Michael W. Deem and Ramdas Pophale) SiO2 
 PCOD9439400
Probable space group: P B C M
;
_chemical_formula_sum "Si O2"
_cell_formula_units_Z 64
_cell_length_a 17.851139
_cell_length_b 11.784068
_cell_length_c 15.228053
_cell_angle_alpha 90.000000
_cell_angle_beta 90.000000
_cell_angle_gamma 90.000000
_cell_volume 3203.358547
_symmetry_space_group_name_H-M "P B C M"
_symmetry_group_IT_number 57
_symmetry_cell_setting 'orthorhombic'
loop_
_space_group_symop_operation_xyz
x,y,z
-x,-y,1/2+z
x,1/2-y,-z
-x,1/2+y,1/2-z
-x,-y,-z
x,y,1/2-z
-x,1/2+y,z
x,1/2-y,1/2+z
loop_
_atom_site_type_symbol
_atom_site_label
_atom_site_fract_x
_atom_site_fract_y
_atom_site_fract_z
Si Si1 0.211788 0.762296 0.846310
Si Si2 0.153525 0.003438 0.896805
Si Si3 0.157527 0.109857 0.149743
Si Si4 0.282974 0.116133 0.493470
Si Si5 0.609653 0.248154 0.354620
Si Si6 0.952026 0.696714 0.650802
Si Si7 0.420523 0.561532 0.998477
Si Si8 0.901668 0.105075 0.571465
O O1 0.191325 0.717187 0.750000
O O2 0.186096 0.892097 0.851711
O O3 0.300166 0.753095 0.857111
O O4 0.168693 0.687582 0.916592
O O5 0.097821 0.083730 0.845127
O O6 0.105240 0.956418 0.978806
O O7 0.223829 0.077311 0.931653
O O8 0.174846 0.137729 0.250000
O O9 0.233233 0.099400 0.094310
O O10 0.103134 0.207531 0.113442
O O11 0.110556 0.994801 0.141612
O O12 0.302484 0.250000 0.500000
O O13 0.353543 0.031390 0.496025
O O14 0.587839 0.247289 0.250000
O O15 0.584792 0.357285 0.412262
O O16 0.585682 0.139938 0.413881
O O17 0.975310 0.730089 0.750000
O O18 0.023844 0.673300 0.591955
O O19 0.500000 0.500000 0.000000
#
# Coordination Sequence:
#
# PCOD9439400 Si02
#       8
#     8   8   8   8   8   8   8   8
#     4  11  22  40  66  93 120 163 216 268 322 378
#     4  11  22  40  61  88 120 165 214 261 314 389
#     4  10  22  40  61  86 121 167 218 268 321 388
#     4  11  22  42  66  91 130 165 218 262 319 394
#     4  10  23  45  72 102 139 176 224 278 325 393
#     4  11  23  39  55  83 125 166 213 268 328 383
#     4  11  25  43  74 105 138 178 217 265 341 401
#     4  11  24  37  60  86 122 161 215 273 327 377
#
# _framework density 19.979030999999999
#
# number of rings (size 3 to 8) (size 9 to 14) (size 15 to 20)
#    0.000    1.250    2.500    3.750    5.250    2.000 
#    4.500    0.625    0.000    0.000    0.000    0.000 
#    0.000    0.000    0.000    0.000    0.000    0.000 
#
# Total GULP energy -357614.299098 kJ/mol
# GULP energy per Si atom -5587.723423 kJ/mol
# Density = 1.993356 g / cm^3
# Si number density = 19.979031 Si / 1000 Ang^3
#
#
#
# Elastic Constant Matrix: (Units=GPa)
#
#
# Indices 1 2 3 4 5 6 
#
# 1 109.1731 37.9378 45.2030 0.0000 0.0000 0.0000
# 2 37.9378 104.2380 37.1696 0.0000 0.0000 0.0000
# 3 45.2030 37.1696 108.2973 0.0000 0.0000 0.0000
# 4 0.0000 0.0000 0.0000 23.9122 0.0000 0.0000
# 5 0.0000 0.0000 0.0000 0.0000 -20.8990 0.0000
# 6 0.0000 0.0000 0.0000 0.0000 0.0000 22.5252
#
#
#
# Elastic Compliance Matrix: (Units=1/GPa)
#
#
# Indices 1 2 3 4 5 6 
#
# 1 0.011791 -0.002890 -0.003930 0.000000 0.000000 0.000000
# 2 -0.002890 0.011640 -0.002789 0.000000 0.000000 0.000000
# 3 -0.003930 -0.002789 0.011831 0.000000 0.000000 0.000000
# 4 0.000000 0.000000 0.000000 0.041820 0.000000 0.000000
# 5 0.000000 0.000000 0.000000 0.000000 -0.047849 0.000000
# 6 0.000000 0.000000 0.000000 0.000000 0.000000 0.044395
#
#
# Mechanical properties :
#
#
# Convention : Reuss Voigt Hill
#
# Bulk Modulus (GPa) = 62.32403 62.48101 62.40252
# Shear Modulus (GPa) = 50.92047 18.53422 34.72735
#
# Velocity S-wave (km/s) = 5.05394 3.04909 4.17368
# Velocity P-wave (km/s) = 8.08201 6.61341 7.38431
#
# Compressibility (1/GPa) = 0.01604517
#
# Stress axis : x y z
#
# Youngs Moduli (GPa) = 84.80913 85.91287 84.52256
#
# Poissons Ratio (x) = 0.24831 0.33214
# Poissons Ratio (y) = 0.24512 0.23570
# Poissons Ratio (z) = 0.33327 0.23958
#
# Static dielectric constant tensor:
#      x y z
#    x 1.653490 0.000000 0.000000 
#    y 0.000000 1.724690 0.000000 
#    z 0.000000 0.000000 1.753940 
# 
# From -- ./inp_files/19115.got.cif
#   From: 2010.05.17/outbox.cif.g08.bks.cpg/sg57_10_cif.got.tgz:19115.got - 2010.06.03 13:58:18.
