data_PCOD9439288
_publ_section_title
;
Structure prediction by ZEFSAII (Michael W. Deem and Ramdas Pophale) SiO2 
 PCOD9439288
Probable space group: P B C M
;
_chemical_formula_sum "Si O2"
_cell_formula_units_Z 48
_cell_length_a 9.258331
_cell_length_b 32.271405
_cell_length_c 8.865344
_cell_angle_alpha 90.000000
_cell_angle_beta 90.000000
_cell_angle_gamma 90.000000
_cell_volume 2648.781712
_symmetry_space_group_name_H-M "P B C M"
_symmetry_group_IT_number 57
_symmetry_cell_setting 'orthorhombic'
loop_
_space_group_symop_operation_xyz
x,y,z
-x,-y,1/2+z
x,1/2-y,-z
-x,1/2+y,1/2-z
-x,-y,-z
x,y,1/2-z
-x,1/2+y,z
x,1/2-y,1/2+z
loop_
_atom_site_type_symbol
_atom_site_label
_atom_site_fract_x
_atom_site_fract_y
_atom_site_fract_z
Si Si1 0.902879 0.618589 0.433843
Si Si2 0.914814 0.461727 0.569158
Si Si3 0.426190 0.293096 0.575115
Si Si4 0.417378 0.119325 0.569200
Si Si5 0.925932 0.708258 0.077474
Si Si6 0.421843 0.540284 0.432090
O O1 0.885247 0.620084 0.250000
O O2 0.746083 0.613383 0.507876
O O3 0.966091 0.663096 0.484122
O O4 0.006335 0.580884 0.473900
O O5 0.922195 0.464817 0.750000
O O6 0.747093 0.461908 0.527090
O O7 0.000000 0.500000 0.500000
O O8 0.475578 0.250000 0.500000
O O9 0.469831 0.295308 0.750000
O O10 0.467024 0.335252 0.488933
O O11 0.249968 0.291858 0.572295
O O12 0.419016 0.118050 0.750000
O O13 0.510168 0.082103 0.499510
O O14 0.971643 0.710078 0.250000
O O15 0.977398 0.750000 0.000000
O O16 0.500000 0.500000 0.500000
O O17 0.436092 0.540510 0.250000
#
# Coordination Sequence:
#
# PCOD9439288 Si02
#       6
#     8   8   8   8   8   8
#     4   9  18  34  53  75 104 138 173 215 262 310
#     4  10  22  38  57  78 102 133 171 213 263 318
#     4   9  16  28  47  74 107 142 178 221 265 308
#     4  11  21  33  52  80 110 143 180 219 262 313
#     4   8  14  24  42  68  99 131 164 202 248 294
#     4  11  23  39  57  79 105 137 175 218 267 321
#
# _framework density 18.12154
#
# number of rings (size 3 to 8) (size 9 to 14) (size 15 to 20)
#    0.000    2.333    0.000    4.500    0.000    8.667 
#    0.000    0.000    0.000    1.000    0.000    2.333 
#    0.000    0.000    0.000    0.000    0.000    0.000 
#
# Total GULP energy -267745.019772 kJ/mol
# GULP energy per Si atom -5578.021245 kJ/mol
# Density = 1.808029 g / cm^3
# Si number density = 18.121540 Si / 1000 Ang^3
#
#
#
# Elastic Constant Matrix: (Units=GPa)
#
#
# Indices 1 2 3 4 5 6 
#
# 1 83.5201 90.7834 44.0729 0.0000 0.0000 0.0000
# 2 90.7834 226.3895 74.7184 0.0000 0.0000 0.0000
# 3 44.0729 74.7184 81.6361 0.0000 0.0000 0.0000
# 4 0.0000 0.0000 0.0000 38.0238 0.0000 0.0000
# 5 0.0000 0.0000 0.0000 0.0000 17.7228 0.0000
# 6 0.0000 0.0000 0.0000 0.0000 0.0000 25.1195
#
#
#
# Elastic Compliance Matrix: (Units=1/GPa)
#
#
# Indices 1 2 3 4 5 6 
#
# 1 0.022925 -0.007319 -0.005677 0.000000 0.000000 0.000000
# 2 -0.007319 0.008666 -0.003980 0.000000 0.000000 0.000000
# 3 -0.005677 -0.003980 0.018957 0.000000 0.000000 0.000000
# 4 0.000000 0.000000 0.000000 0.026299 0.000000 0.000000
# 5 0.000000 0.000000 0.000000 0.000000 0.056424 0.000000
# 6 0.000000 0.000000 0.000000 0.000000 0.000000 0.039810
#
#
# Mechanical properties :
#
#
# Convention : Reuss Voigt Hill
#
# Bulk Modulus (GPa) = 60.26067 90.07722 75.16895
# Shear Modulus (GPa) = 23.52207 28.30461 25.91334
#
# Velocity S-wave (km/s) = 3.60671 3.95642 3.78560
# Velocity P-wave (km/s) = 7.11831 8.40751 7.78962
#
# Compressibility (1/GPa) = 0.01659457
#
# Stress axis : x y z
#
# Youngs Moduli (GPa) = 43.62090 115.39646 52.74987
#
# Poissons Ratio (x) = 0.84460 0.29949
# Poissons Ratio (y) = 0.31927 0.20995
# Poissons Ratio (z) = 0.24766 0.45929
#
# Static dielectric constant tensor:
#      x y z
#    x 1.604800 0.000000 0.000000 
#    y 0.000000 1.629820 0.000000 
#    z 0.000000 0.000000 1.616400 
# 
# From -- ./inp_files/2036.got.cif
#   From: 2010.05.17/outbox.cif.g08.bks.cpg/sg57_2_cif.got.tgz:2036.got - 2010.06.03 13:58:18.
