data_PCOD9439513
_publ_section_title
;
Structure prediction by ZEFSAII (Michael W. Deem and Ramdas Pophale) SiO2 
 PCOD9439513
Probable space group: P B C M
;
_chemical_formula_sum "Si O2"
_cell_formula_units_Z 64
_cell_length_a 9.760322
_cell_length_b 13.385279
_cell_length_c 23.647784
_cell_angle_alpha 90.000000
_cell_angle_beta 90.000000
_cell_angle_gamma 90.000000
_cell_volume 3089.456064
_symmetry_space_group_name_H-M "P B C M"
_symmetry_group_IT_number 57
_symmetry_cell_setting 'orthorhombic'
loop_
_space_group_symop_operation_xyz
x,y,z
-x,-y,1/2+z
x,1/2-y,-z
-x,1/2+y,1/2-z
-x,-y,-z
x,y,1/2-z
-x,1/2+y,z
x,1/2-y,1/2+z
loop_
_atom_site_type_symbol
_atom_site_label
_atom_site_fract_x
_atom_site_fract_y
_atom_site_fract_z
Si Si1 0.779092 0.931407 0.995219
Si Si2 0.827845 0.531233 0.813417
Si Si3 0.363589 0.500945 0.616730
Si Si4 0.537377 0.813837 0.816715
Si Si5 0.623000 0.635550 0.603489
Si Si6 0.790074 0.198957 0.313603
Si Si7 0.074907 0.866180 0.497955
Si Si8 0.092824 0.617346 0.632957
O O1 0.700342 0.868236 0.043223
O O2 0.922940 0.880416 0.976719
O O3 0.683912 0.946340 0.940726
O O4 0.821926 0.044619 0.017058
O O5 0.782306 0.555308 0.750000
O O6 0.714850 0.565557 0.857071
O O7 0.843862 0.412854 0.817658
O O8 0.969456 0.584105 0.828002
O O9 0.424689 0.423987 0.661767
O O10 0.474077 0.584674 0.599642
O O11 0.229001 0.552843 0.642174
O O12 0.572969 0.798762 0.750000
O O13 0.607487 0.737580 0.860945
O O14 0.373375 0.800962 0.821608
O O15 0.816541 0.237236 0.250000
O O16 0.866064 0.269025 0.356957
O O17 0.120709 0.750000 0.500000
O O18 0.051907 0.893128 0.432098
#
# Coordination Sequence:
#
# PCOD9439513 Si02
#       8
#     8   8   8   8   8   8   8   8
#     4  10  24  43  64 100 134 175 224 275 336 392
#     4  11  24  41  66  97 131 175 220 275 337 397
#     4  11  25  43  69  97 136 173 228 275 335 396
#     4  11  25  42  68 102 134 176 223 274 341 405
#     4  12  23  44  66  97 135 177 221 281 330 401
#     4  10  22  41  66  95 131 174 219 267 335 406
#     4  10  23  40  66  97 132 176 217 272 338 398
#     4  11  23  43  66  98 132 173 220 279 334 395
#
# _framework density 20.715620999999999
#
# number of rings (size 3 to 8) (size 9 to 14) (size 15 to 20)
#    0.000    1.250    3.750    1.125    3.500    2.500 
#    0.000    1.250    0.000    0.000    0.000    0.000 
#    0.000    0.000    0.000    0.000    0.000    0.000 
#
# Total GULP energy -357561.377967 kJ/mol
# GULP energy per Si atom -5586.896531 kJ/mol
# Density = 2.066847 g / cm^3
# Si number density = 20.715621 Si / 1000 Ang^3
#
#
#
# Elastic Constant Matrix: (Units=GPa)
#
#
# Indices 1 2 3 4 5 6 
#
# 1 48.1600 -4.8109 7.9052 0.0000 0.0000 0.0000
# 2 -4.8109 49.7034 3.4111 0.0000 0.0000 0.0000
# 3 7.9052 3.4111 39.6010 0.0000 0.0000 0.0000
# 4 0.0000 0.0000 0.0000 27.6456 0.0000 0.0000
# 5 0.0000 0.0000 0.0000 0.0000 18.3546 0.0000
# 6 0.0000 0.0000 0.0000 0.0000 0.0000 28.5026
#
#
#
# Elastic Compliance Matrix: (Units=1/GPa)
#
#
# Indices 1 2 3 4 5 6 
#
# 1 0.021753 0.002418 -0.004551 0.000000 0.000000 0.000000
# 2 0.002418 0.020508 -0.002249 0.000000 0.000000 0.000000
# 3 -0.004551 -0.002249 0.026354 0.000000 0.000000 0.000000
# 4 0.000000 0.000000 0.000000 0.036172 0.000000 0.000000
# 5 0.000000 0.000000 0.000000 0.000000 0.054482 0.000000
# 6 0.000000 0.000000 0.000000 0.000000 0.000000 0.035085
#
#
# Mechanical properties :
#
#
# Convention : Reuss Voigt Hill
#
# Bulk Modulus (GPa) = 16.70828 16.71947 16.71387
# Shear Modulus (GPa) = 22.41478 23.63116 23.02297
#
# Velocity S-wave (km/s) = 3.29298 3.38115 3.33736
# Velocity P-wave (km/s) = 4.74777 4.83026 4.78919
#
# Compressibility (1/GPa) = 0.05985058
#
# Stress axis : x y z
#
# Youngs Moduli (GPa) = 45.97156 48.76208 37.94491
#
# Poissons Ratio (x) = -0.11790 0.17267
# Poissons Ratio (y) = -0.11115 0.08534
# Poissons Ratio (z) = 0.20919 0.10967
#
# Static dielectric constant tensor:
#      x y z
#    x 1.718410 0.000000 0.000000 
#    y 0.000000 1.758300 0.000000 
#    z 0.000000 0.000000 1.750090 
# 
# From -- ./inp_files/26900.got.cif
#   From: 2010.05.17/outbox.cif.g08.bks.cpg/sg57_14_cif.got.tgz:26900.got - 2010.06.03 13:58:18.
