data_PCOD9439891
_publ_section_title
;
Structure prediction by ZEFSAII (Michael W. Deem and Ramdas Pophale) SiO2 
 PCOD9439891
Probable space group: P B C M
;
_chemical_formula_sum "Si O2"
_cell_formula_units_Z 40
_cell_length_a 13.006059
_cell_length_b 14.751323
_cell_length_c 10.138901
_cell_angle_alpha 90.000000
_cell_angle_beta 90.000000
_cell_angle_gamma 90.000000
_cell_volume 1945.214843
_symmetry_space_group_name_H-M "P B C M"
_symmetry_group_IT_number 57
_symmetry_cell_setting 'orthorhombic'
loop_
_space_group_symop_operation_xyz
x,y,z
-x,-y,1/2+z
x,1/2-y,-z
-x,1/2+y,1/2-z
-x,-y,-z
x,y,1/2-z
-x,1/2+y,z
x,1/2-y,1/2+z
loop_
_atom_site_type_symbol
_atom_site_label
_atom_site_fract_x
_atom_site_fract_y
_atom_site_fract_z
Si Si1 0.563301 0.942917 0.250000
Si Si2 0.324889 0.143718 0.996759
Si Si3 0.100530 0.102511 0.904680
Si Si4 0.547279 0.878831 0.750000
Si Si5 0.086212 0.616064 0.402491
Si Si6 0.401560 0.705752 0.750000
Si Si7 0.738768 0.250000 0.000000
O O1 0.624980 0.908252 0.375375
O O2 0.454232 0.892068 0.250000
O O3 0.544645 0.049250 0.250000
O O4 0.379106 0.106369 0.126073
O O5 0.349991 0.250000 0.000000
O O6 0.203356 0.134170 0.978116
O O7 0.097712 0.131460 0.750000
O O8 0.102051 0.992618 0.904582
O O9 0.003485 0.134414 0.991054
O O10 0.493396 0.780307 0.750000
O O11 0.060524 0.640810 0.250000
O O12 0.187153 0.669858 0.448155
O O13 0.332806 0.719185 0.620544
#
# Coordination Sequence:
#
# PCOD9439891 Si02
#       7
#     4   8   8   4   8   4   4
#     4  12  26  48  71  98 136 180 233 282 337 403
#     4  12  24  46  68 103 138 176 226 284 339 406
#     4  10  24  44  74  96 136 175 222 276 339 403
#     4  12  28  44  73 100 136 182 233 280 341 401
#     4  10  24  47  66 102 133 174 225 277 329 409
#     4  12  26  46  66 100 134 180 228 286 330 402
#     4  12  26  42  70  94 140 174 222 276 338 396
#
# _framework density 20.563282000000001
#
# number of rings (size 3 to 8) (size 9 to 14) (size 15 to 20)
#    0.000    0.800    4.000    1.800    9.800    0.000 
#    0.000    0.000    0.000    0.000    0.000    0.000 
#    0.000    0.000    0.000    0.000    0.000    0.000 
#
# Total GULP energy -223753.193907 kJ/mol
# GULP energy per Si atom -5593.829848 kJ/mol
# Density = 2.051648 g / cm^3
# Si number density = 20.563282 Si / 1000 Ang^3
#
#
#
# Elastic Constant Matrix: (Units=GPa)
#
#
# Indices 1 2 3 4 5 6 
#
# 1 81.4718 -11.7509 31.9606 0.0000 0.0000 0.0000
# 2 -11.7509 35.3725 -3.6552 0.0000 0.0000 0.0000
# 3 31.9606 -3.6552 119.1203 0.0000 0.0000 0.0000
# 4 0.0000 0.0000 0.0000 24.0276 0.0000 0.0000
# 5 0.0000 0.0000 0.0000 0.0000 66.7088 0.0000
# 6 0.0000 0.0000 0.0000 0.0000 0.0000 14.5249
#
#
#
# Elastic Compliance Matrix: (Units=1/GPa)
#
#
# Indices 1 2 3 4 5 6 
#
# 1 0.014366 0.004388 -0.003720 0.000000 0.000000 0.000000
# 2 0.004388 0.029701 -0.000266 0.000000 0.000000 0.000000
# 3 -0.003720 -0.000266 0.009385 0.000000 0.000000 0.000000
# 4 0.000000 0.000000 0.000000 0.041619 0.000000 0.000000
# 5 0.000000 0.000000 0.000000 0.000000 0.014991 0.000000
# 6 0.000000 0.000000 0.000000 0.000000 0.000000 0.068847
#
#
# Mechanical properties :
#
#
# Convention : Reuss Voigt Hill
#
# Bulk Modulus (GPa) = 18.43096 29.89706 24.16401
# Shear Modulus (GPa) = 25.48551 35.67958 30.58255
#
# Velocity S-wave (km/s) = 3.52429 4.16999 3.86066
# Velocity P-wave (km/s) = 5.05404 6.14456 5.62579
#
# Compressibility (1/GPa) = 0.05425654
#
# Stress axis : x y z
#
# Youngs Moduli (GPa) = 69.60687 33.66909 106.55536
#
# Poissons Ratio (x) = -0.14775 0.39638
# Poissons Ratio (y) = -0.30545 0.02834
# Poissons Ratio (z) = 0.25893 0.00896
#
# Static dielectric constant tensor:
#      x y z
#    x 1.697440 0.000000 0.000000 
#    y 0.000000 1.723010 0.000000 
#    z 0.000000 0.000000 1.703340 
# 
# From -- ./inp_files/2750.got.cif
#   From: 2010.05.17/outbox.cif.g08.bks.cpg/sg57_2_cif.got.tgz:2750.got - 2010.06.03 13:58:18.
