data_PCOD9439886
_publ_section_title
;
Structure prediction by ZEFSAII (Michael W. Deem and Ramdas Pophale) SiO2 
 PCOD9439886
Probable space group: P B C M
;
_chemical_formula_sum "Si O2"
_cell_formula_units_Z 48
_cell_length_a 9.465962
_cell_length_b 10.162846
_cell_length_c 23.738566
_cell_angle_alpha 90.000000
_cell_angle_beta 90.000000
_cell_angle_gamma 90.000000
_cell_volume 2283.676495
_symmetry_space_group_name_H-M "P B C M"
_symmetry_group_IT_number 57
_symmetry_cell_setting 'orthorhombic'
loop_
_space_group_symop_operation_xyz
x,y,z
-x,-y,1/2+z
x,1/2-y,-z
-x,1/2+y,1/2-z
-x,-y,-z
x,y,1/2-z
-x,1/2+y,z
x,1/2-y,1/2+z
loop_
_atom_site_type_symbol
_atom_site_label
_atom_site_fract_x
_atom_site_fract_y
_atom_site_fract_z
Si Si1 0.878413 0.994627 0.686206
Si Si2 0.542248 0.843738 0.364809
Si Si3 0.810484 0.512800 0.635223
Si Si4 0.132556 0.404009 0.009057
Si Si5 0.656249 0.579849 0.092407
Si Si6 0.280993 0.768153 0.810796
O O1 0.872439 0.940752 0.750000
O O2 0.819926 0.143032 0.687592
O O3 0.037939 0.005129 0.664438
O O4 0.775098 0.921898 0.642262
O O5 0.685114 0.901369 0.338274
O O6 0.580947 0.721442 0.405111
O O7 0.438201 0.784639 0.318318
O O8 0.454588 0.962183 0.394751
O O9 0.822673 0.570039 0.572913
O O10 0.754797 0.364129 0.638401
O O11 0.096010 0.250000 0.000000
O O12 0.257387 0.437577 0.965236
O O13 0.000000 0.500000 0.000000
O O14 0.263611 0.835417 0.750000
#
# Coordination Sequence:
#
# PCOD9439886 Si02
#       6
#     8   8   8   8   8   8
#     4  10  24  44  72 102 139 182 234 298 353 421
#     4  11  24  45  71  98 141 182 233 286 347 426
#     4  12  24  43  71 102 139 180 244 285 357 419
#     4  12  27  46  75 104 142 187 233 297 356 422
#     4  11  24  49  69 105 140 183 235 287 355 424
#     4  10  24  45  67 101 140 184 236 289 354 423
#
# _framework density 21.018740000000001
#
# number of rings (size 3 to 8) (size 9 to 14) (size 15 to 20)
#    0.000    1.000    5.000    0.500    4.667    2.667 
#    3.000    0.000    0.000    0.000    0.000    0.000 
#    0.000    0.000    0.000    0.000    0.000    0.000 
#
# Total GULP energy -268119.678627 kJ/mol
# GULP energy per Si atom -5585.826638 kJ/mol
# Density = 2.097090 g / cm^3
# Si number density = 21.018740 Si / 1000 Ang^3
#
#
#
# Elastic Constant Matrix: (Units=GPa)
#
#
# Indices 1 2 3 4 5 6 
#
# 1 149.0052 46.6966 35.1356 0.0000 0.0000 0.0000
# 2 46.6966 82.5967 18.1147 0.0000 0.0000 0.0000
# 3 35.1356 18.1147 69.0386 0.0000 0.0000 0.0000
# 4 0.0000 0.0000 0.0000 12.3506 0.0000 0.0000
# 5 0.0000 0.0000 0.0000 0.0000 -1.1123 0.0000
# 6 0.0000 0.0000 0.0000 0.0000 0.0000 22.7543
#
#
#
# Elastic Compliance Matrix: (Units=1/GPa)
#
#
# Indices 1 2 3 4 5 6 
#
# 1 0.008843 -0.004258 -0.003383 0.000000 0.000000 0.000000
# 2 -0.004258 0.014896 -0.001742 0.000000 0.000000 0.000000
# 3 -0.003383 -0.001742 0.016664 0.000000 0.000000 0.000000
# 4 0.000000 0.000000 0.000000 0.080968 0.000000 0.000000
# 5 0.000000 0.000000 0.000000 0.000000 -0.899005 0.000000
# 6 0.000000 0.000000 0.000000 0.000000 0.000000 0.043948
#
#
# Mechanical properties :
#
#
# Convention : Reuss Voigt Hill
#
# Bulk Modulus (GPa) = 46.21621 55.61493 50.91557
# Shear Modulus (GPa) = -7.06505 20.17807 6.55651
#
# Velocity S-wave (km/s) = -1.83538 3.10175 1.76809
# Velocity P-wave (km/s) = 4.18860 6.27256 5.33335
#
# Compressibility (1/GPa) = 0.02163743
#
# Stress axis : x y z
#
# Youngs Moduli (GPa) = 113.08029 67.13194 60.01111
#
# Poissons Ratio (x) = 0.28582 0.20305
# Poissons Ratio (y) = 0.48145 0.10452
# Poissons Ratio (z) = 0.38260 0.11692
#
# Static dielectric constant tensor:
#      x y z
#    x 1.786890 0.000000 0.000000 
#    y 0.000000 1.755300 0.000000 
#    z 0.000000 0.000000 1.814220 
# 
# From -- ./inp_files/26676.got.cif
#   From: 2010.05.17/outbox.cif.g08.bks.cpg/sg57_14_cif.got.tgz:26676.got - 2010.06.03 13:58:18.
