data_PCOD9439852
_publ_section_title
;
Structure prediction by ZEFSAII (Michael W. Deem and Ramdas Pophale) SiO2 
 PCOD9439852
Probable space group: P B C M
;
_chemical_formula_sum "Si O2"
_cell_formula_units_Z 32
_cell_length_a 5.435346
_cell_length_b 9.203081
_cell_length_c 27.301434
_cell_angle_alpha 90.000000
_cell_angle_beta 90.000000
_cell_angle_gamma 90.000000
_cell_volume 1365.670407
_symmetry_space_group_name_H-M "P B C M"
_symmetry_group_IT_number 57
_symmetry_cell_setting 'orthorhombic'
loop_
_space_group_symop_operation_xyz
x,y,z
-x,-y,1/2+z
x,1/2-y,-z
-x,1/2+y,1/2-z
-x,-y,-z
x,y,1/2-z
-x,1/2+y,z
x,1/2-y,1/2+z
loop_
_atom_site_type_symbol
_atom_site_label
_atom_site_fract_x
_atom_site_fract_y
_atom_site_fract_z
Si Si1 0.892276 0.056680 0.192571
Si Si2 0.165094 0.661675 0.866366
Si Si3 0.326547 0.416138 0.109768
Si Si4 0.750126 0.082998 0.017381
O O1 0.918772 0.041362 0.250000
O O2 0.832820 0.218555 0.175812
O O3 0.683306 0.956866 0.167421
O O4 0.120285 0.992892 0.161255
O O5 0.408458 0.649281 0.898054
O O6 0.912848 0.684214 0.897027
O O7 0.270054 0.554121 0.075961
O O8 0.753053 0.250000 0.000000
O O9 0.500000 0.000000 0.000000
O O10 0.000000 0.000000 0.000000
#
# Coordination Sequence:
#
# PCOD9439852 Si02
#       4
#     8   8   8   8
#     4  10  24  42  68  97 135 178 229 281 340 410
#     4  10  24  42  66  97 135 176 224 276 342 406
#     4  10  26  43  71  94 144 172 232 277 356 402
#     4  12  28  47  76 108 144 187 245 300 366 436
#
# _framework density 23.431716000000002
#
# number of rings (size 3 to 8) (size 9 to 14) (size 15 to 20)
#    1.500    0.000    0.000    3.000   10.500    2.000 
#    0.000    0.000    0.000    0.000    0.000    0.000 
#    0.000    0.000    0.000    0.000    0.000    0.000 
#
# Total GULP energy -178369.046710 kJ/mol
# GULP energy per Si atom -5574.032710 kJ/mol
# Density = 2.337838 g / cm^3
# Si number density = 23.431716 Si / 1000 Ang^3
#
#
#
# Elastic Constant Matrix: (Units=GPa)
#
#
# Indices 1 2 3 4 5 6 
#
# 1 209.4249 71.8360 36.6497 0.0000 0.0000 0.0000
# 2 71.8360 82.3724 -7.7372 0.0000 0.0000 0.0000
# 3 36.6497 -7.7372 84.4721 0.0000 0.0000 0.0000
# 4 0.0000 0.0000 0.0000 40.4139 0.0000 0.0000
# 5 0.0000 0.0000 0.0000 0.0000 12.7812 0.0000
# 6 0.0000 0.0000 0.0000 0.0000 0.0000 23.1531
#
#
#
# Elastic Compliance Matrix: (Units=1/GPa)
#
#
# Indices 1 2 3 4 5 6 
#
# 1 0.008046 -0.007408 -0.004169 0.000000 0.000000 0.000000
# 2 -0.007408 0.019067 0.004961 0.000000 0.000000 0.000000
# 3 -0.004169 0.004961 0.014102 0.000000 0.000000 0.000000
# 4 0.000000 0.000000 0.000000 0.024744 0.000000 0.000000
# 5 0.000000 0.000000 0.000000 0.000000 0.078240 0.000000
# 6 0.000000 0.000000 0.000000 0.000000 0.000000 0.043191
#
#
# Mechanical properties :
#
#
# Convention : Reuss Voigt Hill
#
# Bulk Modulus (GPa) = 35.73999 64.19630 49.96814
# Shear Modulus (GPa) = 23.81527 33.63769 28.72648
#
# Velocity S-wave (km/s) = 3.19151 3.79299 3.50518
# Velocity P-wave (km/s) = 5.37280 6.82928 6.14435
#
# Compressibility (1/GPa) = 0.02797986
#
# Stress axis : x y z
#
# Youngs Moduli (GPa) = 124.28887 52.44777 70.91428
#
# Poissons Ratio (x) = 0.38855 0.29567
# Poissons Ratio (y) = 0.92076 -0.35178
# Poissons Ratio (z) = 0.51820 -0.26017
#
# Static dielectric constant tensor:
#      x y z
#    x 1.980340 0.000000 0.000000 
#    y 0.000000 1.922770 0.000000 
#    z 0.000000 0.000000 1.895790 
# 
# From -- ./inp_files/28982.got.cif
#   From: 2010.05.17/outbox.cif.g08.bks.cpg/sg57_15_cif.got.tgz:28982.got - 2010.06.03 13:58:18.
