data_PCOD9439812
_publ_section_title
;
Structure prediction by ZEFSAII (Michael W. Deem and Ramdas Pophale) SiO2 
 PCOD9439812
Probable space group: P B C M
;
_chemical_formula_sum "Si O2"
_cell_formula_units_Z 40
_cell_length_a 10.576996
_cell_length_b 8.812181
_cell_length_c 17.835431
_cell_angle_alpha 90.000000
_cell_angle_beta 90.000000
_cell_angle_gamma 90.000000
_cell_volume 1662.376373
_symmetry_space_group_name_H-M "P B C M"
_symmetry_group_IT_number 57
_symmetry_cell_setting 'orthorhombic'
loop_
_space_group_symop_operation_xyz
x,y,z
-x,-y,1/2+z
x,1/2-y,-z
-x,1/2+y,1/2-z
-x,-y,-z
x,y,1/2-z
-x,1/2+y,z
x,1/2-y,1/2+z
loop_
_atom_site_type_symbol
_atom_site_label
_atom_site_fract_x
_atom_site_fract_y
_atom_site_fract_z
Si Si1 0.799194 0.302619 0.878201
Si Si2 0.548921 0.359472 0.162768
Si Si3 0.959280 0.462364 0.750000
Si Si4 0.145939 0.979014 0.022777
Si Si5 0.172082 0.235882 0.250000
Si Si6 0.666589 0.821259 0.890187
O O1 0.666743 0.256586 0.841774
O O2 0.892092 0.386999 0.821635
O O3 0.855221 0.145814 0.911038
O O4 0.784101 0.407898 0.951055
O O5 0.504792 0.362251 0.250000
O O6 0.598969 0.525258 0.140134
O O7 0.446348 0.299685 0.102262
O O8 0.935730 0.639458 0.750000
O O9 0.106642 0.427129 0.750000
O O10 0.229970 0.119847 0.050583
O O11 0.000000 0.000000 0.000000
O O12 0.252509 0.251605 0.323738
#
# Coordination Sequence:
#
# PCOD9439812 Si02
#       6
#     8   8   4   8   4   8
#     4  10  24  43  72 104 144 205 243 321 383 444
#     4  11  21  41  72 103 150 184 251 316 374 458
#     4  12  28  43  75 106 148 189 270 314 386 453
#     4  10  23  47  71 103 157 200 255 313 386 468
#     4  12  28  43  69 110 146 195 256 326 384 455
#     4  11  25  44  74 107 150 202 251 315 399 457
#
# _framework density 24.061941000000001
#
# number of rings (size 3 to 8) (size 9 to 14) (size 15 to 20)
#    0.000    1.200    3.000    1.200   11.200    0.800 
#    0.000    0.000    0.000    0.000    0.000    0.000 
#    0.000    0.000    0.000    0.000    0.000    0.000 
#
# Total GULP energy -223920.725851 kJ/mol
# GULP energy per Si atom -5598.018146 kJ/mol
# Density = 2.400718 g / cm^3
# Si number density = 24.061941 Si / 1000 Ang^3
#
#
#
# Elastic Constant Matrix: (Units=GPa)
#
#
# Indices 1 2 3 4 5 6 
#
# 1 94.1939 14.6083 7.8206 0.0000 0.0000 0.0000
# 2 14.6083 45.4784 29.6147 0.0000 0.0000 0.0000
# 3 7.8206 29.6147 83.1209 0.0000 0.0000 0.0000
# 4 0.0000 0.0000 0.0000 26.2139 0.0000 0.0000
# 5 0.0000 0.0000 0.0000 0.0000 38.2184 0.0000
# 6 0.0000 0.0000 0.0000 0.0000 0.0000 47.9818
#
#
#
# Elastic Compliance Matrix: (Units=1/GPa)
#
#
# Indices 1 2 3 4 5 6 
#
# 1 0.011179 -0.003784 0.000296 0.000000 0.000000 0.000000
# 2 -0.003784 0.029912 -0.010301 0.000000 0.000000 0.000000
# 3 0.000296 -0.010301 0.015673 0.000000 0.000000 0.000000
# 4 0.000000 0.000000 0.000000 0.038148 0.000000 0.000000
# 5 0.000000 0.000000 0.000000 0.000000 0.026165 0.000000
# 6 0.000000 0.000000 0.000000 0.000000 0.000000 0.020841
#
#
# Mechanical properties :
#
#
# Convention : Reuss Voigt Hill
#
# Bulk Modulus (GPa) = 34.26264 36.32006 35.29135
# Shear Modulus (GPa) = 27.89814 33.86612 30.88213
#
# Velocity S-wave (km/s) = 3.40873 3.75568 3.58640
# Velocity P-wave (km/s) = 5.45554 5.82529 5.64344
#
# Compressibility (1/GPa) = 0.02918631
#
# Stress axis : x y z
#
# Youngs Moduli (GPa) = 89.45669 33.43167 63.80428
#
# Poissons Ratio (x) = 0.12649 -0.01891
# Poissons Ratio (y) = 0.33847 0.65726
# Poissons Ratio (z) = -0.02651 0.34438
#
# Static dielectric constant tensor:
#      x y z
#    x 1.877730 0.000000 0.000000 
#    y 0.000000 1.916990 0.000000 
#    z 0.000000 0.000000 1.926330 
# 
# From -- ./inp_files/21646.got.cif
#   From: 2010.05.17/outbox.cif.g08.bks.cpg/sg57_11_cif.got.tgz:21646.got - 2010.06.03 13:58:18.
