data_PCOD9439482
_publ_section_title
;
Structure prediction by ZEFSAII (Michael W. Deem and Ramdas Pophale) SiO2 
 PCOD9439482
Probable space group: P B C M
;
_chemical_formula_sum "Si O2"
_cell_formula_units_Z 64
_cell_length_a 5.101782
_cell_length_b 28.233436
_cell_length_c 20.709219
_cell_angle_alpha 90.000000
_cell_angle_beta 90.000000
_cell_angle_gamma 90.000000
_cell_volume 2982.973209
_symmetry_space_group_name_H-M "P B C M"
_symmetry_group_IT_number 57
_symmetry_cell_setting 'orthorhombic'
loop_
_space_group_symop_operation_xyz
x,y,z
-x,-y,1/2+z
x,1/2-y,-z
-x,1/2+y,1/2-z
-x,-y,-z
x,y,1/2-z
-x,1/2+y,z
x,1/2-y,1/2+z
loop_
_atom_site_type_symbol
_atom_site_label
_atom_site_fract_x
_atom_site_fract_y
_atom_site_fract_z
Si Si1 0.086120 0.735323 0.567881
Si Si2 0.245355 0.184824 0.678534
Si Si3 0.839805 0.897801 0.404243
Si Si4 0.790032 0.397768 0.892002
Si Si5 0.607157 0.269198 0.677909
Si Si6 0.348751 0.642215 0.969706
Si Si7 0.247884 0.500129 0.047409
Si Si8 0.294617 0.140539 0.176328
O O1 0.956139 0.750000 0.500000
O O2 0.215624 0.774452 0.614620
O O3 0.302670 0.697398 0.543878
O O4 0.906137 0.707847 0.618702
O O5 0.130214 0.192496 0.750000
O O6 0.242373 0.129479 0.661145
O O7 0.515510 0.214365 0.679317
O O8 0.643735 0.873483 0.455875
O O9 0.775353 0.952929 0.409561
O O10 0.139418 0.886141 0.424267
O O11 0.766314 0.453041 0.909280
O O12 0.573209 0.383093 0.839890
O O13 0.074607 0.381260 0.869024
O O14 0.722007 0.371324 0.958232
O O15 0.715067 0.280755 0.750000
O O16 0.356581 0.303392 0.669300
O O17 0.500000 0.500000 0.000000
O O18 0.000000 0.500000 0.000000
O O19 0.218044 0.131979 0.250000
#
# Coordination Sequence:
#
# PCOD9439482 Si02
#       8
#     8   8   8   8   8   8   8   8
#     4  11  23  37  58  96 130 169 221 283 333 390
#     4  10  23  42  63  89 131 183 224 270 334 413
#     4  11  21  42  62  96 129 161 220 266 325 401
#     4  12  23  42  67  95 131 172 213 278 341 396
#     4  10  22  41  63  86 125 180 226 266 327 404
#     4  11  22  37  62  93 133 164 201 274 336 390
#     4  12  22  40  68  99 131 168 214 270 345 414
#     4  11  26  43  64  92 128 175 226 269 321 400
#
# _framework density 21.455103999999999
#
# number of rings (size 3 to 8) (size 9 to 14) (size 15 to 20)
#    0.000    1.000    3.750    3.000    3.500    0.500 
#    0.000    1.250    0.000    0.000    0.000    0.000 
#    0.000    0.000    0.000    0.000    0.000    0.000 
#
# Total GULP energy -357608.933821 kJ/mol
# GULP energy per Si atom -5587.639591 kJ/mol
# Density = 2.140627 g / cm^3
# Si number density = 21.455104 Si / 1000 Ang^3
#
#
#
# Elastic Constant Matrix: (Units=GPa)
#
#
# Indices 1 2 3 4 5 6 
#
# 1 76.6512 12.0557 17.2743 0.0000 0.0000 0.0000
# 2 12.0557 111.9968 35.5497 0.0000 0.0000 0.0000
# 3 17.2743 35.5497 134.9461 0.0000 0.0000 0.0000
# 4 0.0000 0.0000 0.0000 28.9864 0.0000 0.0000
# 5 0.0000 0.0000 0.0000 0.0000 30.1967 0.0000
# 6 0.0000 0.0000 0.0000 0.0000 0.0000 29.2389
#
#
#
# Elastic Compliance Matrix: (Units=1/GPa)
#
#
# Indices 1 2 3 4 5 6 
#
# 1 0.013533 -0.000990 -0.001472 0.000000 0.000000 0.000000
# 2 -0.000990 0.009816 -0.002459 0.000000 0.000000 0.000000
# 3 -0.001472 -0.002459 0.008247 0.000000 0.000000 0.000000
# 4 0.000000 0.000000 0.000000 0.034499 0.000000 0.000000
# 5 0.000000 0.000000 0.000000 0.000000 0.033116 0.000000
# 6 0.000000 0.000000 0.000000 0.000000 0.000000 0.034201
#
#
# Mechanical properties :
#
#
# Convention : Reuss Voigt Hill
#
# Bulk Modulus (GPa) = 45.96663 50.37262 48.16962
# Shear Modulus (GPa) = 33.22152 34.93202 34.07677
#
# Velocity S-wave (km/s) = 3.93927 4.03941 3.98965
# Velocity P-wave (km/s) = 6.49319 6.72940 6.61235
#
# Compressibility (1/GPa) = 0.02175491
#
# Stress axis : x y z
#
# Youngs Moduli (GPa) = 73.89112 101.87510 121.26220
#
# Poissons Ratio (x) = 0.10082 0.17846
# Poissons Ratio (y) = 0.07313 0.29821
# Poissons Ratio (z) = 0.10874 0.25053
#
# Static dielectric constant tensor:
#      x y z
#    x 1.810710 0.000000 0.000000 
#    y 0.000000 1.878700 0.000000 
#    z 0.000000 0.000000 1.789850 
# 
# From -- ./inp_files/20346.got.cif
#   From: 2010.05.17/outbox.cif.g08.bks.cpg/sg57_11_cif.got.tgz:20346.got - 2010.06.03 13:58:18.
