data_PCOD9439699
_publ_section_title
;
Structure prediction by ZEFSAII (Michael W. Deem and Ramdas Pophale) SiO2 
 PCOD9439699
Probable space group: P B C M
;
_chemical_formula_sum "Si O2"
_cell_formula_units_Z 32
_cell_length_a 6.663115
_cell_length_b 16.035333
_cell_length_c 14.515049
_cell_angle_alpha 90.000000
_cell_angle_beta 90.000000
_cell_angle_gamma 90.000000
_cell_volume 1550.864298
_symmetry_space_group_name_H-M "P B C M"
_symmetry_group_IT_number 57
_symmetry_cell_setting 'orthorhombic'
loop_
_space_group_symop_operation_xyz
x,y,z
-x,-y,1/2+z
x,1/2-y,-z
-x,1/2+y,1/2-z
-x,-y,-z
x,y,1/2-z
-x,1/2+y,z
x,1/2-y,1/2+z
loop_
_atom_site_type_symbol
_atom_site_label
_atom_site_fract_x
_atom_site_fract_y
_atom_site_fract_z
Si Si1 0.621510 0.537442 0.750000
Si Si2 0.076830 0.974297 0.899082
Si Si3 0.244643 0.434953 0.750000
Si Si4 0.234733 0.715137 0.101639
Si Si5 0.500159 0.294191 0.250000
Si Si6 0.081700 0.247877 0.750000
O O1 0.761861 0.529523 0.658418
O O2 0.478423 0.454788 0.750000
O O3 0.444138 0.608234 0.750000
O O4 0.179948 0.882408 0.900821
O O5 0.875844 0.969487 0.837818
O O6 0.000000 0.000000 0.000000
O O7 0.192524 0.336931 0.750000
O O8 0.426604 0.743293 0.161446
O O9 0.056207 0.757395 0.160694
O O10 0.249155 0.750000 0.000000
O O11 0.264237 0.313859 0.250000
#
# Coordination Sequence:
#
# PCOD9439699 Si02
#       6
#     4   8   4   8   4   4
#     4  11  24  40  65  95 128 166 219 266 324 390
#     4  10  23  41  66  92 129 170 215 268 325 384
#     4   9  20  41  62  85 124 171 207 264 325 381
#     4  10  23  41  64  91 129 166 208 270 325 381
#     4  11  24  40  63  93 128 166 213 266 326 392
#     4   9  20  41  62  81 120 171 209 254 323 389
#
# _framework density 20.633656999999999
#
# number of rings (size 3 to 8) (size 9 to 14) (size 15 to 20)
#    0.000    2.000    0.000    3.750    7.000    4.000 
#    4.500    0.000    0.000    0.000    0.000    0.000 
#    0.000    0.000    0.000    0.000    0.000    0.000 
#
# Total GULP energy -178399.917121 kJ/mol
# GULP energy per Si atom -5574.997410 kJ/mol
# Density = 2.058669 g / cm^3
# Si number density = 20.633657 Si / 1000 Ang^3
#
#
#
# Elastic Constant Matrix: (Units=GPa)
#
#
# Indices 1 2 3 4 5 6 
#
# 1 82.6060 20.7732 55.4759 0.0000 0.0000 0.0000
# 2 20.7732 68.6010 54.4954 0.0000 0.0000 0.0000
# 3 55.4759 54.4954 213.7101 0.0000 0.0000 0.0000
# 4 0.0000 0.0000 0.0000 43.7459 0.0000 0.0000
# 5 0.0000 0.0000 0.0000 0.0000 89.9408 0.0000
# 6 0.0000 0.0000 0.0000 0.0000 0.0000 17.0498
#
#
#
# Elastic Compliance Matrix: (Units=1/GPa)
#
#
# Indices 1 2 3 4 5 6 
#
# 1 0.014836 -0.001797 -0.003393 0.000000 0.000000 0.000000
# 2 -0.001797 0.018498 -0.004250 0.000000 0.000000 0.000000
# 3 -0.003393 -0.004250 0.006644 0.000000 0.000000 0.000000
# 4 0.000000 0.000000 0.000000 0.022859 0.000000 0.000000
# 5 0.000000 0.000000 0.000000 0.000000 0.011118 0.000000
# 6 0.000000 0.000000 0.000000 0.000000 0.000000 0.058652
#
#
# Mechanical properties :
#
#
# Convention : Reuss Voigt Hill
#
# Bulk Modulus (GPa) = 47.40094 69.60067 58.50081
# Shear Modulus (GPa) = 31.54164 45.75878 38.65021
#
# Velocity S-wave (km/s) = 3.91404 4.71433 4.33270
# Velocity P-wave (km/s) = 6.59157 7.96480 7.31050
#
# Compressibility (1/GPa) = 0.02109663
#
# Stress axis : x y z
#
# Youngs Moduli (GPa) = 67.40243 54.06092 150.51610
#
# Poissons Ratio (x) = 0.09716 0.51070
# Poissons Ratio (y) = 0.12114 0.63974
# Poissons Ratio (z) = 0.22869 0.22977
#
# Static dielectric constant tensor:
#      x y z
#    x 1.810670 0.000000 0.000000 
#    y 0.000000 1.948870 0.000000 
#    z 0.000000 0.000000 1.681050 
# 
# From -- ./inp_files/14760.got.cif
#   From: 2010.05.17/outbox.cif.g08.bks.cpg/sg57_8_cif.got.tgz:14760.got - 2010.06.03 13:58:18.
