data_PCOD9439724
_publ_section_title
;
Structure prediction by ZEFSAII (Michael W. Deem and Ramdas Pophale) SiO2 
 PCOD9439724
Probable space group: P B C M
;
_chemical_formula_sum "Si O2"
_cell_formula_units_Z 64
_cell_length_a 12.016557
_cell_length_b 31.473287
_cell_length_c 8.728931
_cell_angle_alpha 90.000000
_cell_angle_beta 90.000000
_cell_angle_gamma 90.000000
_cell_volume 3301.286481
_symmetry_space_group_name_H-M "P B C M"
_symmetry_group_IT_number 57
_symmetry_cell_setting 'orthorhombic'
loop_
_space_group_symop_operation_xyz
x,y,z
-x,-y,1/2+z
x,1/2-y,-z
-x,1/2+y,1/2-z
-x,-y,-z
x,y,1/2-z
-x,1/2+y,z
x,1/2-y,1/2+z
loop_
_atom_site_type_symbol
_atom_site_label
_atom_site_fract_x
_atom_site_fract_y
_atom_site_fract_z
Si Si1 0.239501 0.704887 0.067577
Si Si2 0.244587 0.549107 0.067630
Si Si3 0.991041 0.175695 0.932510
Si Si4 0.373120 0.375300 0.932981
Si Si5 0.759349 0.704663 0.932892
Si Si6 0.003875 0.081065 0.067335
Si Si7 0.379731 0.873325 0.067825
Si Si8 0.769139 0.952616 0.065982
O O1 0.248303 0.704919 0.250000
O O2 0.276895 0.750000 0.000000
O O3 0.111629 0.697313 0.018262
O O4 0.309996 0.666098 0.999165
O O5 0.264497 0.555015 0.250000
O O6 0.113882 0.558192 0.040930
O O7 0.268780 0.500341 0.027168
O O8 0.315928 0.583525 0.977396
O O9 0.970797 0.177035 0.750000
O O10 0.109528 0.197337 0.964667
O O11 0.999221 0.127108 0.988340
O O12 0.372022 0.376308 0.750000
O O13 0.307704 0.333879 0.992094
O O14 0.498236 0.373920 0.995043
O O15 0.310464 0.416677 0.997867
O O16 0.743846 0.703609 0.750000
O O17 0.724764 0.750000 0.000000
O O18 0.018602 0.086443 0.250000
O O19 0.107630 0.055673 0.999113
O O20 0.387092 0.869410 0.250000
O O21 0.772406 0.948796 0.250000
#
# Coordination Sequence:
#
# PCOD9439724 Si02
#       8
#     8   8   8   8   8   8   8   8
#     4  12  25  43  67  97 133 169 214 262 316 380
#     4  10  23  42  65  95 131 171 213 262 318 379
#     4  11  22  38  64  97 133 172 211 259 317 379
#     4  12  26  45  68  92 125 167 216 267 321 377
#     4  11  24  42  66  96 131 167 212 260 315 378
#     4  11  21  36  63  96 132 172 212 259 317 381
#     4  12  26  45  69  94 125 166 215 266 322 379
#     4  11  23  41  65  95 132 170 214 264 317 380
#
# _framework density 19.386382000000001
#
# number of rings (size 3 to 8) (size 9 to 14) (size 15 to 20)
#    0.000    0.750    2.500    5.625    0.000    5.000 
#    0.000    2.500    0.000    0.000    0.000    0.000 
#    0.000    0.000    0.000    0.000    0.000    0.000 
#
# Total GULP energy -358262.772928 kJ/mol
# GULP energy per Si atom -5597.855827 kJ/mol
# Density = 1.934226 g / cm^3
# Si number density = 19.386382 Si / 1000 Ang^3
#
#
#
# Elastic Constant Matrix: (Units=GPa)
#
#
# Indices 1 2 3 4 5 6 
#
# 1 91.8967 39.2552 43.6851 0.0000 0.0000 0.0000
# 2 39.2552 149.6383 50.3197 0.0000 0.0000 0.0000
# 3 43.6851 50.3197 87.7194 0.0000 0.0000 0.0000
# 4 0.0000 0.0000 0.0000 43.7214 0.0000 0.0000
# 5 0.0000 0.0000 0.0000 0.0000 33.3840 0.0000
# 6 0.0000 0.0000 0.0000 0.0000 0.0000 -10.4580
#
#
#
# Elastic Compliance Matrix: (Units=1/GPa)
#
#
# Indices 1 2 3 4 5 6 
#
# 1 0.014604 -0.001717 -0.006288 0.000000 0.000000 0.000000
# 2 -0.001717 0.008482 -0.004011 0.000000 0.000000 0.000000
# 3 -0.006288 -0.004011 0.016832 0.000000 0.000000 0.000000
# 4 0.000000 0.000000 0.000000 0.022872 0.000000 0.000000
# 5 0.000000 0.000000 0.000000 0.000000 0.029954 0.000000
# 6 0.000000 0.000000 0.000000 0.000000 0.000000 -0.095621
#
#
# Mechanical properties :
#
#
# Convention : Reuss Voigt Hill
#
# Bulk Modulus (GPa) = 62.94362 66.19716 64.57039
# Shear Modulus (GPa) = 189.02743 26.39578 107.71161
#
# Velocity S-wave (km/s) = 9.88519 3.69394 7.46197
# Velocity P-wave (km/s) = 12.76040 7.23975 10.37405
#
# Compressibility (1/GPa) = 0.01588723
#
# Stress axis : x y z
#
# Youngs Moduli (GPa) = 68.47255 117.89981 59.40944
#
# Poissons Ratio (x) = 0.20239 0.37359
# Poissons Ratio (y) = 0.11754 0.23827
# Poissons Ratio (z) = 0.43058 0.47285
#
# Static dielectric constant tensor:
#      x y z
#    x 1.652300 0.000000 0.000000 
#    y 0.000000 1.472760 0.000000 
#    z 0.000000 0.000000 1.654100 
# 
# From -- ./inp_files/3894.got.cif
#   From: 2010.05.17/outbox.cif.g08.bks.cpg/sg57_2_cif.got.tgz:3894.got - 2010.06.03 13:58:18.
