data_PCOD9439849
_publ_section_title
;
Structure prediction by ZEFSAII (Michael W. Deem and Ramdas Pophale) SiO2 
 PCOD9439849
Probable space group: P B C M
;
_chemical_formula_sum "Si O2"
_cell_formula_units_Z 40
_cell_length_a 11.202502
_cell_length_b 7.944552
_cell_length_c 17.866327
_cell_angle_alpha 90.000000
_cell_angle_beta 90.000000
_cell_angle_gamma 90.000000
_cell_volume 1590.082729
_symmetry_space_group_name_H-M "P B C M"
_symmetry_group_IT_number 57
_symmetry_cell_setting 'orthorhombic'
loop_
_space_group_symop_operation_xyz
x,y,z
-x,-y,1/2+z
x,1/2-y,-z
-x,1/2+y,1/2-z
-x,-y,-z
x,y,1/2-z
-x,1/2+y,z
x,1/2-y,1/2+z
loop_
_atom_site_type_symbol
_atom_site_label
_atom_site_fract_x
_atom_site_fract_y
_atom_site_fract_z
Si Si1 0.926640 0.250000 0.000000
Si Si2 0.327415 0.050066 0.340487
Si Si3 0.766181 0.079042 0.381516
Si Si4 0.102549 0.252978 0.870260
Si Si5 0.467348 0.737693 0.412126
Si Si6 0.896776 0.297717 0.750000
O O1 0.838968 0.124952 0.043699
O O2 0.021496 0.311004 0.061507
O O3 0.316388 0.037332 0.250000
O O4 0.199154 0.098429 0.376840
O O5 0.418687 0.201092 0.361314
O O6 0.391253 0.896224 0.383023
O O7 0.627991 0.085027 0.401612
O O8 0.797100 0.211582 0.316574
O O9 0.819308 0.907969 0.346422
O O10 0.003280 0.310809 0.812711
O O11 0.497784 0.750000 0.500000
#
# Coordination Sequence:
#
# PCOD9439849 Si02
#       6
#     4   8   8   8   8   4
#     4  10  24  42  68 108 144 192 236 292 350 436
#     4  12  28  49  75 108 144 189 247 303 372 437
#     4  11  24  44  72 102 149 186 246 292 362 423
#     4  11  24  44  73 107 144 191 240 297 360 428
#     4  12  28  49  76 106 144 190 243 305 368 442
#     4  10  24  42  66 106 144 190 234 292 354 424
#
# _framework density 25.155926000000001
#
# number of rings (size 3 to 8) (size 9 to 14) (size 15 to 20)
#    0.000    0.800    2.000    3.600    7.000    8.000 
#    0.000    0.000    0.000    0.000    0.000    0.000 
#    0.000    0.000    0.000    0.000    0.000    0.000 
#
# Total GULP energy -222789.003510 kJ/mol
# GULP energy per Si atom -5569.725088 kJ/mol
# Density = 2.509867 g / cm^3
# Si number density = 25.155926 Si / 1000 Ang^3
#
#
#
# Elastic Constant Matrix: (Units=GPa)
#
#
# Indices 1 2 3 4 5 6 
#
# 1 133.8721 1.2571 56.1485 0.0000 0.0000 0.0000
# 2 1.2571 67.5029 8.6870 0.0000 0.0000 0.0000
# 3 56.1485 8.6870 134.6344 0.0000 0.0000 0.0000
# 4 0.0000 0.0000 0.0000 -77.0630 0.0000 0.0000
# 5 0.0000 0.0000 0.0000 0.0000 2.8538 0.0000
# 6 0.0000 0.0000 0.0000 0.0000 0.0000 9.4472
#
#
#
# Elastic Compliance Matrix: (Units=1/GPa)
#
#
# Indices 1 2 3 4 5 6 
#
# 1 0.009060 0.000320 -0.003799 0.000000 0.000000 0.000000
# 2 0.000320 0.014950 -0.001098 0.000000 0.000000 0.000000
# 3 -0.003799 -0.001098 0.009083 0.000000 0.000000 0.000000
# 4 0.000000 0.000000 0.000000 -0.012976 0.000000 0.000000
# 5 0.000000 0.000000 0.000000 0.000000 0.350411 0.000000
# 6 0.000000 0.000000 0.000000 0.000000 0.000000 0.105852
#
#
# Mechanical properties :
#
#
# Convention : Reuss Voigt Hill
#
# Bulk Modulus (GPa) = 41.77396 52.02165 46.89780
# Shear Modulus (GPa) = 10.13145 5.04204 7.58674
#
# Velocity S-wave (km/s) = 2.00903 1.41727 1.73852
# Velocity P-wave (km/s) = 4.69294 4.83764 4.76584
#
# Compressibility (1/GPa) = 0.02393836
#
# Stress axis : x y z
#
# Youngs Moduli (GPa) = 110.37207 66.89169 110.09811
#
# Poissons Ratio (x) = -0.02142 0.41828
# Poissons Ratio (y) = -0.03534 0.12090
# Poissons Ratio (z) = 0.41932 0.07346
#
# Static dielectric constant tensor:
#      x y z
#    x 1.907810 0.000000 0.000000 
#    y 0.000000 2.235610 0.000000 
#    z 0.000000 0.000000 1.968210 
# 
# From -- ./inp_files/21649.got.cif
#   From: 2010.05.17/outbox.cif.g08.bks.cpg/sg57_11_cif.got.tgz:21649.got - 2010.06.03 13:58:18.
