data_PCOD9439383
_publ_section_title
;
Structure prediction by ZEFSAII (Michael W. Deem and Ramdas Pophale) SiO2 
 PCOD9439383
Probable space group: P B C M
;
_chemical_formula_sum "Si O2"
_cell_formula_units_Z 64
_cell_length_a 9.586156
_cell_length_b 22.573786
_cell_length_c 14.376340
_cell_angle_alpha 90.000000
_cell_angle_beta 90.000000
_cell_angle_gamma 90.000000
_cell_volume 3110.980086
_symmetry_space_group_name_H-M "P B C M"
_symmetry_group_IT_number 57
_symmetry_cell_setting 'orthorhombic'
loop_
_space_group_symop_operation_xyz
x,y,z
-x,-y,1/2+z
x,1/2-y,-z
-x,1/2+y,1/2-z
-x,-y,-z
x,y,1/2-z
-x,1/2+y,z
x,1/2-y,1/2+z
loop_
_atom_site_type_symbol
_atom_site_label
_atom_site_fract_x
_atom_site_fract_y
_atom_site_fract_z
Si Si1 0.681873 0.548312 0.359417
Si Si2 0.212936 0.337610 0.955898
Si Si3 0.331083 0.120287 0.853701
Si Si4 0.854741 0.465636 0.489295
Si Si5 0.099946 0.669441 0.999931
Si Si6 0.569715 0.752204 0.856784
Si Si7 0.754209 0.262119 0.639581
Si Si8 0.621090 0.484913 0.858650
O O1 0.677737 0.539093 0.250000
O O2 0.759946 0.608990 0.384438
O O3 0.764493 0.496044 0.409033
O O4 0.519844 0.547785 0.391989
O O5 0.320550 0.286905 0.921507
O O6 0.238600 0.368670 0.055939
O O7 0.056350 0.315052 0.967186
O O8 0.263740 0.119511 0.750000
O O9 0.419644 0.180742 0.856934
O O10 0.403365 0.056432 0.863893
O O11 0.889826 0.397903 0.469115
O O12 0.756142 0.471136 0.580095
O O13 0.000000 0.500000 0.500000
O O14 0.165954 0.711141 0.919666
O O15 0.187603 0.678268 0.094247
O O16 0.596692 0.771480 0.750000
O O17 0.410145 0.764076 0.880698
O O18 0.775095 0.256022 0.750000
O O19 0.644324 0.470454 0.750000
#
# Coordination Sequence:
#
# PCOD9439383 Si02
#       8
#     8   8   8   8   8   8   8   8
#     4  11  25  42  67 100 135 182 233 284 340 400
#     4  12  24  44  67  97 138 178 228 280 337 415
#     4  10  22  39  65  98 129 169 223 280 339 394
#     4  12  24  46  67  99 139 180 226 275 343 413
#     4  11  27  44  69 101 136 180 223 271 348 407
#     4  10  24  42  68  98 129 176 230 285 339 398
#     4  10  26  48  68 100 136 176 230 283 340 403
#     4  10  23  42  67  99 134 176 228 282 339 401
#
# _framework density 20.572295
#
# number of rings (size 3 to 8) (size 9 to 14) (size 15 to 20)
#    0.000    1.250    2.500    1.125   10.500    3.000 
#    0.000    0.000    0.000    0.000    0.000    0.000 
#    0.000    0.000    0.000    0.000    0.000    0.000 
#
# Total GULP energy -357201.192377 kJ/mol
# GULP energy per Si atom -5581.268631 kJ/mol
# Density = 2.052547 g / cm^3
# Si number density = 20.572295 Si / 1000 Ang^3
#
#
#
# Elastic Constant Matrix: (Units=GPa)
#
#
# Indices 1 2 3 4 5 6 
#
# 1 118.5553 9.4710 47.9532 0.0000 0.0000 0.0000
# 2 9.4710 66.5060 5.0974 0.0000 0.0000 0.0000
# 3 47.9532 5.0974 103.5650 0.0000 0.0000 0.0000
# 4 0.0000 0.0000 0.0000 13.0693 0.0000 0.0000
# 5 0.0000 0.0000 0.0000 0.0000 -226.5438 0.0000
# 6 0.0000 0.0000 0.0000 0.0000 0.0000 20.7278
#
#
#
# Elastic Compliance Matrix: (Units=1/GPa)
#
#
# Indices 1 2 3 4 5 6 
#
# 1 0.010461 -0.001123 -0.004789 0.000000 0.000000 0.000000
# 2 -0.001123 0.015214 -0.000229 0.000000 0.000000 0.000000
# 3 -0.004789 -0.000229 0.011884 0.000000 0.000000 0.000000
# 4 0.000000 0.000000 0.000000 0.076515 0.000000 0.000000
# 5 0.000000 0.000000 0.000000 0.000000 -0.004414 0.000000
# 6 0.000000 0.000000 0.000000 0.000000 0.000000 0.048244
#
#
# Mechanical properties :
#
#
# Convention : Reuss Voigt Hill
#
# Bulk Modulus (GPa) = 39.55896 45.96329 42.76113
# Shear Modulus (GPa) = 27.99359 -23.47571 2.25894
#
# Velocity S-wave (km/s) = 3.69283 -3.38173 1.04902
# Velocity P-wave (km/s) = 6.11994 2.67258 4.72209
#
# Compressibility (1/GPa) = 0.02527872
#
# Stress axis : x y z
#
# Youngs Moduli (GPa) = 95.58863 65.73032 84.14450
#
# Poissons Ratio (x) = 0.07380 0.40294
# Poissons Ratio (y) = 0.10732 0.01926
# Poissons Ratio (z) = 0.45774 0.01505
#
# Static dielectric constant tensor:
#      x y z
#    x 1.739650 0.000000 0.000000 
#    y 0.000000 1.788050 0.000000 
#    z 0.000000 0.000000 1.750960 
# 
# From -- ./inp_files/16922.got.cif
#   From: 2010.05.17/outbox.cif.g08.bks.cpg/sg57_9_cif.got.tgz:16922.got - 2010.06.03 13:58:18.
