data_PCOD9439721
_publ_section_title
;
Structure prediction by ZEFSAII (Michael W. Deem and Ramdas Pophale) SiO2 
 PCOD9439721
Probable space group: P B C M
;
_chemical_formula_sum "Si O2"
_cell_formula_units_Z 40
_cell_length_a 8.013857
_cell_length_b 29.049698
_cell_length_c 8.863255
_cell_angle_alpha 90.000000
_cell_angle_beta 90.000000
_cell_angle_gamma 90.000000
_cell_volume 2063.366878
_symmetry_space_group_name_H-M "P B C M"
_symmetry_group_IT_number 57
_symmetry_cell_setting 'orthorhombic'
loop_
_space_group_symop_operation_xyz
x,y,z
-x,-y,1/2+z
x,1/2-y,-z
-x,1/2+y,1/2-z
-x,-y,-z
x,y,1/2-z
-x,1/2+y,z
x,1/2-y,1/2+z
loop_
_atom_site_type_symbol
_atom_site_label
_atom_site_fract_x
_atom_site_fract_y
_atom_site_fract_z
Si Si1 0.416343 0.644593 0.569104
Si Si2 0.933008 0.354237 0.570694
Si Si3 0.753506 0.800782 0.068683
Si Si4 0.433268 0.452747 0.430845
Si Si5 0.929053 0.546723 0.430014
O O1 0.396519 0.647920 0.750000
O O2 0.247089 0.660570 0.490437
O O3 0.581926 0.672998 0.526527
O O4 0.452805 0.591170 0.531179
O O5 0.943073 0.347361 0.750000
O O6 0.085745 0.327876 0.492840
O O7 0.957283 0.408743 0.539425
O O8 0.761578 0.799083 0.250000
O O9 0.752011 0.750000 0.000000
O O10 0.500000 0.500000 0.500000
O O11 0.424398 0.456483 0.250000
O O12 0.250448 0.443939 0.497174
O O13 0.912798 0.541452 0.250000
O O14 0.000000 0.500000 0.500000
#
# Coordination Sequence:
#
# PCOD9439721 Si02
#       5
#     8   8   8   8   8
#     4  10  23  42  65  92 128 172 213 263 323 383
#     4  11  24  41  65  96 130 170 214 267 321 381
#     4  11  24  45  70  96 127 167 214 268 326 385
#     4  11  22  38  60  90 127 171 216 264 321 381
#     4  11  23  38  59  90 128 172 218 266 321 381
#
# _framework density 19.38579
#
# number of rings (size 3 to 8) (size 9 to 14) (size 15 to 20)
#    0.000    1.200    2.000    3.600    0.000    9.600 
#    0.000    2.000    0.000    0.000    0.000    0.000 
#    0.000    0.000    0.000    0.000    0.000    0.000 
#
# Total GULP energy -223715.861048 kJ/mol
# GULP energy per Si atom -5592.896526 kJ/mol
# Density = 1.934167 g / cm^3
# Si number density = 19.385790 Si / 1000 Ang^3
#
#
#
# Elastic Constant Matrix: (Units=GPa)
#
#
# Indices 1 2 3 4 5 6 
#
# 1 177.0790 64.8290 67.8896 0.0000 0.0000 0.0000
# 2 64.8290 125.6047 62.2005 0.0000 0.0000 0.0000
# 3 67.8896 62.2005 63.3314 0.0000 0.0000 0.0000
# 4 0.0000 0.0000 0.0000 32.2551 0.0000 0.0000
# 5 0.0000 0.0000 0.0000 0.0000 36.7280 0.0000
# 6 0.0000 0.0000 0.0000 0.0000 0.0000 25.9413
#
#
#
# Elastic Compliance Matrix: (Units=1/GPa)
#
#
# Indices 1 2 3 4 5 6 
#
# 1 0.009592 0.000275 -0.010553 0.000000 0.000000 0.000000
# 2 0.000275 0.015508 -0.015526 0.000000 0.000000 0.000000
# 3 -0.010553 -0.015526 0.042351 0.000000 0.000000 0.000000
# 4 0.000000 0.000000 0.000000 0.031003 0.000000 0.000000
# 5 0.000000 0.000000 0.000000 0.000000 0.027227 0.000000
# 6 0.000000 0.000000 0.000000 0.000000 0.000000 0.038549
#
#
# Mechanical properties :
#
#
# Convention : Reuss Voigt Hill
#
# Bulk Modulus (GPa) = 63.11582 83.98371 73.54976
# Shear Modulus (GPa) = 22.61234 30.39128 26.50181
#
# Velocity S-wave (km/s) = 3.41902 3.96373 3.70141
# Velocity P-wave (km/s) = 6.94368 8.02275 7.50264
#
# Compressibility (1/GPa) = 0.01584389
#
# Stress axis : x y z
#
# Youngs Moduli (GPa) = 104.25005 64.48228 23.61240
#
# Poissons Ratio (x) = -0.01772 0.24917
# Poissons Ratio (y) = -0.02865 0.36660
# Poissons Ratio (z) = 1.10011 1.00114
#
# Static dielectric constant tensor:
#      x y z
#    x 1.654180 0.000000 0.000000 
#    y 0.000000 1.675430 0.000000 
#    z 0.000000 0.000000 1.643640 
# 
# From -- ./inp_files/1709.got.cif
#   From: 2010.05.17/outbox.cif.g08.bks.cpg/sg57_1_cif.got.tgz:1709.got - 2010.06.03 13:58:18.
