data_PCOD9439330
_publ_section_title
;
Structure prediction by ZEFSAII (Michael W. Deem and Ramdas Pophale) SiO2 
 PCOD9439330
Probable space group: P B C M
;
_chemical_formula_sum "Si O2"
_cell_formula_units_Z 40
_cell_length_a 5.774547
_cell_length_b 18.784274
_cell_length_c 16.022577
_cell_angle_alpha 90.000000
_cell_angle_beta 90.000000
_cell_angle_gamma 90.000000
_cell_volume 1737.979712
_symmetry_space_group_name_H-M "P B C M"
_symmetry_group_IT_number 57
_symmetry_cell_setting 'orthorhombic'
loop_
_space_group_symop_operation_xyz
x,y,z
-x,-y,1/2+z
x,1/2-y,-z
-x,1/2+y,1/2-z
-x,-y,-z
x,y,1/2-z
-x,1/2+y,z
x,1/2-y,1/2+z
loop_
_atom_site_type_symbol
_atom_site_label
_atom_site_fract_x
_atom_site_fract_y
_atom_site_fract_z
Si Si1 0.592126 0.426275 0.416342
Si Si2 0.759695 0.269943 0.400890
Si Si3 0.802630 0.011146 0.069321
Si Si4 0.187330 0.431474 0.842940
Si Si5 0.261031 0.281161 0.593990
O O1 0.713415 0.354067 0.391618
O O2 0.317525 0.437218 0.406515
O O3 0.635448 0.438821 0.515139
O O4 0.688878 0.494452 0.366121
O O5 0.768492 0.250000 0.500000
O O6 0.515701 0.236648 0.368422
O O7 0.015301 0.247601 0.368257
O O8 0.916159 0.050389 0.146224
O O9 0.000000 0.000000 0.000000
O O10 0.247603 0.409697 0.750000
O O11 0.235198 0.365969 0.903465
O O12 0.270152 0.250000 0.500000
#
# Coordination Sequence:
#
# PCOD9439330 Si02
#       5
#     8   8   8   8   8
#     4  10  22  38  68 101 128 176 233 292 335 412
#     4  10  22  38  66  98 134 169 222 286 341 399
#     4   9  20  35  66  95 126 164 226 282 335 401
#     4  11  25  43  65  97 139 184 229 287 359 424
#     4  10  23  40  65  96 133 181 230 284 341 416
#
# _framework density 23.015229999999999
#
# number of rings (size 3 to 8) (size 9 to 14) (size 15 to 20)
#    0.000    2.000    0.000    2.400   25.200    0.800 
#    0.000    2.000    0.000    0.000    0.000    0.000 
#    0.000    0.000    0.000    0.000    0.000    0.000 
#
# Total GULP energy -222885.613643 kJ/mol
# GULP energy per Si atom -5572.140341 kJ/mol
# Density = 2.296285 g / cm^3
# Si number density = 23.015230 Si / 1000 Ang^3
#
#
#
# Elastic Constant Matrix: (Units=GPa)
#
#
# Indices 1 2 3 4 5 6 
#
# 1 148.2094 32.0066 2.8443 0.0000 0.0000 0.0000
# 2 32.0066 137.5304 17.8466 0.0000 0.0000 0.0000
# 3 2.8443 17.8466 43.3312 0.0000 0.0000 0.0000
# 4 0.0000 0.0000 0.0000 9.7486 0.0000 0.0000
# 5 0.0000 0.0000 0.0000 0.0000 3.4645 0.0000
# 6 0.0000 0.0000 0.0000 0.0000 0.0000 61.1703
#
#
#
# Elastic Compliance Matrix: (Units=1/GPa)
#
#
# Indices 1 2 3 4 5 6 
#
# 1 0.007106 -0.001683 0.000227 0.000000 0.000000 0.000000
# 2 -0.001683 0.008080 -0.003218 0.000000 0.000000 0.000000
# 3 0.000227 -0.003218 0.024388 0.000000 0.000000 0.000000
# 4 0.000000 0.000000 0.000000 0.102579 0.000000 0.000000
# 5 0.000000 0.000000 0.000000 0.000000 0.288643 0.000000
# 6 0.000000 0.000000 0.000000 0.000000 0.000000 0.016348
#
#
# Mechanical properties :
#
#
# Convention : Reuss Voigt Hill
#
# Bulk Modulus (GPa) = 33.08287 48.27401 40.67844
# Shear Modulus (GPa) = 10.71656 33.30158 22.00907
#
# Velocity S-wave (km/s) = 2.16018 3.80799 3.09574
# Velocity P-wave (km/s) = 4.54174 6.35254 5.52187
#
# Compressibility (1/GPa) = 0.03022712
#
# Stress axis : x y z
#
# Youngs Moduli (GPa) = 140.71894 123.75666 41.00318
#
# Poissons Ratio (x) = 0.20831 -0.00930
# Poissons Ratio (y) = 0.23687 0.13193
# Poissons Ratio (z) = -0.03191 0.39819
#
# Static dielectric constant tensor:
#      x y z
#    x 2.156670 0.000000 0.000000 
#    y 0.000000 1.905700 0.000000 
#    z 0.000000 0.000000 1.857790 
# 
# From -- ./inp_files/19976.got.cif
#   From: 2010.05.17/outbox.cif.g08.bks.cpg/sg57_10_cif.got.tgz:19976.got - 2010.06.03 13:58:18.
