data_PCOD9439680
_publ_section_title
;
Structure prediction by ZEFSAII (Michael W. Deem and Ramdas Pophale) SiO2 
 PCOD9439680
Probable space group: P B C M
;
_chemical_formula_sum "Si O2"
_cell_formula_units_Z 64
_cell_length_a 12.731554
_cell_length_b 29.322033
_cell_length_c 8.847555
_cell_angle_alpha 90.000000
_cell_angle_beta 90.000000
_cell_angle_gamma 90.000000
_cell_volume 3302.925406
_symmetry_space_group_name_H-M "P B C M"
_symmetry_group_IT_number 57
_symmetry_cell_setting 'orthorhombic'
loop_
_space_group_symop_operation_xyz
x,y,z
-x,-y,1/2+z
x,1/2-y,-z
-x,1/2+y,1/2-z
-x,-y,-z
x,y,1/2-z
-x,1/2+y,z
x,1/2-y,1/2+z
loop_
_atom_site_type_symbol
_atom_site_label
_atom_site_fract_x
_atom_site_fract_y
_atom_site_fract_z
Si Si1 0.507423 0.298429 0.068528
Si Si2 0.607603 0.519581 0.931703
Si Si3 0.012095 0.549289 0.572977
Si Si4 0.292857 0.845252 0.568608
Si Si5 0.340166 0.376535 0.068142
Si Si6 0.739997 0.059076 0.927277
Si Si7 0.887364 0.632021 0.431051
Si Si8 0.929252 0.300137 0.568074
O O1 0.513376 0.295431 0.250000
O O2 0.426978 0.338919 0.027410
O O3 0.474276 0.250000 0.000000
O O4 0.620089 0.312265 0.001322
O O5 0.603658 0.517657 0.750000
O O6 0.626720 0.572134 0.977507
O O7 0.500000 0.500000 0.000000
O O8 0.698815 0.486529 0.992940
O O9 0.984521 0.548089 0.750000
O O10 0.134387 0.562600 0.559045
O O11 0.000000 0.500000 0.500000
O O12 0.939144 0.585301 0.488787
O O13 0.300854 0.845915 0.750000
O O14 0.308102 0.895984 0.503494
O O15 0.176756 0.827322 0.526183
O O16 0.330535 0.376686 0.250000
O O17 0.228457 0.363932 0.997598
O O18 0.711933 0.057654 0.750000
O O19 0.882879 0.631746 0.250000
O O20 0.967567 0.671895 0.480044
O O21 0.927168 0.250000 0.500000
O O22 0.930434 0.297150 0.750000
#
# Coordination Sequence:
#
# PCOD9439680 Si02
#       8
#     8   8   8   8   8   8   8   8
#     4  11  24  43  66  94 127 163 211 266 323 388
#     4  11  23  40  63  91 125 166 213 264 318 378
#     4  11  23  38  60  89 123 165 208 254 309 369
#     4  11  22  40  65  94 128 164 208 264 322 379
#     4  10  24  44  64  89 125 167 211 263 317 376
#     4  11  23  38  59  90 126 166 209 256 314 379
#     4  11  23  41  63  90 125 163 210 261 311 377
#     4  10  23  40  61  91 125 163 207 259 316 373
#
# _framework density 19.376761999999999
#
# number of rings (size 3 to 8) (size 9 to 14) (size 15 to 20)
#    0.000    1.250    1.250    4.125    0.000   10.000 
#    0.000    2.500    0.000    0.000    0.000    0.000 
#    0.000    0.000    0.000    0.000    0.000    0.000 
#
# Total GULP energy -357993.433832 kJ/mol
# GULP energy per Si atom -5593.647404 kJ/mol
# Density = 1.933266 g / cm^3
# Si number density = 19.376762 Si / 1000 Ang^3
#
#
#
# Elastic Constant Matrix: (Units=GPa)
#
#
# Indices 1 2 3 4 5 6 
#
# 1 116.4575 56.3368 46.5139 0.0000 0.0000 0.0000
# 2 56.3368 156.1993 44.5287 0.0000 0.0000 0.0000
# 3 46.5139 44.5287 46.0300 0.0000 0.0000 0.0000
# 4 0.0000 0.0000 0.0000 37.1290 0.0000 0.0000
# 5 0.0000 0.0000 0.0000 0.0000 36.0616 0.0000
# 6 0.0000 0.0000 0.0000 0.0000 0.0000 33.5224
#
#
#
# Elastic Compliance Matrix: (Units=1/GPa)
#
#
# Indices 1 2 3 4 5 6 
#
# 1 0.014637 -0.001467 -0.013372 0.000000 0.000000 0.000000
# 2 -0.001467 0.008987 -0.007211 0.000000 0.000000 0.000000
# 3 -0.013372 -0.007211 0.042213 0.000000 0.000000 0.000000
# 4 0.000000 0.000000 0.000000 0.026933 0.000000 0.000000
# 5 0.000000 0.000000 0.000000 0.000000 0.027730 0.000000
# 6 0.000000 0.000000 0.000000 0.000000 0.000000 0.029831
#
#
# Mechanical properties :
#
#
# Convention : Reuss Voigt Hill
#
# Bulk Modulus (GPa) = 46.00417 68.16063 57.08240
# Shear Modulus (GPa) = 24.79191 32.76310 28.77750
#
# Velocity S-wave (km/s) = 3.58084 4.11645 3.85795
# Velocity P-wave (km/s) = 6.39453 7.60568 7.02625
#
# Compressibility (1/GPa) = 0.02173716
#
# Stress axis : x y z
#
# Youngs Moduli (GPa) = 68.31781 111.27141 23.68914
#
# Poissons Ratio (x) = 0.16327 0.31677
# Poissons Ratio (y) = 0.10024 0.17083
# Poissons Ratio (z) = 0.91354 0.80240
#
# Static dielectric constant tensor:
#      x y z
#    x 1.675340 0.000000 0.000000 
#    y 0.000000 1.650100 0.000000 
#    z 0.000000 0.000000 1.642640 
# 
# From -- ./inp_files/3836.got.cif
#   From: 2010.05.17/outbox.cif.g08.bks.cpg/sg57_2_cif.got.tgz:3836.got - 2010.06.03 13:58:18.
