data_PCOD9439231
_publ_section_title
;
Structure prediction by ZEFSAII (Michael W. Deem and Ramdas Pophale) SiO2 
 PCOD9439231
Probable space group: P B C M
;
_chemical_formula_sum "Si O2"
_cell_formula_units_Z 64
_cell_length_a 5.305335
_cell_length_b 18.661455
_cell_length_c 29.314142
_cell_angle_alpha 90.000000
_cell_angle_beta 90.000000
_cell_angle_gamma 90.000000
_cell_volume 2902.254554
_symmetry_space_group_name_H-M "P B C M"
_symmetry_group_IT_number 57
_symmetry_cell_setting 'orthorhombic'
loop_
_space_group_symop_operation_xyz
x,y,z
-x,-y,1/2+z
x,1/2-y,-z
-x,1/2+y,1/2-z
-x,-y,-z
x,y,1/2-z
-x,1/2+y,z
x,1/2-y,1/2+z
loop_
_atom_site_type_symbol
_atom_site_label
_atom_site_fract_x
_atom_site_fract_y
_atom_site_fract_z
Si Si1 0.222500 0.695407 0.348053
Si Si2 0.898995 0.812438 0.035470
Si Si3 0.588108 0.188533 0.582717
Si Si4 0.214791 0.944850 0.128208
Si Si5 0.148604 0.033238 0.957625
Si Si6 0.281184 0.251292 0.302912
Si Si7 0.618051 0.461976 0.624360
Si Si8 0.176283 0.418043 0.196052
O O1 0.279031 0.748767 0.389463
O O2 0.446247 0.717835 0.313380
O O3 0.268683 0.614150 0.363658
O O4 0.944720 0.712625 0.329841
O O5 0.702461 0.791025 0.075287
O O6 0.199792 0.821303 0.043049
O O7 0.771503 0.889184 0.023302
O O8 0.865722 0.750000 0.000000
O O9 0.589574 0.113771 0.609831
O O10 0.018003 0.945561 0.086688
O O11 0.107955 0.917570 0.176017
O O12 0.320539 0.025004 0.130740
O O13 0.337086 0.981812 0.929543
O O14 0.000000 0.000000 0.000000
O O15 0.221880 0.242382 0.250000
O O16 0.277761 0.337400 0.311428
O O17 0.712887 0.519533 0.663122
O O18 0.193071 0.434317 0.250000
#
# Coordination Sequence:
#
# PCOD9439231 Si02
#       8
#     8   8   8   8   8   8   8   8
#     4  12  26  42  70 100 142 178 225 289 347 414
#     4  11  24  42  67  97 130 174 231 287 333 402
#     4  11  22  43  67  93 133 178 224 281 338 403
#     4  10  21  43  67  92 135 176 228 279 340 407
#     4  10  24  42  65  95 136 179 225 285 345 416
#     4  11  25  46  70 101 135 182 234 287 344 412
#     4  11  25  43  66 103 137 187 227 285 359 415
#     4  10  23  43  72  98 132 183 236 282 342 423
#
# _framework density 22.051819999999999
#
# number of rings (size 3 to 8) (size 9 to 14) (size 15 to 20)
#    0.000    1.250    2.500    2.250    7.000    3.000 
#    0.000    0.000    0.000    0.000    0.000    0.000 
#    0.000    0.000    0.000    0.000    0.000    0.000 
#
# Total GULP energy -356435.212150 kJ/mol
# GULP energy per Si atom -5569.300190 kJ/mol
# Density = 2.200163 g / cm^3
# Si number density = 22.051820 Si / 1000 Ang^3
#
#
#
# Elastic Constant Matrix: (Units=GPa)
#
#
# Indices 1 2 3 4 5 6 
#
# 1 65.8167 -4.0828 8.8668 0.0000 0.0000 0.0000
# 2 -4.0828 68.6767 13.1722 0.0000 0.0000 0.0000
# 3 8.8668 13.1722 58.9404 0.0000 0.0000 0.0000
# 4 0.0000 0.0000 0.0000 25.3766 0.0000 0.0000
# 5 0.0000 0.0000 0.0000 0.0000 22.7381 0.0000
# 6 0.0000 0.0000 0.0000 0.0000 0.0000 25.3344
#
#
#
# Elastic Compliance Matrix: (Units=1/GPa)
#
#
# Indices 1 2 3 4 5 6 
#
# 1 0.015644 0.001443 -0.002676 0.000000 0.000000 0.000000
# 2 0.001443 0.015346 -0.003647 0.000000 0.000000 0.000000
# 3 -0.002676 -0.003647 0.018184 0.000000 0.000000 0.000000
# 4 0.000000 0.000000 0.000000 0.039406 0.000000 0.000000
# 5 0.000000 0.000000 0.000000 0.000000 0.043979 0.000000
# 6 0.000000 0.000000 0.000000 0.000000 0.000000 0.039472
#
#
# Mechanical properties :
#
#
# Convention : Reuss Voigt Hill
#
# Bulk Modulus (GPa) = 25.37105 25.48289 25.42697
# Shear Modulus (GPa) = 25.65045 26.38834 26.01939
#
# Velocity S-wave (km/s) = 3.41426 3.46302 3.43872
# Velocity P-wave (km/s) = 5.20318 5.25081 5.22705
#
# Compressibility (1/GPa) = 0.03941500
#
# Stress axis : x y z
#
# Youngs Moduli (GPa) = 63.92331 65.16258 54.99392
#
# Poissons Ratio (x) = -0.09405 0.14716
# Poissons Ratio (y) = -0.09226 0.20055
# Poissons Ratio (z) = 0.17105 0.23763
#
# Static dielectric constant tensor:
#      x y z
#    x 2.094770 0.000000 0.000000 
#    y 0.000000 1.907980 0.000000 
#    z 0.000000 0.000000 1.897750 
# 
# From -- ./inp_files/29269.got.cif
#   From: 2010.05.17/outbox.cif.g08.bks.cpg/sg57_15_cif.got.tgz:29269.got - 2010.06.03 13:58:18.
