data_PCOD9439814
_publ_section_title
;
Structure prediction by ZEFSAII (Michael W. Deem and Ramdas Pophale) SiO2 
 PCOD9439814
Probable space group: P B C M
;
_chemical_formula_sum "Si O2"
_cell_formula_units_Z 36
_cell_length_a 9.193160
_cell_length_b 15.976435
_cell_length_c 9.345545
_cell_angle_alpha 90.000000
_cell_angle_beta 90.000000
_cell_angle_gamma 90.000000
_cell_volume 1372.616858
_symmetry_space_group_name_H-M "P B C M"
_symmetry_group_IT_number 57
_symmetry_cell_setting 'orthorhombic'
loop_
_space_group_symop_operation_xyz
x,y,z
-x,-y,1/2+z
x,1/2-y,-z
-x,1/2+y,1/2-z
-x,-y,-z
x,y,1/2-z
-x,1/2+y,z
x,1/2-y,1/2+z
loop_
_atom_site_type_symbol
_atom_site_label
_atom_site_fract_x
_atom_site_fract_y
_atom_site_fract_z
Si Si1 0.428722 0.156620 0.471010
Si Si2 0.936251 0.250000 0.000000
Si Si3 0.122996 0.413119 0.582447
Si Si4 0.466392 0.564470 0.750000
Si Si5 0.087899 0.487794 0.250000
Si Si6 0.637989 0.393044 0.750000
Si Si7 0.836619 0.145629 0.750000
O O1 0.378446 0.250000 0.500000
O O2 0.290991 0.110033 0.402696
O O3 0.466010 0.109201 0.614312
O O4 0.578005 0.158209 0.383425
O O5 0.034894 0.326452 0.937880
O O6 0.836953 0.205749 0.884152
O O7 0.068821 0.447770 0.750000
O O8 0.117605 0.469838 0.437065
O O9 0.529705 0.472714 0.750000
O O10 0.294155 0.579770 0.750000
O O11 0.205005 0.566956 0.250000
O O12 0.991624 0.400038 0.250000
#
# Coordination Sequence:
#
# PCOD9439814 Si02
#       7
#     8   4   8   4   4   4   4
#     4  12  26  47  80 109 156 202 255 314 390 455
#     4  12  26  46  86 110 156 192 268 306 388 456
#     4  10  23  47  73 115 150 199 250 317 368 464
#     4  12  31  46  75 109 159 200 255 315 385 460
#     4  10  27  48  81 111 155 199 260 314 384 448
#     4  12  27  52  75 115 153 206 256 315 384 462
#     4  12  29  52  77 115 151 205 249 324 377 462
#
# _framework density 26.227274000000001
#
# number of rings (size 3 to 8) (size 9 to 14) (size 15 to 20)
#    0.667    0.000    3.333    2.667    7.778    2.667 
#    0.000    0.000    0.000    0.000    0.000    0.000 
#    0.000    0.000    0.000    0.000    0.000    0.000 
#
# Total GULP energy -200953.958940 kJ/mol
# GULP energy per Si atom -5582.054415 kJ/mol
# Density = 2.616758 g / cm^3
# Si number density = 26.227274 Si / 1000 Ang^3
#
#
#
# Elastic Constant Matrix: (Units=GPa)
#
#
# Indices 1 2 3 4 5 6 
#
# 1 179.0156 37.0000 77.8648 0.0000 0.0000 0.0000
# 2 37.0000 77.7245 55.8777 0.0000 0.0000 0.0000
# 3 77.8648 55.8777 173.1269 0.0000 0.0000 0.0000
# 4 0.0000 0.0000 0.0000 25.0686 0.0000 0.0000
# 5 0.0000 0.0000 0.0000 0.0000 10.2859 0.0000
# 6 0.0000 0.0000 0.0000 0.0000 0.0000 70.5437
#
#
#
# Elastic Compliance Matrix: (Units=1/GPa)
#
#
# Indices 1 2 3 4 5 6 
#
# 1 0.007060 -0.001404 -0.002722 0.000000 0.000000 0.000000
# 2 -0.001404 0.017032 -0.004866 0.000000 0.000000 0.000000
# 3 -0.002722 -0.004866 0.008571 0.000000 0.000000 0.000000
# 4 0.000000 0.000000 0.000000 0.039891 0.000000 0.000000
# 5 0.000000 0.000000 0.000000 0.000000 0.097220 0.000000
# 6 0.000000 0.000000 0.000000 0.000000 0.000000 0.014176
#
#
# Mechanical properties :
#
#
# Convention : Reuss Voigt Hill
#
# Bulk Modulus (GPa) = 68.12188 85.70578 76.91383
# Shear Modulus (GPa) = 24.17470 38.45461 31.31466
#
# Velocity S-wave (km/s) = 3.03931 3.83326 3.45914
# Velocity P-wave (km/s) = 6.19246 7.23470 6.73378
#
# Compressibility (1/GPa) = 0.01467957
#
# Stress axis : x y z
#
# Youngs Moduli (GPa) = 141.63554 58.71133 116.67256
#
# Poissons Ratio (x) = 0.08242 0.31762
# Poissons Ratio (y) = 0.19884 0.56772
# Poissons Ratio (z) = 0.38558 0.28569
#
# Static dielectric constant tensor:
#      x y z
#    x 2.061530 0.000000 0.000000 
#    y 0.000000 2.065400 0.000000 
#    z 0.000000 0.000000 2.198420 
# 
# From -- ./inp_files/1390.got.cif
#   From: 2010.05.17/outbox.cif.g08.bks.cpg/sg57_1_cif.got.tgz:1390.got - 2010.06.03 13:58:18.
