data_PCOD9439834
_publ_section_title
;
Structure prediction by ZEFSAII (Michael W. Deem and Ramdas Pophale) SiO2 
 PCOD9439834
Probable space group: P B C M
;
_chemical_formula_sum "Si O2"
_cell_formula_units_Z 36
_cell_length_a 21.872252
_cell_length_b 9.454700
_cell_length_c 8.091272
_cell_angle_alpha 90.000000
_cell_angle_beta 90.000000
_cell_angle_gamma 90.000000
_cell_volume 1673.239294
_symmetry_space_group_name_H-M "P B C M"
_symmetry_group_IT_number 57
_symmetry_cell_setting 'orthorhombic'
loop_
_space_group_symop_operation_xyz
x,y,z
-x,-y,1/2+z
x,1/2-y,-z
-x,1/2+y,1/2-z
-x,-y,-z
x,y,1/2-z
-x,1/2+y,z
x,1/2-y,1/2+z
loop_
_atom_site_type_symbol
_atom_site_label
_atom_site_fract_x
_atom_site_fract_y
_atom_site_fract_z
Si Si1 0.919701 0.977788 0.050096
Si Si2 0.322701 0.589700 0.056460
Si Si3 0.786793 0.902790 0.941321
Si Si4 0.985055 0.250000 0.500000
Si Si5 0.439975 0.086381 0.053232
O O1 0.935150 0.979400 0.250000
O O2 0.935209 0.126995 0.964455
O O3 0.849180 0.938370 0.036025
O O4 0.962331 0.865706 0.953338
O O5 0.309383 0.590045 0.250000
O O6 0.334481 0.750000 0.000000
O O7 0.264559 0.520477 0.967426
O O8 0.381302 0.491954 0.022326
O O9 0.802946 0.892284 0.750000
O O10 0.762862 0.750000 0.000000
O O11 0.434390 0.080960 0.250000
O O12 0.443783 0.250000 0.000000
O O13 0.500000 0.000000 0.000000
#
# Coordination Sequence:
#
# PCOD9439834 Si02
#       5
#     8   8   8   4   8
#     4  11  23  42  66  95 129 171 220 274 336 407
#     4  12  26  47  72 102 139 181 229 283 340 402
#     4  12  26  45  68  96 131 176 226 279 340 407
#     4  10  24  40  66  96 132 166 220 270 344 400
#     4  12  25  45  72 107 147 190 236 284 339 398
#
# _framework density 21.515155
#
# number of rings (size 3 to 8) (size 9 to 14) (size 15 to 20)
#    0.000    0.444    1.111    8.000    1.556    4.444 
#    0.000    0.000    0.000    0.000    0.000    0.000 
#    0.000    0.000    0.000    0.000    0.000    0.000 
#
# Total GULP energy -200678.054704 kJ/mol
# GULP energy per Si atom -5574.390408 kJ/mol
# Density = 2.146619 g / cm^3
# Si number density = 21.515155 Si / 1000 Ang^3
#
#
#
# Elastic Constant Matrix: (Units=GPa)
#
#
# Indices 1 2 3 4 5 6 
#
# 1 83.6531 28.3847 2.7680 0.0000 0.0000 0.0000
# 2 28.3847 190.2165 2.6484 0.0000 0.0000 0.0000
# 3 2.7680 2.6484 92.3190 0.0000 0.0000 0.0000
# 4 0.0000 0.0000 0.0000 25.6126 0.0000 0.0000
# 5 0.0000 0.0000 0.0000 0.0000 -26.9351 0.0000
# 6 0.0000 0.0000 0.0000 0.0000 0.0000 8.4091
#
#
#
# Elastic Compliance Matrix: (Units=1/GPa)
#
#
# Indices 1 2 3 4 5 6 
#
# 1 0.012601 -0.001876 -0.000324 0.000000 0.000000 0.000000
# 2 -0.001876 0.005539 -0.000103 0.000000 0.000000 0.000000
# 3 -0.000324 -0.000103 0.010845 0.000000 0.000000 0.000000
# 4 0.000000 0.000000 0.000000 0.039043 0.000000 0.000000
# 5 0.000000 0.000000 0.000000 0.000000 -0.037126 0.000000
# 6 0.000000 0.000000 0.000000 0.000000 0.000000 0.118919
#
#
# Mechanical properties :
#
#
# Convention : Reuss Voigt Hill
#
# Bulk Modulus (GPa) = 41.01813 48.19896 44.60854
# Shear Modulus (GPa) = 30.75943 23.57649 27.16796
#
# Velocity S-wave (km/s) = 3.78519 3.31389 3.55735
# Velocity P-wave (km/s) = 6.18140 6.09044 6.13609
#
# Compressibility (1/GPa) = 0.02437946
#
# Stress axis : x y z
#
# Youngs Moduli (GPa) = 79.35644 180.55355 92.21123
#
# Poissons Ratio (x) = 0.33870 0.02988
# Poissons Ratio (y) = 0.14886 0.00946
# Poissons Ratio (z) = 0.02571 0.01853
#
# Static dielectric constant tensor:
#      x y z
#    x 1.719400 0.000000 0.000000 
#    y 0.000000 1.789580 0.000000 
#    z 0.000000 0.000000 1.842910 
# 
# From -- ./inp_files/7648.got.cif
#   From: 2010.05.17/outbox.cif.g08.bks.cpg/sg57_4_cif.got.tgz:7648.got - 2010.06.03 13:58:18.
