data_PCOD9439638
_publ_section_title
;
Structure prediction by ZEFSAII (Michael W. Deem and Ramdas Pophale) SiO2 
 PCOD9439638
Probable space group: P B C M
;
_chemical_formula_sum "Si O2"
_cell_formula_units_Z 40
_cell_length_a 8.603027
_cell_length_b 22.592733
_cell_length_c 10.239016
_cell_angle_alpha 90.000000
_cell_angle_beta 90.000000
_cell_angle_gamma 90.000000
_cell_volume 1990.115478
_symmetry_space_group_name_H-M "P B C M"
_symmetry_group_IT_number 57
_symmetry_cell_setting 'orthorhombic'
loop_
_space_group_symop_operation_xyz
x,y,z
-x,-y,1/2+z
x,1/2-y,-z
-x,1/2+y,1/2-z
-x,-y,-z
x,y,1/2-z
-x,1/2+y,z
x,1/2-y,1/2+z
loop_
_atom_site_type_symbol
_atom_site_label
_atom_site_fract_x
_atom_site_fract_y
_atom_site_fract_z
Si Si1 0.298324 0.825482 0.750000
Si Si2 0.325752 0.880478 0.474178
Si Si3 0.142496 0.998511 0.400052
Si Si4 0.812062 0.197901 0.750000
Si Si5 0.693439 0.882605 0.513274
Si Si6 0.172648 0.167391 0.750000
Si Si7 0.335987 0.204725 0.250000
O O1 0.275282 0.863640 0.620419
O O2 0.190892 0.768359 0.750000
O O3 0.475638 0.799785 0.750000
O O4 0.275288 0.828428 0.376121
O O5 0.511316 0.886717 0.478863
O O6 0.244205 0.940113 0.426316
O O7 0.088683 0.997936 0.250000
O O8 0.246154 0.056485 0.425824
O O9 0.000000 0.000000 0.500000
O O10 0.989264 0.177537 0.750000
O O11 0.782290 0.867441 0.380623
O O12 0.715378 0.830895 0.620581
O O13 0.268186 0.229360 0.750000
#
# Coordination Sequence:
#
# PCOD9439638 Si02
#       7
#     4   8   8   4   8   4   4
#     4  10  24  41  70  97 130 173 223 275 327 392
#     4  11  24  45  70  96 132 175 228 273 325 396
#     4  12  27  46  69 100 138 174 218 276 339 400
#     4  12  24  43  62 103 138 175 217 273 337 398
#     4  11  24  45  70  97 130 178 226 275 324 394
#     4  12  26  39  68  99 138 175 217 273 339 394
#     4  10  22  45  66  99 130 173 225 273 325 394
#
# _framework density 20.099336999999998
#
# number of rings (size 3 to 8) (size 9 to 14) (size 15 to 20)
#    0.000    0.800    2.000    4.800    2.800    8.000 
#    0.000    0.000    0.000    0.000    0.000    0.000 
#    0.000    0.000    0.000    0.000    0.000    0.000 
#
# Total GULP energy -223960.004786 kJ/mol
# GULP energy per Si atom -5599.000120 kJ/mol
# Density = 2.005359 g / cm^3
# Si number density = 20.099337 Si / 1000 Ang^3
#
#
#
# Elastic Constant Matrix: (Units=GPa)
#
#
# Indices 1 2 3 4 5 6 
#
# 1 66.3551 11.3985 47.6508 0.0000 0.0000 0.0000
# 2 11.3985 73.3550 26.7093 0.0000 0.0000 0.0000
# 3 47.6508 26.7093 174.9621 0.0000 0.0000 0.0000
# 4 0.0000 0.0000 0.0000 51.2142 0.0000 0.0000
# 5 0.0000 0.0000 0.0000 0.0000 27.4993 0.0000
# 6 0.0000 0.0000 0.0000 0.0000 0.0000 10.3070
#
#
#
# Elastic Compliance Matrix: (Units=1/GPa)
#
#
# Indices 1 2 3 4 5 6 
#
# 1 0.018821 -0.001120 -0.004955 0.000000 0.000000 0.000000
# 2 -0.001120 0.014501 -0.001909 0.000000 0.000000 0.000000
# 3 -0.004955 -0.001909 0.007356 0.000000 0.000000 0.000000
# 4 0.000000 0.000000 0.000000 0.019526 0.000000 0.000000
# 5 0.000000 0.000000 0.000000 0.000000 0.036365 0.000000
# 6 0.000000 0.000000 0.000000 0.000000 0.000000 0.097021
#
#
# Mechanical properties :
#
#
# Convention : Reuss Voigt Hill
#
# Bulk Modulus (GPa) = 40.46784 54.02105 47.24444
# Shear Modulus (GPa) = 22.95734 33.06500 28.01117
#
# Velocity S-wave (km/s) = 3.38330 4.06036 3.73719
# Velocity P-wave (km/s) = 5.95315 6.99410 6.49451
#
# Compressibility (1/GPa) = 0.02471098
#
# Stress axis : x y z
#
# Youngs Moduli (GPa) = 53.13190 68.95898 135.93720
#
# Poissons Ratio (x) = 0.07727 0.67355
# Poissons Ratio (y) = 0.05953 0.25945
# Poissons Ratio (z) = 0.26326 0.13161
#
# Static dielectric constant tensor:
#      x y z
#    x 1.684040 0.000000 0.000000 
#    y 0.000000 1.676130 0.000000 
#    z 0.000000 0.000000 1.624670 
# 
# From -- ./inp_files/1592.got.cif
#   From: 2010.05.17/outbox.cif.g08.bks.cpg/sg57_1_cif.got.tgz:1592.got - 2010.06.03 13:58:18.
