data_PCOD9439046
_publ_section_title
;
Structure prediction by ZEFSAII (Michael W. Deem and Ramdas Pophale) SiO2 
 PCOD9439046
Probable space group: P B C M
;
_chemical_formula_sum "Si O2"
_cell_formula_units_Z 28
_cell_length_a 8.525644
_cell_length_b 13.539930
_cell_length_c 9.634004
_cell_angle_alpha 90.000000
_cell_angle_beta 90.000000
_cell_angle_gamma 90.000000
_cell_volume 1112.116887
_symmetry_space_group_name_H-M "P B C M"
_symmetry_group_IT_number 57
_symmetry_cell_setting 'orthorhombic'
loop_
_space_group_symop_operation_xyz
x,y,z
-x,-y,1/2+z
x,1/2-y,-z
-x,1/2+y,1/2-z
-x,-y,-z
x,y,1/2-z
-x,1/2+y,z
x,1/2-y,1/2+z
loop_
_atom_site_type_symbol
_atom_site_label
_atom_site_fract_x
_atom_site_fract_y
_atom_site_fract_z
Si Si1 0.784491 0.216869 0.750000
Si Si2 0.586718 0.564499 0.250000
Si Si3 0.779804 0.046394 0.250000
Si Si4 0.422162 0.303211 0.250000
Si Si5 0.774442 0.588459 0.989863
Si Si6 0.011165 0.750000 0.500000
O O1 0.787476 0.336767 0.750000
O O2 0.608655 0.176679 0.750000
O O3 0.882338 0.195315 0.612697
O O4 0.408954 0.528234 0.250000
O O5 0.586765 0.684424 0.250000
O O6 0.675244 0.536726 0.390418
O O7 0.845387 0.992392 0.114438
O O8 0.335730 0.345568 0.386642
O O9 0.897545 0.664340 0.056735
#
# Coordination Sequence:
#
# PCOD9439046 Si02
#       6
#     4   4   4   4   8   4
#     4  11  27  42  65 100 139 169 218 281 336 384
#     4  11  19  37  68 101 122 162 220 283 313 382
#     4  10  25  40  63  99 142 164 220 278 342 374
#     4  10  21  39  68  96 127 165 222 280 317 386
#     4  11  22  43  71  96 127 178 227 268 328 403
#     4  12  24  44  70  94 132 184 222 262 328 412
#
# _framework density 25.177212000000001
#
# number of rings (size 3 to 8) (size 9 to 14) (size 15 to 20)
#    0.000    1.143    2.857    3.429    8.000    1.143 
#    0.000    0.000    0.000    0.000    0.000    0.000 
#    0.000    0.000    0.000    0.000    0.000    0.000 
#
# Total GULP energy -156886.948250 kJ/mol
# GULP energy per Si atom -5603.105295 kJ/mol
# Density = 2.511991 g / cm^3
# Si number density = 25.177212 Si / 1000 Ang^3
#
#
#
# Elastic Constant Matrix: (Units=GPa)
#
#
# Indices 1 2 3 4 5 6 
#
# 1 109.3580 4.0181 23.5985 0.0000 0.0000 0.0000
# 2 4.0181 88.1158 -9.0030 0.0000 0.0000 0.0000
# 3 23.5985 -9.0030 118.6528 0.0000 0.0000 0.0000
# 4 0.0000 0.0000 0.0000 33.4597 0.0000 0.0000
# 5 0.0000 0.0000 0.0000 0.0000 21.4190 0.0000
# 6 0.0000 0.0000 0.0000 0.0000 0.0000 45.2913
#
#
#
# Elastic Compliance Matrix: (Units=1/GPa)
#
#
# Indices 1 2 3 4 5 6 
#
# 1 0.009590 -0.000637 -0.001956 0.000000 0.000000 0.000000
# 2 -0.000637 0.011480 0.000998 0.000000 0.000000 0.000000
# 3 -0.001956 0.000998 0.008893 0.000000 0.000000 0.000000
# 4 0.000000 0.000000 0.000000 0.029887 0.000000 0.000000
# 5 0.000000 0.000000 0.000000 0.000000 0.046687 0.000000
# 6 0.000000 0.000000 0.000000 0.000000 0.000000 0.022079
#
#
# Mechanical properties :
#
#
# Convention : Reuss Voigt Hill
#
# Bulk Modulus (GPa) = 37.35234 39.26153 38.30694
# Shear Modulus (GPa) = 35.52918 39.86820 37.69869
#
# Velocity S-wave (km/s) = 3.76062 3.98364 3.87374
# Velocity P-wave (km/s) = 5.80727 6.06524 5.93765
#
# Compressibility (1/GPa) = 0.02677208
#
# Stress axis : x y z
#
# Youngs Moduli (GPa) = 104.27863 87.11033 112.45302
#
# Poissons Ratio (x) = 0.05550 0.21991
# Poissons Ratio (y) = 0.06644 -0.11220
# Poissons Ratio (z) = 0.20393 -0.08691
#
# Static dielectric constant tensor:
#      x y z
#    x 1.939200 0.000000 0.000000 
#    y 0.000000 1.986700 0.000000 
#    z 0.000000 0.000000 1.925590 
# 
# From -- ./inp_files/1168.got.cif
#   From: 2010.05.17/outbox.cif.g08.bks.cpg/sg57_1_cif.got.tgz:1168.got - 2010.06.03 13:58:18.
