data_PCOD9439421
_publ_section_title
;
Structure prediction by ZEFSAII (Michael W. Deem and Ramdas Pophale) SiO2 
 PCOD9439421
Probable space group: P B C M
;
_chemical_formula_sum "Si O2"
_cell_formula_units_Z 64
_cell_length_a 12.832321
_cell_length_b 29.227948
_cell_length_c 8.776494
_cell_angle_alpha 90.000000
_cell_angle_beta 90.000000
_cell_angle_gamma 90.000000
_cell_volume 3291.732999
_symmetry_space_group_name_H-M "P B C M"
_symmetry_group_IT_number 57
_symmetry_cell_setting 'orthorhombic'
loop_
_space_group_symop_operation_xyz
x,y,z
-x,-y,1/2+z
x,1/2-y,-z
-x,1/2+y,1/2-z
-x,-y,-z
x,y,1/2-z
-x,1/2+y,z
x,1/2-y,1/2+z
loop_
_atom_site_type_symbol
_atom_site_label
_atom_site_fract_x
_atom_site_fract_y
_atom_site_fract_z
Si Si1 0.429508 0.699362 0.067674
Si Si2 0.106142 0.020698 0.431753
Si Si3 0.393598 0.135727 0.568961
Si Si4 0.000249 0.701457 0.567958
Si Si5 0.467776 0.951752 0.069038
Si Si6 0.843212 0.879768 0.434495
Si Si7 0.755280 0.057857 0.068136
Si Si8 0.795351 0.159416 0.433306
O O1 0.429978 0.701321 0.250000
O O2 0.320698 0.675158 0.020247
O O3 0.431811 0.750000 0.000000
O O4 0.529212 0.670907 0.012061
O O5 0.099610 0.021983 0.250000
O O6 0.127436 0.071384 0.494901
O O7 0.195676 0.985615 0.485175
O O8 0.000000 0.000000 0.500000
O O9 0.396435 0.145366 0.750000
O O10 0.442023 0.085408 0.545372
O O11 0.273600 0.135020 0.519442
O O12 0.966644 0.750000 0.500000
O O13 0.000076 0.704365 0.750000
O O14 0.924458 0.659825 0.522072
O O15 0.115748 0.689427 0.509888
O O16 0.448406 0.955348 0.250000
O O17 0.363554 0.936417 0.983551
O O18 0.500000 0.000000 0.000000
O O19 0.844260 0.884476 0.250000
O O20 0.761144 0.051283 0.250000
O O21 0.811006 0.105799 0.028787
O O22 0.802375 0.163832 0.250000
#
# Coordination Sequence:
#
# PCOD9439421 Si02
#       8
#     8   8   8   8   8   8   8   8
#     4  11  23  40  62  91 124 163 209 261 320 381
#     4  12  25  41  63  94 128 170 217 263 319 381
#     4  10  22  41  63  89 124 164 208 259 313 374
#     4  11  24  41  65  92 122 160 206 261 321 385
#     4  11  22  36  59  90 124 166 211 257 312 374
#     4  10  23  44  66  92 127 168 213 264 317 375
#     4  11  22  39  62  90 127 166 208 263 318 380
#     4  10  22  40  63  92 125 162 206 261 321 379
#
# _framework density 19.442647000000001
#
# number of rings (size 3 to 8) (size 9 to 14) (size 15 to 20)
#    0.000    1.250    1.250    4.500    0.000    8.500 
#    0.000    1.250    0.000    0.000    0.000    0.000 
#    0.000    0.000    0.000    0.000    0.000    0.000 
#
# Total GULP energy -357931.568658 kJ/mol
# GULP energy per Si atom -5592.680760 kJ/mol
# Density = 1.939839 g / cm^3
# Si number density = 19.442647 Si / 1000 Ang^3
#
#
#
# Elastic Constant Matrix: (Units=GPa)
#
#
# Indices 1 2 3 4 5 6 
#
# 1 127.8078 60.8196 37.5083 0.0000 0.0000 0.0000
# 2 60.8196 159.4214 58.9431 0.0000 0.0000 0.0000
# 3 37.5083 58.9431 53.3899 0.0000 0.0000 0.0000
# 4 0.0000 0.0000 0.0000 32.7077 0.0000 0.0000
# 5 0.0000 0.0000 0.0000 0.0000 27.6790 0.0000
# 6 0.0000 0.0000 0.0000 0.0000 0.0000 33.9618
#
#
#
# Elastic Compliance Matrix: (Units=1/GPa)
#
#
# Indices 1 2 3 4 5 6 
#
# 1 0.010260 -0.002111 -0.004878 0.000000 0.000000 0.000000
# 2 -0.002111 0.011033 -0.010698 0.000000 0.000000 0.000000
# 3 -0.004878 -0.010698 0.033968 0.000000 0.000000 0.000000
# 4 0.000000 0.000000 0.000000 0.030574 0.000000 0.000000
# 5 0.000000 0.000000 0.000000 0.000000 0.036128 0.000000
# 6 0.000000 0.000000 0.000000 0.000000 0.000000 0.029445
#
#
# Mechanical properties :
#
#
# Convention : Reuss Voigt Hill
#
# Bulk Modulus (GPa) = 50.28157 72.79568 61.53863
# Shear Modulus (GPa) = 25.85167 31.09292 28.47229
#
# Velocity S-wave (km/s) = 3.65038 4.00335 3.83093
# Velocity P-wave (km/s) = 6.60943 7.67409 7.16157
#
# Compressibility (1/GPa) = 0.01988800
#
# Stress axis : x y z
#
# Youngs Moduli (GPa) = 97.46371 90.63409 29.43969
#
# Poissons Ratio (x) = 0.19131 0.14360
# Poissons Ratio (y) = 0.20573 0.31495
# Poissons Ratio (z) = 0.47541 0.96961
#
# Static dielectric constant tensor:
#      x y z
#    x 1.672710 0.000000 0.000000 
#    y 0.000000 1.670290 0.000000 
#    z 0.000000 0.000000 1.656950 
# 
# From -- ./inp_files/3920.got.cif
#   From: 2010.05.17/outbox.cif.g08.bks.cpg/sg57_2_cif.got.tgz:3920.got - 2010.06.03 13:58:18.
