data_PCOD9439222
_publ_section_title
;
Structure prediction by ZEFSAII (Michael W. Deem and Ramdas Pophale) SiO2 
 PCOD9439222
Probable space group: P B C M
;
_chemical_formula_sum "Si O2"
_cell_formula_units_Z 48
_cell_length_a 10.169580
_cell_length_b 20.324856
_cell_length_c 10.969806
_cell_angle_alpha 90.000000
_cell_angle_beta 90.000000
_cell_angle_gamma 90.000000
_cell_volume 2267.406784
_symmetry_space_group_name_H-M "P B C M"
_symmetry_group_IT_number 57
_symmetry_cell_setting 'orthorhombic'
loop_
_space_group_symop_operation_xyz
x,y,z
-x,-y,1/2+z
x,1/2-y,-z
-x,1/2+y,1/2-z
-x,-y,-z
x,y,1/2-z
-x,1/2+y,z
x,1/2-y,1/2+z
loop_
_atom_site_type_symbol
_atom_site_label
_atom_site_fract_x
_atom_site_fract_y
_atom_site_fract_z
Si Si1 0.776396 0.262182 0.250000
Si Si2 0.922733 0.511154 0.250000
Si Si3 0.842263 0.673784 0.000420
Si Si4 0.406244 0.933454 0.614425
Si Si5 0.993123 0.862162 0.250000
Si Si6 0.992798 0.150483 0.250000
Si Si7 0.702055 0.957917 0.552740
Si Si8 0.454667 0.786683 0.610301
O O1 0.676559 0.255414 0.137753
O O2 0.866180 0.325825 0.250000
O O3 0.868544 0.197986 0.250000
O O4 0.023936 0.571819 0.250000
O O5 0.823473 0.520967 0.363316
O O6 0.988672 0.440436 0.250000
O O7 0.927002 0.665571 0.125308
O O8 0.732912 0.616264 0.008591
O O9 0.803006 0.750000 0.000000
O O10 0.920596 0.659778 0.874557
O O11 0.356783 0.926817 0.750000
O O12 0.558316 0.957115 0.614431
O O13 0.414803 0.859244 0.566621
O O14 0.317194 0.986252 0.547686
O O15 0.525898 0.750000 0.500000
O O16 0.515643 0.792355 0.750000
#
# Coordination Sequence:
#
# PCOD9439222 Si02
#       8
#     4   4   8   8   4   4   8   8
#     4  10  22  35  62  86 124 172 192 258 305 364
#     4  10  24  41  61  94 125 167 202 259 314 371
#     4  11  23  43  63  94 124 170 210 259 307 376
#     4  10  21  43  64  92 125 162 207 266 317 373
#     4  12  26  38  65  94 130 162 219 258 303 372
#     4  10  22  40  62  84 129 169 209 247 316 367
#     4  10  23  40  69  87 125 164 208 259 323 371
#     4   9  22  36  60  93 126 161 206 254 312 375
#
# _framework density 21.169557999999999
#
# number of rings (size 3 to 8) (size 9 to 14) (size 15 to 20)
#    0.500    1.333    2.500    0.000    5.833    4.667 
#    0.000    0.000    0.000    0.000    0.000    0.000 
#    0.000    0.000    0.000    0.000    0.000    0.000 
#
# Total GULP energy -267628.493980 kJ/mol
# GULP energy per Si atom -5575.593625 kJ/mol
# Density = 2.112138 g / cm^3
# Si number density = 21.169558 Si / 1000 Ang^3
#
#
#
# Elastic Constant Matrix: (Units=GPa)
#
#
# Indices 1 2 3 4 5 6 
#
# 1 47.4407 19.3096 30.4215 0.0000 0.0000 0.0000
# 2 19.3096 187.3323 60.4286 0.0000 0.0000 0.0000
# 3 30.4215 60.4286 104.6976 0.0000 0.0000 0.0000
# 4 0.0000 0.0000 0.0000 36.6142 0.0000 0.0000
# 5 0.0000 0.0000 0.0000 0.0000 -28.4217 0.0000
# 6 0.0000 0.0000 0.0000 0.0000 0.0000 23.6678
#
#
#
# Elastic Compliance Matrix: (Units=1/GPa)
#
#
# Indices 1 2 3 4 5 6 
#
# 1 0.025919 -0.000298 -0.007359 0.000000 0.000000 0.000000
# 2 -0.000298 0.006563 -0.003701 0.000000 0.000000 0.000000
# 3 -0.007359 -0.003701 0.013826 0.000000 0.000000 0.000000
# 4 0.000000 0.000000 0.000000 0.027312 0.000000 0.000000
# 5 0.000000 0.000000 0.000000 0.000000 -0.035184 0.000000
# 6 0.000000 0.000000 0.000000 0.000000 0.000000 0.042251
#
#
# Mechanical properties :
#
#
# Convention : Reuss Voigt Hill
#
# Bulk Modulus (GPa) = 42.38874 62.19888 52.29381
# Shear Modulus (GPa) = 44.93670 21.65947 33.29809
#
# Velocity S-wave (km/s) = 4.61228 3.20213 3.97031
# Velocity P-wave (km/s) = 6.95924 6.56632 6.76564
#
# Compressibility (1/GPa) = 0.02359117
#
# Stress axis : x y z
#
# Youngs Moduli (GPa) = 38.58121 152.37510 72.32743
#
# Poissons Ratio (x) = 0.04536 0.53229
# Poissons Ratio (y) = 0.01149 0.26771
# Poissons Ratio (z) = 0.28394 0.56399
#
# Static dielectric constant tensor:
#      x y z
#    x 1.753650 0.000000 0.000000 
#    y 0.000000 1.766230 0.000000 
#    z 0.000000 0.000000 1.992800 
# 
# From -- ./inp_files/12984.got.cif
#   From: 2010.05.17/outbox.cif.g08.bks.cpg/sg57_7_cif.got.tgz:12984.got - 2010.06.03 13:58:18.
