data_PCOD9439448
_publ_section_title
;
Structure prediction by ZEFSAII (Michael W. Deem and Ramdas Pophale) SiO2 
 PCOD9439448
Probable space group: P B C M
;
_chemical_formula_sum "Si O2"
_cell_formula_units_Z 36
_cell_length_a 20.394420
_cell_length_b 4.939898
_cell_length_c 15.201906
_cell_angle_alpha 90.000000
_cell_angle_beta 90.000000
_cell_angle_gamma 90.000000
_cell_volume 1531.536612
_symmetry_space_group_name_H-M "P B C M"
_symmetry_group_IT_number 57
_symmetry_cell_setting 'orthorhombic'
loop_
_space_group_symop_operation_xyz
x,y,z
-x,-y,1/2+z
x,1/2-y,-z
-x,1/2+y,1/2-z
-x,-y,-z
x,y,1/2-z
-x,1/2+y,z
x,1/2-y,1/2+z
loop_
_atom_site_type_symbol
_atom_site_label
_atom_site_fract_x
_atom_site_fract_y
_atom_site_fract_z
Si Si1 0.538224 0.188339 0.642827
Si Si2 0.742582 0.421193 0.918200
Si Si3 0.955500 0.517650 0.149589
Si Si4 0.323543 0.450193 0.848630
Si Si5 0.868710 0.250000 0.000000
O O1 0.539461 0.194929 0.750000
O O2 0.479848 0.988758 0.614213
O O3 0.607647 0.065897 0.616516
O O4 0.709175 0.704088 0.900228
O O5 0.726531 0.202132 0.844096
O O6 0.713920 0.250000 0.000000
O O7 0.818918 0.438217 0.943180
O O8 0.929525 0.477150 0.250000
O O9 0.909758 0.421986 0.070175
O O10 0.980158 0.825088 0.142080
O O11 0.336719 0.345427 0.750000
#
# Coordination Sequence:
#
# PCOD9439448 Si02
#       5
#     8   8   8   8   4
#     4   9  17  30  53  84 113 145 194 255 319 378
#     4  10  24  39  58  85 122 166 203 245 313 372
#     4  10  22  40  65  97 128 161 206 257 306 365
#     4  11  21  38  62  88 118 156 207 267 314 372
#     4  10  24  42  66  88 128 174 206 252 316 366
#
# _framework density 23.505803
#
# number of rings (size 3 to 8) (size 9 to 14) (size 15 to 20)
#    0.667    1.333    0.000    3.333    0.000    8.889 
#    0.000    2.222    0.000   13.333    0.000    0.000 
#    0.000    0.000    0.000    0.000    0.000    0.000 
#
# Total GULP energy -201032.051853 kJ/mol
# GULP energy per Si atom -5584.223663 kJ/mol
# Density = 2.345230 g / cm^3
# Si number density = 23.505803 Si / 1000 Ang^3
#
#
#
# Elastic Constant Matrix: (Units=GPa)
#
#
# Indices 1 2 3 4 5 6 
#
# 1 75.1929 -1.9991 30.6530 0.0000 0.0000 0.0000
# 2 -1.9991 85.2478 3.8731 0.0000 0.0000 0.0000
# 3 30.6530 3.8731 76.8186 0.0000 0.0000 0.0000
# 4 0.0000 0.0000 0.0000 12.0454 0.0000 0.0000
# 5 0.0000 0.0000 0.0000 0.0000 39.6803 0.0000
# 6 0.0000 0.0000 0.0000 0.0000 0.0000 -10.6251
#
#
#
# Elastic Compliance Matrix: (Units=1/GPa)
#
#
# Indices 1 2 3 4 5 6 
#
# 1 0.015920 0.000663 -0.006386 0.000000 0.000000 0.000000
# 2 0.000663 0.011785 -0.000859 0.000000 0.000000 0.000000
# 3 -0.006386 -0.000859 0.015609 0.000000 0.000000 0.000000
# 4 0.000000 0.000000 0.000000 0.083019 0.000000 0.000000
# 5 0.000000 0.000000 0.000000 0.000000 0.025201 0.000000
# 6 0.000000 0.000000 0.000000 0.000000 0.000000 -0.094117
#
#
# Mechanical properties :
#
#
# Convention : Reuss Voigt Hill
#
# Bulk Modulus (GPa) = 33.16601 33.59038 33.37819
# Shear Modulus (GPa) = 62.01049 21.86894 41.93972
#
# Velocity S-wave (km/s) = 5.14181 3.05349 4.22859
# Velocity P-wave (km/s) = 7.02789 5.17233 6.17026
#
# Compressibility (1/GPa) = 0.03015135
#
# Stress axis : x y z
#
# Youngs Moduli (GPa) = 62.81370 84.85294 64.06463
#
# Poissons Ratio (x) = -0.05630 0.40912
# Poissons Ratio (y) = -0.04168 0.05503
# Poissons Ratio (z) = 0.40113 0.07288
#
# Static dielectric constant tensor:
#      x y z
#    x 1.883430 0.000000 0.000000 
#    y 0.000000 1.857510 0.000000 
#    z 0.000000 0.000000 2.056780 
# 
# From -- ./inp_files/19205.got.cif
#   From: 2010.05.17/outbox.cif.g08.bks.cpg/sg57_10_cif.got.tgz:19205.got - 2010.06.03 13:58:18.
