data_PCOD9439966
_publ_section_title
;
Structure prediction by ZEFSAII (Michael W. Deem and Ramdas Pophale) SiO2 
 PCOD9439966
Probable space group: P B C M
;
_chemical_formula_sum "Si O2"
_cell_formula_units_Z 64
_cell_length_a 9.371583
_cell_length_b 16.522790
_cell_length_c 20.606840
_cell_angle_alpha 90.000000
_cell_angle_beta 90.000000
_cell_angle_gamma 90.000000
_cell_volume 3190.859914
_symmetry_space_group_name_H-M "P B C M"
_symmetry_group_IT_number 57
_symmetry_cell_setting 'orthorhombic'
loop_
_space_group_symop_operation_xyz
x,y,z
-x,-y,1/2+z
x,1/2-y,-z
-x,1/2+y,1/2-z
-x,-y,-z
x,y,1/2-z
-x,1/2+y,z
x,1/2-y,1/2+z
loop_
_atom_site_type_symbol
_atom_site_label
_atom_site_fract_x
_atom_site_fract_y
_atom_site_fract_z
Si Si1 0.177488 0.344607 0.524128
Si Si2 0.855094 0.124010 0.476612
Si Si3 0.323118 0.431428 0.175918
Si Si4 0.494402 0.733707 0.820989
Si Si5 0.957648 0.659530 0.823351
Si Si6 0.358058 0.478921 0.039470
Si Si7 0.783709 0.274220 0.402942
Si Si8 0.221386 0.173108 0.324192
O O1 0.178594 0.250000 0.500000
O O2 0.299964 0.392296 0.485526
O O3 0.191418 0.359332 0.602439
O O4 0.021601 0.379163 0.506014
O O5 0.844278 0.183917 0.414776
O O6 0.775119 0.175355 0.531411
O O7 0.771166 0.041374 0.471321
O O8 0.324210 0.463572 0.250000
O O9 0.414725 0.348917 0.176879
O O10 0.160258 0.407036 0.156955
O O11 0.385760 0.481614 0.116669
O O12 0.425816 0.739612 0.750000
O O13 0.370618 0.733397 0.872481
O O14 0.611860 0.803442 0.826986
O O15 0.997345 0.639501 0.750000
O O16 0.870279 0.743927 0.823377
O O17 0.100434 0.675193 0.862391
O O18 0.500000 0.500000 0.000000
O O19 0.196947 0.136716 0.250000
#
# Coordination Sequence:
#
# PCOD9439966 Si02
#       8
#     8   8   8   8   8   8   8   8
#     4  12  22  43  69  92 123 175 217 264 327 392
#     4  11  24  39  59  90 131 163 210 268 324 386
#     4   9  19  40  63  85 122 168 214 257 318 390
#     4   9  18  32  57  90 120 158 205 260 312 370
#     4   9  16  31  60  91 118 155 211 262 306 378
#     4  12  27  43  62  96 129 172 217 269 332 389
#     4  11  19  35  59  91 128 158 210 263 322 373
#     4   9  18  34  56  88 122 159 206 258 314 381
#
# _framework density 20.057289000000001
#
# number of rings (size 3 to 8) (size 9 to 14) (size 15 to 20)
#    0.000    1.750    2.500    5.250    1.750    0.000 
#    0.000    2.500    0.000    1.500    0.000    0.000 
#    0.000    0.000    0.000    0.000    0.000    0.000 
#
# Total GULP energy -356575.583929 kJ/mol
# GULP energy per Si atom -5571.493499 kJ/mol
# Density = 2.001164 g / cm^3
# Si number density = 20.057289 Si / 1000 Ang^3
#
#
#
# Elastic Constant Matrix: (Units=GPa)
#
#
# Indices 1 2 3 4 5 6 
#
# 1 77.3837 20.0661 23.3185 0.0000 0.0000 0.0000
# 2 20.0661 40.9030 19.0363 0.0000 0.0000 0.0000
# 3 23.3185 19.0363 94.5794 0.0000 0.0000 0.0000
# 4 0.0000 0.0000 0.0000 16.6193 0.0000 0.0000
# 5 0.0000 0.0000 0.0000 0.0000 36.6575 0.0000
# 6 0.0000 0.0000 0.0000 0.0000 0.0000 18.2044
#
#
#
# Elastic Compliance Matrix: (Units=1/GPa)
#
#
# Indices 1 2 3 4 5 6 
#
# 1 0.015323 -0.006354 -0.002499 0.000000 0.000000 0.000000
# 2 -0.006354 0.029610 -0.004393 0.000000 0.000000 0.000000
# 3 -0.002499 -0.004393 0.012073 0.000000 0.000000 0.000000
# 4 0.000000 0.000000 0.000000 0.060171 0.000000 0.000000
# 5 0.000000 0.000000 0.000000 0.000000 0.027280 0.000000
# 6 0.000000 0.000000 0.000000 0.000000 0.000000 0.054932
#
#
# Mechanical properties :
#
#
# Convention : Reuss Voigt Hill
#
# Bulk Modulus (GPa) = 32.77177 37.52309 35.14743
# Shear Modulus (GPa) = 21.18169 24.32593 22.75381
#
# Velocity S-wave (km/s) = 3.25323 3.48634 3.37180
# Velocity P-wave (km/s) = 5.52141 5.91225 5.72016
#
# Compressibility (1/GPa) = 0.03051407
#
# Stress axis : x y z
#
# Youngs Moduli (GPa) = 65.25979 33.77254 82.82634
#
# Poissons Ratio (x) = 0.21460 0.20699
# Poissons Ratio (y) = 0.41468 0.36386
# Poissons Ratio (z) = 0.16309 0.14836
#
# Static dielectric constant tensor:
#      x y z
#    x 1.751900 0.000000 0.000000 
#    y 0.000000 1.725950 0.000000 
#    z 0.000000 0.000000 1.797080 
# 
# From -- ./inp_files/24622.got.cif
#   From: 2010.05.17/outbox.cif.g08.bks.cpg/sg57_13_cif.got.tgz:24622.got - 2010.06.03 13:58:18.
