data_PCOD9439779
_publ_section_title
;
Structure prediction by ZEFSAII (Michael W. Deem and Ramdas Pophale) SiO2 
 PCOD9439779
Probable space group: P B C M
;
_chemical_formula_sum "Si O2"
_cell_formula_units_Z 56
_cell_length_a 7.649513
_cell_length_b 21.508475
_cell_length_c 13.832143
_cell_angle_alpha 90.000000
_cell_angle_beta 90.000000
_cell_angle_gamma 90.000000
_cell_volume 2275.793623
_symmetry_space_group_name_H-M "P B C M"
_symmetry_group_IT_number 57
_symmetry_cell_setting 'orthorhombic'
loop_
_space_group_symop_operation_xyz
x,y,z
-x,-y,1/2+z
x,1/2-y,-z
-x,1/2+y,1/2-z
-x,-y,-z
x,y,1/2-z
-x,1/2+y,z
x,1/2-y,1/2+z
loop_
_atom_site_type_symbol
_atom_site_label
_atom_site_fract_x
_atom_site_fract_y
_atom_site_fract_z
Si Si1 0.631162 0.414107 0.635337
Si Si2 0.453383 0.246551 0.859008
Si Si3 0.901493 0.669126 0.856620
Si Si4 0.089899 0.861423 0.984037
Si Si5 0.307298 0.048650 0.634088
Si Si6 0.355339 0.875056 0.133161
Si Si7 0.263463 0.130351 0.366060
O O1 0.654493 0.408217 0.750000
O O2 0.744095 0.358916 0.587391
O O3 0.715283 0.478767 0.599139
O O4 0.421526 0.418385 0.620678
O O5 0.508512 0.265407 0.750000
O O6 0.281430 0.203887 0.850846
O O7 0.596620 0.196860 0.893881
O O8 0.368027 0.308185 0.904563
O O9 0.983203 0.674264 0.750000
O O10 0.844479 0.598406 0.880702
O O11 0.012293 0.692311 0.946518
O O12 0.920634 0.880181 0.919319
O O13 0.186958 0.896582 0.074386
O O14 0.323732 0.043598 0.750000
O O15 0.485133 0.081346 0.600941
O O16 0.343659 0.878371 0.250000
O O17 0.230719 0.137512 0.250000
#
# Coordination Sequence:
#
# PCOD9439779 Si02
#       7
#     8   8   8   8   8   8   8
#     4  10  23  44  63  87 127 170 214 256 303 370
#     4   8  17  40  68  83 116 166 201 251 311 363
#     4   9  19  38  62  92 124 155 200 260 321 367
#     4  12  24  37  63  98 123 161 205 258 311 377
#     4   8  17  39  67  87 122 170 206 257 313 367
#     4   9  19  39  66  98 125 159 208 257 319 368
#     4  10  23  45  64  85 124 171 213 252 306 369
#
# _framework density 24.6068
#
# number of rings (size 3 to 8) (size 9 to 14) (size 15 to 20)
#    0.000    2.571    0.000    2.571    4.000    1.714 
#    7.714    0.000    0.000    0.000    0.000    0.000 
#    0.000    0.000    0.000    0.000    0.000    0.000 
#
# Total GULP energy -311743.847607 kJ/mol
# GULP energy per Si atom -5566.854422 kJ/mol
# Density = 2.455079 g / cm^3
# Si number density = 24.606800 Si / 1000 Ang^3
#
#
#
# Elastic Constant Matrix: (Units=GPa)
#
#
# Indices 1 2 3 4 5 6 
#
# 1 89.0734 20.9789 19.7080 0.0000 0.0000 0.0000
# 2 20.9789 66.9024 24.3798 0.0000 0.0000 0.0000
# 3 19.7080 24.3798 118.4623 0.0000 0.0000 0.0000
# 4 0.0000 0.0000 0.0000 13.9738 0.0000 0.0000
# 5 0.0000 0.0000 0.0000 0.0000 49.5828 0.0000
# 6 0.0000 0.0000 0.0000 0.0000 0.0000 -4.9680
#
#
#
# Elastic Compliance Matrix: (Units=1/GPa)
#
#
# Indices 1 2 3 4 5 6 
#
# 1 0.012320 -0.003369 -0.001356 0.000000 0.000000 0.000000
# 2 -0.003369 0.017080 -0.002955 0.000000 0.000000 0.000000
# 3 -0.001356 -0.002955 0.009275 0.000000 0.000000 0.000000
# 4 0.000000 0.000000 0.000000 0.071562 0.000000 0.000000
# 5 0.000000 0.000000 0.000000 0.000000 0.020168 0.000000
# 6 0.000000 0.000000 0.000000 0.000000 0.000000 -0.201289
#
#
# Mechanical properties :
#
#
# Convention : Reuss Voigt Hill
#
# Bulk Modulus (GPa) = 42.88954 44.95240 43.92097
# Shear Modulus (GPa) = -104.71168 25.67583 -39.51793
#
# Velocity S-wave (km/s) = -6.53042 3.23374 -4.01181
# Velocity P-wave (km/s) = 6.27646 5.67897 1.88988
#
# Compressibility (1/GPa) = 0.02331571
#
# Stress axis : x y z
#
# Youngs Moduli (GPa) = 81.16696 58.54697 107.81417
#
# Poissons Ratio (x) = 0.19725 0.14623
# Poissons Ratio (y) = 0.27346 0.31856
# Poissons Ratio (z) = 0.11009 0.17299
#
# Static dielectric constant tensor:
#      x y z
#    x 2.008240 0.000000 0.000000 
#    y 0.000000 2.139900 0.000000 
#    z 0.000000 0.000000 2.015380 
# 
# From -- ./inp_files/16734.got.cif
#   From: 2010.05.17/outbox.cif.g08.bks.cpg/sg57_9_cif.got.tgz:16734.got - 2010.06.03 13:58:18.
