data_PCOD9439228
_publ_section_title
;
Structure prediction by ZEFSAII (Michael W. Deem and Ramdas Pophale) SiO2 
 PCOD9439228
Probable space group: P B C M
;
_chemical_formula_sum "Si O2"
_cell_formula_units_Z 40
_cell_length_a 8.953494
_cell_length_b 8.960626
_cell_length_c 24.327594
_cell_angle_alpha 90.000000
_cell_angle_beta 90.000000
_cell_angle_gamma 90.000000
_cell_volume 1951.776377
_symmetry_space_group_name_H-M "P B C M"
_symmetry_group_IT_number 57
_symmetry_cell_setting 'orthorhombic'
loop_
_space_group_symop_operation_xyz
x,y,z
-x,-y,1/2+z
x,1/2-y,-z
-x,1/2+y,1/2-z
-x,-y,-z
x,y,1/2-z
-x,1/2+y,z
x,1/2-y,1/2+z
loop_
_atom_site_type_symbol
_atom_site_label
_atom_site_fract_x
_atom_site_fract_y
_atom_site_fract_z
Si Si1 0.625581 0.937259 0.149470
Si Si2 0.196128 0.204850 0.750000
Si Si3 0.791677 0.599530 0.535080
Si Si4 0.694065 0.285553 0.153009
Si Si5 0.124637 0.940900 0.250000
Si Si6 0.873188 0.132331 0.546420
O O1 0.711317 0.839543 0.195472
O O2 0.687692 0.908148 0.088097
O O3 0.454557 0.885436 0.150521
O O4 0.650226 0.112750 0.162934
O O5 0.153522 0.380742 0.750000
O O6 0.048815 0.101984 0.750000
O O7 0.777925 0.750000 0.500000
O O8 0.768384 0.480525 0.486646
O O9 0.960891 0.570061 0.558886
O O10 0.798541 0.360173 0.198499
O O11 0.788158 0.297553 0.097045
O O12 0.909574 0.250000 0.500000
#
# Coordination Sequence:
#
# PCOD9439228 Si02
#       6
#     8   4   8   8   4   8
#     4  12  26  45  66 100 136 181 220 279 332 401
#     4  12  27  48  75 100 132 168 226 268 337 392
#     4  10  23  39  69  96 134 174 228 274 335 392
#     4  12  26  44  69  96 140 175 226 273 339 393
#     4  12  27  48  75 102 128 174 216 280 327 402
#     4  10  21  43  65  97 131 177 222 277 327 398
#
# _framework density 20.494152
#
# number of rings (size 3 to 8) (size 9 to 14) (size 15 to 20)
#    0.000    0.800    2.000    4.800    5.600    1.600 
#    0.000    0.000    0.000    0.000    0.000    0.000 
#    0.000    0.000    0.000    0.000    0.000    0.000 
#
# Total GULP energy -223422.188117 kJ/mol
# GULP energy per Si atom -5585.554703 kJ/mol
# Density = 2.044751 g / cm^3
# Si number density = 20.494152 Si / 1000 Ang^3
#
#
#
# Elastic Constant Matrix: (Units=GPa)
#
#
# Indices 1 2 3 4 5 6 
#
# 1 81.2823 -21.3990 21.1233 0.0000 0.0000 0.0000
# 2 -21.3990 89.0541 -3.4765 0.0000 0.0000 0.0000
# 3 21.1233 -3.4765 56.6294 0.0000 0.0000 0.0000
# 4 0.0000 0.0000 0.0000 24.6136 0.0000 0.0000
# 5 0.0000 0.0000 0.0000 0.0000 46.7516 0.0000
# 6 0.0000 0.0000 0.0000 0.0000 0.0000 33.5534
#
#
#
# Elastic Compliance Matrix: (Units=1/GPa)
#
#
# Indices 1 2 3 4 5 6 
#
# 1 0.014523 0.003286 -0.005216 0.000000 0.000000 0.000000
# 2 0.003286 0.012000 -0.000489 0.000000 0.000000 0.000000
# 3 -0.005216 -0.000489 0.019574 0.000000 0.000000 0.000000
# 4 0.000000 0.000000 0.000000 0.040628 0.000000 0.000000
# 5 0.000000 0.000000 0.000000 0.000000 0.021390 0.000000
# 6 0.000000 0.000000 0.000000 0.000000 0.000000 0.029803
#
#
# Mechanical properties :
#
#
# Convention : Reuss Voigt Hill
#
# Bulk Modulus (GPa) = 24.23643 24.38459 24.31051
# Shear Modulus (GPa) = 31.94718 36.36493 34.15606
#
# Velocity S-wave (km/s) = 3.95250 4.21694 4.08686
# Velocity P-wave (km/s) = 5.71676 5.96944 5.84447
#
# Compressibility (1/GPa) = 0.04126020
#
# Stress axis : x y z
#
# Youngs Moduli (GPa) = 68.85451 83.33549 51.08785
#
# Poissons Ratio (x) = -0.27386 0.26645
# Poissons Ratio (y) = -0.22627 0.02499
# Poissons Ratio (z) = 0.35912 0.04076
#
# Static dielectric constant tensor:
#      x y z
#    x 1.709550 0.000000 0.000000 
#    y 0.000000 0.179690 0.000000 
#    z 0.000000 0.000000 1.652800 
# 
# From -- ./inp_files/26528.got.cif
#   From: 2010.05.17/outbox.cif.g08.bks.cpg/sg57_14_cif.got.tgz:26528.got - 2010.06.03 13:58:18.
