data_PCOD9439618
_publ_section_title
;
Structure prediction by ZEFSAII (Michael W. Deem and Ramdas Pophale) SiO2 
 PCOD9439618
Probable space group: P B C M
;
_chemical_formula_sum "Si O2"
_cell_formula_units_Z 64
_cell_length_a 7.412446
_cell_length_b 14.838195
_cell_length_c 27.924639
_cell_angle_alpha 90.000000
_cell_angle_beta 90.000000
_cell_angle_gamma 90.000000
_cell_volume 3071.356183
_symmetry_space_group_name_H-M "P B C M"
_symmetry_group_IT_number 57
_symmetry_cell_setting 'orthorhombic'
loop_
_space_group_symop_operation_xyz
x,y,z
-x,-y,1/2+z
x,1/2-y,-z
-x,1/2+y,1/2-z
-x,-y,-z
x,y,1/2-z
-x,1/2+y,z
x,1/2-y,1/2+z
loop_
_atom_site_type_symbol
_atom_site_label
_atom_site_fract_x
_atom_site_fract_y
_atom_site_fract_z
Si Si1 0.475323 0.910908 0.530293
Si Si2 0.316332 0.561124 0.804305
Si Si3 0.995628 0.572918 0.334983
Si Si4 0.360352 0.007247 0.875535
Si Si5 0.120873 0.852182 0.013141
Si Si6 0.052291 0.781450 0.195207
Si Si7 0.112531 0.158663 0.599129
Si Si8 0.858440 0.863134 0.935416
O O1 0.328946 0.858743 0.499244
O O2 0.670437 0.870854 0.537876
O O3 0.500000 0.000000 0.500000
O O4 0.406176 0.933702 0.583890
O O5 0.388463 0.554626 0.750000
O O6 0.468531 0.532989 0.842704
O O7 0.241935 0.663987 0.811147
O O8 0.143073 0.493273 0.807618
O O9 0.190376 0.528425 0.344740
O O10 0.037162 0.673482 0.314067
O O11 0.894785 0.586026 0.385886
O O12 0.283796 0.094343 0.903815
O O13 0.053010 0.876788 0.066007
O O14 0.070763 0.750000 0.000000
O O15 0.007044 0.901760 0.972169
O O16 0.996645 0.798074 0.250000
O O17 0.932801 0.828909 0.154784
O O18 0.136141 0.259053 0.580114
#
# Coordination Sequence:
#
# PCOD9439618 Si02
#       8
#     8   8   8   8   8   8   8   8
#     4  12  26  37  64  99 136 176 221 276 335 410
#     4  11  25  45  69 100 136 173 230 288 347 419
#     4  11  22  45  72  96 137 175 229 284 349 408
#     4  12  25  41  68 101 133 182 222 280 347 408
#     4  10  23  42  63  93 130 178 222 269 331 395
#     4  10  23  44  71  98 128 177 227 285 351 411
#     4  10  23  42  68  93 134 178 225 282 330 409
#     4  10  22  44  63  95 135 176 227 276 329 405
#
# _framework density 20.837700000000002
#
# number of rings (size 3 to 8) (size 9 to 14) (size 15 to 20)
#    0.000    1.250    3.750    1.125    3.500    6.000 
#    0.000    0.000    0.000    0.000    0.000    0.000 
#    0.000    0.000    0.000    0.000    0.000    0.000 
#
# Total GULP energy -356872.521073 kJ/mol
# GULP energy per Si atom -5576.133142 kJ/mol
# Density = 2.079027 g / cm^3
# Si number density = 20.837700 Si / 1000 Ang^3
#
#
#
# Elastic Constant Matrix: (Units=GPa)
#
#
# Indices 1 2 3 4 5 6 
#
# 1 60.7643 -9.2540 2.6862 0.0000 0.0000 0.0000
# 2 -9.2540 55.3319 9.0802 0.0000 0.0000 0.0000
# 3 2.6862 9.0802 65.3289 0.0000 0.0000 0.0000
# 4 0.0000 0.0000 0.0000 15.6173 0.0000 0.0000
# 5 0.0000 0.0000 0.0000 0.0000 4.8612 0.0000
# 6 0.0000 0.0000 0.0000 0.0000 0.0000 21.3871
#
#
#
# Elastic Compliance Matrix: (Units=1/GPa)
#
#
# Indices 1 2 3 4 5 6 
#
# 1 0.016967 0.003021 -0.001118 0.000000 0.000000 0.000000
# 2 0.003021 0.019032 -0.002770 0.000000 0.000000 0.000000
# 3 -0.001118 -0.002770 0.015738 0.000000 0.000000 0.000000
# 4 0.000000 0.000000 0.000000 0.064031 0.000000 0.000000
# 5 0.000000 0.000000 0.000000 0.000000 0.205711 0.000000
# 6 0.000000 0.000000 0.000000 0.000000 0.000000 0.046757
#
#
# Mechanical properties :
#
#
# Convention : Reuss Voigt Hill
#
# Bulk Modulus (GPa) = 19.99809 20.71665 20.35737
# Shear Modulus (GPa) = 12.93203 20.30065 16.61634
#
# Velocity S-wave (km/s) = 2.49390 3.12465 2.82692
# Velocity P-wave (km/s) = 4.23210 4.79389 4.52173
#
# Compressibility (1/GPa) = 0.05000479
#
# Stress axis : x y z
#
# Youngs Moduli (GPa) = 58.93967 52.54174 63.54028
#
# Poissons Ratio (x) = -0.15873 0.07101
# Poissons Ratio (y) = -0.17805 0.17598
# Poissons Ratio (z) = 0.06587 0.14552
#
# Static dielectric constant tensor:
#      x y z
#    x 1.765380 0.000000 0.000000 
#    y 0.000000 1.818020 0.000000 
#    z 0.000000 0.000000 1.772370 
# 
# From -- ./inp_files/29290.got.cif
#   From: 2010.05.17/outbox.cif.g08.bks.cpg/sg57_15_cif.got.tgz:29290.got - 2010.06.03 13:58:18.
