data_PCOD9439959
_publ_section_title
;
Structure prediction by ZEFSAII (Michael W. Deem and Ramdas Pophale) SiO2 
 PCOD9439959
Probable space group: P B C M
;
_chemical_formula_sum "Si O2"
_cell_formula_units_Z 48
_cell_length_a 9.488023
_cell_length_b 15.960015
_cell_length_c 19.587208
_cell_angle_alpha 90.000000
_cell_angle_beta 90.000000
_cell_angle_gamma 90.000000
_cell_volume 2966.071113
_symmetry_space_group_name_H-M "P B C M"
_symmetry_group_IT_number 57
_symmetry_cell_setting 'orthorhombic'
loop_
_space_group_symop_operation_xyz
x,y,z
-x,-y,1/2+z
x,1/2-y,-z
-x,1/2+y,1/2-z
-x,-y,-z
x,y,1/2-z
-x,1/2+y,z
x,1/2-y,1/2+z
loop_
_atom_site_type_symbol
_atom_site_label
_atom_site_fract_x
_atom_site_fract_y
_atom_site_fract_z
Si Si1 0.163850 0.516382 0.918059
Si Si2 0.162968 0.456306 0.424548
Si Si3 0.580474 0.442850 0.596693
Si Si4 0.681044 0.781865 0.077089
Si Si5 0.320270 0.377589 0.670018
Si Si6 0.419980 0.614265 0.553048
O O1 0.226305 0.450593 0.864296
O O2 0.262600 0.599095 0.919873
O O3 0.000480 0.535394 0.906958
O O4 0.179691 0.475988 0.994115
O O5 0.262349 0.525337 0.388028
O O6 0.224210 0.364193 0.411128
O O7 0.483094 0.401951 0.653716
O O8 0.500227 0.528215 0.573793
O O9 0.581651 0.384697 0.529291
O O10 0.709670 0.708159 0.129895
O O11 0.518035 0.812285 0.080614
O O12 0.706370 0.750000 0.000000
O O13 0.295947 0.370964 0.750000
#
# Coordination Sequence:
#
# PCOD9439959 Si02
#       6
#     8   8   8   8   8   8
#     4   9  17  33  52  80 102 131 172 216 256 308
#     4   9  17  31  57  79 102 128 176 218 250 303
#     4   8  14  29  49  73  92 125 168 207 241 295
#     4  11  17  31  51  76 104 135 170 219 260 301
#     4  11  21  33  50  74 104 136 171 215 269 315
#     4   8  14  27  51  72  96 124 166 209 248 284
#
# _framework density 16.183024
#
# number of rings (size 3 to 8) (size 9 to 14) (size 15 to 20)
#    0.000    2.667    3.333    2.000    0.000    0.000 
#    0.000   11.667    0.000    0.000    0.000    0.000 
#    0.000    0.000    0.000    0.000    0.000    0.000 
#
# Total GULP energy -267298.064244 kJ/mol
# GULP energy per Si atom -5568.709672 kJ/mol
# Density = 1.614619 g / cm^3
# Si number density = 16.183024 Si / 1000 Ang^3
#
#
#
# Elastic Constant Matrix: (Units=GPa)
#
#
# Indices 1 2 3 4 5 6 
#
# 1 126.9863 33.6849 33.2314 0.0000 0.0000 0.0000
# 2 33.6849 68.7064 37.9069 0.0000 0.0000 0.0000
# 3 33.2314 37.9069 82.8150 0.0000 0.0000 0.0000
# 4 0.0000 0.0000 0.0000 15.4586 0.0000 0.0000
# 5 0.0000 0.0000 0.0000 0.0000 11.2148 0.0000
# 6 0.0000 0.0000 0.0000 0.0000 0.0000 18.6797
#
#
#
# Elastic Compliance Matrix: (Units=1/GPa)
#
#
# Indices 1 2 3 4 5 6 
#
# 1 0.009345 -0.003362 -0.002211 0.000000 0.000000 0.000000
# 2 -0.003362 0.020682 -0.008118 0.000000 0.000000 0.000000
# 3 -0.002211 -0.008118 0.016678 0.000000 0.000000 0.000000
# 4 0.000000 0.000000 0.000000 0.064689 0.000000 0.000000
# 5 0.000000 0.000000 0.000000 0.000000 0.089168 0.000000
# 6 0.000000 0.000000 0.000000 0.000000 0.000000 0.053534
#
#
# Mechanical properties :
#
#
# Convention : Reuss Voigt Hill
#
# Bulk Modulus (GPa) = 51.74977 54.23935 52.99456
# Shear Modulus (GPa) = 17.36608 20.64960 19.00784
#
# Velocity S-wave (km/s) = 3.27938 3.57600 3.43090
# Velocity P-wave (km/s) = 6.81075 7.11613 6.96511
#
# Compressibility (1/GPa) = 0.01932376
#
# Stress axis : x y z
#
# Youngs Moduli (GPa) = 107.00593 48.35231 59.95893
#
# Poissons Ratio (x) = 0.16255 0.13258
# Poissons Ratio (y) = 0.35973 0.48672
# Poissons Ratio (z) = 0.23661 0.39250
#
# Static dielectric constant tensor:
#      x y z
#    x 1.579810 0.000000 0.000000 
#    y 0.000000 1.548560 0.000000 
#    z 0.000000 0.000000 1.520010 
# 
# From -- ./inp_files/21116.got.cif
#   From: 2010.05.17/outbox.cif.g08.bks.cpg/sg57_11_cif.got.tgz:21116.got - 2010.06.03 13:58:18.
