data_PCOD9439762
_publ_section_title
;
Structure prediction by ZEFSAII (Michael W. Deem and Ramdas Pophale) SiO2 
 PCOD9439762
Probable space group: P B C M
;
_chemical_formula_sum "Si O2"
_cell_formula_units_Z 56
_cell_length_a 8.015995
_cell_length_b 14.629933
_cell_length_c 19.996529
_cell_angle_alpha 90.000000
_cell_angle_beta 90.000000
_cell_angle_gamma 90.000000
_cell_volume 2345.062339
_symmetry_space_group_name_H-M "P B C M"
_symmetry_group_IT_number 57
_symmetry_cell_setting 'orthorhombic'
loop_
_space_group_symop_operation_xyz
x,y,z
-x,-y,1/2+z
x,1/2-y,-z
-x,1/2+y,1/2-z
-x,-y,-z
x,y,1/2-z
-x,1/2+y,z
x,1/2-y,1/2+z
loop_
_atom_site_type_symbol
_atom_site_label
_atom_site_fract_x
_atom_site_fract_y
_atom_site_fract_z
Si Si1 0.167471 0.606380 0.623393
Si Si2 0.229997 0.349429 0.971940
Si Si3 0.161379 0.850519 0.977851
Si Si4 0.757458 0.909702 0.673764
Si Si5 0.371700 0.498760 0.438311
Si Si6 0.132630 0.216673 0.824129
Si Si7 0.514615 0.868057 0.171279
O O1 0.178542 0.588608 0.544869
O O2 0.168756 0.510811 0.662925
O O3 0.332215 0.661563 0.646486
O O4 0.003932 0.666656 0.632561
O O5 0.313974 0.383612 0.901730
O O6 0.286369 0.250000 0.000000
O O7 0.250820 0.419749 0.032886
O O8 0.031465 0.344044 0.958855
O O9 0.220279 0.750000 0.000000
O O10 0.276706 0.906262 0.927583
O O11 0.676366 0.907993 0.750000
O O12 0.885782 0.825208 0.678860
O O13 0.500000 0.500000 0.500000
O O14 0.450510 0.459773 0.370685
O O15 0.107800 0.177844 0.750000
O O16 0.326296 0.196682 0.841174
O O17 0.505798 0.883691 0.250000
#
# Coordination Sequence:
#
# PCOD9439762 Si02
#       7
#     8   8   8   8   8   8   8
#     4  12  23  47  70  98 140 187 230 293 353 419
#     4  11  23  42  70 100 134 183 229 287 352 412
#     4  11  24  43  67  98 134 176 237 288 339 419
#     4  11  23  42  71 104 139 185 235 287 352 423
#     4  12  23  42  63 100 133 174 225 283 344 414
#     4  10  23  43  67  99 137 178 229 284 344 413
#     4  11  24  44  70 101 138 183 229 285 352 417
#
# _framework density 23.879964000000001
#
# number of rings (size 3 to 8) (size 9 to 14) (size 15 to 20)
#    0.000    0.857    2.857    5.143    2.000    0.571 
#    5.143    0.000    0.000    0.857    0.000    0.000 
#    0.000    0.000    0.000    0.000    0.000    0.000 
#
# Total GULP energy -312558.734175 kJ/mol
# GULP energy per Si atom -5581.405967 kJ/mol
# Density = 2.382561 g / cm^3
# Si number density = 23.879964 Si / 1000 Ang^3
#
#
#
# Elastic Constant Matrix: (Units=GPa)
#
#
# Indices 1 2 3 4 5 6 
#
# 1 98.2815 34.2809 18.2367 0.0000 0.0000 0.0000
# 2 34.2809 103.3510 -2.1235 0.0000 0.0000 0.0000
# 3 18.2367 -2.1235 137.4153 0.0000 0.0000 0.0000
# 4 0.0000 0.0000 0.0000 33.7246 0.0000 0.0000
# 5 0.0000 0.0000 0.0000 0.0000 21.1815 0.0000
# 6 0.0000 0.0000 0.0000 0.0000 0.0000 0.0011
#
#
#
# Elastic Compliance Matrix: (Units=1/GPa)
#
#
# Indices 1 2 3 4 5 6 
#
# 1 0.011863 -0.003968 -0.001636 0.000000 0.000000 0.000000
# 2 -0.003968 0.011006 0.000697 0.000000 0.000000 0.000000
# 3 -0.001636 0.000697 0.007505 0.000000 0.000000 0.000000
# 4 0.000000 0.000000 0.000000 0.029652 0.000000 0.000000
# 5 0.000000 0.000000 0.000000 0.000000 0.047211 0.000000
# 6 0.000000 0.000000 0.000000 0.000000 0.000000883.790816
#
#
# Mechanical properties :
#
#
# Convention : Reuss Voigt Hill
#
# Bulk Modulus (GPa) = 48.63941 48.87067 48.75504
# Shear Modulus (GPa) = 0.00566 30.22503 15.11534
#
# Velocity S-wave (km/s) = 0.04872 3.56154 2.51862
# Velocity P-wave (km/s) = 4.51837 6.11738 5.37764
#
# Compressibility (1/GPa) = 0.02055946
#
# Stress axis : x y z
#
# Youngs Moduli (GPa) = 84.29909 90.85663 133.24373
#
# Poissons Ratio (x) = 0.36055 0.21794
# Poissons Ratio (y) = 0.33453 -0.09283
# Poissons Ratio (z) = 0.13788 -0.06330
#
# Static dielectric constant tensor:
#      x y z
#    x 1.921430 0.000000 0.000000 
#    y 0.000000 1.965520 0.000000 
#    z 0.000000 0.000000 1.952250 
# 
# From -- ./inp_files/24434.got.cif
#   From: 2010.05.17/outbox.cif.g08.bks.cpg/sg57_13_cif.got.tgz:24434.got - 2010.06.03 13:58:18.
