data_PCOD9439463
_publ_section_title
;
Structure prediction by ZEFSAII (Michael W. Deem and Ramdas Pophale) SiO2 
 PCOD9439463
Probable space group: P B C M
;
_chemical_formula_sum "Si O2"
_cell_formula_units_Z 40
_cell_length_a 5.289707
_cell_length_b 12.109808
_cell_length_c 26.851817
_cell_angle_alpha 90.000000
_cell_angle_beta 90.000000
_cell_angle_gamma 90.000000
_cell_volume 1720.055868
_symmetry_space_group_name_H-M "P B C M"
_symmetry_group_IT_number 57
_symmetry_cell_setting 'orthorhombic'
loop_
_space_group_symop_operation_xyz
x,y,z
-x,-y,1/2+z
x,1/2-y,-z
-x,1/2+y,1/2-z
-x,-y,-z
x,y,1/2-z
-x,1/2+y,z
x,1/2-y,1/2+z
loop_
_atom_site_type_symbol
_atom_site_label
_atom_site_fract_x
_atom_site_fract_y
_atom_site_fract_z
Si Si1 0.585313 0.354981 0.948161
Si Si2 0.858140 0.991796 0.124669
Si Si3 0.959881 0.185122 0.309234
Si Si4 0.809369 0.051340 0.539933
Si Si5 0.458826 0.289643 0.358464
O O1 0.802511 0.406477 0.912873
O O2 0.381276 0.453563 0.947942
O O3 0.474265 0.256860 0.914907
O O4 0.676091 0.356765 0.005558
O O5 0.614592 0.918531 0.137925
O O6 0.047040 0.917407 0.090826
O O7 0.951871 0.056932 0.172824
O O8 0.960186 0.192329 0.250000
O O9 0.712389 0.250886 0.330019
O O10 0.216688 0.235729 0.331462
O O11 0.000000 0.000000 0.500000
#
# Coordination Sequence:
#
# PCOD9439463 Si02
#       5
#     8   8   8   8   8
#     4   9  19  38  61  94 135 169 212 271 320 398
#     4  10  22  40  68  92 132 179 220 272 337 399
#     4  11  25  44  66  96 131 170 225 292 343 397
#     4   9  17  36  63  91 130 171 213 265 321 389
#     4  11  24  42  69  97 134 175 221 276 339 408
#
# _framework density 23.255058999999999
#
# number of rings (size 3 to 8) (size 9 to 14) (size 15 to 20)
#    0.000    2.000    2.000    0.600    2.800    1.600 
#    0.000   11.000    0.000    0.000    0.000    0.000 
#    0.000    0.000    0.000    0.000    0.000    0.000 
#
# Total GULP energy -223243.595451 kJ/mol
# GULP energy per Si atom -5581.089886 kJ/mol
# Density = 2.320213 g / cm^3
# Si number density = 23.255059 Si / 1000 Ang^3
#
#
#
# Elastic Constant Matrix: (Units=GPa)
#
#
# Indices 1 2 3 4 5 6 
#
# 1 123.1035 23.2682 76.1133 0.0000 0.0000 0.0000
# 2 23.2682 65.4241 49.8257 0.0000 0.0000 0.0000
# 3 76.1133 49.8257 191.1234 0.0000 0.0000 0.0000
# 4 0.0000 0.0000 0.0000 20.5044 0.0000 0.0000
# 5 0.0000 0.0000 0.0000 0.0000 34.6405 0.0000
# 6 0.0000 0.0000 0.0000 0.0000 0.0000 15.7423
#
#
#
# Elastic Compliance Matrix: (Units=1/GPa)
#
#
# Indices 1 2 3 4 5 6 
#
# 1 0.010803 -0.000706 -0.004118 0.000000 0.000000 0.000000
# 2 -0.000706 0.019117 -0.004703 0.000000 0.000000 0.000000
# 3 -0.004118 -0.004703 0.008098 0.000000 0.000000 0.000000
# 4 0.000000 0.000000 0.000000 0.048770 0.000000 0.000000
# 5 0.000000 0.000000 0.000000 0.000000 0.028868 0.000000
# 6 0.000000 0.000000 0.000000 0.000000 0.000000 0.063523
#
#
# Mechanical properties :
#
#
# Convention : Reuss Voigt Hill
#
# Bulk Modulus (GPa) = 52.72843 75.34058 64.03451
# Shear Modulus (GPa) = 24.44331 29.54036 26.99183
#
# Velocity S-wave (km/s) = 3.24558 3.56796 3.41058
# Velocity P-wave (km/s) = 6.06368 7.03147 6.56543
#
# Compressibility (1/GPa) = 0.01896510
#
# Stress axis : x y z
#
# Youngs Moduli (GPa) = 92.56823 52.30813 123.48306
#
# Poissons Ratio (x) = 0.03692 0.50852
# Poissons Ratio (y) = 0.06533 0.58072
# Poissons Ratio (z) = 0.38121 0.24600
#
# Static dielectric constant tensor:
#      x y z
#    x 2.077730 0.000000 0.000000 
#    y 0.000000 1.956290 0.000000 
#    z 0.000000 0.000000 2.267010 
# 
# From -- ./inp_files/27783.got.cif
#   From: 2010.05.17/outbox.cif.g08.bks.cpg/sg57_14_cif.got.tgz:27783.got - 2010.06.03 13:58:18.
