data_PCOD9439861
_publ_section_title
;
Structure prediction by ZEFSAII (Michael W. Deem and Ramdas Pophale) SiO2 
 PCOD9439861
Probable space group: P B C M
;
_chemical_formula_sum "Si O2"
_cell_formula_units_Z 48
_cell_length_a 12.071301
_cell_length_b 11.631631
_cell_length_c 15.494802
_cell_angle_alpha 90.000000
_cell_angle_beta 90.000000
_cell_angle_gamma 90.000000
_cell_volume 2175.608398
_symmetry_space_group_name_H-M "P B C M"
_symmetry_group_IT_number 57
_symmetry_cell_setting 'orthorhombic'
loop_
_space_group_symop_operation_xyz
x,y,z
-x,-y,1/2+z
x,1/2-y,-z
-x,1/2+y,1/2-z
-x,-y,-z
x,y,1/2-z
-x,1/2+y,z
x,1/2-y,1/2+z
loop_
_atom_site_type_symbol
_atom_site_label
_atom_site_fract_x
_atom_site_fract_y
_atom_site_fract_z
Si Si1 0.353995 0.713904 0.401053
Si Si2 0.180078 0.527357 0.348584
Si Si3 0.822347 0.770161 0.150161
Si Si4 0.722284 0.460242 0.150558
Si Si5 0.947824 0.943419 0.585924
Si Si6 0.602856 0.674052 0.411487
O O1 0.358274 0.750000 0.500000
O O2 0.265345 0.612737 0.392411
O O3 0.478111 0.676865 0.376630
O O4 0.314981 0.828665 0.352930
O O5 0.217088 0.516695 0.250000
O O6 0.174789 0.398865 0.385195
O O7 0.054646 0.570377 0.353493
O O8 0.862843 0.766775 0.250000
O O9 0.694521 0.733724 0.147853
O O10 0.888895 0.680942 0.090605
O O11 0.713384 0.500436 0.250000
O O12 0.849813 0.474581 0.121005
O O13 0.646997 0.541927 0.088743
O O14 0.000000 0.000000 0.500000
O O15 0.606021 0.750000 0.500000
#
# Coordination Sequence:
#
# PCOD9439861 Si02
#       6
#     8   8   8   8   8   8
#     4  11  26  44  69 104 140 184 239 295 355 422
#     4  11  25  43  68  98 137 184 236 289 348 425
#     4  10  24  44  69 101 139 183 233 289 353 422
#     4  11  25  46  71 102 142 186 234 293 358 422
#     4  11  24  43  71 100 136 179 228 286 351 423
#     4  10  24  42  72  99 140 181 232 291 360 425
#
# _framework density 22.062795000000001
#
# number of rings (size 3 to 8) (size 9 to 14) (size 15 to 20)
#    0.000    1.333    0.000    4.500   11.667    4.000 
#    0.000    0.000    0.000    0.000    0.000    0.000 
#    0.000    0.000    0.000    0.000    0.000    0.000 
#
# Total GULP energy -268120.147433 kJ/mol
# GULP energy per Si atom -5585.836405 kJ/mol
# Density = 2.201258 g / cm^3
# Si number density = 22.062795 Si / 1000 Ang^3
#
#
#
# Elastic Constant Matrix: (Units=GPa)
#
#
# Indices 1 2 3 4 5 6 
#
# 1 178.5927 88.1497 25.2013 0.0000 0.0000 0.0000
# 2 88.1497 136.0965 48.2050 0.0000 0.0000 0.0000
# 3 25.2013 48.2050 82.4913 0.0000 0.0000 0.0000
# 4 0.0000 0.0000 0.0000 33.1992 0.0000 0.0000
# 5 0.0000 0.0000 0.0000 0.0000 18.4514 0.0000
# 6 0.0000 0.0000 0.0000 0.0000 0.0000 17.9031
#
#
#
# Elastic Compliance Matrix: (Units=1/GPa)
#
#
# Indices 1 2 3 4 5 6 
#
# 1 0.008268 -0.005625 0.000761 0.000000 0.000000 0.000000
# 2 -0.005625 0.013092 -0.005932 0.000000 0.000000 0.000000
# 3 0.000761 -0.005932 0.015357 0.000000 0.000000 0.000000
# 4 0.000000 0.000000 0.000000 0.030121 0.000000 0.000000
# 5 0.000000 0.000000 0.000000 0.000000 0.054196 0.000000
# 6 0.000000 0.000000 0.000000 0.000000 0.000000 0.055856
#
#
# Mechanical properties :
#
#
# Convention : Reuss Voigt Hill
#
# Bulk Modulus (GPa) = 66.11632 80.03249 73.07440
# Shear Modulus (GPa) = 24.56709 29.61906 27.09307
#
# Velocity S-wave (km/s) = 3.34055 3.66797 3.50808
# Velocity P-wave (km/s) = 6.70160 7.36833 7.04286
#
# Compressibility (1/GPa) = 0.01512486
#
# Stress axis : x y z
#
# Youngs Moduli (GPa) = 120.94386 76.38162 65.11888
#
# Poissons Ratio (x) = 0.42964 -0.04956
# Poissons Ratio (y) = 0.68030 0.38630
# Poissons Ratio (z) = -0.09204 0.45311
#
# Static dielectric constant tensor:
#      x y z
#    x 1.766410 0.000000 0.000000 
#    y 0.000000 1.866940 0.000000 
#    z 0.000000 0.000000 1.849800 
# 
# From -- ./inp_files/18390.got.cif
#   From: 2010.05.17/outbox.cif.g08.bks.cpg/sg57_10_cif.got.tgz:18390.got - 2010.06.03 13:58:18.
