data_PCOD9439905
_publ_section_title
;
Structure prediction by ZEFSAII (Michael W. Deem and Ramdas Pophale) SiO2 
 PCOD9439905
Probable space group: P B C M
;
_chemical_formula_sum "Si O2"
_cell_formula_units_Z 40
_cell_length_a 11.693712
_cell_length_b 8.519296
_cell_length_c 16.213691
_cell_angle_alpha 90.000000
_cell_angle_beta 90.000000
_cell_angle_gamma 90.000000
_cell_volume 1615.243468
_symmetry_space_group_name_H-M "P B C M"
_symmetry_group_IT_number 57
_symmetry_cell_setting 'orthorhombic'
loop_
_space_group_symop_operation_xyz
x,y,z
-x,-y,1/2+z
x,1/2-y,-z
-x,1/2+y,1/2-z
-x,-y,-z
x,y,1/2-z
-x,1/2+y,z
x,1/2-y,1/2+z
loop_
_atom_site_type_symbol
_atom_site_label
_atom_site_fract_x
_atom_site_fract_y
_atom_site_fract_z
Si Si1 0.017426 0.573030 0.842381
Si Si2 0.848794 0.144469 0.082795
Si Si3 0.252121 0.406329 0.655083
Si Si4 0.339997 0.428669 0.152873
Si Si5 0.567922 0.390807 0.438213
O O1 0.964662 0.574636 0.750000
O O2 0.085703 0.735595 0.855770
O O3 0.119919 0.447299 0.845433
O O4 0.927771 0.512625 0.910635
O O5 0.725181 0.076875 0.111374
O O6 0.847515 0.250000 0.000000
O O7 0.293026 0.419831 0.750000
O O8 0.274699 0.229923 0.627027
O O9 0.321089 0.527580 0.598858
O O10 0.329805 0.454307 0.250000
O O11 0.471631 0.381656 0.133033
O O12 0.590388 0.250000 0.500000
O O13 0.500000 0.500000 0.500000
#
# Coordination Sequence:
#
# PCOD9439905 Si02
#       5
#     8   8   8   8   8
#     4  11  24  45  72 103 144 195 248 301 372 458
#     4  12  27  45  73 110 150 192 250 317 382 447
#     4  10  24  46  73 105 145 195 254 306 366 448
#     4  11  25  47  75 103 146 200 252 307 377 461
#     4  12  26  45  71 107 148 194 244 311 374 438
#
# _framework density 24.764068000000002
#
# number of rings (size 3 to 8) (size 9 to 14) (size 15 to 20)
#    0.000    0.800    2.000    4.200    5.600    1.600 
#    0.000    0.000    0.000    0.000    0.000    0.000 
#    0.000    0.000    0.000    0.000    0.000    0.000 
#
# Total GULP energy -223603.861151 kJ/mol
# GULP energy per Si atom -5590.096529 kJ/mol
# Density = 2.470770 g / cm^3
# Si number density = 24.764068 Si / 1000 Ang^3
#
#
#
# Elastic Constant Matrix: (Units=GPa)
#
#
# Indices 1 2 3 4 5 6 
#
# 1 126.2632 48.9381 57.7893 0.0000 0.0000 0.0000
# 2 48.9381 124.0635 66.6529 0.0000 0.0000 0.0000
# 3 57.7893 66.6529 110.7700 0.0000 0.0000 0.0000
# 4 0.0000 0.0000 0.0000 47.7850 0.0000 0.0000
# 5 0.0000 0.0000 0.0000 0.0000 33.0709 0.0000
# 6 0.0000 0.0000 0.0000 0.0000 0.0000 44.6529
#
#
#
# Elastic Compliance Matrix: (Units=1/GPa)
#
#
# Indices 1 2 3 4 5 6 
#
# 1 0.010670 -0.001800 -0.004483 0.000000 0.000000 0.000000
# 2 -0.001800 0.012215 -0.006411 0.000000 0.000000 0.000000
# 3 -0.004483 -0.006411 0.015224 0.000000 0.000000 0.000000
# 4 0.000000 0.000000 0.000000 0.020927 0.000000 0.000000
# 5 0.000000 0.000000 0.000000 0.000000 0.030238 0.000000
# 6 0.000000 0.000000 0.000000 0.000000 0.000000 0.022395
#
#
# Mechanical properties :
#
#
# Convention : Reuss Voigt Hill
#
# Bulk Modulus (GPa) = 78.61478 78.65080 78.63279
# Shear Modulus (GPa) = 35.38660 37.61617 36.50138
#
# Velocity S-wave (km/s) = 3.78425 3.90164 3.84339
# Velocity P-wave (km/s) = 7.13502 7.21984 7.17755
#
# Compressibility (1/GPa) = 0.01272025
#
# Stress axis : x y z
#
# Youngs Moduli (GPa) = 93.72433 81.86934 65.68547
#
# Poissons Ratio (x) = 0.14738 0.29448
# Poissons Ratio (y) = 0.16872 0.42109
# Poissons Ratio (z) = 0.42018 0.52484
#
# Static dielectric constant tensor:
#      x y z
#    x 2.135580 0.000000 0.000000 
#    y 0.000000 1.642620 0.000000 
#    z 0.000000 0.000000 1.882840 
# 
# From -- ./inp_files/21585.got.cif
#   From: 2010.05.17/outbox.cif.g08.bks.cpg/sg57_11_cif.got.tgz:21585.got - 2010.06.03 13:58:18.
