data_PCOD9439741
_publ_section_title
;
Structure prediction by ZEFSAII (Michael W. Deem and Ramdas Pophale) SiO2 
 PCOD9439741
Probable space group: P B C M
;
_chemical_formula_sum "Si O2"
_cell_formula_units_Z 48
_cell_length_a 8.971790
_cell_length_b 13.673452
_cell_length_c 17.260022
_cell_angle_alpha 90.000000
_cell_angle_beta 90.000000
_cell_angle_gamma 90.000000
_cell_volume 2117.379066
_symmetry_space_group_name_H-M "P B C M"
_symmetry_group_IT_number 57
_symmetry_cell_setting 'orthorhombic'
loop_
_space_group_symop_operation_xyz
x,y,z
-x,-y,1/2+z
x,1/2-y,-z
-x,1/2+y,1/2-z
-x,-y,-z
x,y,1/2-z
-x,1/2+y,z
x,1/2-y,1/2+z
loop_
_atom_site_type_symbol
_atom_site_label
_atom_site_fract_x
_atom_site_fract_y
_atom_site_fract_z
Si Si1 0.291782 0.846382 0.628662
Si Si2 0.391952 0.301107 0.917385
Si Si3 0.898970 0.277680 0.250000
Si Si4 0.292571 0.499740 0.250000
Si Si5 0.739608 0.727058 0.750000
Si Si6 0.066621 0.493607 0.750000
Si Si7 0.815611 0.964858 0.586997
Si Si8 0.925370 0.133742 0.998081
O O1 0.431577 0.789799 0.594040
O O2 0.183979 0.776225 0.678675
O O3 0.351181 0.936761 0.678897
O O4 0.191239 0.894260 0.563812
O O5 0.318737 0.265768 0.834811
O O6 0.344043 0.415469 0.923239
O O7 0.349365 0.250000 0.000000
O O8 0.877947 0.394235 0.250000
O O9 0.079112 0.266399 0.250000
O O10 0.317478 0.385476 0.250000
O O11 0.112068 0.509905 0.250000
O O12 0.126144 0.442901 0.827058
O O13 0.917286 0.909886 0.523321
O O14 0.856593 0.078633 0.575262
O O15 0.933278 0.250000 0.000000
#
# Coordination Sequence:
#
# PCOD9439741 Si02
#       8
#     8   8   4   4   4   4   8   8
#     4  11  23  46  67 102 146 189 240 298 366 449
#     4  12  28  47  72 108 154 199 250 299 377 454
#     4  10  23  42  79 102 135 194 244 308 375 429
#     4  10  23  42  72 101 139 190 241 301 378 423
#     4  11  25  48  78 107 147 192 249 313 368 440
#     4  11  21  42  67 104 131 176 244 306 365 432
#     4  11  25  42  70 102 142 189 245 303 374 428
#     4  11  23  42  69 102 141 184 242 307 361 439
#
# _framework density 22.669535
#
# number of rings (size 3 to 8) (size 9 to 14) (size 15 to 20)
#    0.000    1.000    1.667    4.500    4.667    3.333 
#    9.000    0.833    0.000    0.000    0.000    0.000 
#    0.000    0.000    0.000    0.000    0.000    0.000 
#
# Total GULP energy -267885.507931 kJ/mol
# GULP energy per Si atom -5580.948082 kJ/mol
# Density = 2.261794 g / cm^3
# Si number density = 22.669535 Si / 1000 Ang^3
#
#
#
# Elastic Constant Matrix: (Units=GPa)
#
#
# Indices 1 2 3 4 5 6 
#
# 1 84.0802 3.8225 24.3346 0.0000 0.0000 0.0000
# 2 3.8225 131.3395 26.7418 0.0000 0.0000 0.0000
# 3 24.3346 26.7418 119.4705 0.0000 0.0000 0.0000
# 4 0.0000 0.0000 0.0000 14.9664 0.0000 0.0000
# 5 0.0000 0.0000 0.0000 0.0000 -4.2533 0.0000
# 6 0.0000 0.0000 0.0000 0.0000 0.0000 21.1365
#
#
#
# Elastic Compliance Matrix: (Units=1/GPa)
#
#
# Indices 1 2 3 4 5 6 
#
# 1 0.012642 0.000164 -0.002612 0.000000 0.000000 0.000000
# 2 0.000164 0.007980 -0.001819 0.000000 0.000000 0.000000
# 3 -0.002612 -0.001819 0.009309 0.000000 0.000000 0.000000
# 4 0.000000 0.000000 0.000000 0.066816 0.000000 0.000000
# 5 0.000000 0.000000 0.000000 0.000000 -0.235113 0.000000
# 6 0.000000 0.000000 0.000000 0.000000 0.000000 0.047312
#
#
# Mechanical properties :
#
#
# Convention : Reuss Voigt Hill
#
# Bulk Modulus (GPa) = 46.73713 49.40978 48.07345
# Shear Modulus (GPa) = -66.32412 25.03601 -20.64406
#
# Velocity S-wave (km/s) = -5.41484 3.32684 -3.02097
# Velocity P-wave (km/s) = 4.29331 6.04981 3.01394
#
# Compressibility (1/GPa) = 0.02139626
#
# Stress axis : x y z
#
# Youngs Moduli (GPa) = 79.10255 125.32035 107.41728
#
# Poissons Ratio (x) = -0.02053 0.28054
# Poissons Ratio (y) = -0.01296 0.19544
# Poissons Ratio (z) = 0.20659 0.22802
#
# Static dielectric constant tensor:
#      x y z
#    x 1.779010 0.000000 0.000000 
#    y 0.000000 1.882460 0.000000 
#    z 0.000000 0.000000 1.887650 
# 
# From -- ./inp_files/21041.got.cif
#   From: 2010.05.17/outbox.cif.g08.bks.cpg/sg57_11_cif.got.tgz:21041.got - 2010.06.03 13:58:18.
