data_PCOD9439014
_publ_section_title
;
Structure prediction by ZEFSAII (Michael W. Deem and Ramdas Pophale) SiO2 
 PCOD9439014
Probable space group: P B C M
;
_chemical_formula_sum "Si O2"
_cell_formula_units_Z 48
_cell_length_a 5.224951
_cell_length_b 18.433177
_cell_length_c 24.501971
_cell_angle_alpha 90.000000
_cell_angle_beta 90.000000
_cell_angle_gamma 90.000000
_cell_volume 2359.844774
_symmetry_space_group_name_H-M "P B C M"
_symmetry_group_IT_number 57
_symmetry_cell_setting 'orthorhombic'
loop_
_space_group_symop_operation_xyz
x,y,z
-x,-y,1/2+z
x,1/2-y,-z
-x,1/2+y,1/2-z
-x,-y,-z
x,y,1/2-z
-x,1/2+y,z
x,1/2-y,1/2+z
loop_
_atom_site_type_symbol
_atom_site_label
_atom_site_fract_x
_atom_site_fract_y
_atom_site_fract_z
Si Si1 0.638164 0.192249 0.596208
Si Si2 0.843679 0.772201 0.563467
Si Si3 0.698251 0.445311 0.026487
Si Si4 0.762648 0.016302 0.313040
Si Si5 0.731905 0.419658 0.311947
Si Si6 0.985394 0.571342 0.081352
O O1 0.370259 0.232419 0.599076
O O2 0.593375 0.126459 0.553698
O O3 0.717376 0.150015 0.650315
O O4 0.870466 0.243766 0.577154
O O5 0.796898 0.750000 0.500000
O O6 0.814358 0.856923 0.578546
O O7 0.850329 0.493409 0.071077
O O8 0.500000 0.500000 0.000000
O O9 0.863918 0.420487 0.975360
O O10 0.752048 0.045403 0.250000
O O11 0.491607 0.978215 0.325806
O O12 0.990161 0.956905 0.313148
O O13 0.846723 0.067753 0.363481
O O14 0.675725 0.398297 0.250000
#
# Coordination Sequence:
#
# PCOD9439014 Si02
#       6
#     8   8   8   8   8   8
#     4  12  24  42  63  92 127 171 212 256 319 389
#     4  12  26  42  60  92 137 173 204 255 337 385
#     4  11  23  38  66  91 122 162 222 263 305 377
#     4  10  21  39  65  94 124 160 211 271 323 365
#     4  10  21  40  66  94 123 162 217 270 313 369
#     4  11  24  40  61  97 125 168 211 270 314 382
#
# _framework density 20.340319000000001
#
# number of rings (size 3 to 8) (size 9 to 14) (size 15 to 20)
#    0.000    1.000    3.333    3.500    4.667    0.000 
#    0.000    1.667    0.000    0.000    0.000    0.000 
#    0.000    0.000    0.000    0.000    0.000    0.000 
#
# Total GULP energy -268024.660948 kJ/mol
# GULP energy per Si atom -5583.847103 kJ/mol
# Density = 2.029402 g / cm^3
# Si number density = 20.340319 Si / 1000 Ang^3
#
#
#
# Elastic Constant Matrix: (Units=GPa)
#
#
# Indices 1 2 3 4 5 6 
#
# 1 50.2758 -1.7400 -10.2127 0.0000 0.0000 0.0000
# 2 -1.7400 74.3275 14.7632 0.0000 0.0000 0.0000
# 3 -10.2127 14.7632 96.1545 0.0000 0.0000 0.0000
# 4 0.0000 0.0000 0.0000 19.3320 0.0000 0.0000
# 5 0.0000 0.0000 0.0000 0.0000 23.7040 0.0000
# 6 0.0000 0.0000 0.0000 0.0000 0.0000 23.1754
#
#
#
# Elastic Compliance Matrix: (Units=1/GPa)
#
#
# Indices 1 2 3 4 5 6 
#
# 1 0.020329 0.000049 0.002152 0.000000 0.000000 0.000000
# 2 0.000049 0.013877 -0.002126 0.000000 0.000000 0.000000
# 3 0.002152 -0.002126 0.010955 0.000000 0.000000 0.000000
# 4 0.000000 0.000000 0.000000 0.051728 0.000000 0.000000
# 5 0.000000 0.000000 0.000000 0.000000 0.042187 0.000000
# 6 0.000000 0.000000 0.000000 0.000000 0.000000 0.043149
#
#
# Mechanical properties :
#
#
# Convention : Reuss Voigt Hill
#
# Bulk Modulus (GPa) = 22.06987 25.15318 23.61153
# Shear Modulus (GPa) = 25.35766 27.77210 26.56488
#
# Velocity S-wave (km/s) = 3.53465 3.69910 3.61781
# Velocity P-wave (km/s) = 5.24711 5.53511 5.39304
#
# Compressibility (1/GPa) = 0.04531064
#
# Stress axis : x y z
#
# Youngs Moduli (GPa) = 49.19069 72.06021 91.28404
#
# Poissons Ratio (x) = -0.00350 -0.19642
# Poissons Ratio (y) = -0.00239 0.19403
# Poissons Ratio (z) = -0.10585 0.15317
#
# Static dielectric constant tensor:
#      x y z
#    x 1.708110 0.000000 0.000000 
#    y 0.000000 1.691660 0.000000 
#    z 0.000000 0.000000 1.754240 
# 
# From -- ./inp_files/26231.got.cif
#   From: 2010.05.17/outbox.cif.g08.bks.cpg/sg57_14_cif.got.tgz:26231.got - 2010.06.03 13:58:18.
