data_PCOD9439012
_publ_section_title
;
Structure prediction by ZEFSAII (Michael W. Deem and Ramdas Pophale) SiO2 
 PCOD9439012
Probable space group: P B C M
;
_chemical_formula_sum "Si O2"
_cell_formula_units_Z 48
_cell_length_a 16.932516
_cell_length_b 7.973527
_cell_length_c 16.889030
_cell_angle_alpha 90.000000
_cell_angle_beta 90.000000
_cell_angle_gamma 90.000000
_cell_volume 2280.219582
_symmetry_space_group_name_H-M "P B C M"
_symmetry_group_IT_number 57
_symmetry_cell_setting 'orthorhombic'
loop_
_space_group_symop_operation_xyz
x,y,z
-x,-y,1/2+z
x,1/2-y,-z
-x,1/2+y,1/2-z
-x,-y,-z
x,y,1/2-z
-x,1/2+y,z
x,1/2-y,1/2+z
loop_
_atom_site_type_symbol
_atom_site_label
_atom_site_fract_x
_atom_site_fract_y
_atom_site_fract_z
Si Si1 0.080832 0.818779 0.841597
Si Si2 0.751004 0.351963 0.160357
Si Si3 0.387189 0.615046 0.106101
Si Si4 0.050408 0.380604 0.441694
Si Si5 0.543420 0.763507 0.342200
Si Si6 0.334495 0.418741 0.953827
O O1 0.059804 0.848568 0.750000
O O2 0.159550 0.709132 0.845086
O O3 0.010291 0.722607 0.886333
O O4 0.097848 0.993567 0.886187
O O5 0.735533 0.411253 0.250000
O O6 0.691004 0.198970 0.142000
O O7 0.733486 0.492881 0.095850
O O8 0.419015 0.448000 0.149734
O O9 0.457876 0.747539 0.117209
O O10 0.368433 0.549646 0.018000
O O11 0.093269 0.250000 0.500000
O O12 0.000000 0.500000 0.500000
O O13 0.537215 0.718539 0.250000
O O14 0.599327 0.639259 0.391370
O O15 0.310649 0.250000 0.000000
#
# Coordination Sequence:
#
# PCOD9439012 Si02
#       6
#     8   8   8   8   8   8
#     4  10  21  39  65  93 126 163 204 249 299 358
#     4  11  23  41  63  89 121 159 198 245 302 361
#     4  11  23  38  58  86 119 158 203 253 306 359
#     4   9  19  37  62  92 124 158 198 244 295 357
#     4  11  21  37  59  84 117 160 209 258 303 358
#     4  10  23  40  60  86 118 156 202 255 305 359
#
# _framework density 21.050605000000001
#
# number of rings (size 3 to 8) (size 9 to 14) (size 15 to 20)
#    0.000    1.667    0.000    4.500    0.000    6.667 
#    0.000   11.667    0.000   18.000    0.000    0.000 
#    0.000    0.000    0.000    0.000    0.000    0.000 
#
# Total GULP energy -268349.673347 kJ/mol
# GULP energy per Si atom -5590.618195 kJ/mol
# Density = 2.100269 g / cm^3
# Si number density = 21.050605 Si / 1000 Ang^3
#
#
#
# Elastic Constant Matrix: (Units=GPa)
#
#
# Indices 1 2 3 4 5 6 
#
# 1 37.0659 8.0178 32.1136 0.0000 0.0000 0.0000
# 2 8.0178 88.3152 69.0212 0.0000 0.0000 0.0000
# 3 32.1136 69.0212 178.0854 0.0000 0.0000 0.0000
# 4 0.0000 0.0000 0.0000 7.8063 0.0000 0.0000
# 5 0.0000 0.0000 0.0000 0.0000 2.6155 0.0000
# 6 0.0000 0.0000 0.0000 0.0000 0.0000 20.0288
#
#
#
# Elastic Compliance Matrix: (Units=1/GPa)
#
#
# Indices 1 2 3 4 5 6 
#
# 1 0.032304 0.002324 -0.006726 0.000000 0.000000 0.000000
# 2 0.002324 0.016410 -0.006779 0.000000 0.000000 0.000000
# 3 -0.006726 -0.006779 0.009456 0.000000 0.000000 0.000000
# 4 0.000000 0.000000 0.000000 0.128101 0.000000 0.000000
# 5 0.000000 0.000000 0.000000 0.000000 0.382332 0.000000
# 6 0.000000 0.000000 0.000000 0.000000 0.000000 0.049928
#
#
# Mechanical properties :
#
#
# Convention : Reuss Voigt Hill
#
# Bulk Modulus (GPa) = 27.92767 57.97463 42.95115
# Shear Modulus (GPa) = 7.65898 19.04439 13.35169
#
# Velocity S-wave (km/s) = 1.90952 3.01108 2.52120
# Velocity P-wave (km/s) = 4.26115 6.29994 5.37804
#
# Compressibility (1/GPa) = 0.03580679
#
# Stress axis : x y z
#
# Youngs Moduli (GPa) = 30.95638 60.93731 105.75765
#
# Poissons Ratio (x) = -0.14160 0.71131
# Poissons Ratio (y) = -0.07193 0.71696
# Poissons Ratio (z) = 0.20821 0.41311
#
# Static dielectric constant tensor:
#      x y z
#    x 1.735740 0.000000 0.000000 
#    y 0.000000 1.803130 0.000000 
#    z 0.000000 0.000000 1.753250 
# 
# From -- ./inp_files/22418.got.cif
#   From: 2010.05.17/outbox.cif.g08.bks.cpg/sg57_12_cif.got.tgz:22418.got - 2010.06.03 13:58:18.
