data_PCOD9439451
_publ_section_title
;
Structure prediction by ZEFSAII (Michael W. Deem and Ramdas Pophale) SiO2 
 PCOD9439451
Probable space group: P B C M
;
_chemical_formula_sum "Si O2"
_cell_formula_units_Z 40
_cell_length_a 6.646183
_cell_length_b 11.325741
_cell_length_c 22.114444
_cell_angle_alpha 90.000000
_cell_angle_beta 90.000000
_cell_angle_gamma 90.000000
_cell_volume 1664.619378
_symmetry_space_group_name_H-M "P B C M"
_symmetry_group_IT_number 57
_symmetry_cell_setting 'orthorhombic'
loop_
_space_group_symop_operation_xyz
x,y,z
-x,-y,1/2+z
x,1/2-y,-z
-x,1/2+y,1/2-z
-x,-y,-z
x,y,1/2-z
-x,1/2+y,z
x,1/2-y,1/2+z
loop_
_atom_site_type_symbol
_atom_site_label
_atom_site_fract_x
_atom_site_fract_y
_atom_site_fract_z
Si Si1 0.767493 0.954884 0.369766
Si Si2 0.601607 0.628189 0.986613
Si Si3 0.933821 0.862053 0.911693
Si Si4 0.102345 0.688957 0.683051
Si Si5 0.373445 0.463731 0.681895
O O1 0.654758 0.869050 0.415932
O O2 0.601266 0.036930 0.339821
O O3 0.902608 0.892681 0.319798
O O4 0.917297 0.027218 0.412706
O O5 0.803605 0.640689 0.027423
O O6 0.480877 0.750000 0.000000
O O7 0.500000 0.500000 0.000000
O O8 0.070192 0.762059 0.878993
O O9 0.766286 0.888480 0.861077
O O10 0.110970 0.748199 0.750000
O O11 0.288661 0.598304 0.679051
O O12 0.355013 0.421777 0.750000
#
# Coordination Sequence:
#
# PCOD9439451 Si02
#       5
#     8   8   8   8   8
#     4  11  23  43  66  97 138 185 234 290 362 425
#     4  12  25  47  74 106 144 190 240 303 365 430
#     4  11  23  42  68  99 137 185 240 296 356 432
#     4  10  22  40  65  97 136 185 235 287 354 433
#     4  10  22  40  65  99 139 180 232 294 357 428
#
# _framework density 24.029516999999998
#
# number of rings (size 3 to 8) (size 9 to 14) (size 15 to 20)
#    0.000    1.200    4.000    1.800    0.000    5.600 
#    0.000    2.000    0.000    0.000    0.000    0.000 
#    0.000    0.000    0.000    0.000    0.000    0.000 
#
# Total GULP energy -223332.928041 kJ/mol
# GULP energy per Si atom -5583.323201 kJ/mol
# Density = 2.397483 g / cm^3
# Si number density = 24.029517 Si / 1000 Ang^3
#
#
#
# Elastic Constant Matrix: (Units=GPa)
#
#
# Indices 1 2 3 4 5 6 
#
# 1 68.2812 11.7007 19.8406 0.0000 0.0000 0.0000
# 2 11.7007 91.9517 9.2368 0.0000 0.0000 0.0000
# 3 19.8406 9.2368 115.2654 0.0000 0.0000 0.0000
# 4 0.0000 0.0000 0.0000 34.0110 0.0000 0.0000
# 5 0.0000 0.0000 0.0000 0.0000 -2.7011 0.0000
# 6 0.0000 0.0000 0.0000 0.0000 0.0000 10.3727
#
#
#
# Elastic Compliance Matrix: (Units=1/GPa)
#
#
# Indices 1 2 3 4 5 6 
#
# 1 0.015687 -0.001739 -0.002561 0.000000 0.000000 0.000000
# 2 -0.001739 0.011156 -0.000595 0.000000 0.000000 0.000000
# 3 -0.002561 -0.000595 0.009164 0.000000 0.000000 0.000000
# 4 0.000000 0.000000 0.000000 0.029402 0.000000 0.000000
# 5 0.000000 0.000000 0.000000 0.000000 -0.370215 0.000000
# 6 0.000000 0.000000 0.000000 0.000000 0.000000 0.096407
#
#
# Mechanical properties :
#
#
# Convention : Reuss Voigt Hill
#
# Bulk Modulus (GPa) = 38.14070 39.67272 38.90671
# Shear Modulus (GPa) = -26.33400 23.98451 -1.17475
#
# Velocity S-wave (km/s) = -3.31403 3.16274 -0.69996
# Velocity P-wave (km/s) = 1.12390 5.46654 3.94628
#
# Compressibility (1/GPa) = 0.02621871
#
# Stress axis : x y z
#
# Youngs Moduli (GPa) = 63.74532 89.63555 109.12148
#
# Poissons Ratio (x) = 0.15587 0.27945
# Poissons Ratio (y) = 0.11085 0.06489
# Poissons Ratio (z) = 0.16325 0.05331
#
# Static dielectric constant tensor:
#      x y z
#    x 1.899190 0.000000 0.000000 
#    y 0.000000 2.066260 0.000000 
#    z 0.000000 0.000000 1.944390 
# 
# From -- ./inp_files/27781.got.cif
#   From: 2010.05.17/outbox.cif.g08.bks.cpg/sg57_14_cif.got.tgz:27781.got - 2010.06.03 13:58:18.
