data_PCOD9439743
_publ_section_title
;
Structure prediction by ZEFSAII (Michael W. Deem and Ramdas Pophale) SiO2 
 PCOD9439743
Probable space group: P B C M
;
_chemical_formula_sum "Si O2"
_cell_formula_units_Z 64
_cell_length_a 9.753953
_cell_length_b 19.070595
_cell_length_c 17.860097
_cell_angle_alpha 90.000000
_cell_angle_beta 90.000000
_cell_angle_gamma 90.000000
_cell_volume 3322.222499
_symmetry_space_group_name_H-M "P B C M"
_symmetry_group_IT_number 57
_symmetry_cell_setting 'orthorhombic'
loop_
_space_group_symop_operation_xyz
x,y,z
-x,-y,1/2+z
x,1/2-y,-z
-x,1/2+y,1/2-z
-x,-y,-z
x,y,1/2-z
-x,1/2+y,z
x,1/2-y,1/2+z
loop_
_atom_site_type_symbol
_atom_site_label
_atom_site_fract_x
_atom_site_fract_y
_atom_site_fract_z
Si Si1 0.769374 0.679994 0.662082
Si Si2 0.335232 0.077559 0.085356
Si Si3 0.135265 0.586195 0.401793
Si Si4 0.458965 0.382373 0.071717
Si Si5 0.102589 0.169909 0.338662
Si Si6 0.590504 0.025651 0.163547
Si Si7 0.763847 0.080925 0.933437
Si Si8 0.983214 0.944325 0.338667
O O1 0.733280 0.678396 0.750000
O O2 0.632581 0.675422 0.612984
O O3 0.856702 0.749726 0.648117
O O4 0.865376 0.612829 0.646490
O O5 0.210416 0.122849 0.115737
O O6 0.449138 0.066299 0.149231
O O7 0.282973 0.000445 0.061949
O O8 0.409996 0.110371 0.013545
O O9 0.282149 0.571659 0.364153
O O10 0.159651 0.597965 0.489405
O O11 0.048071 0.648402 0.365746
O O12 0.051399 0.514587 0.384486
O O13 0.421184 0.455454 0.113824
O O14 0.623100 0.376013 0.075848
O O15 0.114352 0.155367 0.250000
O O16 0.609084 0.006649 0.250000
O O17 0.871214 0.085278 0.865882
O O18 0.984678 0.960152 0.250000
#
# Coordination Sequence:
#
# PCOD9439743 Si02
#       8
#     8   8   8   8   8   8   8   8
#     4  10  23  43  63  87 121 162 207 257 313 377
#     4  11  21  38  59  90 128 153 202 259 310 364
#     4  12  21  38  60  94 126 163 200 260 310 372
#     4  11  21  39  60  90 121 160 206 252 304 371
#     4  11  25  41  61  90 123 161 207 257 316 377
#     4  11  20  34  61  91 123 161 201 249 307 363
#     4  11  22  37  61  92 127 156 201 261 310 356
#     4  11  22  37  62  92 122 160 209 255 306 373
#
# _framework density 19.264213000000002
#
# number of rings (size 3 to 8) (size 9 to 14) (size 15 to 20)
#    0.000    1.000    5.000    3.000    1.750    3.000 
#    0.000    1.250    2.750    3.000    0.000    0.000 
#    0.000    0.000    0.000    0.000    0.000    0.000 
#
# Total GULP energy -357724.802318 kJ/mol
# GULP energy per Si atom -5589.450036 kJ/mol
# Density = 1.922037 g / cm^3
# Si number density = 19.264213 Si / 1000 Ang^3
#
#
#
# Elastic Constant Matrix: (Units=GPa)
#
#
# Indices 1 2 3 4 5 6 
#
# 1 77.9073 1.2133 29.9514 0.0000 0.0000 0.0000
# 2 1.2133 36.5242 18.7940 0.0000 0.0000 0.0000
# 3 29.9514 18.7940 61.7305 0.0000 0.0000 0.0000
# 4 0.0000 0.0000 0.0000 62.3962 0.0000 0.0000
# 5 0.0000 0.0000 0.0000 0.0000 33.8147 0.0000
# 6 0.0000 0.0000 0.0000 0.0000 0.0000 25.7177
#
#
#
# Elastic Compliance Matrix: (Units=1/GPa)
#
#
# Indices 1 2 3 4 5 6 
#
# 1 0.016301 0.004184 -0.009183 0.000000 0.000000 0.000000
# 2 0.004184 0.033539 -0.012241 0.000000 0.000000 0.000000
# 3 -0.009183 -0.012241 0.024382 0.000000 0.000000 0.000000
# 4 0.000000 0.000000 0.000000 0.016027 0.000000 0.000000
# 5 0.000000 0.000000 0.000000 0.000000 0.029573 0.000000
# 6 0.000000 0.000000 0.000000 0.000000 0.000000 0.038884
#
#
# Mechanical properties :
#
#
# Convention : Reuss Voigt Hill
#
# Bulk Modulus (GPa) = 25.16271 30.67547 27.91909
# Shear Modulus (GPa) = 24.22103 32.79928 28.51015
#
# Velocity S-wave (km/s) = 3.54970 4.13074 3.85119
# Velocity P-wave (km/s) = 5.46724 6.22164 5.85660
#
# Compressibility (1/GPa) = 0.03974135
#
# Stress axis : x y z
#
# Youngs Moduli (GPa) = 61.34608 29.81616 41.01431
#
# Poissons Ratio (x) = -0.12474 0.37663
# Poissons Ratio (y) = -0.25665 0.50205
# Poissons Ratio (z) = 0.56333 0.36498
#
# Static dielectric constant tensor:
#      x y z
#    x 1.681260 0.000000 0.000000 
#    y 0.000000 1.659450 0.000000 
#    z 0.000000 0.000000 1.667070 
# 
# From -- ./inp_files/21430.got.cif
#   From: 2010.05.17/outbox.cif.g08.bks.cpg/sg57_11_cif.got.tgz:21430.got - 2010.06.03 13:58:18.
