data_PCOD9439080
_publ_section_title
;
Structure prediction by ZEFSAII (Michael W. Deem and Ramdas Pophale) SiO2 
 PCOD9439080
Probable space group: P B C M
;
_chemical_formula_sum "Si O2"
_cell_formula_units_Z 48
_cell_length_a 10.732944
_cell_length_b 11.494410
_cell_length_c 17.945631
_cell_angle_alpha 90.000000
_cell_angle_beta 90.000000
_cell_angle_gamma 90.000000
_cell_volume 2213.932018
_symmetry_space_group_name_H-M "P B C M"
_symmetry_group_IT_number 57
_symmetry_cell_setting 'orthorhombic'
loop_
_space_group_symop_operation_xyz
x,y,z
-x,-y,1/2+z
x,1/2-y,-z
-x,1/2+y,1/2-z
-x,-y,-z
x,y,1/2-z
-x,1/2+y,z
x,1/2-y,1/2+z
loop_
_atom_site_type_symbol
_atom_site_label
_atom_site_fract_x
_atom_site_fract_y
_atom_site_fract_z
Si Si1 0.385214 0.034844 0.051543
Si Si2 0.656506 0.208969 0.917592
Si Si3 0.104066 0.724176 0.163333
Si Si4 0.589702 0.724172 0.162132
Si Si5 0.792827 0.668001 0.557497
Si Si6 0.041982 0.030854 0.662237
O O1 0.303955 0.924270 0.073177
O O2 0.428539 0.097042 0.126546
O O3 0.500000 0.000000 0.000000
O O4 0.307759 0.120801 0.000450
O O5 0.770691 0.282183 0.885415
O O6 0.533424 0.209545 0.866613
O O7 0.619784 0.250000 0.000000
O O8 0.141394 0.719245 0.250000
O O9 0.016299 0.608880 0.151484
O O10 0.045962 0.853753 0.153142
O O11 0.598764 0.725553 0.250000
O O12 0.716564 0.770777 0.124393
O O13 0.871753 0.750000 0.500000
O O14 0.860265 0.562240 0.597953
O O15 0.081495 0.038892 0.750000
#
# Coordination Sequence:
#
# PCOD9439080 Si02
#       6
#     8   8   8   8   8   8
#     4  11  21  40  60  88 131 170 207 261 321 384
#     4  12  22  39  63  90 125 167 211 265 321 387
#     4  10  24  43  66  94 127 168 216 275 332 387
#     4  11  23  37  59  93 129 167 213 264 322 390
#     4  10  21  40  63  90 126 169 215 262 325 390
#     4  10  22  43  67  93 127 168 219 275 331 389
#
# _framework density 21.680880999999999
#
# number of rings (size 3 to 8) (size 9 to 14) (size 15 to 20)
#    0.000    1.333    3.333    2.500    0.000    4.667 
#    0.000    4.167    0.000    0.000    0.000    0.000 
#    0.000    0.000    0.000    0.000    0.000    0.000 
#
# Total GULP energy -267368.392589 kJ/mol
# GULP energy per Si atom -5570.174846 kJ/mol
# Density = 2.163153 g / cm^3
# Si number density = 21.680881 Si / 1000 Ang^3
#
#
#
# Elastic Constant Matrix: (Units=GPa)
#
#
# Indices 1 2 3 4 5 6 
#
# 1 20.2049 18.4755 28.0440 0.0000 0.0000 0.0000
# 2 18.4755 116.0584 42.2227 0.0000 0.0000 0.0000
# 3 28.0440 42.2227 150.2715 0.0000 0.0000 0.0000
# 4 0.0000 0.0000 0.0000 32.9180 0.0000 0.0000
# 5 0.0000 0.0000 0.0000 0.0000 21.4479 0.0000
# 6 0.0000 0.0000 0.0000 0.0000 0.0000 28.3446
#
#
#
# Elastic Compliance Matrix: (Units=1/GPa)
#
#
# Indices 1 2 3 4 5 6 
#
# 1 0.071975 -0.007319 -0.011376 0.000000 0.000000 0.000000
# 2 -0.007319 0.010342 -0.001540 0.000000 0.000000 0.000000
# 3 -0.011376 -0.001540 0.009210 0.000000 0.000000 0.000000
# 4 0.000000 0.000000 0.000000 0.030379 0.000000 0.000000
# 5 0.000000 0.000000 0.000000 0.000000 0.046625 0.000000
# 6 0.000000 0.000000 0.000000 0.000000 0.000000 0.035280
#
#
# Mechanical properties :
#
#
# Convention : Reuss Voigt Hill
#
# Bulk Modulus (GPa) = 19.58585 51.55771 35.57178
# Shear Modulus (GPa) = 19.13522 29.72826 24.43174
#
# Velocity S-wave (km/s) = 2.97406 3.70695 3.36054
# Velocity P-wave (km/s) = 4.56581 6.49260 5.61251
#
# Compressibility (1/GPa) = 0.05105727
#
# Stress axis : x y z
#
# Youngs Moduli (GPa) = 13.89378 96.69567 108.57520
#
# Poissons Ratio (x) = 0.70774 1.23510
# Poissons Ratio (y) = 0.10169 0.16719
# Poissons Ratio (z) = 0.15805 0.14890
#
# Static dielectric constant tensor:
#      x y z
#    x 1.995420 0.000000 0.000000 
#    y 0.000000 1.978130 0.000000 
#    z 0.000000 0.000000 1.754160 
# 
# From -- ./inp_files/21809.got.cif
#   From: 2010.05.17/outbox.cif.g08.bks.cpg/sg57_11_cif.got.tgz:21809.got - 2010.06.03 13:58:18.
