data_PCOD9439047
_publ_section_title
;
Structure prediction by ZEFSAII (Michael W. Deem and Ramdas Pophale) SiO2 
 PCOD9439047
Probable space group: P B C M
;
_chemical_formula_sum "Si O2"
_cell_formula_units_Z 32
_cell_length_a 19.575143
_cell_length_b 5.006172
_cell_length_c 14.518881
_cell_angle_alpha 90.000000
_cell_angle_beta 90.000000
_cell_angle_gamma 90.000000
_cell_volume 1422.799998
_symmetry_space_group_name_H-M "P B C M"
_symmetry_group_IT_number 57
_symmetry_cell_setting 'orthorhombic'
loop_
_space_group_symop_operation_xyz
x,y,z
-x,-y,1/2+z
x,1/2-y,-z
-x,1/2+y,1/2-z
-x,-y,-z
x,y,1/2-z
-x,1/2+y,z
x,1/2-y,1/2+z
loop_
_atom_site_type_symbol
_atom_site_label
_atom_site_fract_x
_atom_site_fract_y
_atom_site_fract_z
Si Si1 0.448274 0.750000 0.500000
Si Si2 0.153766 0.544857 0.250000
Si Si3 0.756372 0.538302 0.250000
Si Si4 0.642480 0.621125 0.100106
Si Si5 0.956688 0.248595 0.109769
Si Si6 0.453614 0.374086 0.250000
O O1 0.500000 0.500000 0.500000
O O2 0.396204 0.657726 0.580164
O O3 0.179521 0.241255 0.250000
O O4 0.108005 0.634198 0.336880
O O5 0.219687 0.733847 0.250000
O O6 0.710130 0.588410 0.160166
O O7 0.591250 0.797588 0.161561
O O8 0.654500 0.750000 0.000000
O O9 0.981158 0.546344 0.133408
O O10 0.945526 0.250000 0.000000
O O11 0.482676 0.670040 0.250000
#
# Coordination Sequence:
#
# PCOD9439047 Si02
#       6
#     4   4   4   8   8   4
#     4  12  24  40  72  98 118 160 218 280 352 416
#     4  12  24  44  68  98 136 192 234 270 334 410
#     4  11  30  45  66  95 142 187 236 278 326 407
#     4  11  27  46  69  94 135 176 220 278 346 404
#     4  10  21  39  69 105 141 174 223 291 344 386
#     4  11  26  41  64  99 130 153 206 276 338 417
#
# _framework density 22.490862
#
# number of rings (size 3 to 8) (size 9 to 14) (size 15 to 20)
#    0.000    1.000    1.250    3.750    7.000    4.000 
#    0.000    0.000    0.000    0.000    0.000    0.000 
#    0.000    0.000    0.000    0.000    0.000    0.000 
#
# Total GULP energy -179086.286375 kJ/mol
# GULP energy per Si atom -5596.446449 kJ/mol
# Density = 2.243967 g / cm^3
# Si number density = 22.490862 Si / 1000 Ang^3
#
#
#
# Elastic Constant Matrix: (Units=GPa)
#
#
# Indices 1 2 3 4 5 6 
#
# 1 74.5034 2.0004 39.1305 0.0000 0.0000 0.0000
# 2 2.0004 109.3634 18.4140 0.0000 0.0000 0.0000
# 3 39.1305 18.4140 138.5761 0.0000 0.0000 0.0000
# 4 0.0000 0.0000 0.0000 27.0735 0.0000 0.0000
# 5 0.0000 0.0000 0.0000 0.0000 63.4094 0.0000
# 6 0.0000 0.0000 0.0000 0.0000 0.0000 43.6424
#
#
#
# Elastic Compliance Matrix: (Units=1/GPa)
#
#
# Indices 1 2 3 4 5 6 
#
# 1 0.015783 0.000472 -0.004520 0.000000 0.000000 0.000000
# 2 0.000472 0.009367 -0.001378 0.000000 0.000000 0.000000
# 3 -0.004520 -0.001378 0.008676 0.000000 0.000000 0.000000
# 4 0.000000 0.000000 0.000000 0.036936 0.000000 0.000000
# 5 0.000000 0.000000 0.000000 0.000000 0.015771 0.000000
# 6 0.000000 0.000000 0.000000 0.000000 0.000000 0.022914
#
#
# Mechanical properties :
#
#
# Convention : Reuss Voigt Hill
#
# Bulk Modulus (GPa) = 43.52488 49.05919 46.29204
# Shear Modulus (GPa) = 39.07600 44.35160 41.71380
#
# Velocity S-wave (km/s) = 4.17276 4.44552 4.31129
# Velocity P-wave (km/s) = 6.52764 6.94338 6.73872
#
# Compressibility (1/GPa) = 0.02297536
#
# Stress axis : x y z
#
# Youngs Moduli (GPa) = 63.35817 106.75520 115.26599
#
# Poissons Ratio (x) = -0.05042 0.52095
# Poissons Ratio (y) = -0.02992 0.15885
# Poissons Ratio (z) = 0.28635 0.14712
#
# Static dielectric constant tensor:
#      x y z
#    x 1.800610 0.000000 0.000000 
#    y 0.000000 1.835890 0.000000 
#    z 0.000000 0.000000 1.892730 
# 
# From -- ./inp_files/18840.got.cif
#   From: 2010.05.17/outbox.cif.g08.bks.cpg/sg57_10_cif.got.tgz:18840.got - 2010.06.03 13:58:18.
