data_PCOD9439968
_publ_section_title
;
Structure prediction by ZEFSAII (Michael W. Deem and Ramdas Pophale) SiO2 
 PCOD9439968
Probable space group: P B C M
;
_chemical_formula_sum "Si O2"
_cell_formula_units_Z 56
_cell_length_a 9.224343
_cell_length_b 14.357888
_cell_length_c 22.623812
_cell_angle_alpha 90.000000
_cell_angle_beta 90.000000
_cell_angle_gamma 90.000000
_cell_volume 2996.344802
_symmetry_space_group_name_H-M "P B C M"
_symmetry_group_IT_number 57
_symmetry_cell_setting 'orthorhombic'
loop_
_space_group_symop_operation_xyz
x,y,z
-x,-y,1/2+z
x,1/2-y,-z
-x,1/2+y,1/2-z
-x,-y,-z
x,y,1/2-z
-x,1/2+y,z
x,1/2-y,1/2+z
loop_
_atom_site_type_symbol
_atom_site_label
_atom_site_fract_x
_atom_site_fract_y
_atom_site_fract_z
Si Si1 0.653243 0.362287 0.904560
Si Si2 0.919079 0.360297 0.990052
Si Si3 0.863126 0.245111 0.320109
Si Si4 0.380171 0.240134 0.566413
Si Si5 0.127169 0.356915 0.616614
Si Si6 0.825907 0.064995 0.610694
Si Si7 0.498983 0.461109 0.067758
O O1 0.778118 0.388031 0.951856
O O2 0.734110 0.314526 0.850018
O O3 0.537262 0.289553 0.930730
O O4 0.564466 0.455782 0.892797
O O5 0.058190 0.370752 0.948763
O O6 0.900522 0.250000 0.000000
O O7 0.922875 0.411932 0.052587
O O8 0.858114 0.242599 0.250000
O O9 0.849470 0.349938 0.344818
O O10 0.010402 0.199129 0.345131
O O11 0.322891 0.250000 0.500000
O O12 0.272187 0.296145 0.609073
O O13 0.402931 0.130858 0.575937
O O14 0.147780 0.462947 0.637530
O O15 0.661656 0.063613 0.586480
O O16 0.500000 0.500000 0.000000
#
# Coordination Sequence:
#
# PCOD9439968 Si02
#       7
#     8   8   8   8   8   8   8
#     4  11  21  39  64  94 129 169 209 256 320 388
#     4  11  19  36  59  95 133 171 196 251 323 406
#     4  11  27  49  67  83 122 180 232 271 306 362
#     4  12  21  35  60 100 142 160 195 256 328 398
#     4  11  25  37  63  99 132 164 210 269 330 384
#     4  12  21  40  65  94 129 169 215 255 333 389
#     4  12  21  34  64 103 137 169 198 251 331 410
#
# _framework density 18.689437999999999
#
# number of rings (size 3 to 8) (size 9 to 14) (size 15 to 20)
#    0.000    0.571    8.571    1.286    0.000    2.857 
#    0.000    1.429    0.000    0.000    0.000    0.000 
#    0.000    0.000    0.000    0.000    0.000    0.000 
#
# Total GULP energy -312855.445669 kJ/mol
# GULP energy per Si atom -5586.704387 kJ/mol
# Density = 1.864690 g / cm^3
# Si number density = 18.689438 Si / 1000 Ang^3
#
#
#
# Elastic Constant Matrix: (Units=GPa)
#
#
# Indices 1 2 3 4 5 6 
#
# 1 68.1644 41.5073 23.4269 0.0000 0.0000 0.0000
# 2 41.5073 161.7203 44.2303 0.0000 0.0000 0.0000
# 3 23.4269 44.2303 80.4315 0.0000 0.0000 0.0000
# 4 0.0000 0.0000 0.0000 8.4402 0.0000 0.0000
# 5 0.0000 0.0000 0.0000 0.0000 2.8253 0.0000
# 6 0.0000 0.0000 0.0000 0.0000 0.0000 32.0161
#
#
#
# Elastic Compliance Matrix: (Units=1/GPa)
#
#
# Indices 1 2 3 4 5 6 
#
# 1 0.018058 -0.003762 -0.003191 0.000000 0.000000 0.000000
# 2 -0.003762 0.008062 -0.003338 0.000000 0.000000 0.000000
# 3 -0.003191 -0.003338 0.015198 0.000000 0.000000 0.000000
# 4 0.000000 0.000000 0.000000 0.118480 0.000000 0.000000
# 5 0.000000 0.000000 0.000000 0.000000 0.353943 0.000000
# 6 0.000000 0.000000 0.000000 0.000000 0.000000 0.031234
#
#
# Mechanical properties :
#
#
# Convention : Reuss Voigt Hill
#
# Bulk Modulus (GPa) = 48.22407 58.73834 53.48120
# Shear Modulus (GPa) = 8.73411 22.06646 15.40028
#
# Velocity S-wave (km/s) = 2.16412 3.43985 2.87367
# Velocity P-wave (km/s) = 5.66599 6.87558 6.29988
#
# Compressibility (1/GPa) = 0.02073653
#
# Stress axis : x y z
#
# Youngs Moduli (GPa) = 55.37753 124.04005 65.79945
#
# Poissons Ratio (x) = 0.46665 0.20995
# Poissons Ratio (y) = 0.20833 0.21961
# Poissons Ratio (z) = 0.17670 0.41399
#
# Static dielectric constant tensor:
#      x y z
#    x 1.682670 0.000000 0.000000 
#    y 0.000000 1.684470 0.000000 
#    z 0.000000 0.000000 1.624770 
# 
# From -- ./inp_files/24403.got.cif
#   From: 2010.05.17/outbox.cif.g08.bks.cpg/sg57_13_cif.got.tgz:24403.got - 2010.06.03 13:58:18.
