data_PCOD9439013
_publ_section_title
;
Structure prediction by ZEFSAII (Michael W. Deem and Ramdas Pophale) SiO2 
 PCOD9439013
Probable space group: P B C M
;
_chemical_formula_sum "Si O2"
_cell_formula_units_Z 52
_cell_length_a 13.210506
_cell_length_b 22.187194
_cell_length_c 9.447642
_cell_angle_alpha 90.000000
_cell_angle_beta 90.000000
_cell_angle_gamma 90.000000
_cell_volume 2769.142223
_symmetry_space_group_name_H-M "P B C M"
_symmetry_group_IT_number 57
_symmetry_cell_setting 'orthorhombic'
loop_
_space_group_symop_operation_xyz
x,y,z
-x,-y,1/2+z
x,1/2-y,-z
-x,1/2+y,1/2-z
-x,-y,-z
x,y,1/2-z
-x,1/2+y,z
x,1/2-y,1/2+z
loop_
_atom_site_type_symbol
_atom_site_label
_atom_site_fract_x
_atom_site_fract_y
_atom_site_fract_z
Si Si1 0.912824 0.167209 0.910870
Si Si2 0.410458 0.929589 0.583631
Si Si3 0.011731 0.439276 0.913682
Si Si4 0.289139 0.805561 0.918630
Si Si5 0.089465 0.250000 0.000000
Si Si6 0.379954 0.064428 0.918095
Si Si7 0.216433 0.133984 0.407834
O O1 0.882605 0.153573 0.750000
O O2 0.007941 0.213345 0.905688
O O3 0.817973 0.189102 0.002015
O O4 0.951094 0.110199 0.998390
O O5 0.439523 0.932332 0.750000
O O6 0.344516 0.869673 0.563912
O O7 0.510511 0.926351 0.488645
O O8 0.354763 0.993439 0.552577
O O9 0.977627 0.444165 0.750000
O O10 0.126483 0.415079 0.911589
O O11 0.000000 0.500000 0.000000
O O12 0.278043 0.793704 0.750000
O O13 0.342928 0.750000 0.000000
O O14 0.161607 0.301839 0.936233
O O15 0.384634 0.072148 0.750000
O O16 0.300287 0.111117 0.983451
O O17 0.260666 0.135353 0.250000
#
# Coordination Sequence:
#
# PCOD9439013 Si02
#       7
#     8   8   8   8   4   8   8
#     4  11  22  37  60  86 117 159 203 246 300 357
#     4   9  21  42  64  88 121 158 195 249 305 360
#     4  10  22  38  56  84 120 156 198 248 300 357
#     4  11  23  39  61  90 122 159 202 248 300 357
#     4  10  22  40  62  84 118 164 208 250 296 360
#     4  10  21  39  65  94 118 153 199 246 303 365
#     4  10  22  39  60  87 119 157 201 249 302 358
#
# _framework density 18.778379999999999
#
# number of rings (size 3 to 8) (size 9 to 14) (size 15 to 20)
#    0.000    1.846    0.769    2.308    2.154    6.769 
#    1.385    0.000    0.000    0.000    0.000    0.000 
#    0.000    0.000    0.000    0.000    0.000    0.000 
#
# Total GULP energy -289953.263600 kJ/mol
# GULP energy per Si atom -5576.024300 kJ/mol
# Density = 1.873564 g / cm^3
# Si number density = 18.778380 Si / 1000 Ang^3
#
#
#
# Elastic Constant Matrix: (Units=GPa)
#
#
# Indices 1 2 3 4 5 6 
#
# 1 54.5694 55.6087 54.1706 0.0000 0.0000 0.0000
# 2 55.6087 128.8486 85.1767 0.0000 0.0000 0.0000
# 3 54.1706 85.1767 151.3085 0.0000 0.0000 0.0000
# 4 0.0000 0.0000 0.0000 13.8776 0.0000 0.0000
# 5 0.0000 0.0000 0.0000 0.0000 19.8096 0.0000
# 6 0.0000 0.0000 0.0000 0.0000 0.0000 20.8554
#
#
#
# Elastic Compliance Matrix: (Units=1/GPa)
#
#
# Indices 1 2 3 4 5 6 
#
# 1 0.036524 -0.011338 -0.006693 0.000000 0.000000 0.000000
# 2 -0.011338 0.015881 -0.004881 0.000000 0.000000 0.000000
# 3 -0.006693 -0.004881 0.011753 0.000000 0.000000 0.000000
# 4 0.000000 0.000000 0.000000 0.072059 0.000000 0.000000
# 5 0.000000 0.000000 0.000000 0.000000 0.050481 0.000000
# 6 0.000000 0.000000 0.000000 0.000000 0.000000 0.047949
#
#
# Mechanical properties :
#
#
# Convention : Reuss Voigt Hill
#
# Bulk Modulus (GPa) = 54.54629 80.51537 67.53083
# Shear Modulus (GPa) = 17.44702 20.22655 18.83678
#
# Velocity S-wave (km/s) = 3.05142 3.28551 3.17063
# Velocity P-wave (km/s) = 6.44402 7.57380 7.03164
#
# Compressibility (1/GPa) = 0.01833305
#
# Stress axis : x y z
#
# Youngs Moduli (GPa) = 27.37911 62.96890 85.08639
#
# Poissons Ratio (x) = 0.71397 0.56952
# Poissons Ratio (y) = 0.31044 0.41527
# Poissons Ratio (z) = 0.18326 0.30732
#
# Static dielectric constant tensor:
#      x y z
#    x 1.606130 0.000000 0.000000 
#    y 0.000000 1.526930 0.000000 
#    z 0.000000 0.000000 1.954500 
# 
# From -- ./inp_files/5038.got.cif
#   From: 2010.05.17/outbox.cif.g08.bks.cpg/sg57_3_cif.got.tgz:5038.got - 2010.06.03 13:58:18.
