data_PCOD9439981
_publ_section_title
;
Structure prediction by ZEFSAII (Michael W. Deem and Ramdas Pophale) SiO2 
 PCOD9439981
Probable space group: P B C M
;
_chemical_formula_sum "Si O2"
_cell_formula_units_Z 48
_cell_length_a 16.176667
_cell_length_b 20.612129
_cell_length_c 8.065629
_cell_angle_alpha 90.000000
_cell_angle_beta 90.000000
_cell_angle_gamma 90.000000
_cell_volume 2689.367417
_symmetry_space_group_name_H-M "P B C M"
_symmetry_group_IT_number 57
_symmetry_cell_setting 'orthorhombic'
loop_
_space_group_symop_operation_xyz
x,y,z
-x,-y,1/2+z
x,1/2-y,-z
-x,1/2+y,1/2-z
-x,-y,-z
x,y,1/2-z
-x,1/2+y,z
x,1/2-y,1/2+z
loop_
_atom_site_type_symbol
_atom_site_label
_atom_site_fract_x
_atom_site_fract_y
_atom_site_fract_z
Si Si1 0.778761 0.545822 0.047027
Si Si2 0.603138 0.571383 0.056290
Si Si3 0.574181 0.424266 0.551430
Si Si4 0.038645 0.068765 0.052224
Si Si5 0.091170 0.823012 0.052933
Si Si6 0.747817 0.104227 0.950277
O O1 0.777209 0.547549 0.250000
O O2 0.695194 0.581400 0.985707
O O3 0.866752 0.572741 0.989815
O O4 0.772200 0.469656 0.000899
O O5 0.607478 0.588405 0.250000
O O6 0.516179 0.600115 0.992807
O O7 0.589902 0.493581 0.036798
O O8 0.569760 0.435394 0.750000
O O9 0.655411 0.382642 0.513982
O O10 0.042288 0.069155 0.250000
O O11 0.979905 0.126852 0.997271
O O12 0.000000 0.000000 0.000000
O O13 0.096732 0.824841 0.250000
O O14 0.179912 0.848685 0.987998
O O15 0.074028 0.750000 0.000000
O O16 0.745189 0.105737 0.750000
#
# Coordination Sequence:
#
# PCOD9439981 Si02
#       6
#     8   8   8   8   8   8
#     4   8  14  27  46  67  94 130 164 194 243 299
#     4   8  14  25  38  58  93 129 156 190 237 287
#     4   9  15  22  38  64  91 121 159 196 232 280
#     4  11  20  33  53  77 103 135 173 215 258 308
#     4  11  23  39  54  73 100 134 172 214 263 314
#     4   9  17  31  47  64  94 131 161 195 247 305
#
# _framework density 17.848064999999998
#
# number of rings (size 3 to 8) (size 9 to 14) (size 15 to 20)
#    0.000    2.667    1.667    2.500    0.000    2.000 
#    0.000    0.833    0.000    0.000    0.000    1.167 
#    0.000    2.667    0.000    0.000    0.000    0.000 
#
# Total GULP energy -267225.044437 kJ/mol
# GULP energy per Si atom -5567.188426 kJ/mol
# Density = 1.780744 g / cm^3
# Si number density = 17.848065 Si / 1000 Ang^3
#
#
#
# Elastic Constant Matrix: (Units=GPa)
#
#
# Indices 1 2 3 4 5 6 
#
# 1 219.2851 65.3453 12.5359 0.0000 0.0000 0.0000
# 2 65.3453 68.7119 8.3090 0.0000 0.0000 0.0000
# 3 12.5359 8.3090 21.9170 0.0000 0.0000 0.0000
# 4 0.0000 0.0000 0.0000 15.4066 0.0000 0.0000
# 5 0.0000 0.0000 0.0000 0.0000 22.3535 0.0000
# 6 0.0000 0.0000 0.0000 0.0000 0.0000 23.5433
#
#
#
# Elastic Compliance Matrix: (Units=1/GPa)
#
#
# Indices 1 2 3 4 5 6 
#
# 1 0.006406 -0.005920 -0.001419 0.000000 0.000000 0.000000
# 2 -0.005920 0.020724 -0.004471 0.000000 0.000000 0.000000
# 3 -0.001419 -0.004471 0.048133 0.000000 0.000000 0.000000
# 4 0.000000 0.000000 0.000000 0.064907 0.000000 0.000000
# 5 0.000000 0.000000 0.000000 0.000000 0.044736 0.000000
# 6 0.000000 0.000000 0.000000 0.000000 0.000000 0.042475
#
#
# Mechanical properties :
#
#
# Convention : Reuss Voigt Hill
#
# Bulk Modulus (GPa) = 19.36379 53.58827 36.47603
# Shear Modulus (GPa) = 18.64171 27.17559 22.90865
#
# Velocity S-wave (km/s) = 3.23533 3.90629 3.58654
# Velocity P-wave (km/s) = 4.98290 7.10179 6.13452
#
# Compressibility (1/GPa) = 0.05164278
#
# Stress axis : x y z
#
# Youngs Moduli (GPa) = 156.11462 48.25295 20.77562
#
# Poissons Ratio (x) = 0.28566 0.02949
# Poissons Ratio (y) = 0.92421 0.09288
# Poissons Ratio (z) = 0.22159 0.21572
#
# Static dielectric constant tensor:
#      x y z
#    x 1.697190 0.000000 0.000000 
#    y 0.000000 1.554190 0.000000 
#    z 0.000000 0.000000 1.631300 
# 
# From -- ./inp_files/4919.got.cif
#   From: 2010.05.17/outbox.cif.g08.bks.cpg/sg57_3_cif.got.tgz:4919.got - 2010.06.03 13:58:18.
