data_PCOD9439116
_publ_section_title
;
Structure prediction by ZEFSAII (Michael W. Deem and Ramdas Pophale) SiO2 
 PCOD9439116
Probable space group: P B C M
;
_chemical_formula_sum "Si O2"
_cell_formula_units_Z 48
_cell_length_a 10.139467
_cell_length_b 29.566276
_cell_length_c 8.655127
_cell_angle_alpha 90.000000
_cell_angle_beta 90.000000
_cell_angle_gamma 90.000000
_cell_volume 2594.688325
_symmetry_space_group_name_H-M "P B C M"
_symmetry_group_IT_number 57
_symmetry_cell_setting 'orthorhombic'
loop_
_space_group_symop_operation_xyz
x,y,z
-x,-y,1/2+z
x,1/2-y,-z
-x,1/2+y,1/2-z
-x,-y,-z
x,y,1/2-z
-x,1/2+y,z
x,1/2-y,1/2+z
loop_
_atom_site_type_symbol
_atom_site_label
_atom_site_fract_x
_atom_site_fract_y
_atom_site_fract_z
Si Si1 0.787617 0.199692 0.564235
Si Si2 0.985782 0.373772 0.565639
Si Si3 0.886189 0.032076 0.565320
Si Si4 0.485646 0.199604 0.936115
Si Si5 0.718435 0.878435 0.062905
Si Si6 0.364284 0.019456 0.935693
O O1 0.805557 0.250000 0.500000
O O2 0.798235 0.198975 0.750000
O O3 0.636448 0.186372 0.522324
O O4 0.897454 0.167804 0.491398
O O5 0.987357 0.376190 0.750000
O O6 0.135736 0.371748 0.504649
O O7 0.917253 0.418254 0.496283
O O8 0.887751 0.031931 0.750000
O O9 0.750851 0.011737 0.502916
O O10 0.000000 0.000000 0.500000
O O11 0.480341 0.202127 0.750000
O O12 0.381066 0.161592 0.986343
O O13 0.459271 0.250000 0.000000
O O14 0.727383 0.877438 0.250000
O O15 0.663816 0.928202 0.019543
O O16 0.363463 0.017543 0.750000
O O17 0.500000 0.000000 0.000000
#
# Coordination Sequence:
#
# PCOD9439116 Si02
#       6
#     8   8   8   8   8   8
#     4  10  21  40  65  92 124 160 202 255 309 369
#     4  12  25  40  62  93 124 163 209 254 309 371
#     4  12  24  42  65  90 124 164 207 256 312 370
#     4   9  20  39  63  90 119 157 199 246 305 363
#     4  10  22  41  62  87 123 164 205 251 308 367
#     4  11  24  41  63  92 126 165 208 256 308 368
#
# _framework density 18.499333
#
# number of rings (size 3 to 8) (size 9 to 14) (size 15 to 20)
#    0.000    1.333    1.667    4.000    2.333    2.667 
#    0.000    1.667    0.000    0.000    0.000    0.000 
#    0.000    0.000    0.000    0.000    0.000    0.000 
#
# Total GULP energy -268303.942365 kJ/mol
# GULP energy per Si atom -5589.665466 kJ/mol
# Density = 1.845723 g / cm^3
# Si number density = 18.499333 Si / 1000 Ang^3
#
#
#
# Elastic Constant Matrix: (Units=GPa)
#
#
# Indices 1 2 3 4 5 6 
#
# 1 207.8756 126.1792 69.0075 0.0000 0.0000 0.0000
# 2 126.1792 145.1940 56.0057 0.0000 0.0000 0.0000
# 3 69.0075 56.0057 88.0911 0.0000 0.0000 0.0000
# 4 0.0000 0.0000 0.0000 33.1170 0.0000 0.0000
# 5 0.0000 0.0000 0.0000 0.0000 31.4225 0.0000
# 6 0.0000 0.0000 0.0000 0.0000 0.0000 49.7836
#
#
#
# Elastic Compliance Matrix: (Units=1/GPa)
#
#
# Indices 1 2 3 4 5 6 
#
# 1 0.010869 -0.008164 -0.003325 0.000000 0.000000 0.000000
# 2 -0.008164 0.015256 -0.003305 0.000000 0.000000 0.000000
# 3 -0.003325 -0.003305 0.016057 0.000000 0.000000 0.000000
# 4 0.000000 0.000000 0.000000 0.030196 0.000000 0.000000
# 5 0.000000 0.000000 0.000000 0.000000 0.031824 0.000000
# 6 0.000000 0.000000 0.000000 0.000000 0.000000 0.020087
#
#
# Mechanical properties :
#
#
# Convention : Reuss Voigt Hill
#
# Bulk Modulus (GPa) = 79.37969 104.83837 92.10903
# Shear Modulus (GPa) = 31.63057 35.52919 33.57988
#
# Velocity S-wave (km/s) = 4.13949 4.38718 4.26513
# Velocity P-wave (km/s) = 8.11479 9.08062 8.61125
#
# Compressibility (1/GPa) = 0.01259768
#
# Stress axis : x y z
#
# Youngs Moduli (GPa) = 92.00086 65.54602 62.27743
#
# Poissons Ratio (x) = 0.53509 0.20705
# Poissons Ratio (y) = 0.75106 0.20580
# Poissons Ratio (z) = 0.30587 0.21660
#
# Static dielectric constant tensor:
#      x y z
#    x 1.606690 0.000000 0.000000 
#    y 0.000000 1.606710 0.000000 
#    z 0.000000 0.000000 1.614990 
# 
# From -- ./inp_files/1976.got.cif
#   From: 2010.05.17/outbox.cif.g08.bks.cpg/sg57_1_cif.got.tgz:1976.got - 2010.06.03 13:58:18.
