data_PCOD9439089
_publ_section_title
;
Structure prediction by ZEFSAII (Michael W. Deem and Ramdas Pophale) SiO2 
 PCOD9439089
Probable space group: P B C M
;
_chemical_formula_sum "Si O2"
_cell_formula_units_Z 40
_cell_length_a 12.627735
_cell_length_b 10.227563
_cell_length_c 16.444810
_cell_angle_alpha 90.000000
_cell_angle_beta 90.000000
_cell_angle_gamma 90.000000
_cell_volume 2123.862921
_symmetry_space_group_name_H-M "P B C M"
_symmetry_group_IT_number 57
_symmetry_cell_setting 'orthorhombic'
loop_
_space_group_symop_operation_xyz
x,y,z
-x,-y,1/2+z
x,1/2-y,-z
-x,1/2+y,1/2-z
-x,-y,-z
x,y,1/2-z
-x,1/2+y,z
x,1/2-y,1/2+z
loop_
_atom_site_type_symbol
_atom_site_label
_atom_site_fract_x
_atom_site_fract_y
_atom_site_fract_z
Si Si1 0.780122 0.487615 0.344906
Si Si2 0.549327 0.972278 0.588291
Si Si3 0.028635 0.875385 0.055094
Si Si4 0.590900 0.808423 0.344661
Si Si5 0.174980 0.204771 0.843584
O O1 0.760949 0.452126 0.250000
O O2 0.671129 0.486040 0.395993
O O3 0.872280 0.404676 0.386576
O O4 0.819504 0.637963 0.345588
O O5 0.545454 0.818151 0.609138
O O6 0.500000 0.000000 0.500000
O O7 0.480393 0.064412 0.646844
O O8 0.923321 0.844644 0.105986
O O9 0.052518 0.750000 0.000000
O O10 0.000000 0.000000 0.000000
O O11 0.602266 0.769357 0.250000
O O12 0.709648 0.838630 0.375617
O O13 0.164292 0.161862 0.750000
#
# Coordination Sequence:
#
# PCOD9439089 Si02
#       5
#     8   8   8   8   8
#     4  10  22  43  64  87 127 171 208 251 312 376
#     4  11  23  38  64  93 124 160 206 260 314 360
#     4  12  24  39  63  93 126 157 207 259 313 363
#     4  10  21  40  64  88 121 165 210 251 309 379
#     4   9  20  40  64  86 119 168 208 246 309 377
#
# _framework density 18.833607000000001
#
# number of rings (size 3 to 8) (size 9 to 14) (size 15 to 20)
#    0.000    1.600    2.000    4.200    2.800    1.600 
#    0.000    0.000    0.000    0.000    0.000    0.000 
#    0.000    0.000    0.000    0.000    0.000    0.000 
#
# Total GULP energy -223369.637894 kJ/mol
# GULP energy per Si atom -5584.240947 kJ/mol
# Density = 1.879074 g / cm^3
# Si number density = 18.833607 Si / 1000 Ang^3
#
#
#
# Elastic Constant Matrix: (Units=GPa)
#
#
# Indices 1 2 3 4 5 6 
#
# 1 141.8625 54.9901 60.8004 0.0000 0.0000 0.0000
# 2 54.9901 58.1102 30.1346 0.0000 0.0000 0.0000
# 3 60.8004 30.1346 102.9574 0.0000 0.0000 0.0000
# 4 0.0000 0.0000 0.0000 33.7751 0.0000 0.0000
# 5 0.0000 0.0000 0.0000 0.0000 37.3703 0.0000
# 6 0.0000 0.0000 0.0000 0.0000 0.0000 28.2944
#
#
#
# Elastic Compliance Matrix: (Units=1/GPa)
#
#
# Indices 1 2 3 4 5 6 
#
# 1 0.012839 -0.009688 -0.004746 0.000000 0.000000 0.000000
# 2 -0.009688 0.027599 -0.002357 0.000000 0.000000 0.000000
# 3 -0.004746 -0.002357 0.013205 0.000000 0.000000 0.000000
# 4 0.000000 0.000000 0.000000 0.029608 0.000000 0.000000
# 5 0.000000 0.000000 0.000000 0.000000 0.026759 0.000000
# 6 0.000000 0.000000 0.000000 0.000000 0.000000 0.035343
#
#
# Mechanical properties :
#
#
# Convention : Reuss Voigt Hill
#
# Bulk Modulus (GPa) = 49.84818 66.08671 57.96745
# Shear Modulus (GPa) = 26.93666 30.35495 28.64581
#
# Velocity S-wave (km/s) = 3.78596 4.01901 3.90422
# Velocity P-wave (km/s) = 6.75548 7.53011 7.15329
#
# Compressibility (1/GPa) = 0.02006091
#
# Stress axis : x y z
#
# Youngs Moduli (GPa) = 77.89030 36.23363 75.72725
#
# Poissons Ratio (x) = 0.35103 0.35941
# Poissons Ratio (y) = 0.75460 0.17846
# Poissons Ratio (z) = 0.36967 0.08539
#
# Static dielectric constant tensor:
#      x y z
#    x 1.643440 0.000000 0.000000 
#    y 0.000000 1.623580 0.000000 
#    z 0.000000 0.000000 1.695830 
# 
# From -- ./inp_files/17427.got.cif
#   From: 2010.05.17/outbox.cif.g08.bks.cpg/sg57_9_cif.got.tgz:17427.got - 2010.06.03 13:58:18.
