data_PCOD9439314
_publ_section_title
;
Structure prediction by ZEFSAII (Michael W. Deem and Ramdas Pophale) SiO2 
 PCOD9439314
Probable space group: P B C M
;
_chemical_formula_sum "Si O2"
_cell_formula_units_Z 48
_cell_length_a 27.427569
_cell_length_b 5.011348
_cell_length_c 14.296737
_cell_angle_alpha 90.000000
_cell_angle_beta 90.000000
_cell_angle_gamma 90.000000
_cell_volume 1965.073534
_symmetry_space_group_name_H-M "P B C M"
_symmetry_group_IT_number 57
_symmetry_cell_setting 'orthorhombic'
loop_
_space_group_symop_operation_xyz
x,y,z
-x,-y,1/2+z
x,1/2-y,-z
-x,1/2+y,1/2-z
-x,-y,-z
x,y,1/2-z
-x,1/2+y,z
x,1/2-y,1/2+z
loop_
_atom_site_type_symbol
_atom_site_label
_atom_site_fract_x
_atom_site_fract_y
_atom_site_fract_z
Si Si1 0.691479 0.011019 0.937574
Si Si2 0.970022 0.680222 0.137230
Si Si3 0.215552 0.216781 0.387546
Si Si4 0.125138 0.635521 0.900230
Si Si5 0.163914 0.557874 0.250000
Si Si6 0.467015 0.052943 0.857348
Si Si7 0.599707 0.250000 0.500000
O O1 0.732425 0.917002 0.865752
O O2 0.683310 0.750000 0.000000
O O3 0.714438 0.250000 0.000000
O O4 0.637010 0.120285 0.923290
O O5 0.964927 0.665477 0.250000
O O6 0.920959 0.555880 0.096406
O O7 0.986598 0.974959 0.110521
O O8 0.212925 0.250000 0.500000
O O9 0.204264 0.482797 0.331824
O O10 0.170369 0.031367 0.357275
O O11 0.122222 0.880290 0.830132
O O12 0.137420 0.750000 0.000000
O O13 0.448295 0.017905 0.750000
O O14 0.513526 0.853631 0.866148
O O15 0.431504 0.957755 0.939656
#
# Coordination Sequence:
#
# PCOD9439314 Si02
#       7
#     8   8   8   8   4   8   4
#     4   9  22  40  66  95 134 177 228 288 347 419
#     4  10  24  42  67  98 138 175 221 283 349 422
#     4  11  24  45  71  98 142 181 236 295 350 423
#     4  12  25  43  73 101 137 181 234 288 348 430
#     4  12  26  42  72 104 134 184 236 278 366 412
#     4  10  22  38  62  98 136 177 237 294 342 415
#     4  10  22  38  72  92 138 186 232 282 366 414
#
# _framework density 24.426566999999999
#
# number of rings (size 3 to 8) (size 9 to 14) (size 15 to 20)
#    0.500    1.000    2.500    1.500    7.000    0.667 
#    1.500    0.000    7.333    0.000    0.000    0.000 
#    0.000    0.000    0.000    0.000    0.000    0.000 
#
# Total GULP energy -267280.672647 kJ/mol
# GULP energy per Si atom -5568.347347 kJ/mol
# Density = 2.437097 g / cm^3
# Si number density = 24.426567 Si / 1000 Ang^3
#
#
#
# Elastic Constant Matrix: (Units=GPa)
#
#
# Indices 1 2 3 4 5 6 
#
# 1 96.5815 -11.7675 19.4943 0.0000 0.0000 0.0000
# 2 -11.7675 65.1002 0.9385 0.0000 0.0000 0.0000
# 3 19.4943 0.9385 139.4364 0.0000 0.0000 0.0000
# 4 0.0000 0.0000 0.0000 -216.2595 0.0000 0.0000
# 5 0.0000 0.0000 0.0000 0.0000 7.8745 0.0000
# 6 0.0000 0.0000 0.0000 0.0000 0.0000 45.6977
#
#
#
# Elastic Compliance Matrix: (Units=1/GPa)
#
#
# Indices 1 2 3 4 5 6 
#
# 1 0.010907 0.001994 -0.001538 0.000000 0.000000 0.000000
# 2 0.001994 0.015727 -0.000385 0.000000 0.000000 0.000000
# 3 -0.001538 -0.000385 0.007389 0.000000 0.000000 0.000000
# 4 0.000000 0.000000 0.000000 -0.004624 0.000000 0.000000
# 5 0.000000 0.000000 0.000000 0.000000 0.126991 0.000000
# 6 0.000000 0.000000 0.000000 0.000000 0.000000 0.021883
#
#
# Mechanical properties :
#
#
# Convention : Reuss Voigt Hill
#
# Bulk Modulus (GPa) = 29.26946 35.38321 32.32633
# Shear Modulus (GPa) = 26.38234 -13.04059 6.67087
#
# Velocity S-wave (km/s) = 3.29000 -2.31307 1.65436
# Velocity P-wave (km/s) = 5.14206 2.71722 4.11243
#
# Compressibility (1/GPa) = 0.03416531
#
# Stress axis : x y z
#
# Youngs Moduli (GPa) = 91.68107 63.58539 135.32916
#
# Poissons Ratio (x) = -0.12678 0.20818
# Poissons Ratio (y) = -0.18279 0.05205
# Poissons Ratio (z) = 0.14104 0.02446
#
# Static dielectric constant tensor:
#      x y z
#    x 1.968710 0.000000 0.000000 
#    y 0.000000 2.045620 0.000000 
#    z 0.000000 0.000000 1.856820 
# 
# From -- ./inp_files/19587.got.cif
#   From: 2010.05.17/outbox.cif.g08.bks.cpg/sg57_10_cif.got.tgz:19587.got - 2010.06.03 13:58:18.
