data_PCOD9439529
_publ_section_title
;
Structure prediction by ZEFSAII (Michael W. Deem and Ramdas Pophale) SiO2 
 PCOD9439529
Probable space group: P B C M
;
_chemical_formula_sum "Si O2"
_cell_formula_units_Z 32
_cell_length_a 9.297801
_cell_length_b 13.832306
_cell_length_c 10.445836
_cell_angle_alpha 90.000000
_cell_angle_beta 90.000000
_cell_angle_gamma 90.000000
_cell_volume 1343.439266
_symmetry_space_group_name_H-M "P B C M"
_symmetry_group_IT_number 57
_symmetry_cell_setting 'orthorhombic'
loop_
_space_group_symop_operation_xyz
x,y,z
-x,-y,1/2+z
x,1/2-y,-z
-x,1/2+y,1/2-z
-x,-y,-z
x,y,1/2-z
-x,1/2+y,z
x,1/2-y,1/2+z
loop_
_atom_site_type_symbol
_atom_site_label
_atom_site_fract_x
_atom_site_fract_y
_atom_site_fract_z
Si Si1 0.555802 0.606768 0.250000
Si Si2 0.569975 0.126076 0.750000
Si Si3 0.922623 0.565066 0.895215
Si Si4 0.396727 0.092736 0.521812
Si Si5 0.241074 0.796387 0.750000
Si Si6 0.071992 0.750000 0.500000
O O1 0.576511 0.489802 0.250000
O O2 0.626663 0.638316 0.382890
O O3 0.388944 0.641226 0.250000
O O4 0.483855 0.155507 0.623502
O O5 0.717536 0.182239 0.750000
O O6 0.957175 0.535936 0.750000
O O7 0.752139 0.561019 0.916735
O O8 0.000000 0.500000 0.000000
O O9 0.976114 0.673281 0.923613
O O10 0.500000 0.000000 0.500000
O O11 0.161603 0.806229 0.612463
#
# Coordination Sequence:
#
# PCOD9439529 Si02
#       6
#     4   4   8   8   4   4
#     4  10  24  39  72 110 145 193 259 321 388 457
#     4  10  22  41  70 102 151 189 257 319 386 455
#     4  12  30  50  80 113 160 210 263 325 397 481
#     4  10  23  43  73 103 147 191 252 314 386 447
#     4  12  26  46  76 114 156 210 262 330 398 478
#     4  12  30  48  78 112 166 212 268 312 410 484
#
# _framework density 23.819462000000001
#
# number of rings (size 3 to 8) (size 9 to 14) (size 15 to 20)
#    0.000    1.000    2.500    1.500   17.500    2.000 
#    0.000    0.000    0.000    0.000    0.000    0.000 
#    0.000    0.000    0.000    0.000    0.000    0.000 
#
# Total GULP energy -178969.513165 kJ/mol
# GULP energy per Si atom -5592.797286 kJ/mol
# Density = 2.376525 g / cm^3
# Si number density = 23.819462 Si / 1000 Ang^3
#
#
#
# Elastic Constant Matrix: (Units=GPa)
#
#
# Indices 1 2 3 4 5 6 
#
# 1 80.2802 9.4296 14.7612 0.0000 0.0000 0.0000
# 2 9.4296 79.8839 -2.7317 0.0000 0.0000 0.0000
# 3 14.7612 -2.7317 224.3263 0.0000 0.0000 0.0000
# 4 0.0000 0.0000 0.0000 24.6083 0.0000 0.0000
# 5 0.0000 0.0000 0.0000 0.0000 43.7862 0.0000
# 6 0.0000 0.0000 0.0000 0.0000 0.0000 42.8845
#
#
#
# Elastic Compliance Matrix: (Units=1/GPa)
#
#
# Indices 1 2 3 4 5 6 
#
# 1 0.012795 -0.001540 -0.000861 0.000000 0.000000 0.000000
# 2 -0.001540 0.012709 0.000256 0.000000 0.000000 0.000000
# 3 -0.000861 0.000256 0.004518 0.000000 0.000000 0.000000
# 4 0.000000 0.000000 0.000000 0.040637 0.000000 0.000000
# 5 0.000000 0.000000 0.000000 0.000000 0.022838 0.000000
# 6 0.000000 0.000000 0.000000 0.000000 0.000000 0.023318
#
#
# Mechanical properties :
#
#
# Convention : Reuss Voigt Hill
#
# Bulk Modulus (GPa) = 38.86095 47.48985 43.17540
# Shear Modulus (GPa) = 38.55597 46.45790 42.50694
#
# Velocity S-wave (km/s) = 4.02764 4.42114 4.22897
# Velocity P-wave (km/s) = 6.16274 6.78548 6.48159
#
# Compressibility (1/GPa) = 0.02573277
#
# Stress axis : x y z
#
# Youngs Moduli (GPa) = 78.15252 78.68636 221.35904
#
# Poissons Ratio (x) = 0.12116 0.19053
# Poissons Ratio (y) = 0.12034 -0.05669
# Poissons Ratio (z) = 0.06727 -0.02015
#
# Static dielectric constant tensor:
#      x y z
#    x 1.868410 0.000000 0.000000 
#    y 0.000000 1.879520 0.000000 
#    z 0.000000 0.000000 2.213770 
# 
# From -- ./inp_files/11371.got.cif
#   From: 2010.05.17/outbox.cif.g08.bks.cpg/sg57_6_cif.got.tgz:11371.got - 2010.06.03 13:58:18.
