data_PCOD9439760
_publ_section_title
;
Structure prediction by ZEFSAII (Michael W. Deem and Ramdas Pophale) SiO2 
 PCOD9439760
Probable space group: P B C M
;
_chemical_formula_sum "Si O2"
_cell_formula_units_Z 40
_cell_length_a 5.199816
_cell_length_b 22.202585
_cell_length_c 14.430818
_cell_angle_alpha 90.000000
_cell_angle_beta 90.000000
_cell_angle_gamma 90.000000
_cell_volume 1666.028655
_symmetry_space_group_name_H-M "P B C M"
_symmetry_group_IT_number 57
_symmetry_cell_setting 'orthorhombic'
loop_
_space_group_symop_operation_xyz
x,y,z
-x,-y,1/2+z
x,1/2-y,-z
-x,1/2+y,1/2-z
-x,-y,-z
x,y,1/2-z
-x,1/2+y,z
x,1/2-y,1/2+z
loop_
_atom_site_type_symbol
_atom_site_label
_atom_site_fract_x
_atom_site_fract_y
_atom_site_fract_z
Si Si1 0.414724 0.154962 0.645059
Si Si2 0.673298 0.521434 0.355640
Si Si3 0.039314 0.866905 0.849538
Si Si4 0.683589 0.068387 0.993513
Si Si5 0.084290 0.767312 0.106603
O O1 0.412147 0.131163 0.750000
O O2 0.479092 0.104363 0.569269
O O3 0.142797 0.185517 0.624141
O O4 0.645347 0.204359 0.638954
O O5 0.636071 0.502269 0.250000
O O6 0.799899 0.587448 0.352770
O O7 0.426483 0.528645 0.421408
O O8 0.829975 0.472713 0.417504
O O9 0.174375 0.882305 0.750000
O O10 0.999551 0.795818 0.847738
O O11 0.173025 0.881519 0.946638
O O12 0.109508 0.750000 0.000000
#
# Coordination Sequence:
#
# PCOD9439760 Si02
#       5
#     8   8   8   8   8
#     4  12  26  45  70 105 144 187 235 288 357 423
#     4  10  23  43  67  97 133 178 235 289 351 419
#     4  11  23  41  66  97 133 178 232 289 350 419
#     4  11  23  42  68  97 137 179 232 290 354 414
#     4  12  25  46  70 103 143 188 233 294 351 425
#
# _framework density 24.009191000000001
#
# number of rings (size 3 to 8) (size 9 to 14) (size 15 to 20)
#    0.000    0.800    2.000    5.400    2.800    0.000 
#    0.000    0.000    0.000    0.000    0.000    0.000 
#    0.000    0.000    0.000    0.000    0.000    0.000 
#
# Total GULP energy -223405.681464 kJ/mol
# GULP energy per Si atom -5585.142037 kJ/mol
# Density = 2.395455 g / cm^3
# Si number density = 24.009191 Si / 1000 Ang^3
#
#
#
# Elastic Constant Matrix: (Units=GPa)
#
#
# Indices 1 2 3 4 5 6 
#
# 1 49.4529 -2.4885 19.7362 0.0000 0.0000 0.0000
# 2 -2.4885 102.9973 31.3631 0.0000 0.0000 0.0000
# 3 19.7362 31.3631 223.5180 0.0000 0.0000 0.0000
# 4 0.0000 0.0000 0.0000 30.5827 0.0000 0.0000
# 5 0.0000 0.0000 0.0000 0.0000 29.3409 0.0000
# 6 0.0000 0.0000 0.0000 0.0000 0.0000 29.9391
#
#
#
# Elastic Compliance Matrix: (Units=1/GPa)
#
#
# Indices 1 2 3 4 5 6 
#
# 1 0.021084 0.001124 -0.002019 0.000000 0.000000 0.000000
# 2 0.001124 0.010202 -0.001531 0.000000 0.000000 0.000000
# 3 -0.002019 -0.001531 0.004867 0.000000 0.000000 0.000000
# 4 0.000000 0.000000 0.000000 0.032698 0.000000 0.000000
# 5 0.000000 0.000000 0.000000 0.000000 0.034082 0.000000
# 6 0.000000 0.000000 0.000000 0.000000 0.000000 0.033401
#
#
# Mechanical properties :
#
#
# Convention : Reuss Voigt Hill
#
# Bulk Modulus (GPa) = 31.94758 52.57663 42.26211
# Shear Modulus (GPa) = 32.97714 39.79636 36.38675
#
# Velocity S-wave (km/s) = 3.71013 4.07572 3.89721
# Velocity P-wave (km/s) = 5.62927 6.64038 6.15562
#
# Compressibility (1/GPa) = 0.03130128
#
# Stress axis : x y z
#
# Youngs Moduli (GPa) = 47.42986 98.01709 205.46453
#
# Poissons Ratio (x) = -0.11020 0.41492
# Poissons Ratio (y) = -0.05333 0.31453
# Poissons Ratio (z) = 0.09578 0.15005
#
# Static dielectric constant tensor:
#      x y z
#    x 1.959620 0.000000 0.000000 
#    y 0.000000 2.035740 0.000000 
#    z 0.000000 0.000000 1.918300 
# 
# From -- ./inp_files/14962.got.cif
#   From: 2010.05.17/outbox.cif.g08.bks.cpg/sg57_8_cif.got.tgz:14962.got - 2010.06.03 13:58:18.
