data_PCOD9439537
_publ_section_title
;
Structure prediction by ZEFSAII (Michael W. Deem and Ramdas Pophale) SiO2 
 PCOD9439537
Probable space group: P B C M
;
_chemical_formula_sum "Si O2"
_cell_formula_units_Z 48
_cell_length_a 7.064109
_cell_length_b 13.818511
_cell_length_c 25.960268
_cell_angle_alpha 90.000000
_cell_angle_beta 90.000000
_cell_angle_gamma 90.000000
_cell_volume 2534.123708
_symmetry_space_group_name_H-M "P B C M"
_symmetry_group_IT_number 57
_symmetry_cell_setting 'orthorhombic'
loop_
_space_group_symop_operation_xyz
x,y,z
-x,-y,1/2+z
x,1/2-y,-z
-x,1/2+y,1/2-z
-x,-y,-z
x,y,1/2-z
-x,1/2+y,z
x,1/2-y,1/2+z
loop_
_atom_site_type_symbol
_atom_site_label
_atom_site_fract_x
_atom_site_fract_y
_atom_site_fract_z
Si Si1 0.335737 0.378865 0.188496
Si Si2 0.017949 0.153332 0.034028
Si Si3 0.009635 0.970139 0.808682
Si Si4 0.729603 0.098003 0.629706
Si Si5 0.286844 0.973302 0.486932
Si Si6 0.027257 0.268198 0.647915
O O1 0.371975 0.372406 0.250000
O O2 0.526853 0.388369 0.156109
O O3 0.209540 0.288153 0.169674
O O4 0.201689 0.472164 0.178700
O O5 0.059830 0.184996 0.092009
O O6 0.167034 0.072670 0.015303
O O7 0.023072 0.250000 0.000000
O O8 0.816155 0.099257 0.026809
O O9 0.961303 0.995674 0.750000
O O10 0.842350 0.009025 0.844623
O O11 0.030364 0.856194 0.815460
O O12 0.719421 0.077689 0.568947
O O13 0.859964 0.190714 0.641366
O O14 0.500000 0.000000 0.500000
#
# Coordination Sequence:
#
# PCOD9439537 Si02
#       6
#     8   8   8   8   8   8
#     4  10  24  41  63  93 127 162 206 260 313 370
#     4  11  24  44  63  92 127 163 205 262 308 371
#     4  10  22  42  64  88 122 163 208 255 311 372
#     4  11  23  41  63  93 126 166 204 258 310 374
#     4  11  26  40  65  93 126 164 212 255 313 374
#     4  11  23  41  66  91 124 164 210 254 314 372
#
# _framework density 18.941458999999998
#
# number of rings (size 3 to 8) (size 9 to 14) (size 15 to 20)
#    0.000    1.333    3.333    1.000    4.667    5.333 
#    0.000    1.667    0.000    0.000    0.000    0.000 
#    0.000    0.000    0.000    0.000    0.000    0.000 
#
# Total GULP energy -268208.821603 kJ/mol
# GULP energy per Si atom -5587.683783 kJ/mol
# Density = 1.889835 g / cm^3
# Si number density = 18.941459 Si / 1000 Ang^3
#
#
#
# Elastic Constant Matrix: (Units=GPa)
#
#
# Indices 1 2 3 4 5 6 
#
# 1 80.5133 40.9979 -5.2998 0.0000 0.0000 0.0000
# 2 40.9979 118.1143 11.4014 0.0000 0.0000 0.0000
# 3 -5.2998 11.4014 16.7138 0.0000 0.0000 0.0000
# 4 0.0000 0.0000 0.0000 33.4360 0.0000 0.0000
# 5 0.0000 0.0000 0.0000 0.0000 29.9814 0.0000
# 6 0.0000 0.0000 0.0000 0.0000 0.0000 10.7377
#
#
#
# Elastic Compliance Matrix: (Units=1/GPa)
#
#
# Indices 1 2 3 4 5 6 
#
# 1 0.016449 -0.006651 0.009753 0.000000 0.000000 0.000000
# 2 -0.006651 0.011752 -0.010126 0.000000 0.000000 0.000000
# 3 0.009753 -0.010126 0.069831 0.000000 0.000000 0.000000
# 4 0.000000 0.000000 0.000000 0.029908 0.000000 0.000000
# 5 0.000000 0.000000 0.000000 0.000000 0.033354 0.000000
# 6 0.000000 0.000000 0.000000 0.000000 0.000000 0.093130
#
#
# Mechanical properties :
#
#
# Convention : Reuss Voigt Hill
#
# Bulk Modulus (GPa) = 11.90703 34.39337 23.15020
# Shear Modulus (GPa) = 16.86530 26.04715 21.45622
#
# Velocity S-wave (km/s) = 2.98718 3.71231 3.36931
# Velocity P-wave (km/s) = 4.26586 6.04749 5.23305
#
# Compressibility (1/GPa) = 0.08398399
#
# Stress axis : x y z
#
# Youngs Moduli (GPa) = 60.79405 85.08929 14.32036
#
# Poissons Ratio (x) = 0.56592 -0.13966
# Poissons Ratio (y) = 0.40434 0.14501
# Poissons Ratio (z) = -0.59291 0.86160
#
# Static dielectric constant tensor:
#      x y z
#    x 1.619830 0.000000 0.000000 
#    y 0.000000 1.658660 0.000000 
#    z 0.000000 0.000000 1.670590 
# 
# From -- ./inp_files/27964.got.cif
#   From: 2010.05.17/outbox.cif.g08.bks.cpg/sg57_14_cif.got.tgz:27964.got - 2010.06.03 13:58:18.
