data_PCOD9439695
_publ_section_title
;
Structure prediction by ZEFSAII (Michael W. Deem and Ramdas Pophale) SiO2 
 PCOD9439695
Probable space group: P B C M
;
_chemical_formula_sum "Si O2"
_cell_formula_units_Z 48
_cell_length_a 28.445764
_cell_length_b 8.929647
_cell_length_c 9.514646
_cell_angle_alpha 90.000000
_cell_angle_beta 90.000000
_cell_angle_gamma 90.000000
_cell_volume 2416.821236
_symmetry_space_group_name_H-M "P B C M"
_symmetry_group_IT_number 57
_symmetry_cell_setting 'orthorhombic'
loop_
_space_group_symop_operation_xyz
x,y,z
-x,-y,1/2+z
x,1/2-y,-z
-x,1/2+y,1/2-z
-x,-y,-z
x,y,1/2-z
-x,1/2+y,z
x,1/2-y,1/2+z
loop_
_atom_site_type_symbol
_atom_site_label
_atom_site_fract_x
_atom_site_fract_y
_atom_site_fract_z
Si Si1 0.725730 0.598321 0.081389
Si Si2 0.460031 0.406679 0.919116
Si Si3 0.966543 0.908674 0.250000
Si Si4 0.796100 0.098137 0.087618
Si Si5 0.065459 0.437239 0.750000
Si Si6 0.904259 0.075379 0.474612
Si Si7 0.366345 0.600256 0.587322
O O1 0.732795 0.618427 0.250000
O O2 0.682376 0.485003 0.060296
O O3 0.713694 0.750000 0.000000
O O4 0.770626 0.530013 0.001506
O O5 0.469229 0.391473 0.750000
O O6 0.410490 0.491606 0.936191
O O7 0.457401 0.250000 0.000000
O O8 0.500000 0.500000 0.000000
O O9 0.954030 0.732427 0.250000
O O10 0.942628 0.992344 0.380759
O O11 0.021342 0.947939 0.250000
O O12 0.779559 0.107071 0.250000
O O13 0.787229 0.250000 0.000000
O O14 0.852280 0.075073 0.089663
O O15 0.096152 0.480188 0.883615
O O16 0.916874 0.250000 0.500000
O O17 0.370640 0.750000 0.500000
O O18 0.366826 0.643063 0.750000
#
# Coordination Sequence:
#
# PCOD9439695 Si02
#       7
#     8   8   4   8   4   8   8
#     4  11  24  42  65  95 131 170 215 266 323 380
#     4  11  23  40  62  92 129 170 218 269 327 387
#     4  12  24  46  62  98 128 168 212 262 319 382
#     4  11  24  43  68  95 128 166 211 261 320 387
#     4  12  26  40  70  92 130 168 212 264 317 384
#     4  11  24  43  67  94 128 167 212 261 321 383
#     4  10  23  41  63  92 126 168 216 270 325 387
#
# _framework density 19.860797999999999
#
# number of rings (size 3 to 8) (size 9 to 14) (size 15 to 20)
#    0.000    1.000    0.833    5.500    4.667    6.667 
#    0.000    0.000    0.000    0.000    0.000    0.000 
#    0.000    0.000    0.000    0.000    0.000    0.000 
#
# Total GULP energy -268338.268710 kJ/mol
# GULP energy per Si atom -5590.380598 kJ/mol
# Density = 1.981559 g / cm^3
# Si number density = 19.860798 Si / 1000 Ang^3
#
#
#
# Elastic Constant Matrix: (Units=GPa)
#
#
# Indices 1 2 3 4 5 6 
#
# 1 44.4507 31.7272 34.1745 0.0000 0.0000 0.0000
# 2 31.7272 148.0137 68.4464 0.0000 0.0000 0.0000
# 3 34.1745 68.4464 142.0792 0.0000 0.0000 0.0000
# 4 0.0000 0.0000 0.0000 36.6731 0.0000 0.0000
# 5 0.0000 0.0000 0.0000 0.0000 26.3574 0.0000
# 6 0.0000 0.0000 0.0000 0.0000 0.0000 15.1627
#
#
#
# Elastic Compliance Matrix: (Units=1/GPa)
#
#
# Indices 1 2 3 4 5 6 
#
# 1 0.029235 -0.003879 -0.005163 0.000000 0.000000 0.000000
# 2 -0.003879 0.009207 -0.003503 0.000000 0.000000 0.000000
# 3 -0.005163 -0.003503 0.009968 0.000000 0.000000 0.000000
# 4 0.000000 0.000000 0.000000 0.027268 0.000000 0.000000
# 5 0.000000 0.000000 0.000000 0.000000 0.037940 0.000000
# 6 0.000000 0.000000 0.000000 0.000000 0.000000 0.065951
#
#
# Mechanical properties :
#
#
# Convention : Reuss Voigt Hill
#
# Bulk Modulus (GPa) = 42.88097 67.02666 54.95381
# Shear Modulus (GPa) = 23.53688 28.98500 26.26094
#
# Velocity S-wave (km/s) = 3.44625 3.82436 3.64022
# Velocity P-wave (km/s) = 6.12153 7.30223 6.73779
#
# Compressibility (1/GPa) = 0.02332037
#
# Stress axis : x y z
#
# Youngs Moduli (GPa) = 34.20544 108.60930 100.32479
#
# Poissons Ratio (x) = 0.42129 0.51801
# Poissons Ratio (y) = 0.13268 0.35140
# Poissons Ratio (z) = 0.17661 0.38041
#
# Static dielectric constant tensor:
#      x y z
#    x 1.682230 0.000000 0.000000 
#    y 0.000000 1.717100 0.000000 
#    z 0.000000 0.000000 1.528200 
# 
# From -- ./inp_files/10164.got.cif
#   From: 2010.05.17/outbox.cif.g08.bks.cpg/sg57_6_cif.got.tgz:10164.got - 2010.06.03 13:58:18.
