data_PCOD9439094
_publ_section_title
;
Structure prediction by ZEFSAII (Michael W. Deem and Ramdas Pophale) SiO2 
 PCOD9439094
Probable space group: P B C M
;
_chemical_formula_sum "Si O2"
_cell_formula_units_Z 64
_cell_length_a 14.799050
_cell_length_b 25.925400
_cell_length_c 8.635884
_cell_angle_alpha 90.000000
_cell_angle_beta 90.000000
_cell_angle_gamma 90.000000
_cell_volume 3313.340762
_symmetry_space_group_name_H-M "P B C M"
_symmetry_group_IT_number 57
_symmetry_cell_setting 'orthorhombic'
loop_
_space_group_symop_operation_xyz
x,y,z
-x,-y,1/2+z
x,1/2-y,-z
-x,1/2+y,1/2-z
-x,-y,-z
x,y,1/2-z
-x,1/2+y,z
x,1/2-y,1/2+z
loop_
_atom_site_type_symbol
_atom_site_label
_atom_site_fract_x
_atom_site_fract_y
_atom_site_fract_z
Si Si1 0.406077 0.307987 0.935172
Si Si2 0.881677 0.096213 0.063236
Si Si3 0.212746 0.192538 0.934571
Si Si4 0.761497 0.193982 0.435645
Si Si5 0.211786 0.493579 0.563036
Si Si6 0.908777 0.603738 0.062504
Si Si7 0.593397 0.478398 0.063900
Si Si8 0.584395 0.141275 0.935723
O O1 0.405260 0.306776 0.750000
O O2 0.418491 0.250000 0.000000
O O3 0.308799 0.326264 0.996758
O O4 0.488270 0.342028 0.996383
O O5 0.877145 0.092748 0.250000
O O6 0.831056 0.148886 0.016644
O O7 0.986815 0.096887 0.018079
O O8 0.831949 0.046774 0.993556
O O9 0.218808 0.194694 0.750000
O O10 0.198402 0.250000 0.000000
O O11 0.134776 0.154484 0.989935
O O12 0.786189 0.250000 0.500000
O O13 0.758906 0.196025 0.250000
O O14 0.663348 0.177186 0.497884
O O15 0.211933 0.493929 0.750000
O O16 0.151262 0.445313 0.512689
O O17 0.316271 0.491982 0.510745
O O18 0.904539 0.607518 0.250000
O O19 0.589745 0.481421 0.250000
O O20 0.603840 0.418140 0.022003
O O21 0.500000 0.500000 0.000000
O O22 0.582774 0.145705 0.750000
#
# Coordination Sequence:
#
# PCOD9439094 Si02
#       8
#     8   8   8   8   8   8   8   8
#     4  11  22  38  60  86 117 154 195 240 293 352
#     4  10  22  40  62  90 123 159 203 256 311 363
#     4  11  23  41  63  90 123 160 202 249 305 361
#     4  11  23  39  60  88 120 161 206 253 310 368
#     4  10  21  40  64  90 122 161 203 249 307 363
#     4  10  22  40  63  92 124 159 204 255 305 366
#     4  10  23  39  58  88 122 160 199 245 301 360
#     4  11  22  39  60  86 121 157 200 248 296 359
#
# _framework density 19.315854000000002
#
# number of rings (size 3 to 8) (size 9 to 14) (size 15 to 20)
#    0.000    1.500    1.250    4.500    1.750    3.500 
#    0.000    1.250    0.000    0.000    0.000    0.000 
#    0.000    0.000    0.000    0.000    0.000    0.000 
#
# Total GULP energy -357818.454506 kJ/mol
# GULP energy per Si atom -5590.913352 kJ/mol
# Density = 1.927189 g / cm^3
# Si number density = 19.315854 Si / 1000 Ang^3
#
#
#
# Elastic Constant Matrix: (Units=GPa)
#
#
# Indices 1 2 3 4 5 6 
#
# 1 152.2685 59.5545 26.4099 0.0000 0.0000 0.0000
# 2 59.5545 91.9459 25.2046 0.0000 0.0000 0.0000
# 3 26.4099 25.2046 51.3494 0.0000 0.0000 0.0000
# 4 0.0000 0.0000 0.0000 29.6177 0.0000 0.0000
# 5 0.0000 0.0000 0.0000 0.0000 7.8717 0.0000
# 6 0.0000 0.0000 0.0000 0.0000 0.0000 -11.9434
#
#
#
# Elastic Compliance Matrix: (Units=1/GPa)
#
#
# Indices 1 2 3 4 5 6 
#
# 1 0.008976 -0.005256 -0.002037 0.000000 0.000000 0.000000
# 2 -0.005256 0.015644 -0.004976 0.000000 0.000000 0.000000
# 3 -0.002037 -0.004976 0.022964 0.000000 0.000000 0.000000
# 4 0.000000 0.000000 0.000000 0.033764 0.000000 0.000000
# 5 0.000000 0.000000 0.000000 0.000000 0.127037 0.000000
# 6 0.000000 0.000000 0.000000 0.000000 0.000000 -0.083729
#
#
# Mechanical properties :
#
#
# Convention : Reuss Voigt Hill
#
# Bulk Modulus (GPa) = 43.38761 57.54464 50.46613
# Shear Modulus (GPa) = 31.87229 17.40219 24.63724
#
# Velocity S-wave (km/s) = 4.06650 3.00480 3.57528
# Velocity P-wave (km/s) = 6.67529 6.47260 6.57472
#
# Compressibility (1/GPa) = 0.02304805
#
# Stress axis : x y z
#
# Youngs Moduli (GPa) = 111.40585 63.92198 43.54568
#
# Poissons Ratio (x) = 0.33595 0.08870
# Poissons Ratio (y) = 0.58551 0.21667
# Poissons Ratio (z) = 0.22692 0.31806
#
# Static dielectric constant tensor:
#      x y z
#    x 1.660780 0.000000 0.000000 
#    y 0.000000 1.654070 0.000000 
#    z 0.000000 0.000000 1.647460 
# 
# From -- ./inp_files/5618.got.cif
#   From: 2010.05.17/outbox.cif.g08.bks.cpg/sg57_3_cif.got.tgz:5618.got - 2010.06.03 13:58:18.
