data_PCOD9439570
_publ_section_title
;
Structure prediction by ZEFSAII (Michael W. Deem and Ramdas Pophale) SiO2 
 PCOD9439570
Probable space group: P B C M
;
_chemical_formula_sum "Si O2"
_cell_formula_units_Z 40
_cell_length_a 8.560747
_cell_length_b 12.108921
_cell_length_c 19.273095
_cell_angle_alpha 90.000000
_cell_angle_beta 90.000000
_cell_angle_gamma 90.000000
_cell_volume 1997.876186
_symmetry_space_group_name_H-M "P B C M"
_symmetry_group_IT_number 57
_symmetry_cell_setting 'orthorhombic'
loop_
_space_group_symop_operation_xyz
x,y,z
-x,-y,1/2+z
x,1/2-y,-z
-x,1/2+y,1/2-z
-x,-y,-z
x,y,1/2-z
-x,1/2+y,z
x,1/2-y,1/2+z
loop_
_atom_site_type_symbol
_atom_site_label
_atom_site_fract_x
_atom_site_fract_y
_atom_site_fract_z
Si Si1 0.710227 0.355950 0.670461
Si Si2 0.199185 0.422689 0.111298
Si Si3 0.678320 0.003523 0.528869
Si Si4 0.885440 0.303839 0.075666
Si Si5 0.412100 0.216283 0.080130
O O1 0.692672 0.321811 0.750000
O O2 0.750511 0.485710 0.666284
O O3 0.844833 0.290608 0.630239
O O4 0.557047 0.323748 0.625887
O O5 0.319850 0.320411 0.110394
O O6 0.026793 0.373840 0.107532
O O7 0.217648 0.487663 0.038719
O O8 0.736509 0.114186 0.565432
O O9 0.500000 0.000000 0.500000
O O10 0.695514 0.892816 0.573851
O O11 0.921993 0.250000 0.000000
O O12 0.452709 0.250000 0.000000
#
# Coordination Sequence:
#
# PCOD9439570 Si02
#       5
#     8   8   8   8   8
#     4  12  27  44  63  92 134 181 220 265 330 400
#     4  11  24  40  69  99 130 164 217 281 337 386
#     4  11  19  38  69 102 128 163 213 279 329 382
#     4  12  23  41  71  99 132 171 220 278 331 386
#     4  10  22  42  68  99 125 165 222 280 328 385
#
# _framework density 20.021260999999999
#
# number of rings (size 3 to 8) (size 9 to 14) (size 15 to 20)
#    0.000    0.800    4.000    5.400    2.800    1.600 
#    0.000    0.000    0.000    0.000    0.000    0.000 
#    0.000    0.000    0.000    0.000    0.000    0.000 
#
# Total GULP energy -223400.542617 kJ/mol
# GULP energy per Si atom -5585.013565 kJ/mol
# Density = 1.997569 g / cm^3
# Si number density = 20.021261 Si / 1000 Ang^3
#
#
#
# Elastic Constant Matrix: (Units=GPa)
#
#
# Indices 1 2 3 4 5 6 
#
# 1 96.2429 39.7320 25.7253 0.0000 0.0000 0.0000
# 2 39.7320 135.2118 32.3862 0.0000 0.0000 0.0000
# 3 25.7253 32.3862 82.8248 0.0000 0.0000 0.0000
# 4 0.0000 0.0000 0.0000 16.6412 0.0000 0.0000
# 5 0.0000 0.0000 0.0000 0.0000 -0.3724 0.0000
# 6 0.0000 0.0000 0.0000 0.0000 0.0000 41.0439
#
#
#
# Elastic Compliance Matrix: (Units=1/GPa)
#
#
# Indices 1 2 3 4 5 6 
#
# 1 0.012335 -0.002987 -0.002663 0.000000 0.000000 0.000000
# 2 -0.002987 0.008883 -0.002546 0.000000 0.000000 0.000000
# 3 -0.002663 -0.002546 0.013896 0.000000 0.000000 0.000000
# 4 0.000000 0.000000 0.000000 0.060092 0.000000 0.000000
# 5 0.000000 0.000000 0.000000 0.000000 -2.685128 0.000000
# 6 0.000000 0.000000 0.000000 0.000000 0.000000 0.024364
#
#
# Mechanical properties :
#
#
# Convention : Reuss Voigt Hill
#
# Bulk Modulus (GPa) = 53.41063 56.66294 55.03679
# Shear Modulus (GPa) = -1.96624 25.89161 11.96269
#
# Velocity S-wave (km/s) = -0.99207 3.60002 2.44703
# Velocity P-wave (km/s) = 5.04208 6.75596 5.96094
#
# Compressibility (1/GPa) = 0.01872286
#
# Stress axis : x y z
#
# Youngs Moduli (GPa) = 81.06789 112.57135 71.96095
#
# Poissons Ratio (x) = 0.33623 0.19166
# Poissons Ratio (y) = 0.24213 0.18320
# Poissons Ratio (z) = 0.21592 0.28659
#
# Static dielectric constant tensor:
#      x y z
#    x 1.750260 0.000000 0.000000 
#    y 0.000000 1.800480 0.000000 
#    z 0.000000 0.000000 1.700160 
# 
# From -- ./inp_files/20509.got.cif
#   From: 2010.05.17/outbox.cif.g08.bks.cpg/sg57_11_cif.got.tgz:20509.got - 2010.06.03 13:58:18.
