data_PCOD9439053
_publ_section_title
;
Structure prediction by ZEFSAII (Michael W. Deem and Ramdas Pophale) SiO2 
 PCOD9439053
Probable space group: P B C M
;
_chemical_formula_sum "Si O2"
_cell_formula_units_Z 64
_cell_length_a 9.547059
_cell_length_b 27.223206
_cell_length_c 14.491723
_cell_angle_alpha 90.000000
_cell_angle_beta 90.000000
_cell_angle_gamma 90.000000
_cell_volume 3766.421326
_symmetry_space_group_name_H-M "P B C M"
_symmetry_group_IT_number 57
_symmetry_cell_setting 'orthorhombic'
loop_
_space_group_symop_operation_xyz
x,y,z
-x,-y,1/2+z
x,1/2-y,-z
-x,1/2+y,1/2-z
-x,-y,-z
x,y,1/2-z
-x,1/2+y,z
x,1/2-y,1/2+z
loop_
_atom_site_type_symbol
_atom_site_label
_atom_site_fract_x
_atom_site_fract_y
_atom_site_fract_z
Si Si1 0.442045 0.191302 0.641607
Si Si2 0.262945 0.131656 0.500000
Si Si3 0.139210 0.966516 0.356631
Si Si4 0.557958 0.691304 0.141607
Si Si5 0.932043 0.116710 0.000001
Si Si6 0.314684 0.691954 0.499999
Si Si7 0.340633 0.482533 0.500001
Si Si8 0.860791 0.033483 0.356631
O O1 0.448493 0.180505 0.750000
O O2 0.323813 0.160622 0.588441
O O3 0.417414 0.249999 0.629936
O O4 0.587214 0.180112 0.588334
O O5 0.323811 0.160624 0.411560
O O6 0.321695 0.076107 0.499998
O O7 0.095398 0.129694 0.500000
O O8 0.174174 0.958188 0.250000
O O9 0.104061 0.917014 0.411647
O O10 0.260484 0.994818 0.411708
O O11 0.000000 0.999999 0.361866
O O12 0.551512 0.680506 0.250000
O O13 0.412788 0.680113 0.088336
O O14 0.828037 0.162410 0.000003
O O15 0.895942 0.082984 0.088354
O O16 0.288684 0.750000 0.500000
O O17 0.500000 0.500000 0.500000
O O18 0.260483 0.505181 0.411708
O O19 0.825827 0.041811 0.250000
#
# Coordination Sequence:
#
# PCOD9439053 Si02
#       8
#     8   8   8   8   8   8   8   8
#     4   9  20  39  59  81 111 146 185 227 275 333
#     4  11  21  35  57  86 114 148 185 228 283 327
#     4  10  21  40  60  77 110 156 188 221 276 329
#     4   9  20  39  59  81 111 146 185 227 275 333
#     4  11  21  37  57  84 115 141 187 235 271 332
#     4   9  20  37  58  82 109 143 179 226 282 330
#     4  11  23  38  55  85 120 142 185 236 275 332
#     4  10  21  40  60  77 110 156 188 221 276 329
#
# _framework density 16.992256000000001
#
# number of rings (size 3 to 8) (size 9 to 14) (size 15 to 20)
#    0.000    2.000    2.500    1.875    7.000    4.500 
#    0.000    0.000    0.000    3.000    0.000    0.000 
#    0.000    0.000    0.000    0.000    0.000    0.000 
#
# Total GULP energy -357214.839020 kJ/mol
# GULP energy per Si atom -5581.481860 kJ/mol
# Density = 1.695358 g / cm^3
# Si number density = 16.992256 Si / 1000 Ang^3
#
#
#
# Elastic Constant Matrix: (Units=GPa)
#
#
# Indices 1 2 3 4 5 6 
#
# 1 141.0475 78.1066 78.8851 0.0000 0.0000 0.0000
# 2 78.1066 84.8834 62.7390 0.0000 0.0000 0.0000
# 3 78.8851 62.7390 171.9496 0.0000 0.0000 0.0000
# 4 0.0000 0.0000 0.0000 9.0643 0.0000 0.0000
# 5 0.0000 0.0000 0.0000 0.0000 8.9744 0.0000
# 6 0.0000 0.0000 0.0000 0.0000 0.0000 35.8237
#
#
#
# Elastic Compliance Matrix: (Units=1/GPa)
#
#
# Indices 1 2 3 4 5 6 
#
# 1 0.015241 -0.012126 -0.002567 0.000000 0.000000 0.000000
# 2 -0.012126 0.025780 -0.003843 0.000000 0.000000 0.000000
# 3 -0.002567 -0.003843 0.008396 0.000000 0.000000 0.000000
# 4 0.000000 0.000000 0.000000 0.110323 0.000000 0.000000
# 5 0.000000 0.000000 0.000000 0.000000 0.111428 0.000000
# 6 0.000000 0.000000 0.000000 0.000000 0.000000 0.027915
#
#
# Mechanical properties :
#
#
# Convention : Reuss Voigt Hill
#
# Bulk Modulus (GPa) = 81.02110 93.03798 87.02954
# Shear Modulus (GPa) = 14.69422 22.64912 18.67167
#
# Velocity S-wave (km/s) = 2.94387 3.65486 3.31846
# Velocity P-wave (km/s) = 7.70324 8.52542 8.12473
#
# Compressibility (1/GPa) = 0.01234246
#
# Stress axis : x y z
#
# Youngs Moduli (GPa) = 65.61281 38.79039 119.10863
#
# Poissons Ratio (x) = 0.47039 0.30581
# Poissons Ratio (y) = 0.79565 0.45772
# Poissons Ratio (z) = 0.16846 0.14907
#
# Static dielectric constant tensor:
#      x y z
#    x 1.546020 0.000000 0.000000 
#    y 0.000000 1.571050 0.000000 
#    z 0.000000 0.000000 1.569180 
# 
# From -- ./inp_files/16990.got.cif
#   From: 2010.05.17/outbox.cif.g08.bks.cpg/sg57_9_cif.got.tgz:16990.got - 2010.06.03 13:58:18.
