data_PCOD9439362
_publ_section_title
;
Structure prediction by ZEFSAII (Michael W. Deem and Ramdas Pophale) SiO2 
 PCOD9439362
Probable space group: P B C M
;
_chemical_formula_sum "Si O2"
_cell_formula_units_Z 56
_cell_length_a 12.644740
_cell_length_b 10.238029
_cell_length_c 24.017439
_cell_angle_alpha 90.000000
_cell_angle_beta 90.000000
_cell_angle_gamma 90.000000
_cell_volume 3109.230760
_symmetry_space_group_name_H-M "P B C M"
_symmetry_group_IT_number 57
_symmetry_cell_setting 'orthorhombic'
loop_
_space_group_symop_operation_xyz
x,y,z
-x,-y,1/2+z
x,1/2-y,-z
-x,1/2+y,1/2-z
-x,-y,-z
x,y,1/2-z
-x,1/2+y,z
x,1/2-y,1/2+z
loop_
_atom_site_type_symbol
_atom_site_label
_atom_site_fract_x
_atom_site_fract_y
_atom_site_fract_z
Si Si1 0.397468 0.065282 0.750000
Si Si2 0.632297 0.617566 0.965615
Si Si3 0.157359 0.393611 0.684315
Si Si4 0.387176 0.868804 0.042708
Si Si5 0.407555 0.761995 0.750000
Si Si6 0.092924 0.898141 0.682872
Si Si7 0.748989 0.325487 0.152518
Si Si8 0.242809 0.123941 0.646956
O O1 0.491771 0.168522 0.750000
O O2 0.326819 0.088360 0.695142
O O3 0.435631 0.915114 0.750000
O O4 0.511748 0.621842 0.942132
O O5 0.709251 0.598387 0.913625
O O6 0.651561 0.750000 0.000000
O O7 0.639944 0.500029 0.009390
O O8 0.171603 0.367395 0.750000
O O9 0.206648 0.533915 0.670780
O O10 0.212653 0.275536 0.652207
O O11 0.032018 0.393560 0.672932
O O12 0.311491 0.842902 0.094516
O O13 0.377702 0.750000 0.000000
O O14 0.335828 0.728566 0.696733
O O15 0.110406 0.890106 0.750000
O O16 0.155851 0.779136 0.654352
O O17 0.142776 0.032387 0.660537
#
# Coordination Sequence:
#
# PCOD9439362 Si02
#       8
#     4   8   8   8   4   8   8   8
#     4  12  26  40  59  95 128 164 193 245 319 372
#     4  10  22  41  60  86 118 160 210 251 292 366
#     4  11  23  36  63  93 123 159 204 251 305 373
#     4  10  22  39  62  86 114 162 210 243 298 363
#     4  12  26  40  59  93 132 162 191 249 315 374
#     4  11  21  40  61  89 125 161 204 249 304 376
#     4  12  21  41  61  91 124 157 202 253 308 364
#     4  12  21  41  63  89 124 159 204 253 309 364
#
# _framework density 18.010885999999999
#
# number of rings (size 3 to 8) (size 9 to 14) (size 15 to 20)
#    0.000    0.857    4.286    3.429    2.000    2.286 
#    5.143    0.000    0.000   17.143    0.000    0.000 
#    0.000    0.000    0.000    0.000    0.000    0.000 
#
# Total GULP energy -313088.018755 kJ/mol
# GULP energy per Si atom -5590.857478 kJ/mol
# Density = 1.796989 g / cm^3
# Si number density = 18.010886 Si / 1000 Ang^3
#
#
#
# Elastic Constant Matrix: (Units=GPa)
#
#
# Indices 1 2 3 4 5 6 
#
# 1 57.0808 11.6174 29.8776 0.0000 0.0000 0.0000
# 2 11.6174 107.3744 -4.4282 0.0000 0.0000 0.0000
# 3 29.8776 -4.4282 67.7054 0.0000 0.0000 0.0000
# 4 0.0000 0.0000 0.0000 5.6232 0.0000 0.0000
# 5 0.0000 0.0000 0.0000 0.0000 20.5895 0.0000
# 6 0.0000 0.0000 0.0000 0.0000 0.0000 30.5956
#
#
#
# Elastic Compliance Matrix: (Units=1/GPa)
#
#
# Indices 1 2 3 4 5 6 
#
# 1 0.023710 -0.003005 -0.010660 0.000000 0.000000 0.000000
# 2 -0.003005 0.009719 0.001962 0.000000 0.000000 0.000000
# 3 -0.010660 0.001962 0.019602 0.000000 0.000000 0.000000
# 4 0.000000 0.000000 0.000000 0.177833 0.000000 0.000000
# 5 0.000000 0.000000 0.000000 0.000000 0.048569 0.000000
# 6 0.000000 0.000000 0.000000 0.000000 0.000000 0.032684
#
#
# Mechanical properties :
#
#
# Convention : Reuss Voigt Hill
#
# Bulk Modulus (GPa) = 33.75420 34.03270 33.89345
# Shear Modulus (GPa) = 14.47603 24.36791 19.42197
#
# Velocity S-wave (km/s) = 2.83810 3.68224 3.28738
# Velocity P-wave (km/s) = 5.43336 6.08401 5.76787
#
# Compressibility (1/GPa) = 0.02962594
#
# Stress axis : x y z
#
# Youngs Moduli (GPa) = 42.17618 102.88884 51.01499
#
# Poissons Ratio (x) = 0.30917 0.54379
# Poissons Ratio (y) = 0.12674 -0.10008
# Poissons Ratio (z) = 0.44958 -0.20184
#
# Static dielectric constant tensor:
#      x y z
#    x 1.606490 0.000000 0.000000 
#    y 0.000000 1.601710 0.000000 
#    z 0.000000 0.000000 1.578400 
# 
# From -- ./inp_files/25455.got.cif
#   From: 2010.05.17/outbox.cif.g08.bks.cpg/sg57_13_cif.got.tgz:25455.got - 2010.06.03 13:58:18.
