data_PCOD9439338
_publ_section_title
;
Structure prediction by ZEFSAII (Michael W. Deem and Ramdas Pophale) SiO2 
 PCOD9439338
Probable space group: P B C M
;
_chemical_formula_sum "Si O2"
_cell_formula_units_Z 64
_cell_length_a 5.869830
_cell_length_b 18.770398
_cell_length_c 26.217031
_cell_angle_alpha 90.000000
_cell_angle_beta 90.000000
_cell_angle_gamma 90.000000
_cell_volume 2888.567446
_symmetry_space_group_name_H-M "P B C M"
_symmetry_group_IT_number 57
_symmetry_cell_setting 'orthorhombic'
loop_
_space_group_symop_operation_xyz
x,y,z
-x,-y,1/2+z
x,1/2-y,-z
-x,1/2+y,1/2-z
-x,-y,-z
x,y,1/2-z
-x,1/2+y,z
x,1/2-y,1/2+z
loop_
_atom_site_type_symbol
_atom_site_label
_atom_site_fract_x
_atom_site_fract_y
_atom_site_fract_z
Si Si1 0.805855 0.950538 0.476515
Si Si2 0.924967 0.459923 0.308583
Si Si3 0.426967 0.410410 0.191068
Si Si4 0.821944 0.191550 0.096483
Si Si5 0.824510 0.711231 0.948903
Si Si6 0.798518 0.889139 0.657948
Si Si7 0.470102 0.567507 0.429278
Si Si8 0.431953 0.252392 0.157186
O O1 0.861218 0.872367 0.456571
O O2 0.641933 0.938522 0.524380
O O3 0.684438 0.998046 0.433606
O O4 0.000000 0.000000 0.500000
O O5 0.926502 0.434470 0.250000
O O6 0.680528 0.431268 0.331101
O O7 0.901324 0.545793 0.310622
O O8 0.176574 0.436921 0.329134
O O9 0.433723 0.436242 0.250000
O O10 0.420208 0.324793 0.188114
O O11 0.666280 0.140295 0.063292
O O12 0.684406 0.225789 0.143356
O O13 0.935996 0.252148 0.063557
O O14 0.012531 0.138988 0.118767
O O15 0.674313 0.729061 0.898884
O O16 0.734155 0.750000 0.000000
O O17 0.594586 0.922227 0.624300
O O18 0.700228 0.815523 0.680930
#
# Coordination Sequence:
#
# PCOD9439338 Si02
#       8
#     8   8   8   8   8   8   8   8
#     4  11  23  39  59  87 120 162 217 268 335 396
#     4  10  24  44  70 100 137 179 219 276 344 407
#     4  10  24  46  69 102 141 175 222 281 340 411
#     4  10  22  41  59  87 123 167 217 270 335 391
#     4  11  23  39  60  89 128 170 221 280 336 402
#     4  10  22  40  64  90 129 166 215 273 324 403
#     4  10  22  39  58  88 122 160 210 272 329 391
#     4  10  24  40  65  97 128 177 226 277 343 403
#
# _framework density 22.156313000000001
#
# number of rings (size 3 to 8) (size 9 to 14) (size 15 to 20)
#    0.000    1.750    0.000    3.750    8.750    5.000 
#    0.000    1.875    0.000    0.000    0.000    0.000 
#    0.000    0.000    0.000    0.000    0.000    0.000 
#
# Total GULP energy -357110.341924 kJ/mol
# GULP energy per Si atom -5579.849093 kJ/mol
# Density = 2.210588 g / cm^3
# Si number density = 22.156313 Si / 1000 Ang^3
#
#
#
# Elastic Constant Matrix: (Units=GPa)
#
#
# Indices 1 2 3 4 5 6 
#
# 1 117.0177 55.1114 16.6242 0.0000 0.0000 0.0000
# 2 55.1114 157.9890 12.2573 0.0000 0.0000 0.0000
# 3 16.6242 12.2573 28.7871 0.0000 0.0000 0.0000
# 4 0.0000 0.0000 0.0000 30.6157 0.0000 0.0000
# 5 0.0000 0.0000 0.0000 0.0000 6.3793 0.0000
# 6 0.0000 0.0000 0.0000 0.0000 0.0000 32.9944
#
#
#
# Elastic Compliance Matrix: (Units=1/GPa)
#
#
# Indices 1 2 3 4 5 6 
#
# 1 0.010832 -0.003406 -0.004805 0.000000 0.000000 0.000000
# 2 -0.003406 0.007617 -0.001276 0.000000 0.000000 0.000000
# 3 -0.004805 -0.001276 0.038056 0.000000 0.000000 0.000000
# 4 0.000000 0.000000 0.000000 0.032663 0.000000 0.000000
# 5 0.000000 0.000000 0.000000 0.000000 0.156758 0.000000
# 6 0.000000 0.000000 0.000000 0.000000 0.000000 0.030308
#
#
# Mechanical properties :
#
#
# Convention : Reuss Voigt Hill
#
# Bulk Modulus (GPa) = 26.64519 52.41999 39.53259
# Shear Modulus (GPa) = 16.24857 28.65127 22.44992
#
# Velocity S-wave (km/s) = 2.71100 3.59993 3.18661
# Velocity P-wave (km/s) = 4.67456 6.40233 5.60541
#
# Compressibility (1/GPa) = 0.03753023
#
# Stress axis : x y z
#
# Youngs Moduli (GPa) = 92.31514 131.29143 26.27691
#
# Poissons Ratio (x) = 0.44716 0.12627
# Poissons Ratio (y) = 0.31441 0.03354
# Poissons Ratio (z) = 0.44361 0.16756
#
# Static dielectric constant tensor:
#      x y z
#    x 1.889770 0.000000 0.000000 
#    y 0.000000 1.770090 0.000000 
#    z 0.000000 0.000000 1.800150 
# 
# From -- ./inp_files/29271.got.cif
#   From: 2010.05.17/outbox.cif.g08.bks.cpg/sg57_15_cif.got.tgz:29271.got - 2010.06.03 13:58:18.
