data_PCOD9439293
_publ_section_title
;
Structure prediction by ZEFSAII (Michael W. Deem and Ramdas Pophale) SiO2 
 PCOD9439293
Probable space group: P B C M
;
_chemical_formula_sum "Si O2"
_cell_formula_units_Z 48
_cell_length_a 17.517852
_cell_length_b 9.812900
_cell_length_c 14.863027
_cell_angle_alpha 90.000000
_cell_angle_beta 90.000000
_cell_angle_gamma 90.000000
_cell_volume 2554.968162
_symmetry_space_group_name_H-M "P B C M"
_symmetry_group_IT_number 57
_symmetry_cell_setting 'orthorhombic'
loop_
_space_group_symop_operation_xyz
x,y,z
-x,-y,1/2+z
x,1/2-y,-z
-x,1/2+y,1/2-z
-x,-y,-z
x,y,1/2-z
-x,1/2+y,z
x,1/2-y,1/2+z
loop_
_atom_site_type_symbol
_atom_site_label
_atom_site_fract_x
_atom_site_fract_y
_atom_site_fract_z
Si Si1 0.989736 0.622768 0.566253
Si Si2 0.156054 0.831458 0.357765
Si Si3 0.423616 0.412618 0.498540
Si Si4 0.299079 0.140931 0.856415
Si Si5 0.293950 0.461791 0.858033
Si Si6 0.845266 0.021161 0.357494
O O1 0.976639 0.750000 0.500000
O O2 0.068928 0.629217 0.620321
O O3 0.000000 0.500000 0.500000
O O4 0.917631 0.575031 0.624127
O O5 0.163716 0.826609 0.250000
O O6 0.158055 0.675659 0.394211
O O7 0.223657 0.937427 0.385422
O O8 0.441687 0.250000 0.500000
O O9 0.500000 0.500000 0.500000
O O10 0.372410 0.414088 0.408631
O O11 0.369267 0.469897 0.579207
O O12 0.309132 0.121703 0.750000
O O13 0.277726 0.299973 0.869746
O O14 0.228388 0.055832 0.892290
O O15 0.308356 0.483288 0.750000
O O16 0.839841 0.033208 0.250000
#
# Coordination Sequence:
#
# PCOD9439293 Si02
#       6
#     8   8   8   8   8   8
#     4  12  25  38  54  84 118 153 198 246 297 341
#     4  10  22  40  58  81 114 152 195 243 291 346
#     4  10  22  38  59  87 118 150 186 234 290 352
#     4   9  20  38  60  85 114 152 194 238 292 351
#     4   9  20  38  61  86 115 152 193 238 292 351
#     4  10  22  40  59  82 114 153 195 241 292 347
#
# _framework density 18.786926999999999
#
# number of rings (size 3 to 8) (size 9 to 14) (size 15 to 20)
#    0.000    2.000    1.667    0.500    4.667    2.667 
#    0.000    0.000    0.000    0.000    0.000    0.000 
#    0.000    0.000    0.000    0.000    0.000    0.000 
#
# Total GULP energy -267213.928096 kJ/mol
# GULP energy per Si atom -5566.956835 kJ/mol
# Density = 1.874417 g / cm^3
# Si number density = 18.786927 Si / 1000 Ang^3
#
#
#
# Elastic Constant Matrix: (Units=GPa)
#
#
# Indices 1 2 3 4 5 6 
#
# 1 186.6422 101.3689 48.2171 0.0000 0.0000 0.0000
# 2 101.3689 120.9339 46.0882 0.0000 0.0000 0.0000
# 3 48.2171 46.0882 46.6225 0.0000 0.0000 0.0000
# 4 0.0000 0.0000 0.0000 25.7171 0.0000 0.0000
# 5 0.0000 0.0000 0.0000 0.0000 30.8162 0.0000
# 6 0.0000 0.0000 0.0000 0.0000 0.0000 39.3298
#
#
#
# Elastic Compliance Matrix: (Units=1/GPa)
#
#
# Indices 1 2 3 4 5 6 
#
# 1 0.010151 -0.007233 -0.003348 0.000000 0.000000 0.000000
# 2 -0.007233 0.018421 -0.010729 0.000000 0.000000 0.000000
# 3 -0.003348 -0.010729 0.035518 0.000000 0.000000 0.000000
# 4 0.000000 0.000000 0.000000 0.038885 0.000000 0.000000
# 5 0.000000 0.000000 0.000000 0.000000 0.032450 0.000000
# 6 0.000000 0.000000 0.000000 0.000000 0.000000 0.025426
#
#
# Mechanical properties :
#
#
# Convention : Reuss Voigt Hill
#
# Bulk Modulus (GPa) = 46.57915 82.83856 64.70885
# Shear Modulus (GPa) = 23.73847 29.74090 26.73969
#
# Velocity S-wave (km/s) = 3.55852 3.98309 3.77678
# Velocity P-wave (km/s) = 6.45998 8.08349 7.31690
#
# Compressibility (1/GPa) = 0.02146884
#
# Stress axis : x y z
#
# Youngs Moduli (GPa) = 98.51123 54.28711 28.15453
#
# Poissons Ratio (x) = 0.39264 0.09427
# Poissons Ratio (y) = 0.71251 0.30208
# Poissons Ratio (z) = 0.32986 0.58247
#
# Static dielectric constant tensor:
#      x y z
#    x 1.561950 0.000000 0.000000 
#    y 0.000000 1.652560 0.000000 
#    z 0.000000 0.000000 1.663680 
# 
# From -- ./inp_files/18961.got.cif
#   From: 2010.05.17/outbox.cif.g08.bks.cpg/sg57_10_cif.got.tgz:18961.got - 2010.06.03 13:58:18.
