data_PCOD9439875
_publ_section_title
;
Structure prediction by ZEFSAII (Michael W. Deem and Ramdas Pophale) SiO2 
 PCOD9439875
Probable space group: P B C M
;
_chemical_formula_sum "Si O2"
_cell_formula_units_Z 64
_cell_length_a 9.076334
_cell_length_b 11.314887
_cell_length_c 29.757366
_cell_angle_alpha 90.000000
_cell_angle_beta 90.000000
_cell_angle_gamma 90.000000
_cell_volume 3056.012855
_symmetry_space_group_name_H-M "P B C M"
_symmetry_group_IT_number 57
_symmetry_cell_setting 'orthorhombic'
loop_
_space_group_symop_operation_xyz
x,y,z
-x,-y,1/2+z
x,1/2-y,-z
-x,1/2+y,1/2-z
-x,-y,-z
x,y,1/2-z
-x,1/2+y,z
x,1/2-y,1/2+z
loop_
_atom_site_type_symbol
_atom_site_label
_atom_site_fract_x
_atom_site_fract_y
_atom_site_fract_z
Si Si1 0.892881 0.338125 0.043127
Si Si2 0.400204 0.338345 0.354027
Si Si3 0.896111 0.637325 0.803145
Si Si4 0.729745 0.550525 0.487778
Si Si5 0.027215 0.616427 0.153536
Si Si6 0.317447 0.773807 0.885302
Si Si7 0.833754 0.778561 0.581080
Si Si8 0.444029 0.986996 0.930375
O O1 0.861692 0.462496 0.021320
O O2 0.775245 0.314767 0.083190
O O3 0.047358 0.319820 0.068022
O O4 0.880506 0.250000 0.000000
O O5 0.280267 0.361295 0.315036
O O6 0.559240 0.274799 0.350783
O O7 0.298678 0.262126 0.387712
O O8 0.443636 0.455256 0.381578
O O9 0.916960 0.630348 0.750000
O O10 0.966228 0.515874 0.824818
O O11 0.965771 0.764471 0.819970
O O12 0.771300 0.670058 0.464261
O O13 0.678512 0.548254 0.538716
O O14 0.592367 0.502321 0.458324
O O15 0.193813 0.648900 0.139638
O O16 0.925504 0.622050 0.108977
O O17 0.402269 0.852191 0.922241
#
# Coordination Sequence:
#
# PCOD9439875 Si02
#       8
#     8   8   8   8   8   8   8   8
#     4  11  23  36  53  83 124 166 214 275 310 370
#     4  11  23  41  67  90 128 170 217 271 331 404
#     4  11  24  47  73 104 133 167 213 275 343 419
#     4  11  23  37  58  87 128 171 229 273 316 376
#     4  10  24  43  73 100 136 173 216 270 344 408
#     4  11  21  42  62  91 126 172 221 261 331 389
#     4  10  25  37  57  90 126 172 215 265 329 381
#     4  11  22  37  62  90 122 177 224 272 324 376
#
# _framework density 20.942321
#
# number of rings (size 3 to 8) (size 9 to 14) (size 15 to 20)
#    0.000    1.250    5.000    0.375    7.000    0.500 
#    0.000    1.250    0.000    0.000    0.000    0.000 
#    0.000    0.000    0.000    0.000    0.000    0.000 
#
# Total GULP energy -356925.001234 kJ/mol
# GULP energy per Si atom -5576.953144 kJ/mol
# Density = 2.089466 g / cm^3
# Si number density = 20.942321 Si / 1000 Ang^3
#
#
#
# Elastic Constant Matrix: (Units=GPa)
#
#
# Indices 1 2 3 4 5 6 
#
# 1 90.6294 26.0707 14.4069 0.0000 0.0000 0.0000
# 2 26.0707 60.0166 23.5830 0.0000 0.0000 0.0000
# 3 14.4069 23.5830 77.9596 0.0000 0.0000 0.0000
# 4 0.0000 0.0000 0.0000 29.2808 0.0000 0.0000
# 5 0.0000 0.0000 0.0000 0.0000 26.7347 0.0000
# 6 0.0000 0.0000 0.0000 0.0000 0.0000 30.5919
#
#
#
# Elastic Compliance Matrix: (Units=1/GPa)
#
#
# Indices 1 2 3 4 5 6 
#
# 1 0.012650 -0.005194 -0.000767 0.000000 0.000000 0.000000
# 2 -0.005194 0.021042 -0.005406 0.000000 0.000000 0.000000
# 3 -0.000767 -0.005406 0.014604 0.000000 0.000000 0.000000
# 4 0.000000 0.000000 0.000000 0.034152 0.000000 0.000000
# 5 0.000000 0.000000 0.000000 0.000000 0.037405 0.000000
# 6 0.000000 0.000000 0.000000 0.000000 0.000000 0.032688
#
#
# Mechanical properties :
#
#
# Convention : Reuss Voigt Hill
#
# Bulk Modulus (GPa) = 39.11696 39.63633 39.37665
# Shear Modulus (GPa) = 27.20431 28.29114 27.74772
#
# Velocity S-wave (km/s) = 3.60809 3.67946 3.64395
# Velocity P-wave (km/s) = 6.00639 6.08430 6.04547
#
# Compressibility (1/GPa) = 0.02556436
#
# Stress axis : x y z
#
# Youngs Moduli (GPa) = 79.05225 47.52343 68.47438
#
# Poissons Ratio (x) = 0.24683 0.05249
# Poissons Ratio (y) = 0.41058 0.37014
# Poissons Ratio (z) = 0.06060 0.25689
#
# Static dielectric constant tensor:
#      x y z
#    x 1.789160 0.000000 0.000000 
#    y 0.000000 1.837020 0.000000 
#    z 0.000000 0.000000 1.729010 
# 
# From -- ./inp_files/29614.got.cif
#   From: 2010.05.17/outbox.cif.g08.bks.cpg/sg57_15_cif.got.tgz:29614.got - 2010.06.03 13:58:18.
