data_PCOD9439565
_publ_section_title
;
Structure prediction by ZEFSAII (Michael W. Deem and Ramdas Pophale) SiO2 
 PCOD9439565
Probable space group: P B C M
;
_chemical_formula_sum "Si O2"
_cell_formula_units_Z 60
_cell_length_a 12.162385
_cell_length_b 26.669137
_cell_length_c 9.225029
_cell_angle_alpha 90.000000
_cell_angle_beta 90.000000
_cell_angle_gamma 90.000000
_cell_volume 2992.233283
_symmetry_space_group_name_H-M "P B C M"
_symmetry_group_IT_number 57
_symmetry_cell_setting 'orthorhombic'
loop_
_space_group_symop_operation_xyz
x,y,z
-x,-y,1/2+z
x,1/2-y,-z
-x,1/2+y,1/2-z
-x,-y,-z
x,y,1/2-z
-x,1/2+y,z
x,1/2-y,1/2+z
loop_
_atom_site_type_symbol
_atom_site_label
_atom_site_fract_x
_atom_site_fract_y
_atom_site_fract_z
Si Si1 0.299806 0.474929 0.922676
Si Si2 0.739350 0.802132 0.423239
Si Si3 0.767930 0.244248 0.750000
Si Si4 0.186754 0.822176 0.973865
Si Si5 0.947142 0.648155 0.418280
Si Si6 0.431505 0.392423 0.419012
Si Si7 0.680319 0.091864 0.580100
Si Si8 0.931054 0.544273 0.924946
O O1 0.278525 0.469132 0.750000
O O2 0.328670 0.532884 0.950585
O O3 0.392430 0.436615 0.975829
O O4 0.193306 0.461988 0.018382
O O5 0.709443 0.750000 0.500000
O O6 0.757440 0.795668 0.250000
O O7 0.849158 0.822621 0.501549
O O8 0.644365 0.843823 0.442228
O O9 0.804270 0.203807 0.626911
O O10 0.742440 0.287159 0.628038
O O11 0.061129 0.821477 0.919680
O O12 0.232342 0.878458 0.984532
O O13 0.917926 0.637475 0.250000
O O14 0.967574 0.597553 0.509405
O O15 0.416285 0.408085 0.250000
O O16 0.560770 0.383137 0.438096
O O17 0.711432 0.095857 0.750000
O O18 0.939104 0.543118 0.750000
O O19 0.000000 0.500000 0.000000
#
# Coordination Sequence:
#
# PCOD9439565 Si02
#       8
#     8   8   4   8   8   8   8   8
#     4  11  22  40  67  97 132 172 221 270 331 395
#     4  11  25  42  66  94 129 174 220 272 331 393
#     4  10  24  42  66  90 130 170 222 272 334 392
#     4  11  23  43  64  97 128 170 218 276 331 399
#     4  12  25  41  68  95 132 169 220 276 329 402
#     4  10  22  45  66  94 130 175 224 271 333 390
#     4  10  22  42  68  96 131 173 218 273 329 396
#     4  12  25  41  63  95 135 179 217 270 333 395
#
# _framework density 20.051912999999999
#
# number of rings (size 3 to 8) (size 9 to 14) (size 15 to 20)
#    0.000    1.067    2.667    3.600    3.733    1.600 
#    6.000    0.000    0.000    0.000    0.000    0.000 
#    0.000    0.000    0.000    0.000    0.000    0.000 
#
# Total GULP energy -334120.392953 kJ/mol
# GULP energy per Si atom -5568.673216 kJ/mol
# Density = 2.000627 g / cm^3
# Si number density = 20.051913 Si / 1000 Ang^3
#
#
#
# Elastic Constant Matrix: (Units=GPa)
#
#
# Indices 1 2 3 4 5 6 
#
# 1 37.7853 4.6712 16.3454 0.0000 0.0000 0.0000
# 2 4.6712 98.1104 42.3030 0.0000 0.0000 0.0000
# 3 16.3454 42.3030 159.7548 0.0000 0.0000 0.0000
# 4 0.0000 0.0000 0.0000 38.4960 0.0000 0.0000
# 5 0.0000 0.0000 0.0000 0.0000 29.4353 0.0000
# 6 0.0000 0.0000 0.0000 0.0000 0.0000 -0.7269
#
#
#
# Elastic Compliance Matrix: (Units=1/GPa)
#
#
# Indices 1 2 3 4 5 6 
#
# 1 0.027692 -0.000109 -0.002804 0.000000 0.000000 0.000000
# 2 -0.000109 0.011507 -0.003036 0.000000 0.000000 0.000000
# 3 -0.002804 -0.003036 0.007350 0.000000 0.000000 0.000000
# 4 0.000000 0.000000 0.000000 0.025977 0.000000 0.000000
# 5 0.000000 0.000000 0.000000 0.000000 0.033973 0.000000
# 6 0.000000 0.000000 0.000000 0.000000 0.000000 -1.375745
#
#
# Mechanical properties :
#
#
# Convention : Reuss Voigt Hill
#
# Bulk Modulus (GPa) = 28.85981 46.92105 37.89043
# Shear Modulus (GPa) = -4.01349 28.92963 12.45807
#
# Velocity S-wave (km/s) = -1.41630 3.80246 2.49527
# Velocity P-wave (km/s) = 3.42772 6.53673 5.21910
#
# Compressibility (1/GPa) = 0.03465027
#
# Stress axis : x y z
#
# Youngs Moduli (GPa) = 36.11152 86.90538 136.04699
#
# Poissons Ratio (x) = 0.00950 0.38153
# Poissons Ratio (y) = 0.00395 0.41301
# Poissons Ratio (z) = 0.10127 0.26383
#
# Static dielectric constant tensor:
#      x y z
#    x 1.728500 0.000000 0.000000 
#    y 0.000000 1.752020 0.000000 
#    z 0.000000 0.000000 1.667480 
# 
# From -- ./inp_files/3451.got.cif
#   From: 2010.05.17/outbox.cif.g08.bks.cpg/sg57_2_cif.got.tgz:3451.got - 2010.06.03 13:58:18.
