data_PCOD9439593
_publ_section_title
;
Structure prediction by ZEFSAII (Michael W. Deem and Ramdas Pophale) SiO2 
 PCOD9439593
Probable space group: P B C M
;
_chemical_formula_sum "Si O2"
_cell_formula_units_Z 40
_cell_length_a 5.586694
_cell_length_b 22.967742
_cell_length_c 15.115530
_cell_angle_alpha 90.000000
_cell_angle_beta 90.000000
_cell_angle_gamma 90.000000
_cell_volume 1939.530283
_symmetry_space_group_name_H-M "P B C M"
_symmetry_group_IT_number 57
_symmetry_cell_setting 'orthorhombic'
loop_
_space_group_symop_operation_xyz
x,y,z
-x,-y,1/2+z
x,1/2-y,-z
-x,1/2+y,1/2-z
-x,-y,-z
x,y,1/2-z
-x,1/2+y,z
x,1/2-y,1/2+z
loop_
_atom_site_type_symbol
_atom_site_label
_atom_site_fract_x
_atom_site_fract_y
_atom_site_fract_z
Si Si1 0.095586 0.798652 0.849134
Si Si2 0.398878 0.236651 0.604725
Si Si3 0.308946 0.480155 0.071451
Si Si4 0.917840 0.093931 0.480114
Si Si5 0.585992 0.387407 0.347622
O O1 0.095752 0.823314 0.750000
O O2 0.351532 0.766360 0.862323
O O3 0.855482 0.759694 0.858736
O O4 0.072339 0.848370 0.922824
O O5 0.393089 0.250000 0.500000
O O6 0.428053 0.169441 0.631734
O O7 0.433225 0.446961 0.151034
O O8 0.158625 0.430536 0.021982
O O9 0.500000 0.500000 0.000000
O O10 0.164274 0.539896 0.082763
O O11 0.757102 0.106026 0.567176
O O12 0.698755 0.380292 0.250000
#
# Coordination Sequence:
#
# PCOD9439593 Si02
#       5
#     8   8   8   8   8
#     4  12  26  44  69 104 140 182 233 282 343 416
#     4  12  25  46  69 101 142 185 227 285 349 412
#     4   9  21  42  66  93 127 173 229 275 343 405
#     4  10  22  43  67  95 133 178 224 285 345 408
#     4  11  23  40  66  99 135 177 229 285 343 412
#
# _framework density 20.623549000000001
#
# number of rings (size 3 to 8) (size 9 to 14) (size 15 to 20)
#    0.000    1.200    2.000    3.600    5.600    1.600 
#    0.000    8.000    0.000    0.000    0.000    0.000 
#    0.000    0.000    0.000    0.000    0.000    0.000 
#
# Total GULP energy -223059.181370 kJ/mol
# GULP energy per Si atom -5576.479534 kJ/mol
# Density = 2.057661 g / cm^3
# Si number density = 20.623549 Si / 1000 Ang^3
#
#
#
# Elastic Constant Matrix: (Units=GPa)
#
#
# Indices 1 2 3 4 5 6 
#
# 1 104.0572 35.3947 35.6477 0.0000 0.0000 0.0000
# 2 35.3947 97.8475 56.3439 0.0000 0.0000 0.0000
# 3 35.6477 56.3439 133.8982 0.0000 0.0000 0.0000
# 4 0.0000 0.0000 0.0000 13.8332 0.0000 0.0000
# 5 0.0000 0.0000 0.0000 0.0000 1.6536 0.0000
# 6 0.0000 0.0000 0.0000 0.0000 0.0000 42.9194
#
#
#
# Elastic Compliance Matrix: (Units=1/GPa)
#
#
# Indices 1 2 3 4 5 6 
#
# 1 0.011241 -0.003092 -0.001692 0.000000 0.000000 0.000000
# 2 -0.003092 0.014339 -0.005211 0.000000 0.000000 0.000000
# 3 -0.001692 -0.005211 0.010111 0.000000 0.000000 0.000000
# 4 0.000000 0.000000 0.000000 0.072290 0.000000 0.000000
# 5 0.000000 0.000000 0.000000 0.000000 0.604742 0.000000
# 6 0.000000 0.000000 0.000000 0.000000 0.000000 0.023299
#
#
# Mechanical properties :
#
#
# Convention : Reuss Voigt Hill
#
# Bulk Modulus (GPa) = 63.68276 65.61953 64.65115
# Shear Modulus (GPa) = 6.56817 25.57568 16.07193
#
# Velocity S-wave (km/s) = 1.78654 3.52535 2.79462
# Velocity P-wave (km/s) = 5.93307 6.96115 6.46757
#
# Compressibility (1/GPa) = 0.01570284
#
# Stress axis : x y z
#
# Youngs Moduli (GPa) = 88.95657 69.73997 98.89951
#
# Poissons Ratio (x) = 0.21566 0.16729
# Poissons Ratio (y) = 0.27508 0.51532
# Poissons Ratio (z) = 0.15048 0.36338
#
# Static dielectric constant tensor:
#      x y z
#    x 1.802780 0.000000 0.000000 
#    y 0.000000 1.675720 0.000000 
#    z 0.000000 0.000000 1.832520 
# 
# From -- ./inp_files/14937.got.cif
#   From: 2010.05.17/outbox.cif.g08.bks.cpg/sg57_8_cif.got.tgz:14937.got - 2010.06.03 13:58:18.
