data_PCOD9439596
_publ_section_title
;
Structure prediction by ZEFSAII (Michael W. Deem and Ramdas Pophale) SiO2 
 PCOD9439596
Probable space group: P B C M
;
_chemical_formula_sum "Si O2"
_cell_formula_units_Z 48
_cell_length_a 12.013835
_cell_length_b 12.174628
_cell_length_c 16.547493
_cell_angle_alpha 90.000000
_cell_angle_beta 90.000000
_cell_angle_gamma 90.000000
_cell_volume 2420.302052
_symmetry_space_group_name_H-M "P B C M"
_symmetry_group_IT_number 57
_symmetry_cell_setting 'orthorhombic'
loop_
_space_group_symop_operation_xyz
x,y,z
-x,-y,1/2+z
x,1/2-y,-z
-x,1/2+y,1/2-z
-x,-y,-z
x,y,1/2-z
-x,1/2+y,z
x,1/2-y,1/2+z
loop_
_atom_site_type_symbol
_atom_site_label
_atom_site_fract_x
_atom_site_fract_y
_atom_site_fract_z
Si Si1 0.332851 0.721464 0.907147
Si Si2 0.822368 0.024365 0.652194
Si Si3 0.222070 0.218657 0.407029
Si Si4 0.281652 0.959340 0.845840
Si Si5 0.430736 0.347115 0.154929
Si Si6 0.929150 0.596076 0.652415
O O1 0.261280 0.619111 0.876068
O O2 0.299450 0.832486 0.861236
O O3 0.461769 0.693538 0.892026
O O4 0.312527 0.750000 0.000000
O O5 0.817044 0.011900 0.750000
O O6 0.947392 0.061026 0.629060
O O7 0.793447 0.909116 0.610433
O O8 0.242783 0.250000 0.500000
O O9 0.326643 0.265309 0.356577
O O10 0.113118 0.286755 0.379410
O O11 0.280453 0.977926 0.750000
O O12 0.382912 0.035868 0.876090
O O13 0.164684 0.008868 0.876291
O O14 0.459645 0.354510 0.250000
O O15 0.927364 0.600245 0.750000
#
# Coordination Sequence:
#
# PCOD9439596 Si02
#       6
#     8   8   8   8   8   8
#     4  12  27  40  63  97 134 167 210 274 329 381
#     4  11  25  43  67  96 130 175 226 267 313 389
#     4  11  24  41  67  98 133 167 210 272 331 385
#     4   9  20  41  65  88 122 168 217 264 321 386
#     4  10  22  43  68  90 122 171 218 262 321 393
#     4   9  21  42  67  91 124 174 222 265 316 381
#
# _framework density 19.832235000000001
#
# number of rings (size 3 to 8) (size 9 to 14) (size 15 to 20)
#    0.000    1.667    0.000    4.500    9.333    2.000 
#    0.000    0.000    0.000    0.000    0.000    0.000 
#    0.000    0.000    0.000    0.000    0.000    0.000 
#
# Total GULP energy -268201.491282 kJ/mol
# GULP energy per Si atom -5587.531068 kJ/mol
# Density = 1.978710 g / cm^3
# Si number density = 19.832235 Si / 1000 Ang^3
#
#
#
# Elastic Constant Matrix: (Units=GPa)
#
#
# Indices 1 2 3 4 5 6 
#
# 1 70.6852 46.4593 13.5871 0.0000 0.0000 0.0000
# 2 46.4593 161.9062 12.1163 0.0000 0.0000 0.0000
# 3 13.5871 12.1163 37.6558 0.0000 0.0000 0.0000
# 4 0.0000 0.0000 0.0000 25.1865 0.0000 0.0000
# 5 0.0000 0.0000 0.0000 0.0000 12.9283 0.0000
# 6 0.0000 0.0000 0.0000 0.0000 0.0000 12.2767
#
#
#
# Elastic Compliance Matrix: (Units=1/GPa)
#
#
# Indices 1 2 3 4 5 6 
#
# 1 0.018324 -0.004881 -0.005041 0.000000 0.000000 0.000000
# 2 -0.004881 0.007629 -0.000694 0.000000 0.000000 0.000000
# 3 -0.005041 -0.000694 0.028599 0.000000 0.000000 0.000000
# 4 0.000000 0.000000 0.000000 0.039704 0.000000 0.000000
# 5 0.000000 0.000000 0.000000 0.000000 0.077350 0.000000
# 6 0.000000 0.000000 0.000000 0.000000 0.000000 0.081455
#
#
# Mechanical properties :
#
#
# Convention : Reuss Voigt Hill
#
# Bulk Modulus (GPa) = 30.01192 46.06363 38.03777
# Shear Modulus (GPa) = 17.51935 23.28395 20.40165
#
# Velocity S-wave (km/s) = 2.97539 3.43015 3.21083
# Velocity P-wave (km/s) = 5.19323 6.24219 5.74172
#
# Compressibility (1/GPa) = 0.03332009
#
# Stress axis : x y z
#
# Youngs Moduli (GPa) = 54.57212 131.08034 34.96687
#
# Poissons Ratio (x) = 0.63980 0.17628
# Poissons Ratio (y) = 0.26636 0.02425
# Poissons Ratio (z) = 0.27512 0.09091
#
# Static dielectric constant tensor:
#      x y z
#    x 1.679970 0.000000 0.000000 
#    y 0.000000 1.702340 0.000000 
#    z 0.000000 0.000000 1.698730 
# 
# From -- ./inp_files/21821.got.cif
#   From: 2010.05.17/outbox.cif.g08.bks.cpg/sg57_11_cif.got.tgz:21821.got - 2010.06.03 13:58:18.
