data_PCOD9439689
_publ_section_title
;
Structure prediction by ZEFSAII (Michael W. Deem and Ramdas Pophale) SiO2 
 PCOD9439689
Probable space group: P B C M
;
_chemical_formula_sum "Si O2"
_cell_formula_units_Z 56
_cell_length_a 16.234315
_cell_length_b 11.892206
_cell_length_c 14.667089
_cell_angle_alpha 90.000000
_cell_angle_beta 90.000000
_cell_angle_gamma 90.000000
_cell_volume 2831.654871
_symmetry_space_group_name_H-M "P B C M"
_symmetry_group_IT_number 57
_symmetry_cell_setting 'orthorhombic'
loop_
_space_group_symop_operation_xyz
x,y,z
-x,-y,1/2+z
x,1/2-y,-z
-x,1/2+y,1/2-z
-x,-y,-z
x,y,1/2-z
-x,1/2+y,z
x,1/2-y,1/2+z
loop_
_atom_site_type_symbol
_atom_site_label
_atom_site_fract_x
_atom_site_fract_y
_atom_site_fract_z
Si Si1 0.831730 0.744701 0.390925
Si Si2 0.918753 0.990188 0.855126
Si Si3 0.617308 0.024438 0.527787
Si Si4 0.106770 0.491322 0.146502
Si Si5 0.463591 0.420611 0.357881
Si Si6 0.200513 0.617233 0.991120
Si Si7 0.357587 0.305811 0.852452
O O1 0.831995 0.750000 0.500000
O O2 0.882870 0.635624 0.361672
O O3 0.737385 0.731629 0.360217
O O4 0.870449 0.860006 0.355971
O O5 0.918673 0.026534 0.750000
O O6 0.013214 0.993215 0.887240
O O7 0.859614 0.068987 0.913589
O O8 0.583938 0.008445 0.424504
O O9 0.625344 0.900442 0.572620
O O10 0.551964 0.087853 0.592397
O O11 0.706117 0.081017 0.528454
O O12 0.110918 0.532951 0.250000
O O13 0.169781 0.556617 0.082763
O O14 0.468270 0.451000 0.250000
O O15 0.415105 0.302755 0.363429
O O16 0.193375 0.750000 0.000000
O O17 0.370729 0.352063 0.750000
#
# Coordination Sequence:
#
# PCOD9439689 Si02
#       7
#     8   8   8   8   8   8   8
#     4  12  22  39  70 100 131 171 222 280 336 398
#     4  11  25  43  66  96 133 176 224 278 336 398
#     4  11  23  42  64  93 131 173 221 271 339 402
#     4  11  25  43  66  98 133 174 225 281 337 396
#     4  10  23  40  65  96 128 166 219 281 337 396
#     4  12  27  44  66  94 135 181 223 271 335 406
#     4  11  21  38  66  97 130 168 218 275 334 402
#
# _framework density 19.776420999999999
#
# number of rings (size 3 to 8) (size 9 to 14) (size 15 to 20)
#    0.000    0.857    2.857    4.286    2.000    5.143 
#    0.000    0.000    0.000    0.000    0.000    0.000 
#    0.000    0.000    0.000    0.000    0.000    0.000 
#
# Total GULP energy -313233.276374 kJ/mol
# GULP energy per Si atom -5593.451364 kJ/mol
# Density = 1.973141 g / cm^3
# Si number density = 19.776421 Si / 1000 Ang^3
#
#
#
# Elastic Constant Matrix: (Units=GPa)
#
#
# Indices 1 2 3 4 5 6 
#
# 1 136.1147 46.2039 16.5363 0.0000 0.0000 0.0000
# 2 46.2039 99.0973 20.4297 0.0000 0.0000 0.0000
# 3 16.5363 20.4297 113.9789 0.0000 0.0000 0.0000
# 4 0.0000 0.0000 0.0000 -15.8718 0.0000 0.0000
# 5 0.0000 0.0000 0.0000 0.0000 33.8066 0.0000
# 6 0.0000 0.0000 0.0000 0.0000 0.0000 30.9918
#
#
#
# Elastic Compliance Matrix: (Units=1/GPa)
#
#
# Indices 1 2 3 4 5 6 
#
# 1 0.008762 -0.003970 -0.000560 0.000000 0.000000 0.000000
# 2 -0.003970 0.012277 -0.001625 0.000000 0.000000 0.000000
# 3 -0.000560 -0.001625 0.009146 0.000000 0.000000 0.000000
# 4 0.000000 0.000000 0.000000 -0.063005 0.000000 0.000000
# 5 0.000000 0.000000 0.000000 0.000000 0.029580 0.000000
# 6 0.000000 0.000000 0.000000 0.000000 0.000000 0.032267
#
#
# Mechanical properties :
#
#
# Convention : Reuss Voigt Hill
#
# Bulk Modulus (GPa) = 55.93851 57.28119 56.60985
# Shear Modulus (GPa) = 105.72014 27.52005 66.62010
#
# Velocity S-wave (km/s) = 7.31941 3.73441 5.81032
# Velocity P-wave (km/s) = 9.98892 6.90084 8.58487
#
# Compressibility (1/GPa) = 0.01787677
#
# Stress axis : x y z
#
# Youngs Moduli (GPa) = 114.12440 81.45290 109.33814
#
# Poissons Ratio (x) = 0.32337 0.06119
# Poissons Ratio (y) = 0.45308 0.17763
# Poissons Ratio (z) = 0.06387 0.13233
#
# Static dielectric constant tensor:
#      x y z
#    x 1.675420 0.000000 0.000000 
#    y 0.000000 1.662160 0.000000 
#    z 0.000000 0.000000 1.724280 
# 
# From -- ./inp_files/18470.got.cif
#   From: 2010.05.17/outbox.cif.g08.bks.cpg/sg57_10_cif.got.tgz:18470.got - 2010.06.03 13:58:18.
