data_PCOD9439319
_publ_section_title
;
Structure prediction by ZEFSAII (Michael W. Deem and Ramdas Pophale) SiO2 
 PCOD9439319
Probable space group: P B C M
;
_chemical_formula_sum "Si O2"
_cell_formula_units_Z 36
_cell_length_a 5.048849
_cell_length_b 16.288732
_cell_length_c 22.057621
_cell_angle_alpha 90.000000
_cell_angle_beta 90.000000
_cell_angle_gamma 90.000000
_cell_volume 1814.004375
_symmetry_space_group_name_H-M "P B C M"
_symmetry_group_IT_number 57
_symmetry_cell_setting 'orthorhombic'
loop_
_space_group_symop_operation_xyz
x,y,z
-x,-y,1/2+z
x,1/2-y,-z
-x,1/2+y,1/2-z
-x,-y,-z
x,y,1/2-z
-x,1/2+y,z
x,1/2-y,1/2+z
loop_
_atom_site_type_symbol
_atom_site_label
_atom_site_fract_x
_atom_site_fract_y
_atom_site_fract_z
Si Si1 0.944317 0.739776 0.321506
Si Si2 0.060351 0.380362 0.410195
Si Si3 0.171623 0.750000 0.500000
Si Si4 0.568692 0.164595 0.384864
Si Si5 0.441649 0.985359 0.070712
O O1 0.906360 0.741970 0.250000
O O2 0.684186 0.708903 0.356360
O O3 0.005309 0.828959 0.349987
O O4 0.184191 0.680544 0.340702
O O5 0.005118 0.317910 0.465803
O O6 0.856710 0.455071 0.419248
O O7 0.356987 0.413908 0.409199
O O8 0.347263 0.794444 0.551122
O O9 0.504171 0.069675 0.395306
O O10 0.500000 0.000000 0.000000
#
# Coordination Sequence:
#
# PCOD9439319 Si02
#       5
#     8   8   4   8   8
#     4  11  25  46  66  89 124 175 224 260 296 370
#     4  11  24  39  65  93 131 165 211 253 321 373
#     4  10  22  38  64 100 124 170 204 264 318 382
#     4  11  24  40  68  93 131 162 214 258 323 374
#     4  12  24  39  61 100 136 161 194 262 332 389
#
# _framework density 19.845599
#
# number of rings (size 3 to 8) (size 9 to 14) (size 15 to 20)
#    0.000    0.889    2.222    5.333    6.222    1.778 
#    0.000    6.667    0.000    0.000    0.000    0.000 
#    0.000    0.000    0.000    0.000    0.000    0.000 
#
# Total GULP energy -201525.808484 kJ/mol
# GULP energy per Si atom -5597.939125 kJ/mol
# Density = 1.980043 g / cm^3
# Si number density = 19.845599 Si / 1000 Ang^3
#
#
#
# Elastic Constant Matrix: (Units=GPa)
#
#
# Indices 1 2 3 4 5 6 
#
# 1 61.6653 -13.4125 3.8188 0.0000 0.0000 0.0000
# 2 -13.4125 70.8132 31.2978 0.0000 0.0000 0.0000
# 3 3.8188 31.2978 92.1902 0.0000 0.0000 0.0000
# 4 0.0000 0.0000 0.0000 16.6359 0.0000 0.0000
# 5 0.0000 0.0000 0.0000 0.0000 -65.5833 0.0000
# 6 0.0000 0.0000 0.0000 0.0000 0.0000 34.3025
#
#
#
# Elastic Compliance Matrix: (Units=1/GPa)
#
#
# Indices 1 2 3 4 5 6 
#
# 1 0.017267 0.004220 -0.002148 0.000000 0.000000 0.000000
# 2 0.004220 0.017646 -0.006165 0.000000 0.000000 0.000000
# 3 -0.002148 -0.006165 0.013029 0.000000 0.000000 0.000000
# 4 0.000000 0.000000 0.000000 0.060111 0.000000 0.000000
# 5 0.000000 0.000000 0.000000 0.000000 -0.015248 0.000000
# 6 0.000000 0.000000 0.000000 0.000000 0.000000 0.029152
#
#
# Mechanical properties :
#
#
# Convention : Reuss Voigt Hill
#
# Bulk Modulus (GPa) = 25.15363 29.78633 27.46998
# Shear Modulus (GPa) = 34.86824 10.60199 22.73511
#
# Velocity S-wave (km/s) = 4.19618 2.31384 3.38834
# Velocity P-wave (km/s) = 6.01493 4.70957 5.40183
#
# Compressibility (1/GPa) = 0.03975569
#
# Stress axis : x y z
#
# Youngs Moduli (GPa) = 57.91247 56.67034 76.75049
#
# Poissons Ratio (x) = -0.23914 0.16485
# Poissons Ratio (y) = -0.24438 0.47320
# Poissons Ratio (z) = 0.12439 0.34940
#
# Static dielectric constant tensor:
#      x y z
#    x 1.702480 0.000000 0.000000 
#    y 0.000000 1.712570 0.000000 
#    z 0.000000 0.000000 1.744200 
# 
# From -- ./inp_files/23463.got.cif
#   From: 2010.05.17/outbox.cif.g08.bks.cpg/sg57_12_cif.got.tgz:23463.got - 2010.06.03 13:58:18.
