data_PCOD9439978
_publ_section_title
;
Structure prediction by ZEFSAII (Michael W. Deem and Ramdas Pophale) SiO2 
 PCOD9439978
Probable space group: P B C M
;
_chemical_formula_sum "Si O2"
_cell_formula_units_Z 48
_cell_length_a 9.953110
_cell_length_b 31.309159
_cell_length_c 8.787646
_cell_angle_alpha 90.000000
_cell_angle_beta 90.000000
_cell_angle_gamma 90.000000
_cell_volume 2738.437034
_symmetry_space_group_name_H-M "P B C M"
_symmetry_group_IT_number 57
_symmetry_cell_setting 'orthorhombic'
loop_
_space_group_symop_operation_xyz
x,y,z
-x,-y,1/2+z
x,1/2-y,-z
-x,1/2+y,1/2-z
-x,-y,-z
x,y,1/2-z
-x,1/2+y,z
x,1/2-y,1/2+z
loop_
_atom_site_type_symbol
_atom_site_label
_atom_site_fract_x
_atom_site_fract_y
_atom_site_fract_z
Si Si1 0.002778 0.133062 0.934109
Si Si2 0.805402 0.202998 0.431025
Si Si3 0.215931 0.564630 0.930623
Si Si4 0.356781 0.486326 0.068202
Si Si5 0.584816 0.356535 0.432287
Si Si6 0.699822 0.889495 0.435333
O O1 0.996083 0.137300 0.750000
O O2 0.156778 0.128919 0.983057
O O3 0.919701 0.089926 0.972086
O O4 0.923651 0.172456 0.006582
O O5 0.816010 0.250000 0.500000
O O6 0.810274 0.204786 0.250000
O O7 0.667798 0.180273 0.485312
O O8 0.214072 0.555898 0.750000
O O9 0.335466 0.598944 0.958661
O O10 0.248433 0.521492 0.018125
O O11 0.368576 0.485690 0.250000
O O12 0.318171 0.438684 0.016443
O O13 0.500000 0.500000 0.000000
O O14 0.589634 0.349012 0.250000
O O15 0.431516 0.362970 0.482148
O O16 0.699567 0.889653 0.250000
#
# Coordination Sequence:
#
# PCOD9439978 Si02
#       6
#     8   8   8   8   8   8
#     4   9  19  37  58  78 107 145 181 220 271 323
#     4  11  22  38  60  85 108 134 173 215 264 324
#     4   9  17  31  50  75 106 143 183 222 265 311
#     4  11  20  31  49  75 106 145 190 230 267 311
#     4   9  17  34  57  79 107 140 177 218 264 314
#     4   9  18  34  55  78 107 146 184 220 269 320
#
# _framework density 17.528245999999999
#
# number of rings (size 3 to 8) (size 9 to 14) (size 15 to 20)
#    0.000    2.333    1.667    3.000    0.000    3.333 
#    0.000    3.333    0.000    0.000    0.000    0.000 
#    0.000    0.000    0.000    0.000    0.000    0.000 
#
# Total GULP energy -267833.201439 kJ/mol
# GULP energy per Si atom -5579.858363 kJ/mol
# Density = 1.748835 g / cm^3
# Si number density = 17.528246 Si / 1000 Ang^3
#
#
#
# Elastic Constant Matrix: (Units=GPa)
#
#
# Indices 1 2 3 4 5 6 
#
# 1 164.9115 71.2689 40.2726 0.0000 0.0000 0.0000
# 2 71.2689 124.0207 45.1560 0.0000 0.0000 0.0000
# 3 40.2726 45.1560 46.1622 0.0000 0.0000 0.0000
# 4 0.0000 0.0000 0.0000 30.3193 0.0000 0.0000
# 5 0.0000 0.0000 0.0000 0.0000 19.4427 0.0000
# 6 0.0000 0.0000 0.0000 0.0000 0.0000 13.8317
#
#
#
# Elastic Compliance Matrix: (Units=1/GPa)
#
#
# Indices 1 2 3 4 5 6 
#
# 1 0.008543 -0.003410 -0.004117 0.000000 0.000000 0.000000
# 2 -0.003410 0.013885 -0.010607 0.000000 0.000000 0.000000
# 3 -0.004117 -0.010607 0.035631 0.000000 0.000000 0.000000
# 4 0.000000 0.000000 0.000000 0.032982 0.000000 0.000000
# 5 0.000000 0.000000 0.000000 0.000000 0.051433 0.000000
# 6 0.000000 0.000000 0.000000 0.000000 0.000000 0.072298
#
#
# Mechanical properties :
#
#
# Convention : Reuss Voigt Hill
#
# Bulk Modulus (GPa) = 45.89376 72.05437 58.97407
# Shear Modulus (GPa) = 19.35704 24.61189 21.98447
#
# Velocity S-wave (km/s) = 3.32676 3.75123 3.54535
# Velocity P-wave (km/s) = 6.40281 7.74333 7.10476
#
# Compressibility (1/GPa) = 0.02178945
#
# Stress axis : x y z
#
# Youngs Moduli (GPa) = 117.05350 72.02054 28.06573
#
# Poissons Ratio (x) = 0.24561 0.11555
# Poissons Ratio (y) = 0.39918 0.29770
# Poissons Ratio (z) = 0.48194 0.76393
#
# Static dielectric constant tensor:
#      x y z
#    x 1.606780 0.000000 0.000000 
#    y 0.000000 1.569130 0.000000 
#    z 0.000000 0.000000 1.586180 
# 
# From -- ./inp_files/2112.got.cif
#   From: 2010.05.17/outbox.cif.g08.bks.cpg/sg57_2_cif.got.tgz:2112.got - 2010.06.03 13:58:18.
