data_PCOD9439686
_publ_section_title
;
Structure prediction by ZEFSAII (Michael W. Deem and Ramdas Pophale) SiO2 
 PCOD9439686
Probable space group: P B C M
;
_chemical_formula_sum "Si O2"
_cell_formula_units_Z 48
_cell_length_a 9.009699
_cell_length_b 8.261828
_cell_length_c 28.864302
_cell_angle_alpha 90.000000
_cell_angle_beta 90.000000
_cell_angle_gamma 90.000000
_cell_volume 2148.560025
_symmetry_space_group_name_H-M "P B C M"
_symmetry_group_IT_number 57
_symmetry_cell_setting 'orthorhombic'
loop_
_space_group_symop_operation_xyz
x,y,z
-x,-y,1/2+z
x,1/2-y,-z
-x,1/2+y,1/2-z
-x,-y,-z
x,y,1/2-z
-x,1/2+y,z
x,1/2-y,1/2+z
loop_
_atom_site_type_symbol
_atom_site_label
_atom_site_fract_x
_atom_site_fract_y
_atom_site_fract_z
Si Si1 0.405005 0.086532 0.935278
Si Si2 0.730912 0.069848 0.978720
Si Si3 0.783204 0.117140 0.370226
Si Si4 0.917011 0.036065 0.607723
Si Si5 0.666009 0.666823 0.355177
Si Si6 0.423069 0.481360 0.303621
O O1 0.577606 0.082002 0.949135
O O2 0.373250 0.242393 0.903525
O O3 0.347683 0.934115 0.905114
O O4 0.309355 0.060909 0.981870
O O5 0.866023 0.017463 0.945742
O O6 0.757528 0.250000 0.000000
O O7 0.853789 0.289074 0.379410
O O8 0.707853 0.101761 0.320192
O O9 0.911367 0.987303 0.381520
O O10 0.828146 0.904387 0.637658
O O11 0.563255 0.521498 0.336296
O O12 0.639201 0.805732 0.317196
O O13 0.458748 0.495016 0.250000
#
# Coordination Sequence:
#
# PCOD9439686 Si02
#       6
#     8   8   8   8   8   8
#     4  10  23  40  64  96 133 175 225 272 335 381
#     4  11  23  40  64  98 130 177 232 284 312 392
#     4  11  23  45  64  93 132 180 215 277 344 404
#     4  12  25  44  65  91 136 178 226 267 341 397
#     4  11  24  41  69  96 131 175 208 273 336 398
#     4  11  23  44  72 104 130 164 220 276 336 412
#
# _framework density 22.340544000000001
#
# number of rings (size 3 to 8) (size 9 to 14) (size 15 to 20)
#    0.000    1.000    1.667    6.500    7.000    0.667 
#    0.000    5.000    0.000    0.000    0.000    0.000 
#    0.000    0.000    0.000    0.000    0.000    0.000 
#
# Total GULP energy -268414.411720 kJ/mol
# GULP energy per Si atom -5591.966911 kJ/mol
# Density = 2.228970 g / cm^3
# Si number density = 22.340544 Si / 1000 Ang^3
#
#
#
# Elastic Constant Matrix: (Units=GPa)
#
#
# Indices 1 2 3 4 5 6 
#
# 1 75.0780 2.2777 25.8829 0.0000 0.0000 0.0000
# 2 2.2777 86.3529 9.9125 0.0000 0.0000 0.0000
# 3 25.8829 9.9125 86.2668 0.0000 0.0000 0.0000
# 4 0.0000 0.0000 0.0000 29.0140 0.0000 0.0000
# 5 0.0000 0.0000 0.0000 0.0000 21.7433 0.0000
# 6 0.0000 0.0000 0.0000 0.0000 0.0000 34.8824
#
#
#
# Elastic Compliance Matrix: (Units=1/GPa)
#
#
# Indices 1 2 3 4 5 6 
#
# 1 0.014857 0.000121 -0.004472 0.000000 0.000000 0.000000
# 2 0.000121 0.011736 -0.001385 0.000000 0.000000 0.000000
# 3 -0.004472 -0.001385 0.013093 0.000000 0.000000 0.000000
# 4 0.000000 0.000000 0.000000 0.034466 0.000000 0.000000
# 5 0.000000 0.000000 0.000000 0.000000 0.045991 0.000000
# 6 0.000000 0.000000 0.000000 0.000000 0.000000 0.028668
#
#
# Mechanical properties :
#
#
# Convention : Reuss Voigt Hill
#
# Bulk Modulus (GPa) = 35.44108 35.98266 35.71187
# Shear Modulus (GPa) = 29.46599 31.10289 30.28444
#
# Velocity S-wave (km/s) = 3.63567 3.73529 3.68582
# Velocity P-wave (km/s) = 5.78987 5.89446 5.84240
#
# Compressibility (1/GPa) = 0.02821584
#
# Stress axis : x y z
#
# Youngs Moduli (GPa) = 67.30660 85.20665 76.37819
#
# Poissons Ratio (x) = -0.01035 0.34154
# Poissons Ratio (y) = -0.00817 0.10578
# Poissons Ratio (z) = 0.30097 0.11801
#
# Static dielectric constant tensor:
#      x y z
#    x 1.790060 0.000000 0.000000 
#    y 0.000000 1.898120 0.000000 
#    z 0.000000 0.000000 1.852960 
# 
# From -- ./inp_files/29487.got.cif
#   From: 2010.05.17/outbox.cif.g08.bks.cpg/sg57_15_cif.got.tgz:29487.got - 2010.06.03 13:58:18.
