data_PCOD9439587
_publ_section_title
;
Structure prediction by ZEFSAII (Michael W. Deem and Ramdas Pophale) SiO2 
 PCOD9439587
Probable space group: P B C M
;
_chemical_formula_sum "Si O2"
_cell_formula_units_Z 48
_cell_length_a 11.213416
_cell_length_b 11.025679
_cell_length_c 18.332546
_cell_angle_alpha 90.000000
_cell_angle_beta 90.000000
_cell_angle_gamma 90.000000
_cell_volume 2266.553955
_symmetry_space_group_name_H-M "P B C M"
_symmetry_group_IT_number 57
_symmetry_cell_setting 'orthorhombic'
loop_
_space_group_symop_operation_xyz
x,y,z
-x,-y,1/2+z
x,1/2-y,-z
-x,1/2+y,1/2-z
-x,-y,-z
x,y,1/2-z
-x,1/2+y,z
x,1/2-y,1/2+z
loop_
_atom_site_type_symbol
_atom_site_label
_atom_site_fract_x
_atom_site_fract_y
_atom_site_fract_z
Si Si1 0.430280 0.940906 0.104397
Si Si2 0.284337 0.762280 0.831310
Si Si3 0.747374 0.859371 0.664313
Si Si4 0.324090 0.962781 0.550806
Si Si5 0.138439 0.338233 0.063725
Si Si6 0.933398 0.073293 0.832038
O O1 0.395580 0.828231 0.155009
O O2 0.567921 0.968514 0.091685
O O3 0.363169 0.061018 0.134379
O O4 0.376170 0.911947 0.024559
O O5 0.291038 0.815383 0.750000
O O6 0.168586 0.676218 0.835245
O O7 0.279343 0.861110 0.894087
O O8 0.729643 0.833553 0.750000
O O9 0.778491 0.741943 0.617347
O O10 0.863109 0.947550 0.658005
O O11 0.220605 0.056461 0.531202
O O12 0.032642 0.398027 0.109162
O O13 0.094114 0.250000 0.000000
O O14 0.985177 0.074744 0.750000
#
# Coordination Sequence:
#
# PCOD9439587 Si02
#       6
#     8   8   8   8   8   8
#     4  10  22  44  66  90 128 171 208 266 330 379
#     4  10  23  43  66  94 126 168 219 263 321 383
#     4  10  22  43  66  89 126 172 215 264 325 376
#     4  11  25  40  67  94 130 166 213 267 320 386
#     4  12  25  40  63  99 131 163 215 262 314 382
#     4   9  22  43  64  88 127 173 210 261 321 373
#
# _framework density 21.177523000000001
#
# number of rings (size 3 to 8) (size 9 to 14) (size 15 to 20)
#    0.000    1.667    1.667    2.500    4.667    6.000 
#    0.000    0.000    0.000    0.000    0.000    0.000 
#    0.000    0.000    0.000    0.000    0.000    0.000 
#
# Total GULP energy -268514.618210 kJ/mol
# GULP energy per Si atom -5594.054546 kJ/mol
# Density = 2.112932 g / cm^3
# Si number density = 21.177523 Si / 1000 Ang^3
#
#
#
# Elastic Constant Matrix: (Units=GPa)
#
#
# Indices 1 2 3 4 5 6 
#
# 1 42.3308 -9.6490 4.6460 0.0000 0.0000 0.0000
# 2 -9.6490 37.7281 -0.2511 0.0000 0.0000 0.0000
# 3 4.6460 -0.2511 53.9239 0.0000 0.0000 0.0000
# 4 0.0000 0.0000 0.0000 32.7998 0.0000 0.0000
# 5 0.0000 0.0000 0.0000 0.0000 22.1935 0.0000
# 6 0.0000 0.0000 0.0000 0.0000 0.0000 1.6821
#
#
#
# Elastic Compliance Matrix: (Units=1/GPa)
#
#
# Indices 1 2 3 4 5 6 
#
# 1 0.025333 0.006465 -0.002153 0.000000 0.000000 0.000000
# 2 0.006465 0.028156 -0.000426 0.000000 0.000000 0.000000
# 3 -0.002153 -0.000426 0.018728 0.000000 0.000000 0.000000
# 4 0.000000 0.000000 0.000000 0.030488 0.000000 0.000000
# 5 0.000000 0.000000 0.000000 0.000000 0.045058 0.000000
# 6 0.000000 0.000000 0.000000 0.000000 0.000000 0.594505
#
#
# Mechanical properties :
#
#
# Convention : Reuss Voigt Hill
#
# Bulk Modulus (GPa) = 12.50159 13.71940 13.11049
# Shear Modulus (GPa) = 6.56892 20.61753 13.59322
#
# Velocity S-wave (km/s) = 1.76311 3.12357 2.53626
# Velocity P-wave (km/s) = 3.17188 4.41603 3.84461
#
# Compressibility (1/GPa) = 0.07998983
#
# Stress axis : x y z
#
# Youngs Moduli (GPa) = 39.47377 35.51646 53.39560
#
# Poissons Ratio (x) = -0.22960 0.11494
# Poissons Ratio (y) = -0.25518 0.02274
# Poissons Ratio (z) = 0.08497 0.01513
#
# Static dielectric constant tensor:
#      x y z
#    x 1.736010 0.000000 0.000000 
#    y 0.000000 1.758140 0.000000 
#    z 0.000000 0.000000 1.749540 
# 
# From -- ./inp_files/21846.got.cif
#   From: 2010.05.17/outbox.cif.g08.bks.cpg/sg57_11_cif.got.tgz:21846.got - 2010.06.03 13:58:18.
