data_PCOD9439095
_publ_section_title
;
Structure prediction by ZEFSAII (Michael W. Deem and Ramdas Pophale) SiO2 
 PCOD9439095
Probable space group: P B C M
;
_chemical_formula_sum "Si O2"
_cell_formula_units_Z 40
_cell_length_a 24.272738
_cell_length_b 8.832778
_cell_length_c 9.918866
_cell_angle_alpha 90.000000
_cell_angle_beta 90.000000
_cell_angle_gamma 90.000000
_cell_volume 2126.562281
_symmetry_space_group_name_H-M "P B C M"
_symmetry_group_IT_number 57
_symmetry_cell_setting 'orthorhombic'
loop_
_space_group_symop_operation_xyz
x,y,z
-x,-y,1/2+z
x,1/2-y,-z
-x,1/2+y,1/2-z
-x,-y,-z
x,y,1/2-z
-x,1/2+y,z
x,1/2-y,1/2+z
loop_
_atom_site_type_symbol
_atom_site_label
_atom_site_fract_x
_atom_site_fract_y
_atom_site_fract_z
Si Si1 0.379524 0.070144 0.015141
Si Si2 0.851892 0.389827 0.095811
Si Si3 0.572269 0.068466 0.250000
Si Si4 0.957216 0.598798 0.087954
Si Si5 0.274218 0.603916 0.907645
Si Si6 0.451996 0.927182 0.250000
O O1 0.318205 0.025529 0.060947
O O2 0.422404 0.003318 0.122629
O O3 0.386004 0.250000 0.000000
O O4 0.393150 0.981905 0.878782
O O5 0.852427 0.334598 0.250000
O O6 0.898055 0.516712 0.083985
O O7 0.789312 0.442016 0.067120
O O8 0.865225 0.250000 0.000000
O O9 0.557914 0.246669 0.250000
O O10 0.515810 0.971964 0.250000
O O11 0.971584 0.616947 0.250000
O O12 0.953653 0.750000 0.000000
O O13 0.000000 0.500000 0.000000
O O14 0.279810 0.644991 0.750000
O O15 0.285785 0.750000 0.000000
#
# Coordination Sequence:
#
# PCOD9439095 Si02
#       6
#     8   8   4   8   8   4
#     4  12  25  41  63  92 125 160 202 253 308 366
#     4   9  20  38  61  89 121 160 203 252 303 365
#     4  12  26  42  68  90 124 158 205 246 309 370
#     4  11  23  39  61  89 125 166 211 262 318 376
#     4  10  21  40  64  90 122 161 206 252 306 368
#     4  12  24  46  64  92 120 162 199 254 303 374
#
# _framework density 18.809701
#
# number of rings (size 3 to 8) (size 9 to 14) (size 15 to 20)
#    0.000    1.200    1.000    5.400    1.400    4.000 
#    0.000    0.000    0.000    0.000    0.000    0.000 
#    0.000    0.000    0.000    0.000    0.000    0.000 
#
# Total GULP energy -223428.233903 kJ/mol
# GULP energy per Si atom -5585.705848 kJ/mol
# Density = 1.876689 g / cm^3
# Si number density = 18.809701 Si / 1000 Ang^3
#
#
#
# Elastic Constant Matrix: (Units=GPa)
#
#
# Indices 1 2 3 4 5 6 
#
# 1 77.4758 46.2841 47.4591 0.0000 0.0000 0.0000
# 2 46.2841 127.4479 56.8065 0.0000 0.0000 0.0000
# 3 47.4591 56.8065 142.4025 0.0000 0.0000 0.0000
# 4 0.0000 0.0000 0.0000 30.2932 0.0000 0.0000
# 5 0.0000 0.0000 0.0000 0.0000 -77.3783 0.0000
# 6 0.0000 0.0000 0.0000 0.0000 0.0000 28.3875
#
#
#
# Elastic Compliance Matrix: (Units=1/GPa)
#
#
# Indices 1 2 3 4 5 6 
#
# 1 0.018342 -0.004788 -0.004203 0.000000 0.000000 0.000000
# 2 -0.004788 0.010793 -0.002710 0.000000 0.000000 0.000000
# 3 -0.004203 -0.002710 0.009504 0.000000 0.000000 0.000000
# 4 0.000000 0.000000 0.000000 0.033011 0.000000 0.000000
# 5 0.000000 0.000000 0.000000 0.000000 -0.012924 0.000000
# 6 0.000000 0.000000 0.000000 0.000000 0.000000 0.035227
#
#
# Mechanical properties :
#
#
# Convention : Reuss Voigt Hill
#
# Bulk Modulus (GPa) = 65.62589 72.04730 68.83659
# Shear Modulus (GPa) = 40.83847 9.37891 25.10869
#
# Velocity S-wave (km/s) = 4.66460 2.23540 3.65756
# Velocity P-wave (km/s) = 7.99853 6.71186 7.38328
#
# Compressibility (1/GPa) = 0.01523789
#
# Stress axis : x y z
#
# Youngs Moduli (GPa) = 54.51933 92.65359 105.21767
#
# Poissons Ratio (x) = 0.44360 0.44224
# Poissons Ratio (y) = 0.26102 0.28512
# Poissons Ratio (z) = 0.22915 0.25107
#
# Static dielectric constant tensor:
#      x y z
#    x 1.655800 0.000000 0.000000 
#    y 0.000000 1.625840 0.000000 
#    z 0.000000 0.000000 1.543070 
# 
# From -- ./inp_files/8934.got.cif
#   From: 2010.05.17/outbox.cif.g08.bks.cpg/sg57_5_cif.got.tgz:8934.got - 2010.06.03 13:58:18.
