data_PCOD9439470
_publ_section_title
;
Structure prediction by ZEFSAII (Michael W. Deem and Ramdas Pophale) SiO2 
 PCOD9439470
Probable space group: P B C M
;
_chemical_formula_sum "Si O2"
_cell_formula_units_Z 56
_cell_length_a 5.134381
_cell_length_b 14.917783
_cell_length_c 31.855427
_cell_angle_alpha 90.000000
_cell_angle_beta 90.000000
_cell_angle_gamma 90.000000
_cell_volume 2439.921247
_symmetry_space_group_name_H-M "P B C M"
_symmetry_group_IT_number 57
_symmetry_cell_setting 'orthorhombic'
loop_
_space_group_symop_operation_xyz
x,y,z
-x,-y,1/2+z
x,1/2-y,-z
-x,1/2+y,1/2-z
-x,-y,-z
x,y,1/2-z
-x,1/2+y,z
x,1/2-y,1/2+z
loop_
_atom_site_type_symbol
_atom_site_label
_atom_site_fract_x
_atom_site_fract_y
_atom_site_fract_z
Si Si1 0.827962 0.237767 0.794431
Si Si2 0.340522 0.328848 0.612952
Si Si3 0.666375 0.857283 0.795882
Si Si4 0.982016 0.839233 0.122586
Si Si5 0.585717 0.956464 0.042760
Si Si6 0.658702 0.230348 0.547638
Si Si7 0.071314 0.485820 0.912969
O O1 0.888022 0.190975 0.750000
O O2 0.541638 0.277560 0.792002
O O3 0.854227 0.181792 0.836233
O O4 0.039875 0.318598 0.797853
O O5 0.404072 0.384717 0.655780
O O6 0.531387 0.312970 0.573548
O O7 0.085413 0.381732 0.597349
O O8 0.264071 0.226968 0.625375
O O9 0.355727 0.406670 0.750000
O O10 0.128312 0.810574 0.079604
O O11 0.952602 0.945874 0.121086
O O12 0.555676 0.849083 0.041853
O O13 0.371021 0.989096 0.076868
O O14 0.875474 0.991364 0.049987
O O15 0.500000 0.000000 0.000000
O O16 0.750764 0.250000 0.500000
#
# Coordination Sequence:
#
# PCOD9439470 Si02
#       7
#     8   8   8   8   8   8   8
#     4   9  17  32  60  86 116 156 198 244 305 369
#     4  11  22  39  63  87 125 164 209 251 323 374
#     4   9  18  33  58  90 117 154 201 249 303 369
#     4  10  22  41  58  89 128 155 212 254 317 370
#     4  11  24  44  59  86 123 156 211 265 310 363
#     4  11  23  38  61  89 118 166 209 259 312 380
#     4  11  25  39  63  89 121 164 201 259 312 372
#
# _framework density 22.951560000000001
#
# number of rings (size 3 to 8) (size 9 to 14) (size 15 to 20)
#    0.000    1.714    2.857    1.286    4.000    0.571 
#    0.000    0.714    0.000    0.000    0.000    8.000 
#    0.000    0.000    0.000    0.000    0.000    0.000 
#
# Total GULP energy -311800.138870 kJ/mol
# GULP energy per Si atom -5567.859623 kJ/mol
# Density = 2.289932 g / cm^3
# Si number density = 22.951560 Si / 1000 Ang^3
#
#
#
# Elastic Constant Matrix: (Units=GPa)
#
#
# Indices 1 2 3 4 5 6 
#
# 1 58.7606 7.7828 19.7936 0.0000 0.0000 0.0000
# 2 7.7828 49.8805 2.3890 0.0000 0.0000 0.0000
# 3 19.7936 2.3890 171.3064 0.0000 0.0000 0.0000
# 4 0.0000 0.0000 0.0000 6.0368 0.0000 0.0000
# 5 0.0000 0.0000 0.0000 0.0000 18.6926 0.0000
# 6 0.0000 0.0000 0.0000 0.0000 0.0000 26.6292
#
#
#
# Elastic Compliance Matrix: (Units=1/GPa)
#
#
# Indices 1 2 3 4 5 6 
#
# 1 0.018069 -0.002721 -0.002050 0.000000 0.000000 0.000000
# 2 -0.002721 0.020471 0.000029 0.000000 0.000000 0.000000
# 3 -0.002050 0.000029 0.006074 0.000000 0.000000 0.000000
# 4 0.000000 0.000000 0.000000 0.165652 0.000000 0.000000
# 5 0.000000 0.000000 0.000000 0.000000 0.053497 0.000000
# 6 0.000000 0.000000 0.000000 0.000000 0.000000 0.037553
#
#
# Mechanical properties :
#
#
# Convention : Reuss Voigt Hill
#
# Bulk Modulus (GPa) = 28.46563 37.76425 33.11494
# Shear Modulus (GPa) = 15.50340 26.93718 21.22029
#
# Velocity S-wave (km/s) = 2.60183 3.42958 3.04397
# Velocity P-wave (km/s) = 4.63200 5.67206 5.17821
#
# Compressibility (1/GPa) = 0.03513008
#
# Stress axis : x y z
#
# Youngs Moduli (GPa) = 55.34304 48.84932 164.63781
#
# Poissons Ratio (x) = 0.13293 0.33748
# Poissons Ratio (y) = 0.15060 -0.00476
# Poissons Ratio (z) = 0.11344 -0.00141
#
# Static dielectric constant tensor:
#      x y z
#    x 1.918870 0.000000 0.000000 
#    y 0.000000 1.898310 0.000000 
#    z 0.000000 0.000000 2.036070 
# 
# From -- ./inp_files/29171.got.cif
#   From: 2010.05.17/outbox.cif.g08.bks.cpg/sg57_15_cif.got.tgz:29171.got - 2010.06.03 13:58:18.
