data_PCOD9439284
_publ_section_title
;
Structure prediction by ZEFSAII (Michael W. Deem and Ramdas Pophale) SiO2 
 PCOD9439284
Probable space group: P B C M
;
_chemical_formula_sum "Si O2"
_cell_formula_units_Z 56
_cell_length_a 5.313479
_cell_length_b 20.642443
_cell_length_c 23.322187
_cell_angle_alpha 90.000000
_cell_angle_beta 90.000000
_cell_angle_gamma 90.000000
_cell_volume 2558.051807
_symmetry_space_group_name_H-M "P B C M"
_symmetry_group_IT_number 57
_symmetry_cell_setting 'orthorhombic'
loop_
_space_group_symop_operation_xyz
x,y,z
-x,-y,1/2+z
x,1/2-y,-z
-x,1/2+y,1/2-z
-x,-y,-z
x,y,1/2-z
-x,1/2+y,z
x,1/2-y,1/2+z
loop_
_atom_site_type_symbol
_atom_site_label
_atom_site_fract_x
_atom_site_fract_y
_atom_site_fract_z
Si Si1 0.003173 0.719406 0.562684
Si Si2 0.590336 0.544901 0.625899
Si Si3 0.730357 0.911336 0.633077
Si Si4 0.554387 0.963047 0.250000
Si Si5 0.505945 0.788803 0.916586
Si Si6 0.055187 0.451251 0.750000
Si Si7 0.102537 0.537454 0.446065
Si Si8 0.619948 0.375255 0.021885
O O1 0.989328 0.750000 0.500000
O O2 0.737449 0.738446 0.590233
O O3 0.239589 0.754165 0.593522
O O4 0.111553 0.648012 0.548336
O O5 0.408729 0.481205 0.628884
O O6 0.593649 0.572936 0.689686
O O7 0.847800 0.511314 0.605819
O O8 0.521895 0.594018 0.575446
O O9 0.550730 0.849852 0.625169
O O10 0.883460 0.911473 0.692417
O O11 0.922044 0.908265 0.579489
O O12 0.272586 0.992775 0.250000
O O13 0.773624 0.018945 0.250000
O O14 0.493066 0.818120 0.982226
O O15 0.345940 0.570050 0.473672
O O16 0.000000 0.500000 0.500000
#
# Coordination Sequence:
#
# PCOD9439284 Si02
#       8
#     8   8   8   4   8   4   8   8
#     4  10  22  38  55  82 116 161 199 237 299 363
#     4  11  22  38  56  92 121 160 201 247 310 361
#     4  11  21  37  58  85 124 156 204 251 303 367
#     4  10  22  40  60  82 124 164 204 238 291 376
#     4  11  22  37  59  83 117 159 199 247 298 359
#     4  10  22  38  58  84 116 164 202 246 301 350
#     4  12  21  32  57  89 129 158 194 243 313 370
#     4  11  22  38  59  90 125 158 200 253 307 375
#
# _framework density 21.891662
#
# number of rings (size 3 to 8) (size 9 to 14) (size 15 to 20)
#    0.000    1.143    4.286    4.286    0.000    1.143 
#    0.000    0.000    0.000    1.714    0.000    0.000 
#    0.000    4.571    0.000    0.000    0.000    0.286 
#
# Total GULP energy -312514.924570 kJ/mol
# GULP energy per Si atom -5580.623653 kJ/mol
# Density = 2.184184 g / cm^3
# Si number density = 21.891662 Si / 1000 Ang^3
#
#
#
# Elastic Constant Matrix: (Units=GPa)
#
#
# Indices 1 2 3 4 5 6 
#
# 1 89.3694 9.5418 5.1093 0.0000 0.0000 0.0000
# 2 9.5418 49.6593 7.2434 0.0000 0.0000 0.0000
# 3 5.1093 7.2434 102.4809 0.0000 0.0000 0.0000
# 4 0.0000 0.0000 0.0000 13.4222 0.0000 0.0000
# 5 0.0000 0.0000 0.0000 0.0000 24.0607 0.0000
# 6 0.0000 0.0000 0.0000 0.0000 0.0000 37.0397
#
#
#
# Elastic Compliance Matrix: (Units=1/GPa)
#
#
# Indices 1 2 3 4 5 6 
#
# 1 0.011442 -0.002137 -0.000419 0.000000 0.000000 0.000000
# 2 -0.002137 0.020746 -0.001360 0.000000 0.000000 0.000000
# 3 -0.000419 -0.001360 0.009875 0.000000 0.000000 0.000000
# 4 0.000000 0.000000 0.000000 0.074503 0.000000 0.000000
# 5 0.000000 0.000000 0.000000 0.000000 0.041562 0.000000
# 6 0.000000 0.000000 0.000000 0.000000 0.000000 0.026998
#
#
# Mechanical properties :
#
#
# Convention : Reuss Voigt Hill
#
# Bulk Modulus (GPa) = 29.21421 31.69986 30.45703
# Shear Modulus (GPa) = 24.46556 29.54551 27.00553
#
# Velocity S-wave (km/s) = 3.34664 3.67771 3.51607
# Velocity P-wave (km/s) = 5.32045 5.70489 5.51602
#
# Compressibility (1/GPa) = 0.03422992
#
# Stress axis : x y z
#
# Youngs Moduli (GPa) = 87.39976 48.20149 101.26647
#
# Poissons Ratio (x) = 0.10302 0.04247
# Poissons Ratio (y) = 0.18680 0.13770
# Poissons Ratio (z) = 0.03665 0.06554
#
# Static dielectric constant tensor:
#      x y z
#    x 1.900900 0.000000 0.000000 
#    y 0.000000 1.892040 0.000000 
#    z 0.000000 0.000000 1.788780 
# 
# From -- ./inp_files/23799.got.cif
#   From: 2010.05.17/outbox.cif.g08.bks.cpg/sg57_12_cif.got.tgz:23799.got - 2010.06.03 13:58:18.
