data_PCOD9439768
_publ_section_title
;
Structure prediction by ZEFSAII (Michael W. Deem and Ramdas Pophale) SiO2 
 PCOD9439768
Probable space group: P B C M
;
_chemical_formula_sum "Si O2"
_cell_formula_units_Z 48
_cell_length_a 5.573836
_cell_length_b 28.267687
_cell_length_c 12.969483
_cell_angle_alpha 90.000000
_cell_angle_beta 90.000000
_cell_angle_gamma 90.000000
_cell_volume 2043.464627
_symmetry_space_group_name_H-M "P B C M"
_symmetry_group_IT_number 57
_symmetry_cell_setting 'orthorhombic'
loop_
_space_group_symop_operation_xyz
x,y,z
-x,-y,1/2+z
x,1/2-y,-z
-x,1/2+y,1/2-z
-x,-y,-z
x,y,1/2-z
-x,1/2+y,z
x,1/2-y,1/2+z
loop_
_atom_site_type_symbol
_atom_site_label
_atom_site_fract_x
_atom_site_fract_y
_atom_site_fract_z
Si Si1 0.197757 0.634663 0.135770
Si Si2 0.954932 0.859093 0.425439
Si Si3 0.488160 0.958550 0.641098
Si Si4 0.740772 0.747917 0.250000
Si Si5 0.230695 0.692832 0.750000
Si Si6 0.401942 0.201177 0.459741
Si Si7 0.815401 0.538041 0.550871
O O1 0.131681 0.650583 0.250000
O O2 0.284395 0.580880 0.142246
O O3 0.413679 0.664990 0.089503
O O4 0.008388 0.637307 0.046598
O O5 0.166068 0.838706 0.352573
O O6 0.734483 0.822222 0.441174
O O7 0.907464 0.913891 0.396299
O O8 0.621700 0.956985 0.750000
O O9 0.655119 0.947010 0.546106
O O10 0.360488 0.008524 0.624266
O O11 0.487579 0.779664 0.250000
O O12 0.740383 0.718567 0.142486
O O13 0.998333 0.773273 0.250000
O O14 0.520601 0.250000 0.500000
O O15 0.000000 0.500000 0.500000
#
# Coordination Sequence:
#
# PCOD9439768 Si02
#       7
#     8   8   8   4   4   8   8
#     4  11  24  43  71 106 141 186 245 312 375 446
#     4  12  27  45  73 108 149 199 245 313 379 457
#     4  10  23  43  69 100 140 186 240 309 367 450
#     4  12  28  52  74 110 146 206 252 316 376 447
#     4  12  30  54  76 110 158 200 260 306 382 463
#     4  12  25  44  72 101 147 188 248 300 378 444
#     4  11  23  44  66 103 141 183 243 294 374 448
#
# _framework density 23.489516999999999
#
# number of rings (size 3 to 8) (size 9 to 14) (size 15 to 20)
#    0.000    0.667    5.833    1.000    4.667    2.000 
#    0.000    0.000    0.000    0.000    0.000    0.000 
#    0.000    0.000    0.000    0.000    0.000    0.000 
#
# Total GULP energy -267856.454238 kJ/mol
# GULP energy per Si atom -5580.342797 kJ/mol
# Density = 2.343605 g / cm^3
# Si number density = 23.489517 Si / 1000 Ang^3
#
#
#
# Elastic Constant Matrix: (Units=GPa)
#
#
# Indices 1 2 3 4 5 6 
#
# 1 62.0650 31.3347 9.9357 0.0000 0.0000 0.0000
# 2 31.3347 113.7262 25.4811 0.0000 0.0000 0.0000
# 3 9.9357 25.4811 110.3158 0.0000 0.0000 0.0000
# 4 0.0000 0.0000 0.0000 15.1812 0.0000 0.0000
# 5 0.0000 0.0000 0.0000 0.0000 37.9794 0.0000
# 6 0.0000 0.0000 0.0000 0.0000 0.0000 34.7149
#
#
#
# Elastic Compliance Matrix: (Units=1/GPa)
#
#
# Indices 1 2 3 4 5 6 
#
# 1 0.018744 -0.005047 -0.000522 0.000000 0.000000 0.000000
# 2 -0.005047 0.010632 -0.002001 0.000000 0.000000 0.000000
# 3 -0.000522 -0.002001 0.009574 0.000000 0.000000 0.000000
# 4 0.000000 0.000000 0.000000 0.065871 0.000000 0.000000
# 5 0.000000 0.000000 0.000000 0.000000 0.026330 0.000000
# 6 0.000000 0.000000 0.000000 0.000000 0.000000 0.028806
#
#
# Mechanical properties :
#
#
# Convention : Reuss Voigt Hill
#
# Bulk Modulus (GPa) = 42.00210 46.62332 44.31271
# Shear Modulus (GPa) = 27.31708 32.19880 29.75794
#
# Velocity S-wave (km/s) = 3.41390 3.70641 3.56316
# Velocity P-wave (km/s) = 5.78443 6.18129 5.98615
#
# Compressibility (1/GPa) = 0.02380833
#
# Stress axis : x y z
#
# Youngs Moduli (GPa) = 53.35026 94.05426 104.44754
#
# Poissons Ratio (x) = 0.47474 0.05455
# Poissons Ratio (y) = 0.26928 0.20903
# Poissons Ratio (z) = 0.02787 0.18823
#
# Static dielectric constant tensor:
#      x y z
#    x 1.992780 0.000000 0.000000 
#    y 0.000000 2.531220 0.000000 
#    z 0.000000 0.000000 1.969890 
# 
# From -- ./inp_files/15163.got.cif
#   From: 2010.05.17/outbox.cif.g08.bks.cpg/sg57_8_cif.got.tgz:15163.got - 2010.06.03 13:58:18.
