data_PCOD9439371
_publ_section_title
;
Structure prediction by ZEFSAII (Michael W. Deem and Ramdas Pophale) SiO2 
 PCOD9439371
Probable space group: P B C M
;
_chemical_formula_sum "Si O2"
_cell_formula_units_Z 56
_cell_length_a 5.730785
_cell_length_b 22.170631
_cell_length_c 18.884357
_cell_angle_alpha 90.000000
_cell_angle_beta 90.000000
_cell_angle_gamma 90.000000
_cell_volume 2399.354237
_symmetry_space_group_name_H-M "P B C M"
_symmetry_group_IT_number 57
_symmetry_cell_setting 'orthorhombic'
loop_
_space_group_symop_operation_xyz
x,y,z
-x,-y,1/2+z
x,1/2-y,-z
-x,1/2+y,1/2-z
-x,-y,-z
x,y,1/2-z
-x,1/2+y,z
x,1/2-y,1/2+z
loop_
_atom_site_type_symbol
_atom_site_label
_atom_site_fract_x
_atom_site_fract_y
_atom_site_fract_z
Si Si1 0.894477 0.961542 0.250000
Si Si2 0.696042 0.327461 0.906795
Si Si3 0.622529 0.502968 0.406194
Si Si4 0.452984 0.226144 0.668533
Si Si5 0.120278 0.544183 0.390450
Si Si6 0.393753 0.536215 0.750000
Si Si7 0.931467 0.777386 0.433648
Si Si8 0.688123 0.364288 0.057966
O O1 0.894150 0.003205 0.179975
O O2 0.642168 0.928974 0.250000
O O3 0.145956 0.928578 0.250000
O O4 0.525546 0.294193 0.853089
O O5 0.829042 0.385503 0.876576
O O6 0.870961 0.273674 0.927633
O O7 0.583579 0.349069 0.980942
O O8 0.360742 0.522408 0.429615
O O9 0.607448 0.505082 0.320066
O O10 0.658728 0.432890 0.422526
O O11 0.864786 0.536481 0.426569
O O12 0.493308 0.215899 0.750000
O O13 0.190785 0.219953 0.641441
O O14 0.581851 0.177332 0.619077
O O15 0.785449 0.750000 0.500000
O O16 0.043088 0.842578 0.448113
#
# Coordination Sequence:
#
# PCOD9439371 Si02
#       8
#     4   8   8   8   8   4   8   8
#     4   8  16  34  54  79 122 171 212 256 318 372
#     4  10  23  42  66  94 132 177 217 274 338 399
#     4  10  22  39  62  98 135 178 222 271 328 402
#     4  11  24  42  67  99 125 165 227 284 339 397
#     4  10  22  39  62  98 135 178 222 271 328 402
#     4   8  16  34  54  79 122 171 212 256 318 372
#     4   9  20  42  65  89 125 171 221 270 339 397
#     4  10  23  42  66  94 132 177 217 274 338 399
#
# _framework density 23.339611999999999
#
# number of rings (size 3 to 8) (size 9 to 14) (size 15 to 20)
#    0.000    2.286    0.000    2.143    6.000    3.429 
#    0.000    0.000    0.000    0.000    0.000    0.000 
#    0.000    0.000    0.000    0.000    0.000    0.000 
#
# Total GULP energy -312300.631320 kJ/mol
# GULP energy per Si atom -5576.796988 kJ/mol
# Density = 2.328649 g / cm^3
# Si number density = 23.339612 Si / 1000 Ang^3
#
#
#
# Elastic Constant Matrix: (Units=GPa)
#
#
# Indices 1 2 3 4 5 6 
#
# 1 133.4097 17.9621 2.6314 0.0000 0.0000 0.0000
# 2 17.9621 93.6566 13.9341 0.0000 0.0000 0.0000
# 3 2.6314 13.9341 113.5284 0.0000 0.0000 0.0000
# 4 0.0000 0.0000 0.0000 10.9554 0.0000 0.0000
# 5 0.0000 0.0000 0.0000 0.0000 26.9003 0.0000
# 6 0.0000 0.0000 0.0000 0.0000 0.0000 13.6035
#
#
#
# Elastic Compliance Matrix: (Units=1/GPa)
#
#
# Indices 1 2 3 4 5 6 
#
# 1 0.007694 -0.001476 0.000003 0.000000 0.000000 0.000000
# 2 -0.001476 0.011159 -0.001335 0.000000 0.000000 0.000000
# 3 0.000003 -0.001335 0.008972 0.000000 0.000000 0.000000
# 4 0.000000 0.000000 0.000000 0.091279 0.000000 0.000000
# 5 0.000000 0.000000 0.000000 0.000000 0.037174 0.000000
# 6 0.000000 0.000000 0.000000 0.000000 0.000000 0.073511
#
#
# Mechanical properties :
#
#
# Convention : Reuss Voigt Hill
#
# Bulk Modulus (GPa) = 45.02820 45.51665 45.27242
# Shear Modulus (GPa) = 20.59226 30.69632 25.64429
#
# Velocity S-wave (km/s) = 2.97356 3.63051 3.31833
# Velocity P-wave (km/s) = 5.57888 6.09248 5.84133
#
# Compressibility (1/GPa) = 0.02220831
#
# Stress axis : x y z
#
# Youngs Moduli (GPa) = 129.96477 89.61306 111.45528
#
# Poissons Ratio (x) = 0.13228 -0.00032
# Poissons Ratio (y) = 0.19184 0.14884
# Poissons Ratio (z) = -0.00037 0.11967
#
# Static dielectric constant tensor:
#      x y z
#    x 2.014370 0.000000 0.000000 
#    y 0.000000 1.853020 0.000000 
#    z 0.000000 0.000000 1.934430 
# 
# From -- ./inp_files/23806.got.cif
#   From: 2010.05.17/outbox.cif.g08.bks.cpg/sg57_12_cif.got.tgz:23806.got - 2010.06.03 13:58:18.
