data_PCOD9439390
_publ_section_title
;
Structure prediction by ZEFSAII (Michael W. Deem and Ramdas Pophale) SiO2 
 PCOD9439390
Probable space group: P B C M
;
_chemical_formula_sum "Si O2"
_cell_formula_units_Z 64
_cell_length_a 21.060466
_cell_length_b 19.979003
_cell_length_c 8.110141
_cell_angle_alpha 90.000000
_cell_angle_beta 90.000000
_cell_angle_gamma 90.000000
_cell_volume 3412.480618
_symmetry_space_group_name_H-M "P B C M"
_symmetry_group_IT_number 57
_symmetry_cell_setting 'orthorhombic'
loop_
_space_group_symop_operation_xyz
x,y,z
-x,-y,1/2+z
x,1/2-y,-z
-x,1/2+y,1/2-z
-x,-y,-z
x,y,1/2-z
-x,1/2+y,z
x,1/2-y,1/2+z
loop_
_atom_site_type_symbol
_atom_site_label
_atom_site_fract_x
_atom_site_fract_y
_atom_site_fract_z
Si Si1 0.152448 0.430895 0.945326
Si Si2 0.484183 0.923820 0.051071
Si Si3 0.380907 0.104245 0.949183
Si Si4 0.348635 0.952182 0.050501
Si Si5 0.206981 0.926166 0.048277
Si Si6 0.012392 0.424125 0.444579
Si Si7 0.098509 0.826876 0.449291
Si Si8 0.256671 0.175426 0.947358
O O1 0.144554 0.436749 0.750000
O O2 0.173964 0.504349 0.006358
O O3 0.085112 0.408092 0.015538
O O4 0.207249 0.378322 0.984546
O O5 0.483130 0.919684 0.250000
O O6 0.546637 0.884138 0.991921
O O7 0.411924 0.912505 0.993033
O O8 0.500000 0.000000 0.000000
O O9 0.382078 0.105900 0.750000
O O10 0.327294 0.155426 0.007384
O O11 0.358533 0.029621 0.999707
O O12 0.348014 0.950564 0.250000
O O13 0.280228 0.926285 0.992478
O O14 0.207828 0.927031 0.250000
O O15 0.162975 0.864507 0.996139
O O16 0.003934 0.423671 0.250000
O O17 0.000000 0.500000 0.500000
O O18 0.961053 0.371257 0.512144
O O19 0.095077 0.750000 0.500000
O O20 0.097922 0.828728 0.250000
O O21 0.255652 0.171007 0.750000
O O22 0.240150 0.250000 0.000000
#
# Coordination Sequence:
#
# PCOD9439390 Si02
#       8
#     8   8   8   8   8   8   8   8
#     4  11  21  37  59  82 110 141 178 229 279 328
#     4   8  14  24  41  69 100 129 163 208 260 312
#     4   9  17  29  45  69 103 134 170 221 268 312
#     4   9  15  26  49  76 101 134 172 210 263 322
#     4   9  17  32  54  80 109 139 173 217 266 319
#     4  11  22  38  60  86 115 146 185 226 270 323
#     4  10  22  40  58  81 111 142 177 218 262 316
#     4  11  23  37  52  74 105 145 188 231 278 334
#
# _framework density 18.754686
#
# number of rings (size 3 to 8) (size 9 to 14) (size 15 to 20)
#    0.000    2.250    2.500    1.125    0.000    2.000 
#    0.000    1.875    0.000    0.750    0.000    0.000 
#    0.000    0.000    0.000    0.000    0.000    0.000 
#
# Total GULP energy -356802.384662 kJ/mol
# GULP energy per Si atom -5575.037260 kJ/mol
# Density = 1.871200 g / cm^3
# Si number density = 18.754686 Si / 1000 Ang^3
#
#
#
# Elastic Constant Matrix: (Units=GPa)
#
#
# Indices 1 2 3 4 5 6 
#
# 1 166.5751 62.4596 6.6128 0.0000 0.0000 0.0000
# 2 62.4596 103.5807 2.6560 0.0000 0.0000 0.0000
# 3 6.6128 2.6560 12.0934 0.0000 0.0000 0.0000
# 4 0.0000 0.0000 0.0000 20.5460 0.0000 0.0000
# 5 0.0000 0.0000 0.0000 0.0000 15.9812 0.0000
# 6 0.0000 0.0000 0.0000 0.0000 0.0000 22.9490
#
#
#
# Elastic Compliance Matrix: (Units=1/GPa)
#
#
# Indices 1 2 3 4 5 6 
#
# 1 0.007885 -0.004670 -0.003286 0.000000 0.000000 0.000000
# 2 -0.004670 0.012475 -0.000186 0.000000 0.000000 0.000000
# 3 -0.003286 -0.000186 0.084528 0.000000 0.000000 0.000000
# 4 0.000000 0.000000 0.000000 0.048671 0.000000 0.000000
# 5 0.000000 0.000000 0.000000 0.000000 0.062574 0.000000
# 6 0.000000 0.000000 0.000000 0.000000 0.000000 0.043575
#
#
# Mechanical properties :
#
#
# Convention : Reuss Voigt Hill
#
# Bulk Modulus (GPa) = 11.28625 47.30064 29.29345
# Shear Modulus (GPa) = 16.36516 25.92994 21.14755
#
# Velocity S-wave (km/s) = 2.95717 3.72235 3.36160
# Velocity P-wave (km/s) = 4.20603 6.61437 5.54259
#
# Compressibility (1/GPa) = 0.08860337
#
# Stress axis : x y z
#
# Youngs Moduli (GPa) = 126.82345 80.15800 11.83045
#
# Poissons Ratio (x) = 0.37437 0.03887
# Poissons Ratio (y) = 0.59232 0.00220
# Poissons Ratio (z) = 0.41672 0.01491
#
# Static dielectric constant tensor:
#      x y z
#    x 1.707530 0.000000 0.000000 
#    y 0.000000 1.607430 0.000000 
#    z 0.000000 0.000000 1.670680 
# 
# From -- ./inp_files/8501.got.cif
#   From: 2010.05.17/outbox.cif.g08.bks.cpg/sg57_5_cif.got.tgz:8501.got - 2010.06.03 13:58:18.
