data_PCOD9439287
_publ_section_title
;
Structure prediction by ZEFSAII (Michael W. Deem and Ramdas Pophale) SiO2 
 PCOD9439287
Probable space group: P B C M
;
_chemical_formula_sum "Si O2"
_cell_formula_units_Z 52
_cell_length_a 13.404074
_cell_length_b 22.954390
_cell_length_c 8.232071
_cell_angle_alpha 90.000000
_cell_angle_beta 90.000000
_cell_angle_gamma 90.000000
_cell_volume 2532.862886
_symmetry_space_group_name_H-M "P B C M"
_symmetry_group_IT_number 57
_symmetry_cell_setting 'orthorhombic'
loop_
_space_group_symop_operation_xyz
x,y,z
-x,-y,1/2+z
x,1/2-y,-z
-x,1/2+y,1/2-z
-x,-y,-z
x,y,1/2-z
-x,1/2+y,z
x,1/2-y,1/2+z
loop_
_atom_site_type_symbol
_atom_site_label
_atom_site_fract_x
_atom_site_fract_y
_atom_site_fract_z
Si Si1 0.922018 0.173966 0.934581
Si Si2 0.395778 0.929484 0.444603
Si Si3 0.006087 0.435147 0.939768
Si Si4 0.297330 0.809678 0.941930
Si Si5 0.091488 0.250000 0.000000
Si Si6 0.372254 0.056558 0.944391
Si Si7 0.201363 0.140465 0.441109
O O1 0.952901 0.188695 0.750000
O O2 0.002960 0.203967 0.054832
O O3 0.809491 0.190365 0.968666
O O4 0.931653 0.105578 0.961078
O O5 0.389648 0.926690 0.250000
O O6 0.350245 0.870325 0.515416
O O7 0.512480 0.933327 0.493145
O O8 0.346348 0.990561 0.500218
O O9 0.981863 0.431530 0.750000
O O10 0.115435 0.407830 0.965733
O O11 0.000000 0.500000 0.000000
O O12 0.281173 0.806787 0.750000
O O13 0.350551 0.750000 0.000000
O O14 0.169750 0.301937 0.043057
O O15 0.365362 0.058649 0.750000
O O16 0.302564 0.107144 0.015682
O O17 0.200815 0.158372 0.250000
#
# Coordination Sequence:
#
# PCOD9439287 Si02
#       7
#     8   8   8   8   4   8   8
#     4  11  22  38  62  87 120 162 205 252 307 365
#     4  10  22  43  68  93 126 163 206 258 313 373
#     4  10  22  38  56  84 121 159 204 254 306 365
#     4  12  25  41  64  94 126 163 208 254 308 370
#     4  10  22  40  64  88 122 166 216 254 308 368
#     4  10  22  41  67  97 125 161 206 255 316 377
#     4  10  22  39  61  89 122 163 210 257 311 373
#
# _framework density 20.530128999999999
#
# number of rings (size 3 to 8) (size 9 to 14) (size 15 to 20)
#    0.000    1.538    0.769    3.692    2.154    6.769 
#    1.385    0.000    0.000    0.000    0.000    0.000 
#    0.000    0.000    0.000    0.000    0.000    0.000 
#
# Total GULP energy -289720.009482 kJ/mol
# GULP energy per Si atom -5571.538644 kJ/mol
# Density = 2.048340 g / cm^3
# Si number density = 20.530129 Si / 1000 Ang^3
#
#
#
# Elastic Constant Matrix: (Units=GPa)
#
#
# Indices 1 2 3 4 5 6 
#
# 1 59.1221 50.1352 19.4070 0.0000 0.0000 0.0000
# 2 50.1352 186.1610 34.7759 0.0000 0.0000 0.0000
# 3 19.4070 34.7759 76.5364 0.0000 0.0000 0.0000
# 4 0.0000 0.0000 0.0000 14.2546 0.0000 0.0000
# 5 0.0000 0.0000 0.0000 0.0000 17.4443 0.0000
# 6 0.0000 0.0000 0.0000 0.0000 0.0000 36.3244
#
#
#
# Elastic Compliance Matrix: (Units=1/GPa)
#
#
# Indices 1 2 3 4 5 6 
#
# 1 0.022634 -0.005490 -0.003245 0.000000 0.000000 0.000000
# 2 -0.005490 0.007201 -0.001880 0.000000 0.000000 0.000000
# 3 -0.003245 -0.001880 0.014743 0.000000 0.000000 0.000000
# 4 0.000000 0.000000 0.000000 0.070153 0.000000 0.000000
# 5 0.000000 0.000000 0.000000 0.000000 0.057325 0.000000
# 6 0.000000 0.000000 0.000000 0.000000 0.000000 0.027530
#
#
# Mechanical properties :
#
#
# Convention : Reuss Voigt Hill
#
# Bulk Modulus (GPa) = 42.82805 58.93951 50.88378
# Shear Modulus (GPa) = 21.87241 28.10477 24.98859
#
# Velocity S-wave (km/s) = 3.26756 3.70395 3.49258
# Velocity P-wave (km/s) = 5.92809 6.86028 6.41115
#
# Compressibility (1/GPa) = 0.02334919
#
# Stress axis : x y z
#
# Youngs Moduli (GPa) = 44.18052 138.86394 67.82981
#
# Poissons Ratio (x) = 0.76229 0.22011
# Poissons Ratio (y) = 0.24253 0.12753
# Poissons Ratio (z) = 0.14337 0.26108
#
# Static dielectric constant tensor:
#      x y z
#    x 1.744620 0.000000 0.000000 
#    y 0.000000 1.781930 0.000000 
#    z 0.000000 0.000000 1.194140 
# 
# From -- ./inp_files/5037.got.cif
#   From: 2010.05.17/outbox.cif.g08.bks.cpg/sg57_3_cif.got.tgz:5037.got - 2010.06.03 13:58:18.
