data_PCOD9439976
_publ_section_title
;
Structure prediction by ZEFSAII (Michael W. Deem and Ramdas Pophale) SiO2 
 PCOD9439976
Probable space group: P B C M
;
_chemical_formula_sum "Si O2"
_cell_formula_units_Z 48
_cell_length_a 12.277858
_cell_length_b 26.498617
_cell_length_c 8.791711
_cell_angle_alpha 90.000000
_cell_angle_beta 90.000000
_cell_angle_gamma 90.000000
_cell_volume 2860.350264
_symmetry_space_group_name_H-M "P B C M"
_symmetry_group_IT_number 57
_symmetry_cell_setting 'orthorhombic'
loop_
_space_group_symop_operation_xyz
x,y,z
-x,-y,1/2+z
x,1/2-y,-z
-x,1/2+y,1/2-z
-x,-y,-z
x,y,1/2-z
-x,1/2+y,z
x,1/2-y,1/2+z
loop_
_atom_site_type_symbol
_atom_site_label
_atom_site_fract_x
_atom_site_fract_y
_atom_site_fract_z
Si Si1 0.234069 0.928875 0.069693
Si Si2 0.660455 0.613447 0.574070
Si Si3 0.835994 0.694259 0.565776
Si Si4 0.467800 0.554407 0.429628
Si Si5 0.984348 0.114361 0.564853
Si Si6 0.149491 0.470389 0.426713
O O1 0.250487 0.924223 0.250000
O O2 0.141509 0.888900 0.018880
O O3 0.349976 0.928231 0.988533
O O4 0.180706 0.982922 0.030474
O O5 0.626759 0.620743 0.750000
O O6 0.728202 0.662397 0.521608
O O7 0.558665 0.594948 0.477648
O O8 0.748997 0.568316 0.573047
O O9 0.836824 0.750000 0.500000
O O10 0.836928 0.695633 0.750000
O O11 0.941735 0.661532 0.516283
O O12 0.500000 0.500000 0.500000
O O13 0.464450 0.548030 0.250000
O O14 0.987005 0.113881 0.750000
O O15 0.047814 0.063196 0.518852
O O16 0.132770 0.486154 0.250000
#
# Coordination Sequence:
#
# PCOD9439976 Si02
#       6
#     8   8   8   8   8   8
#     4  11  20  30  47  71 102 139 176 206 246 301
#     4   9  18  33  52  74 103 136 170 210 258 302
#     4   9  18  35  58  81 104 130 163 210 264 311
#     4  12  23  34  49  71 103 140 179 215 252 303
#     4   8  17  32  49  72 102 135 167 205 255 306
#     4   9  16  29  48  69  99 135 169 206 247 293
#
# _framework density 16.781161999999998
#
# number of rings (size 3 to 8) (size 9 to 14) (size 15 to 20)
#    0.000    2.333    1.667    4.500    0.000    0.667 
#    0.000    5.000    0.000    1.000    0.000    2.333 
#    0.000    0.000    0.000    0.000    0.000    0.000 
#
# Total GULP energy -267658.574075 kJ/mol
# GULP energy per Si atom -5576.220293 kJ/mol
# Density = 1.674297 g / cm^3
# Si number density = 16.781162 Si / 1000 Ang^3
#
#
#
# Elastic Constant Matrix: (Units=GPa)
#
#
# Indices 1 2 3 4 5 6 
#
# 1 156.1962 58.8918 53.7155 0.0000 0.0000 0.0000
# 2 58.8918 88.6109 25.8079 0.0000 0.0000 0.0000
# 3 53.7155 25.8079 60.0205 0.0000 0.0000 0.0000
# 4 0.0000 0.0000 0.0000 23.0246 0.0000 0.0000
# 5 0.0000 0.0000 0.0000 0.0000 20.8883 0.0000
# 6 0.0000 0.0000 0.0000 0.0000 0.0000 8.1412
#
#
#
# Elastic Compliance Matrix: (Units=1/GPa)
#
#
# Indices 1 2 3 4 5 6 
#
# 1 0.010918 -0.005042 -0.007603 0.000000 0.000000 0.000000
# 2 -0.005042 0.015229 -0.002036 0.000000 0.000000 0.000000
# 3 -0.007603 -0.002036 0.024341 0.000000 0.000000 0.000000
# 4 0.000000 0.000000 0.000000 0.043432 0.000000 0.000000
# 5 0.000000 0.000000 0.000000 0.000000 0.047874 0.000000
# 6 0.000000 0.000000 0.000000 0.000000 0.000000 0.122832
#
#
# Mechanical properties :
#
#
# Convention : Reuss Voigt Hill
#
# Bulk Modulus (GPa) = 47.33532 64.62866 55.98199
# Shear Modulus (GPa) = 16.60968 21.50497 19.05732
#
# Velocity S-wave (km/s) = 3.14949 3.58368 3.37358
# Velocity P-wave (km/s) = 6.44161 7.46458 6.97188
#
# Compressibility (1/GPa) = 0.02112587
#
# Stress axis : x y z
#
# Youngs Moduli (GPa) = 91.59376 65.66375 41.08313
#
# Poissons Ratio (x) = 0.33106 0.31236
# Poissons Ratio (y) = 0.46179 0.08365
# Poissons Ratio (z) = 0.69639 0.13371
#
# Static dielectric constant tensor:
#      x y z
#    x 1.597260 0.000000 0.000000 
#    y 0.000000 1.547650 0.000000 
#    z 0.000000 0.000000 1.569170 
# 
# From -- ./inp_files/3109.got.cif
#   From: 2010.05.17/outbox.cif.g08.bks.cpg/sg57_2_cif.got.tgz:3109.got - 2010.06.03 13:58:18.
