data_PCOD9439434
_publ_section_title
;
Structure prediction by ZEFSAII (Michael W. Deem and Ramdas Pophale) SiO2 
 PCOD9439434
Probable space group: P B C M
;
_chemical_formula_sum "Si O2"
_cell_formula_units_Z 32
_cell_length_a 4.960222
_cell_length_b 14.270888
_cell_length_c 18.957705
_cell_angle_alpha 90.000000
_cell_angle_beta 90.000000
_cell_angle_gamma 90.000000
_cell_volume 1341.954753
_symmetry_space_group_name_H-M "P B C M"
_symmetry_group_IT_number 57
_symmetry_cell_setting 'orthorhombic'
loop_
_space_group_symop_operation_xyz
x,y,z
-x,-y,1/2+z
x,1/2-y,-z
-x,1/2+y,1/2-z
-x,-y,-z
x,y,1/2-z
-x,1/2+y,z
x,1/2-y,1/2+z
loop_
_atom_site_type_symbol
_atom_site_label
_atom_site_fract_x
_atom_site_fract_y
_atom_site_fract_z
Si Si1 0.750741 0.698588 0.396995
Si Si2 0.535965 0.131014 0.750000
Si Si3 0.567900 0.589603 0.902310
Si Si4 0.236082 0.902509 0.543325
Si Si5 0.038174 0.237349 0.250000
O O1 0.711057 0.809606 0.403528
O O2 0.461286 0.654182 0.412272
O O3 0.958165 0.651515 0.450429
O O4 0.879922 0.682016 0.320106
O O5 0.561815 0.078344 0.675564
O O6 0.737740 0.220546 0.750000
O O7 0.232762 0.171597 0.750000
O O8 0.765426 0.505071 0.922226
O O9 0.345335 0.590706 0.963926
#
# Coordination Sequence:
#
# PCOD9439434 Si02
#       5
#     8   4   8   8   4
#     4  11  24  43  68  97 136 177 216 276 333 384
#     4  10  22  40  66  92 133 176 207 270 334 378
#     4  10  25  45  67 100 136 172 224 275 329 399
#     4  11  26  43  70 100 130 176 226 271 330 399
#     4  10  22  40  64  98 131 172 223 262 320 398
#
# _framework density 23.845814000000001
#
# number of rings (size 3 to 8) (size 9 to 14) (size 15 to 20)
#    0.000    1.500    0.000    3.750    0.000   22.000 
#    0.000    0.000    0.000    0.000    0.000    0.000 
#    0.000    0.000    0.000    0.000    0.000    0.000 
#
# Total GULP energy -179279.333154 kJ/mol
# GULP energy per Si atom -5602.479161 kJ/mol
# Density = 2.379154 g / cm^3
# Si number density = 23.845814 Si / 1000 Ang^3
#
#
#
# Elastic Constant Matrix: (Units=GPa)
#
#
# Indices 1 2 3 4 5 6 
#
# 1 77.0782 37.4174 -3.6657 0.0000 0.0000 0.0000
# 2 37.4174 133.5608 33.8427 0.0000 0.0000 0.0000
# 3 -3.6657 33.8427 171.3483 0.0000 0.0000 0.0000
# 4 0.0000 0.0000 0.0000 25.3773 0.0000 0.0000
# 5 0.0000 0.0000 0.0000 0.0000 19.3528 0.0000
# 6 0.0000 0.0000 0.0000 0.0000 0.0000 15.0290
#
#
#
# Elastic Compliance Matrix: (Units=1/GPa)
#
#
# Indices 1 2 3 4 5 6 
#
# 1 0.015259 -0.004587 0.001232 0.000000 0.000000 0.000000
# 2 -0.004587 0.009261 -0.001927 0.000000 0.000000 0.000000
# 3 0.001232 -0.001927 0.006243 0.000000 0.000000 0.000000
# 4 0.000000 0.000000 0.000000 0.039405 0.000000 0.000000
# 5 0.000000 0.000000 0.000000 0.000000 0.051672 0.000000
# 6 0.000000 0.000000 0.000000 0.000000 0.000000 0.066538
#
#
# Mechanical properties :
#
#
# Convention : Reuss Voigt Hill
#
# Bulk Modulus (GPa) = 49.50708 57.46402 53.48555
# Shear Modulus (GPa) = 24.31014 32.91134 28.61074
#
# Velocity S-wave (km/s) = 3.19638 3.71910 3.46760
# Velocity P-wave (km/s) = 5.86761 6.52631 6.20571
#
# Compressibility (1/GPa) = 0.02019913
#
# Stress axis : x y z
#
# Youngs Moduli (GPa) = 65.53378 107.98351 160.17767
#
# Poissons Ratio (x) = 0.49534 -0.19741
# Poissons Ratio (y) = 0.30062 0.30869
# Poissons Ratio (z) = -0.08077 0.20810
#
# Static dielectric constant tensor:
#      x y z
#    x 1.863590 0.000000 0.000000 
#    y 0.000000 1.885790 0.000000 
#    z 0.000000 0.000000 1.979800 
# 
# From -- ./inp_files/19870.got.cif
#   From: 2010.05.17/outbox.cif.g08.bks.cpg/sg57_10_cif.got.tgz:19870.got - 2010.06.03 13:58:18.
