data_PCOD9439651
_publ_section_title
;
Structure prediction by ZEFSAII (Michael W. Deem and Ramdas Pophale) SiO2 
 PCOD9439651
Probable space group: P B C M
;
_chemical_formula_sum "Si O2"
_cell_formula_units_Z 20
_cell_length_a 4.985127
_cell_length_b 8.659645
_cell_length_c 16.195035
_cell_angle_alpha 90.000000
_cell_angle_beta 90.000000
_cell_angle_gamma 90.000000
_cell_volume 699.130431
_symmetry_space_group_name_H-M "P B C M"
_symmetry_group_IT_number 57
_symmetry_cell_setting 'orthorhombic'
loop_
_space_group_symop_operation_xyz
x,y,z
-x,-y,1/2+z
x,1/2-y,-z
-x,1/2+y,1/2-z
-x,-y,-z
x,y,1/2-z
-x,1/2+y,z
x,1/2-y,1/2+z
loop_
_atom_site_type_symbol
_atom_site_label
_atom_site_fract_x
_atom_site_fract_y
_atom_site_fract_z
Si Si1 0.027807 0.660838 0.750000
Si Si2 0.139551 0.250000 0.000000
Si Si3 0.386907 0.075657 0.250000
Si Si4 0.756424 0.476507 0.602919
O O1 0.338363 0.611601 0.750000
O O2 0.883667 0.823946 0.750000
O O3 0.930391 0.576070 0.667725
O O4 0.939638 0.348995 0.941308
O O5 0.320134 0.114634 0.959863
O O6 0.537879 0.099653 0.336846
#
# Coordination Sequence:
#
# PCOD9439651 Si02
#       4
#     4   4   4   8
#     4  11  24  48  72 103 142 197 260 306 354 447
#     4  10  22  48  78 116 156 186 242 308 380 464
#     4  11  26  48  76 105 146 201 256 308 368 435
#     4  10  24  47  77 108 149 198 243 308 379 443
#
# _framework density 28.606964999999999
#
# number of rings (size 3 to 8) (size 9 to 14) (size 15 to 20)
#    0.000    1.600    0.000    2.400    0.000   17.600 
#    0.000   42.000    0.000    2.400    0.000    0.000 
#    0.000    0.000    0.000    0.000    0.000    0.000 
#
# Total GULP energy -111991.464941 kJ/mol
# GULP energy per Si atom -5599.573247 kJ/mol
# Density = 2.854185 g / cm^3
# Si number density = 28.606965 Si / 1000 Ang^3
#
#
#
# Elastic Constant Matrix: (Units=GPa)
#
#
# Indices 1 2 3 4 5 6 
#
# 1 60.6398 49.2112 41.9382 0.0000 0.0000 0.0000
# 2 49.2112 232.2714 105.8157 0.0000 0.0000 0.0000
# 3 41.9382 105.8157 137.7646 0.0000 0.0000 0.0000
# 4 0.0000 0.0000 0.0000 87.6172 0.0000 0.0000
# 5 0.0000 0.0000 0.0000 0.0000 20.4096 0.0000
# 6 0.0000 0.0000 0.0000 0.0000 0.0000 47.2248
#
#
#
# Elastic Compliance Matrix: (Units=1/GPa)
#
#
# Indices 1 2 3 4 5 6 
#
# 1 0.021758 -0.002450 -0.004742 0.000000 0.000000 0.000000
# 2 -0.002450 0.006898 -0.004553 0.000000 0.000000 0.000000
# 3 -0.004742 -0.004553 0.012199 0.000000 0.000000 0.000000
# 4 0.000000 0.000000 0.000000 0.011413 0.000000 0.000000
# 5 0.000000 0.000000 0.000000 0.000000 0.048997 0.000000
# 6 0.000000 0.000000 0.000000 0.000000 0.000000 0.021175
#
#
# Mechanical properties :
#
#
# Convention : Reuss Voigt Hill
#
# Bulk Modulus (GPa) = 57.58074 91.62288 74.60181
# Shear Modulus (GPa) = 32.95545 46.63104 39.79324
#
# Velocity S-wave (km/s) = 3.39781 4.04178 3.73370
# Velocity P-wave (km/s) = 5.96367 7.34023 6.68746
#
# Compressibility (1/GPa) = 0.01736692
#
# Stress axis : x y z
#
# Youngs Moduli (GPa) = 45.95923 144.95935 81.97066
#
# Poissons Ratio (x) = 0.35508 0.38872
# Poissons Ratio (y) = 0.11258 0.37321
# Poissons Ratio (z) = 0.21795 0.66000
#
# Static dielectric constant tensor:
#      x y z
#    x 2.297370 0.000000 0.000000 
#    y 0.000000 2.227100 0.000000 
#    z 0.000000 0.000000 2.285230 
# 
# From -- ./inp_files/19690.got.cif
#   From: 2010.05.17/outbox.cif.g08.bks.cpg/sg57_10_cif.got.tgz:19690.got - 2010.06.03 13:58:18.
