data_PCOD9439935
_publ_section_title
;
Structure prediction by ZEFSAII (Michael W. Deem and Ramdas Pophale) SiO2 
 PCOD9439935
Probable space group: P B C M
;
_chemical_formula_sum "Si O2"
_cell_formula_units_Z 36
_cell_length_a 5.663876
_cell_length_b 12.460074
_cell_length_c 20.577808
_cell_angle_alpha 90.000000
_cell_angle_beta 90.000000
_cell_angle_gamma 90.000000
_cell_volume 1452.223529
_symmetry_space_group_name_H-M "P B C M"
_symmetry_group_IT_number 57
_symmetry_cell_setting 'orthorhombic'
loop_
_space_group_symop_operation_xyz
x,y,z
-x,-y,1/2+z
x,1/2-y,-z
-x,1/2+y,1/2-z
-x,-y,-z
x,y,1/2-z
-x,1/2+y,z
x,1/2-y,1/2+z
loop_
_atom_site_type_symbol
_atom_site_label
_atom_site_fract_x
_atom_site_fract_y
_atom_site_fract_z
Si Si1 0.631582 0.567569 0.586694
Si Si2 0.920061 0.131040 0.103673
Si Si3 0.601061 0.286429 0.322754
Si Si4 0.246308 0.250000 0.500000
Si Si5 0.266237 0.008635 0.178432
O O1 0.842073 0.484959 0.575340
O O2 0.625073 0.650038 0.648312
O O3 0.604126 0.649872 0.527723
O O4 0.420769 0.491689 0.612435
O O5 0.697625 0.198499 0.128719
O O6 0.074898 0.201507 0.055179
O O7 0.066706 0.095202 0.167253
O O8 0.561129 0.249027 0.250000
O O9 0.797206 0.382167 0.321257
O O10 0.379974 0.023457 0.250000
#
# Coordination Sequence:
#
# PCOD9439935 Si02
#       5
#     8   8   8   4   8
#     4  10  25  47  68 103 143 190 241 293 355 429
#     4  12  24  46  71 106 144 190 242 293 361 430
#     4   9  22  44  72 105 138 179 236 300 364 420
#     4  12  28  46  70 104 148 200 242 288 352 438
#     4   9  22  44  72 104 136 182 237 297 365 418
#
# _framework density 24.789574999999999
#
# number of rings (size 3 to 8) (size 9 to 14) (size 15 to 20)
#    1.333    0.444    0.000    2.667    3.111    5.333 
#    0.000    3.333    0.000    0.000    0.000    0.000 
#    0.000    0.000    0.000    0.000    0.000    0.000 
#
# Total GULP energy -200427.798116 kJ/mol
# GULP energy per Si atom -5567.438837 kJ/mol
# Density = 2.473315 g / cm^3
# Si number density = 24.789575 Si / 1000 Ang^3
#
#
#
# Elastic Constant Matrix: (Units=GPa)
#
#
# Indices 1 2 3 4 5 6 
#
# 1 37.8855 32.1333 10.1084 0.0000 0.0000 0.0000
# 2 32.1333 142.7007 44.6471 0.0000 0.0000 0.0000
# 3 10.1084 44.6471 92.9209 0.0000 0.0000 0.0000
# 4 0.0000 0.0000 0.0000 18.1069 0.0000 0.0000
# 5 0.0000 0.0000 0.0000 0.0000 -12.2199 0.0000
# 6 0.0000 0.0000 0.0000 0.0000 0.0000 34.7123
#
#
#
# Elastic Compliance Matrix: (Units=1/GPa)
#
#
# Indices 1 2 3 4 5 6 
#
# 1 0.032627 -0.007340 -0.000023 0.000000 0.000000 0.000000
# 2 -0.007340 0.009899 -0.003958 0.000000 0.000000 0.000000
# 3 -0.000023 -0.003958 0.012666 0.000000 0.000000 0.000000
# 4 0.000000 0.000000 0.000000 0.055228 0.000000 0.000000
# 5 0.000000 0.000000 0.000000 0.000000 -0.081834 0.000000
# 6 0.000000 0.000000 0.000000 0.000000 0.000000 0.028808
#
#
# Mechanical properties :
#
#
# Convention : Reuss Voigt Hill
#
# Bulk Modulus (GPa) = 30.72094 49.69830 40.20962
# Shear Modulus (GPa) = 55.01504 20.56107 37.78805
#
# Velocity S-wave (km/s) = 4.71604 2.88310 3.90853
# Velocity P-wave (km/s) = 6.48647 5.58342 6.05181
#
# Compressibility (1/GPa) = 0.03255108
#
# Stress axis : x y z
#
# Youngs Moduli (GPa) = 30.64970 101.02314 78.95193
#
# Poissons Ratio (x) = 0.74149 0.00179
# Poissons Ratio (y) = 0.22496 0.31247
# Poissons Ratio (z) = 0.00069 0.39982
#
# Static dielectric constant tensor:
#      x y z
#    x 2.043750 0.000000 0.000000 
#    y 0.000000 1.958030 0.000000 
#    z 0.000000 0.000000 1.964750 
# 
# From -- ./inp_files/23471.got.cif
#   From: 2010.05.17/outbox.cif.g08.bks.cpg/sg57_12_cif.got.tgz:23471.got - 2010.06.03 13:58:18.
