data_PCOD9439364
_publ_section_title
;
Structure prediction by ZEFSAII (Michael W. Deem and Ramdas Pophale) SiO2 
 PCOD9439364
Probable space group: P B C M
;
_chemical_formula_sum "Si O2"
_cell_formula_units_Z 40
_cell_length_a 6.648695
_cell_length_b 7.739410
_cell_length_c 29.834727
_cell_angle_alpha 90.000000
_cell_angle_beta 90.000000
_cell_angle_gamma 90.000000
_cell_volume 1535.204848
_symmetry_space_group_name_H-M "P B C M"
_symmetry_group_IT_number 57
_symmetry_cell_setting 'orthorhombic'
loop_
_space_group_symop_operation_xyz
x,y,z
-x,-y,1/2+z
x,1/2-y,-z
-x,1/2+y,1/2-z
-x,-y,-z
x,y,1/2-z
-x,1/2+y,z
x,1/2-y,1/2+z
loop_
_atom_site_type_symbol
_atom_site_label
_atom_site_fract_x
_atom_site_fract_y
_atom_site_fract_z
Si Si1 0.436712 0.926129 0.601550
Si Si2 0.592260 0.075199 0.299011
Si Si3 0.847719 0.896060 0.467493
Si Si4 0.827958 0.087898 0.605831
Si Si5 0.823893 0.442222 0.297616
O O1 0.381357 0.003740 0.651158
O O2 0.678152 0.928584 0.595289
O O3 0.329237 0.007234 0.558460
O O4 0.340411 0.737174 0.605807
O O5 0.632076 0.990097 0.250000
O O6 0.348931 0.087782 0.298734
O O7 0.708024 0.257435 0.297598
O O8 0.764085 0.750000 0.500000
O O9 0.004375 0.850219 0.428106
O O10 0.000000 0.000000 0.500000
O O11 0.926522 0.053128 0.654348
O O12 0.932729 0.457979 0.250000
#
# Coordination Sequence:
#
# PCOD9439364 Si02
#       5
#     8   8   8   8   8
#     4  10  22  39  62  89 117 152 192 237 288 346
#     4   8  14  28  52  82 114 146 181 223 275 336
#     4  12  26  44  59  83 116 152 196 249 297 339
#     4  10  22  39  62  90 116 152 194 235 289 346
#     4   8  14  28  52  82 115 146 180 224 275 336
#
# _framework density 26.055154000000002
#
# number of rings (size 3 to 8) (size 9 to 14) (size 15 to 20)
#    0.000    2.400    2.000    0.000    2.800    1.600 
#    0.000    1.000    0.000    0.000    0.000    0.000 
#    0.000    0.000    0.000    0.000    0.000    0.000 
#
# Total GULP energy -223096.500916 kJ/mol
# GULP energy per Si atom -5577.412523 kJ/mol
# Density = 2.599585 g / cm^3
# Si number density = 26.055154 Si / 1000 Ang^3
#
#
#
# Elastic Constant Matrix: (Units=GPa)
#
#
# Indices 1 2 3 4 5 6 
#
# 1 90.2995 15.4492 42.2931 0.0000 0.0000 0.0000
# 2 15.4492 25.1593 15.1037 0.0000 0.0000 0.0000
# 3 42.2931 15.1037 196.7044 0.0000 0.0000 0.0000
# 4 0.0000 0.0000 0.0000 31.9710 0.0000 0.0000
# 5 0.0000 0.0000 0.0000 0.0000 -127.6646 0.0000
# 6 0.0000 0.0000 0.0000 0.0000 0.0000 15.9831
#
#
#
# Elastic Compliance Matrix: (Units=1/GPa)
#
#
# Indices 1 2 3 4 5 6 
#
# 1 0.013333 -0.006779 -0.002346 0.000000 0.000000 0.000000
# 2 -0.006779 0.045114 -0.002007 0.000000 0.000000 0.000000
# 3 -0.002346 -0.002007 0.005742 0.000000 0.000000 0.000000
# 4 0.000000 0.000000 0.000000 0.031278 0.000000 0.000000
# 5 0.000000 0.000000 0.000000 0.000000 -0.007833 0.000000
# 6 0.000000 0.000000 0.000000 0.000000 0.000000 0.062566
#
#
# Mechanical properties :
#
#
# Convention : Reuss Voigt Hill
#
# Bulk Modulus (GPa) = 23.85147 50.87281 37.36214
# Shear Modulus (GPa) = 26.81850 0.01237 13.41543
#
# Velocity S-wave (km/s) = 3.21175 0.06899 2.27157
# Velocity P-wave (km/s) = 4.78830 4.42423 4.60986
#
# Compressibility (1/GPa) = 0.04192614
#
# Stress axis : x y z
#
# Youngs Moduli (GPa) = 75.00253 22.16620 174.14649
#
# Poissons Ratio (x) = 0.15026 0.40858
# Poissons Ratio (y) = 0.50842 0.34943
# Poissons Ratio (z) = 0.17597 0.04448
#
# Static dielectric constant tensor:
#      x y z
#    x 2.036880 0.000000 0.000000 
#    y 0.000000 2.153450 0.000000 
#    z 0.000000 0.000000 2.086530 
# 
# From -- ./inp_files/28250.got.cif
#   From: 2010.05.17/outbox.cif.g08.bks.cpg/sg57_15_cif.got.tgz:28250.got - 2010.06.03 13:58:18.
