data_PCOD9439067
_publ_section_title
;
Structure prediction by ZEFSAII (Michael W. Deem and Ramdas Pophale) SiO2 
 PCOD9439067
Probable space group: P B C M
;
_chemical_formula_sum "Si O2"
_cell_formula_units_Z 48
_cell_length_a 8.047911
_cell_length_b 11.449903
_cell_length_c 24.862094
_cell_angle_alpha 90.000000
_cell_angle_beta 90.000000
_cell_angle_gamma 90.000000
_cell_volume 2290.987273
_symmetry_space_group_name_H-M "P B C M"
_symmetry_group_IT_number 57
_symmetry_cell_setting 'orthorhombic'
loop_
_space_group_symop_operation_xyz
x,y,z
-x,-y,1/2+z
x,1/2-y,-z
-x,1/2+y,1/2-z
-x,-y,-z
x,y,1/2-z
-x,1/2+y,z
x,1/2-y,1/2+z
loop_
_atom_site_type_symbol
_atom_site_label
_atom_site_fract_x
_atom_site_fract_y
_atom_site_fract_z
Si Si1 0.089681 0.126072 0.686892
Si Si2 0.730363 0.635982 0.970940
Si Si3 0.288489 0.461562 0.920715
Si Si4 0.239807 0.789648 0.372311
Si Si5 0.089819 0.557336 0.404398
Si Si6 0.597627 0.751586 0.862985
O O1 0.077943 0.107216 0.750000
O O2 0.249927 0.205123 0.672417
O O3 0.921820 0.185808 0.664014
O O4 0.105744 0.005456 0.653601
O O5 0.855950 0.542765 0.946021
O O6 0.623973 0.685212 0.920866
O O7 0.806407 0.750000 0.000000
O O8 0.643869 0.571096 0.020774
O O9 0.266969 0.597178 0.909346
O O10 0.389335 0.389122 0.876314
O O11 0.100827 0.412186 0.915047
O O12 0.201321 0.672355 0.405395
O O13 0.414461 0.775108 0.341782
#
# Coordination Sequence:
#
# PCOD9439067 Si02
#       6
#     8   8   8   8   8   8
#     4  10  23  45  69  91 123 167 214 272 332 386
#     4   9  20  38  63  90 134 175 216 265 307 377
#     4  10  21  40  62  93 134 174 213 258 315 380
#     4  11  24  40  67  95 129 171 215 266 323 388
#     4  10  21  41  64  95 131 169 219 269 321 377
#     4  10  22  42  64  92 134 165 214 270 319 375
#
# _framework density 20.951664000000001
#
# number of rings (size 3 to 8) (size 9 to 14) (size 15 to 20)
#    0.000    2.000    1.667    0.500    7.000    2.667 
#    6.000    0.000    0.000    0.000    0.000    0.000 
#    0.000    0.000    0.000    0.000    0.000    0.000 
#
# Total GULP energy -267880.817828 kJ/mol
# GULP energy per Si atom -5580.850371 kJ/mol
# Density = 2.090398 g / cm^3
# Si number density = 20.951664 Si / 1000 Ang^3
#
#
#
# Elastic Constant Matrix: (Units=GPa)
#
#
# Indices 1 2 3 4 5 6 
#
# 1 93.1758 40.6012 -7.5661 0.0000 0.0000 0.0000
# 2 40.6012 124.9444 44.5539 0.0000 0.0000 0.0000
# 3 -7.5661 44.5539 72.4486 0.0000 0.0000 0.0000
# 4 0.0000 0.0000 0.0000 11.3203 0.0000 0.0000
# 5 0.0000 0.0000 0.0000 0.0000 -0.3163 0.0000
# 6 0.0000 0.0000 0.0000 0.0000 0.0000 6.7123
#
#
#
# Elastic Compliance Matrix: (Units=1/GPa)
#
#
# Indices 1 2 3 4 5 6 
#
# 1 0.014007 -0.006498 0.005459 0.000000 0.000000 0.000000
# 2 -0.006498 0.013267 -0.008837 0.000000 0.000000 0.000000
# 3 0.005459 -0.008837 0.019808 0.000000 0.000000 0.000000
# 4 0.000000 0.000000 0.000000 0.088337 0.000000 0.000000
# 5 0.000000 0.000000 0.000000 0.000000 -3.161898 0.000000
# 6 0.000000 0.000000 0.000000 0.000000 0.000000 0.148981
#
#
# Mechanical properties :
#
#
# Convention : Reuss Voigt Hill
#
# Bulk Modulus (GPa) = 36.59157 49.52742 43.05950
# Shear Modulus (GPa) = -1.75523 17.74192 7.99335
#
# Velocity S-wave (km/s) = -0.91628 2.91314 1.95536
# Velocity P-wave (km/s) = 4.04762 5.91654 5.06896
#
# Compressibility (1/GPa) = 0.02732870
#
# Stress axis : x y z
#
# Youngs Moduli (GPa) = 71.39078 75.37767 50.48548
#
# Poissons Ratio (x) = 0.48984 -0.27561
# Poissons Ratio (y) = 0.46393 0.44615
# Poissons Ratio (z) = -0.38974 0.66613
#
# Static dielectric constant tensor:
#      x y z
#    x 1.782100 0.000000 0.000000 
#    y 0.000000 1.788720 0.000000 
#    z 0.000000 0.000000 1.734770 
# 
# From -- ./inp_files/26710.got.cif
#   From: 2010.05.17/outbox.cif.g08.bks.cpg/sg57_14_cif.got.tgz:26710.got - 2010.06.03 13:58:18.
