data_PCOD9439114
_publ_section_title
;
Structure prediction by ZEFSAII (Michael W. Deem and Ramdas Pophale) SiO2 
 PCOD9439114
Probable space group: P B C M
;
_chemical_formula_sum "Si O2"
_cell_formula_units_Z 64
_cell_length_a 12.773713
_cell_length_b 15.427309
_cell_length_c 16.316481
_cell_angle_alpha 90.000000
_cell_angle_beta 90.000000
_cell_angle_gamma 90.000000
_cell_volume 3215.391298
_symmetry_space_group_name_H-M "P B C M"
_symmetry_group_IT_number 57
_symmetry_cell_setting 'orthorhombic'
loop_
_space_group_symop_operation_xyz
x,y,z
-x,-y,1/2+z
x,1/2-y,-z
-x,1/2+y,1/2-z
-x,-y,-z
x,y,1/2-z
-x,1/2+y,z
x,1/2-y,1/2+z
loop_
_atom_site_type_symbol
_atom_site_label
_atom_site_fract_x
_atom_site_fract_y
_atom_site_fract_z
Si Si1 0.081426 0.643845 0.345303
Si Si2 0.317676 0.186286 0.921479
Si Si3 0.991227 0.028314 0.905834
Si Si4 0.277353 0.744803 0.150910
Si Si5 0.488321 0.297356 0.652816
Si Si6 0.241579 0.553305 0.847506
Si Si7 0.914707 0.719546 0.594189
Si Si8 0.598861 0.950477 0.961960
O O1 0.097209 0.653763 0.250000
O O2 0.062274 0.543633 0.362734
O O3 0.186446 0.683578 0.385231
O O4 0.981236 0.703596 0.365558
O O5 0.413297 0.215167 0.864404
O O6 0.205461 0.203133 0.879838
O O7 0.320811 0.250000 0.000000
O O8 0.335983 0.093063 0.963088
O O9 0.027523 0.127455 0.896310
O O10 0.873794 0.020524 0.871617
O O11 0.000000 0.000000 0.000000
O O12 0.282935 0.735998 0.250000
O O13 0.394235 0.723070 0.122921
O O14 0.246862 0.844008 0.136064
O O15 0.487805 0.317017 0.750000
O O16 0.443637 0.375568 0.598662
O O17 0.260149 0.538669 0.750000
O O18 0.326272 0.508475 0.905668
O O19 0.910573 0.750000 0.500000
O O20 0.500000 0.000000 0.000000
#
# Coordination Sequence:
#
# PCOD9439114 Si02
#       8
#     8   8   8   8   8   8   8   8
#     4  11  24  41  63  93 128 170 222 280 335 399
#     4   9  21  39  60  90 127 162 214 267 325 401
#     4  12  24  39  64  98 134 175 226 278 342 409
#     4   9  20  40  62  89 126 164 215 270 322 389
#     4  10  21  40  65  91 122 169 220 273 336 402
#     4  11  23  41  66  96 131 176 230 279 331 410
#     4  11  22  42  63  92 130 172 216 272 338 404
#     4  11  23  40  61  94 130 169 218 273 339 405
#
# _framework density 19.904264000000001
#
# number of rings (size 3 to 8) (size 9 to 14) (size 15 to 20)
#    0.000    1.500    2.500    2.250    3.500    3.000 
#    0.000    2.500    0.000    0.000    0.000    0.000 
#    0.000    0.000    0.000    0.000    0.000    0.000 
#
# Total GULP energy -357254.515769 kJ/mol
# GULP energy per Si atom -5582.101809 kJ/mol
# Density = 1.985896 g / cm^3
# Si number density = 19.904264 Si / 1000 Ang^3
#
#
#
# Elastic Constant Matrix: (Units=GPa)
#
#
# Indices 1 2 3 4 5 6 
#
# 1 138.6885 42.8349 30.5423 0.0000 0.0000 0.0000
# 2 42.8349 77.5286 14.6000 0.0000 0.0000 0.0000
# 3 30.5423 14.6000 45.1740 0.0000 0.0000 0.0000
# 4 0.0000 0.0000 0.0000 29.9814 0.0000 0.0000
# 5 0.0000 0.0000 0.0000 0.0000 26.2503 0.0000
# 6 0.0000 0.0000 0.0000 0.0000 0.0000 31.5990
#
#
#
# Elastic Compliance Matrix: (Units=1/GPa)
#
#
# Indices 1 2 3 4 5 6 
#
# 1 0.009698 -0.004391 -0.005138 0.000000 0.000000 0.000000
# 2 -0.004391 0.015722 -0.002113 0.000000 0.000000 0.000000
# 3 -0.005138 -0.002113 0.026293 0.000000 0.000000 0.000000
# 4 0.000000 0.000000 0.000000 0.033354 0.000000 0.000000
# 5 0.000000 0.000000 0.000000 0.000000 0.038095 0.000000
# 6 0.000000 0.000000 0.000000 0.000000 0.000000 0.031647
#
#
# Mechanical properties :
#
#
# Convention : Reuss Voigt Hill
#
# Bulk Modulus (GPa) = 35.17306 48.59393 41.88350
# Shear Modulus (GPa) = 26.65699 29.12706 27.89203
#
# Velocity S-wave (km/s) = 3.66356 3.82954 3.74747
# Velocity P-wave (km/s) = 5.96700 6.63480 6.30974
#
# Compressibility (1/GPa) = 0.02843085
#
# Stress axis : x y z
#
# Youngs Moduli (GPa) = 103.11481 63.60441 38.03268
#
# Poissons Ratio (x) = 0.27926 0.19540
# Poissons Ratio (y) = 0.45274 0.08036
# Poissons Ratio (z) = 0.52978 0.13438
#
# Static dielectric constant tensor:
#      x y z
#    x 1.705490 0.000000 0.000000 
#    y 0.000000 1.636690 0.000000 
#    z 0.000000 0.000000 1.299540 
# 
# From -- ./inp_files/22065.got.cif
#   From: 2010.05.17/outbox.cif.g08.bks.cpg/sg57_12_cif.got.tgz:22065.got - 2010.06.03 13:58:18.
