data_PCOD9439890
_publ_section_title
;
Structure prediction by ZEFSAII (Michael W. Deem and Ramdas Pophale) SiO2 
 PCOD9439890
Probable space group: P B C M
;
_chemical_formula_sum "Si O2"
_cell_formula_units_Z 40
_cell_length_a 12.725407
_cell_length_b 15.139768
_cell_length_c 10.175293
_cell_angle_alpha 90.000000
_cell_angle_beta 90.000000
_cell_angle_gamma 90.000000
_cell_volume 1960.368995
_symmetry_space_group_name_H-M "P B C M"
_symmetry_group_IT_number 57
_symmetry_cell_setting 'orthorhombic'
loop_
_space_group_symop_operation_xyz
x,y,z
-x,-y,1/2+z
x,1/2-y,-z
-x,1/2+y,1/2-z
-x,-y,-z
x,y,1/2-z
-x,1/2+y,z
x,1/2-y,1/2+z
loop_
_atom_site_type_symbol
_atom_site_label
_atom_site_fract_x
_atom_site_fract_y
_atom_site_fract_z
Si Si1 0.591849 0.931341 0.250000
Si Si2 0.333869 0.148176 0.016296
Si Si3 0.123711 0.072785 0.098662
Si Si4 0.517393 0.889828 0.750000
Si Si5 0.118447 0.590271 0.402552
Si Si6 0.400574 0.702927 0.750000
Si Si7 0.738008 0.250000 0.000000
O O1 0.652767 0.900149 0.378530
O O2 0.479586 0.879841 0.250000
O O3 0.570015 0.035050 0.250000
O O4 0.215503 0.141600 0.068558
O O5 0.409797 0.102805 0.122043
O O6 0.365317 0.250000 0.000000
O O7 0.133067 0.042778 0.250000
O O8 0.006162 0.110039 0.081840
O O9 0.139249 0.991023 0.000160
O O10 0.468126 0.792799 0.750000
O O11 0.136078 0.565804 0.250000
O O12 0.189725 0.673210 0.439419
O O13 0.331630 0.708198 0.617307
#
# Coordination Sequence:
#
# PCOD9439890 Si02
#       7
#     4   8   8   4   8   4   4
#     4  12  28  44  71  98 134 182 227 282 337 399
#     4  12  24  45  68 102 135 176 226 280 342 401
#     4  10  24  44  73  96 136 174 223 278 338 401
#     4  12  26  48  67  94 134 182 233 280 331 403
#     4  10  24  47  65 103 135 174 225 277 329 409
#     4  12  26  46  64 100 138 180 232 286 334 394
#     4  12  26  40  70  96 140 180 222 272 336 400
#
# _framework density 20.404320999999999
#
# number of rings (size 3 to 8) (size 9 to 14) (size 15 to 20)
#    0.000    0.800    4.000    1.800    9.800    0.000 
#    0.000    0.000    0.000    0.000    0.000    0.000 
#    0.000    0.000    0.000    0.000    0.000    0.000 
#
# Total GULP energy -223831.493354 kJ/mol
# GULP energy per Si atom -5595.787334 kJ/mol
# Density = 2.035788 g / cm^3
# Si number density = 20.404321 Si / 1000 Ang^3
#
#
#
# Elastic Constant Matrix: (Units=GPa)
#
#
# Indices 1 2 3 4 5 6 
#
# 1 60.2650 0.4939 34.2678 0.0000 0.0000 0.0000
# 2 0.4939 21.1064 1.7362 0.0000 0.0000 0.0000
# 3 34.2678 1.7362 147.1296 0.0000 0.0000 0.0000
# 4 0.0000 0.0000 0.0000 -541.5522 0.0000 0.0000
# 5 0.0000 0.0000 0.0000 0.0000 -556.7209 0.0000
# 6 0.0000 0.0000 0.0000 0.0000 0.0000 15.3210
#
#
#
# Elastic Compliance Matrix: (Units=1/GPa)
#
#
# Indices 1 2 3 4 5 6 
#
# 1 0.019127 -0.000081 -0.004454 0.000000 0.000000 0.000000
# 2 -0.000081 0.047425 -0.000541 0.000000 0.000000 0.000000
# 3 -0.004454 -0.000541 0.007840 0.000000 0.000000 0.000000
# 4 0.000000 0.000000 0.000000 -0.001847 0.000000 0.000000
# 5 0.000000 0.000000 0.000000 0.000000 -0.001796 0.000000
# 6 0.000000 0.000000 0.000000 0.000000 0.000000 0.065270
#
#
# Mechanical properties :
#
#
# Convention : Reuss Voigt Hill
#
# Bulk Modulus (GPa) = 15.56641 33.49964 24.53302
# Shear Modulus (GPa) = 29.83566 -203.79022 -86.97728
#
# Velocity S-wave (km/s) = 3.82805 -10.00464 -6.53601
# Velocity P-wave (km/s) = 5.21384 10.81682 6.70147
#
# Compressibility (1/GPa) = 0.06424090
#
# Stress axis : x y z
#
# Youngs Moduli (GPa) = 52.28338 21.08575 127.54397
#
# Poissons Ratio (x) = 0.00171 0.56805
# Poissons Ratio (y) = 0.00425 0.06897
# Poissons Ratio (z) = 0.23286 0.01140
#
# Static dielectric constant tensor:
#      x y z
#    x 1.725240 0.000000 0.000000 
#    y 0.000000 1.675340 0.000000 
#    z 0.000000 0.000000 1.718660 
# 
# From -- ./inp_files/2749.got.cif
#   From: 2010.05.17/outbox.cif.g08.bks.cpg/sg57_2_cif.got.tgz:2749.got - 2010.06.03 13:58:18.
