data_PCOD9439947
_publ_section_title
;
Structure prediction by ZEFSAII (Michael W. Deem and Ramdas Pophale) SiO2 
 PCOD9439947
Probable space group: P B C M
;
_chemical_formula_sum "Si O2"
_cell_formula_units_Z 40
_cell_length_a 5.196258
_cell_length_b 10.852991
_cell_length_c 30.649175
_cell_angle_alpha 90.000000
_cell_angle_beta 90.000000
_cell_angle_gamma 90.000000
_cell_volume 1728.458425
_symmetry_space_group_name_H-M "P B C M"
_symmetry_group_IT_number 57
_symmetry_cell_setting 'orthorhombic'
loop_
_space_group_symop_operation_xyz
x,y,z
-x,-y,1/2+z
x,1/2-y,-z
-x,1/2+y,1/2-z
-x,-y,-z
x,y,1/2-z
-x,1/2+y,z
x,1/2-y,1/2+z
loop_
_atom_site_type_symbol
_atom_site_label
_atom_site_fract_x
_atom_site_fract_y
_atom_site_fract_z
Si Si1 0.246290 0.025068 0.529739
Si Si2 0.877963 0.138506 0.385487
Si Si3 0.098124 0.316276 0.250000
Si Si4 0.266790 0.451239 0.750000
Si Si5 0.354195 0.474768 0.322095
Si Si6 0.376780 0.199639 0.602068
O O1 0.146385 0.948354 0.572265
O O2 0.500000 0.000000 0.500000
O O3 0.320755 0.154032 0.553009
O O4 0.000000 0.000000 0.500000
O O5 0.870899 0.061289 0.340680
O O6 0.614225 0.212071 0.390731
O O7 0.117419 0.229872 0.384878
O O8 0.081445 0.168476 0.250000
O O9 0.254530 0.363518 0.292167
O O10 0.859006 0.411779 0.250000
O O11 0.449401 0.449227 0.792572
O O12 0.453185 0.414667 0.366704
#
# Coordination Sequence:
#
# PCOD9439947 Si02
#       6
#     8   8   4   4   8   8
#     4  11  24  43  66 101 141 180 241 300 367 439
#     4  11  25  43  70 101 139 190 240 299 372 440
#     4  11  26  44  77 104 150 194 252 314 378 455
#     4  11  26  48  71 114 144 200 248 316 382 457
#     4  10  26  45  69 101 148 187 251 305 376 445
#     4  11  25  43  71 100 140 189 240 300 370 442
#
# _framework density 23.142005999999999
#
# number of rings (size 3 to 8) (size 9 to 14) (size 15 to 20)
#    0.000    1.200    0.000    3.600    8.400   11.200 
#    0.000    0.000    0.000    0.000    0.000    0.000 
#    0.000    0.000    0.000    0.000    0.000    0.000 
#
# Total GULP energy -223205.976139 kJ/mol
# GULP energy per Si atom -5580.149403 kJ/mol
# Density = 2.308933 g / cm^3
# Si number density = 23.142006 Si / 1000 Ang^3
#
#
#
# Elastic Constant Matrix: (Units=GPa)
#
#
# Indices 1 2 3 4 5 6 
#
# 1 113.7168 27.7541 31.4138 0.0000 0.0000 0.0000
# 2 27.7541 80.3471 43.9491 0.0000 0.0000 0.0000
# 3 31.4138 43.9491 130.2178 0.0000 0.0000 0.0000
# 4 0.0000 0.0000 0.0000 33.7876 0.0000 0.0000
# 5 0.0000 0.0000 0.0000 0.0000 36.5914 0.0000
# 6 0.0000 0.0000 0.0000 0.0000 0.0000 41.8532
#
#
#
# Elastic Compliance Matrix: (Units=1/GPa)
#
#
# Indices 1 2 3 4 5 6 
#
# 1 0.009838 -0.002576 -0.001504 0.000000 0.000000 0.000000
# 2 -0.002576 0.015938 -0.004758 0.000000 0.000000 0.000000
# 3 -0.001504 -0.004758 0.009648 0.000000 0.000000 0.000000
# 4 0.000000 0.000000 0.000000 0.029597 0.000000 0.000000
# 5 0.000000 0.000000 0.000000 0.000000 0.027329 0.000000
# 6 0.000000 0.000000 0.000000 0.000000 0.000000 0.023893
#
#
# Mechanical properties :
#
#
# Convention : Reuss Voigt Hill
#
# Bulk Modulus (GPa) = 56.34067 58.94619 57.64343
# Shear Modulus (GPa) = 35.75668 37.19075 36.47371
#
# Velocity S-wave (km/s) = 3.93504 4.01317 3.97430
# Velocity P-wave (km/s) = 6.71152 6.85572 6.78400
#
# Compressibility (1/GPa) = 0.01774917
#
# Stress axis : x y z
#
# Youngs Moduli (GPa) = 101.64812 62.74239 103.64764
#
# Poissons Ratio (x) = 0.16160 0.15589
# Poissons Ratio (y) = 0.26180 0.49314
# Poissons Ratio (z) = 0.15288 0.29852
#
# Static dielectric constant tensor:
#      x y z
#    x 1.867330 0.000000 0.000000 
#    y 0.000000 1.934050 0.000000 
#    z 0.000000 0.000000 1.867980 
# 
# From -- ./inp_files/27815.got.cif
#   From: 2010.05.17/outbox.cif.g08.bks.cpg/sg57_14_cif.got.tgz:27815.got - 2010.06.03 13:58:18.
