data_PCOD9439603
_publ_section_title
;
Structure prediction by ZEFSAII (Michael W. Deem and Ramdas Pophale) SiO2 
 PCOD9439603
Probable space group: P B C M
;
_chemical_formula_sum "Si O2"
_cell_formula_units_Z 56
_cell_length_a 5.232565
_cell_length_b 26.665104
_cell_length_c 15.770294
_cell_angle_alpha 90.000000
_cell_angle_beta 90.000000
_cell_angle_gamma 90.000000
_cell_volume 2200.380075
_symmetry_space_group_name_H-M "P B C M"
_symmetry_group_IT_number 57
_symmetry_cell_setting 'orthorhombic'
loop_
_space_group_symop_operation_xyz
x,y,z
-x,-y,1/2+z
x,1/2-y,-z
-x,1/2+y,1/2-z
-x,-y,-z
x,y,1/2-z
-x,1/2+y,z
x,1/2-y,1/2+z
loop_
_atom_site_type_symbol
_atom_site_label
_atom_site_fract_x
_atom_site_fract_y
_atom_site_fract_z
Si Si1 0.232755 0.962391 0.848494
Si Si2 0.267556 0.342186 0.159689
Si Si3 0.430347 0.555602 0.655715
Si Si4 0.230784 0.744732 0.250000
Si Si5 0.911204 0.392217 0.051445
Si Si6 0.270723 0.408048 0.898384
Si Si7 0.733271 0.674418 0.250000
Si Si8 0.647689 0.292402 0.067793
O O1 0.276339 0.949851 0.750000
O O2 0.939934 0.949084 0.866959
O O3 0.441046 0.928753 0.898329
O O4 0.331274 0.018920 0.860789
O O5 0.262632 0.316882 0.250000
O O6 0.473136 0.387135 0.160501
O O7 0.349911 0.303078 0.088828
O O8 0.016189 0.372748 0.141403
O O9 0.328332 0.541843 0.750000
O O10 0.238831 0.557671 0.576330
O O11 0.980620 0.709872 0.250000
O O12 0.244203 0.776516 0.338730
O O13 0.476194 0.707483 0.250000
O O14 0.749386 0.343676 0.025074
O O15 0.152296 0.396705 0.990037
O O16 0.259758 0.361803 0.832853
O O17 0.688269 0.250000 0.000000
#
# Coordination Sequence:
#
# PCOD9439603 Si02
#       8
#     8   8   8   4   8   8   4   8
#     4  11  23  45  72 102 142 189 245 286 343 426
#     4  10  22  43  69  95 139 183 235 292 363 422
#     4   9  22  42  67 101 136 186 238 291 353 414
#     4  12  28  46  78 100 134 186 234 294 358 426
#     4  11  26  41  70  98 144 185 230 302 365 420
#     4  12  26  45  72 104 144 191 231 291 356 424
#     4  12  26  48  70 100 138 180 234 280 354 426
#     4  11  26  45  66 103 138 180 241 298 359 431
#
# _framework density 25.450150000000001
#
# number of rings (size 3 to 8) (size 9 to 14) (size 15 to 20)
#    0.000    1.143    2.143    2.143   12.000    1.714 
#    0.000    0.000    0.000    0.000    0.000    0.000 
#    0.000    0.000    0.000    0.000    0.000    0.000 
#
# Total GULP energy -313196.178321 kJ/mol
# GULP energy per Si atom -5592.788899 kJ/mol
# Density = 2.539222 g / cm^3
# Si number density = 25.450150 Si / 1000 Ang^3
#
#
#
# Elastic Constant Matrix: (Units=GPa)
#
#
# Indices 1 2 3 4 5 6 
#
# 1 73.3926 19.7190 12.1069 0.0000 0.0000 0.0000
# 2 19.7190 102.4804 41.4518 0.0000 0.0000 0.0000
# 3 12.1069 41.4518 118.9221 0.0000 0.0000 0.0000
# 4 0.0000 0.0000 0.0000 36.2602 0.0000 0.0000
# 5 0.0000 0.0000 0.0000 0.0000 37.2391 0.0000
# 6 0.0000 0.0000 0.0000 0.0000 0.0000 47.1971
#
#
#
# Elastic Compliance Matrix: (Units=1/GPa)
#
#
# Indices 1 2 3 4 5 6 
#
# 1 0.014403 -0.002536 -0.000582 0.000000 0.000000 0.000000
# 2 -0.002536 0.011806 -0.003857 0.000000 0.000000 0.000000
# 3 -0.000582 -0.003857 0.009813 0.000000 0.000000 0.000000
# 4 0.000000 0.000000 0.000000 0.027578 0.000000 0.000000
# 5 0.000000 0.000000 0.000000 0.000000 0.026854 0.000000
# 6 0.000000 0.000000 0.000000 0.000000 0.000000 0.021188
#
#
# Mechanical properties :
#
#
# Convention : Reuss Voigt Hill
#
# Bulk Modulus (GPa) = 45.30834 49.03895 47.17364
# Shear Modulus (GPa) = 37.60863 38.90710 38.25786
#
# Velocity S-wave (km/s) = 3.84830 3.91417 3.88138
# Velocity P-wave (km/s) = 6.13085 6.30382 6.21794
#
# Compressibility (1/GPa) = 0.02207099
#
# Stress axis : x y z
#
# Youngs Moduli (GPa) = 69.43131 84.70290 101.91033
#
# Poissons Ratio (x) = 0.21479 0.05935
# Poissons Ratio (y) = 0.17606 0.39306
# Poissons Ratio (z) = 0.04044 0.32670
#
# Static dielectric constant tensor:
#      x y z
#    x 2.076730 0.000000 0.000000 
#    y 0.000000 1.983210 0.000000 
#    z 0.000000 0.000000 2.042130 
# 
# From -- ./inp_files/15298.got.cif
#   From: 2010.05.17/outbox.cif.g08.bks.cpg/sg57_8_cif.got.tgz:15298.got - 2010.06.03 13:58:18.
