data_PCOD9439528
_publ_section_title
;
Structure prediction by ZEFSAII (Michael W. Deem and Ramdas Pophale) SiO2 
 PCOD9439528
Probable space group: P B C M
;
_chemical_formula_sum "Si O2"
_cell_formula_units_Z 48
_cell_length_a 10.010326
_cell_length_b 8.740064
_cell_length_c 26.040940
_cell_angle_alpha 90.000000
_cell_angle_beta 90.000000
_cell_angle_gamma 90.000000
_cell_volume 2278.345014
_symmetry_space_group_name_H-M "P B C M"
_symmetry_group_IT_number 57
_symmetry_cell_setting 'orthorhombic'
loop_
_space_group_symop_operation_xyz
x,y,z
-x,-y,1/2+z
x,1/2-y,-z
-x,1/2+y,1/2-z
-x,-y,-z
x,y,1/2-z
-x,1/2+y,z
x,1/2-y,1/2+z
loop_
_atom_site_type_symbol
_atom_site_label
_atom_site_fract_x
_atom_site_fract_y
_atom_site_fract_z
Si Si1 0.480447 0.167489 0.631068
Si Si2 0.690117 0.392167 0.919830
Si Si3 0.669278 0.560909 0.189228
Si Si4 0.164176 0.076751 0.399688
Si Si5 0.357544 0.071558 0.486951
Si Si6 0.045608 0.721101 0.938866
O O1 0.573351 0.262799 0.589812
O O2 0.399233 0.288254 0.665204
O O3 0.376959 0.041445 0.607769
O O4 0.580394 0.079901 0.669213
O O5 0.724875 0.460019 0.976152
O O6 0.830907 0.307574 0.909363
O O7 0.677752 0.566170 0.250000
O O8 0.810228 0.550185 0.159716
O O9 0.305121 0.059615 0.429347
O O10 0.095154 0.234314 0.413827
O O11 0.070361 0.954886 0.426910
O O12 0.350552 0.250000 0.500000
O O13 0.500000 0.000000 0.500000
O O14 0.040077 0.750000 0.000000
#
# Coordination Sequence:
#
# PCOD9439528 Si02
#       6
#     8   8   8   8   8   8
#     4  10  22  41  70 100 135 171 213 282 345 399
#     4  11  22  40  65  97 134 175 218 264 334 409
#     4  11  23  44  70  98 129 169 225 284 344 394
#     4  12  27  43  65  92 132 182 223 271 327 395
#     4  12  25  38  63  99 136 171 215 270 330 398
#     4  12  26  44  65  95 136 182 220 263 329 410
#
# _framework density 21.067923
#
# number of rings (size 3 to 8) (size 9 to 14) (size 15 to 20)
#    0.000    0.667    3.333    5.500    7.000    0.000 
#    0.000    0.833    0.000    0.000    0.000    0.000 
#    0.000    0.000    0.000    0.000    0.000    0.000 
#
# Total GULP energy -268009.370123 kJ/mol
# GULP energy per Si atom -5583.528544 kJ/mol
# Density = 2.101997 g / cm^3
# Si number density = 21.067923 Si / 1000 Ang^3
#
#
#
# Elastic Constant Matrix: (Units=GPa)
#
#
# Indices 1 2 3 4 5 6 
#
# 1 61.0408 -5.9323 18.8395 0.0000 0.0000 0.0000
# 2 -5.9323 65.9834 15.2091 0.0000 0.0000 0.0000
# 3 18.8395 15.2091 135.9399 0.0000 0.0000 0.0000
# 4 0.0000 0.0000 0.0000 22.4799 0.0000 0.0000
# 5 0.0000 0.0000 0.0000 0.0000 21.5157 0.0000
# 6 0.0000 0.0000 0.0000 0.0000 0.0000 31.8183
#
#
#
# Elastic Compliance Matrix: (Units=1/GPa)
#
#
# Indices 1 2 3 4 5 6 
#
# 1 0.017414 0.002178 -0.002657 0.000000 0.000000 0.000000
# 2 0.002178 0.015829 -0.002073 0.000000 0.000000 0.000000
# 3 -0.002657 -0.002073 0.007956 0.000000 0.000000 0.000000
# 4 0.000000 0.000000 0.000000 0.044484 0.000000 0.000000
# 5 0.000000 0.000000 0.000000 0.000000 0.046478 0.000000
# 6 0.000000 0.000000 0.000000 0.000000 0.000000 0.031428
#
#
# Mechanical properties :
#
#
# Convention : Reuss Voigt Hill
#
# Bulk Modulus (GPa) = 27.70397 35.46630 31.58513
# Shear Modulus (GPa) = 27.66629 30.81931 29.24280
#
# Velocity S-wave (km/s) = 3.62773 3.82888 3.72966
# Velocity P-wave (km/s) = 5.54307 6.03472 5.79412
#
# Compressibility (1/GPa) = 0.03609591
#
# Stress axis : x y z
#
# Youngs Moduli (GPa) = 57.42432 63.17548 125.68601
#
# Poissons Ratio (x) = -0.13760 0.33396
# Poissons Ratio (y) = -0.12508 0.26052
# Poissons Ratio (z) = 0.15258 0.13095
#
# Static dielectric constant tensor:
#      x y z
#    x 1.856480 0.000000 0.000000 
#    y 0.000000 1.807380 0.000000 
#    z 0.000000 0.000000 1.764580 
# 
# From -- ./inp_files/27088.got.cif
#   From: 2010.05.17/outbox.cif.g08.bks.cpg/sg57_14_cif.got.tgz:27088.got - 2010.06.03 13:58:18.
