data_PCOD9439367
_publ_section_title
;
Structure prediction by ZEFSAII (Michael W. Deem and Ramdas Pophale) SiO2 
 PCOD9439367
Probable space group: P B C M
;
_chemical_formula_sum "Si O2"
_cell_formula_units_Z 48
_cell_length_a 11.326385
_cell_length_b 8.615115
_cell_length_c 21.863088
_cell_angle_alpha 90.000000
_cell_angle_beta 90.000000
_cell_angle_gamma 90.000000
_cell_volume 2133.358791
_symmetry_space_group_name_H-M "P B C M"
_symmetry_group_IT_number 57
_symmetry_cell_setting 'orthorhombic'
loop_
_space_group_symop_operation_xyz
x,y,z
-x,-y,1/2+z
x,1/2-y,-z
-x,1/2+y,1/2-z
-x,-y,-z
x,y,1/2-z
-x,1/2+y,z
x,1/2-y,1/2+z
loop_
_atom_site_type_symbol
_atom_site_label
_atom_site_fract_x
_atom_site_fract_y
_atom_site_fract_z
Si Si1 0.042578 0.286618 0.117920
Si Si2 0.892777 0.436432 0.539824
Si Si3 0.859731 0.487928 0.180499
Si Si4 0.321624 0.418590 0.992206
Si Si5 0.522039 0.475635 0.603412
Si Si6 0.380922 0.800453 0.178646
O O1 0.119262 0.427375 0.090813
O O2 0.967178 0.367957 0.171076
O O3 0.117213 0.136562 0.137627
O O4 0.942369 0.218020 0.071584
O O5 0.774638 0.446157 0.499830
O O6 0.000000 0.500000 0.500000
O O7 0.855690 0.544475 0.250000
O O8 0.740881 0.392182 0.168783
O O9 0.408562 0.436904 0.049938
O O10 0.262525 0.250000 0.000000
O O11 0.401579 0.424595 0.931575
O O12 0.600977 0.338548 0.630878
O O13 0.485087 0.582303 0.659994
O O14 0.387171 0.754102 0.250000
#
# Coordination Sequence:
#
# PCOD9439367 Si02
#       6
#     8   8   8   8   8   8
#     4  10  22  39  62  92 129 171 210 268 322 394
#     4  11  23  39  60  95 128 169 211 257 323 394
#     4  10  22  40  64  93 127 171 221 273 326 387
#     4  11  23  40  64  92 130 168 213 267 327 392
#     4  11  24  43  64  94 129 171 216 271 327 391
#     4  11  24  43  67  95 130 173 224 278 328 389
#
# _framework density 22.499732000000002
#
# number of rings (size 3 to 8) (size 9 to 14) (size 15 to 20)
#    0.000    1.333    1.667    3.500    7.000    0.000 
#    3.000    0.000    0.000    8.000    0.000    0.000 
#    0.000    0.000    0.000    0.000    0.000    0.000 
#
# Total GULP energy -268264.866192 kJ/mol
# GULP energy per Si atom -5588.851379 kJ/mol
# Density = 2.244852 g / cm^3
# Si number density = 22.499732 Si / 1000 Ang^3
#
#
#
# Elastic Constant Matrix: (Units=GPa)
#
#
# Indices 1 2 3 4 5 6 
#
# 1 46.8526 -4.0612 19.5062 0.0000 0.0000 0.0000
# 2 -4.0612 88.6415 20.3990 0.0000 0.0000 0.0000
# 3 19.5062 20.3990 92.9792 0.0000 0.0000 0.0000
# 4 0.0000 0.0000 0.0000 30.4250 0.0000 0.0000
# 5 0.0000 0.0000 0.0000 0.0000 33.3551 0.0000
# 6 0.0000 0.0000 0.0000 0.0000 0.0000 34.1371
#
#
#
# Elastic Compliance Matrix: (Units=1/GPa)
#
#
# Indices 1 2 3 4 5 6 
#
# 1 0.023847 0.002363 -0.005521 0.000000 0.000000 0.000000
# 2 0.002363 0.012115 -0.003154 0.000000 0.000000 0.000000
# 3 -0.005521 -0.003154 0.012605 0.000000 0.000000 0.000000
# 4 0.000000 0.000000 0.000000 0.032868 0.000000 0.000000
# 5 0.000000 0.000000 0.000000 0.000000 0.029980 0.000000
# 6 0.000000 0.000000 0.000000 0.000000 0.000000 0.029294
#
#
# Mechanical properties :
#
#
# Convention : Reuss Voigt Hill
#
# Bulk Modulus (GPa) = 27.82114 33.35127 30.58621
# Shear Modulus (GPa) = 30.24528 32.42538 31.33533
#
# Velocity S-wave (km/s) = 3.67038 3.80036 3.73594
# Velocity P-wave (km/s) = 5.50946 5.84056 5.67743
#
# Compressibility (1/GPa) = 0.03594389
#
# Stress axis : x y z
#
# Youngs Moduli (GPa) = 41.93381 82.53917 79.33129
#
# Poissons Ratio (x) = -0.19506 0.43802
# Poissons Ratio (y) = -0.09910 0.25020
# Poissons Ratio (z) = 0.23153 0.26031
#
# Static dielectric constant tensor:
#      x y z
#    x 1.821980 0.000000 0.000000 
#    y 0.000000 1.858130 0.000000 
#    z 0.000000 0.000000 1.845080 
# 
# From -- ./inp_files/27117.got.cif
#   From: 2010.05.17/outbox.cif.g08.bks.cpg/sg57_14_cif.got.tgz:27117.got - 2010.06.03 13:58:18.
