data_PCOD9439060
_publ_section_title
;
Structure prediction by ZEFSAII (Michael W. Deem and Ramdas Pophale) SiO2 
 PCOD9439060
Probable space group: P B C M
;
_chemical_formula_sum "Si O2"
_cell_formula_units_Z 40
_cell_length_a 15.049912
_cell_length_b 8.542058
_cell_length_c 15.427612
_cell_angle_alpha 90.000000
_cell_angle_beta 90.000000
_cell_angle_gamma 90.000000
_cell_volume 1983.330928
_symmetry_space_group_name_H-M "P B C M"
_symmetry_group_IT_number 57
_symmetry_cell_setting 'orthorhombic'
loop_
_space_group_symop_operation_xyz
x,y,z
-x,-y,1/2+z
x,1/2-y,-z
-x,1/2+y,1/2-z
-x,-y,-z
x,y,1/2-z
-x,1/2+y,z
x,1/2-y,1/2+z
loop_
_atom_site_type_symbol
_atom_site_label
_atom_site_fract_x
_atom_site_fract_y
_atom_site_fract_z
Si Si1 0.428988 0.008361 0.348392
Si Si2 0.772555 0.022722 0.150343
Si Si3 0.099805 0.939010 0.002959
Si Si4 0.763341 0.099378 0.649417
Si Si5 0.597348 0.839273 0.409079
O O1 0.438399 0.948048 0.250000
O O2 0.333716 0.951596 0.383059
O O3 0.511442 0.949700 0.404233
O O4 0.423964 0.194618 0.346523
O O5 0.793248 0.979405 0.250000
O O6 0.848712 0.991361 0.080010
O O7 0.762627 0.211638 0.147584
O O8 0.682983 0.936249 0.120669
O O9 0.097171 0.750000 0.000000
O O10 0.159651 0.969732 0.088478
O O11 0.000000 0.000000 0.000000
O O12 0.773391 0.049965 0.750000
O O13 0.610266 0.750000 0.500000
#
# Coordination Sequence:
#
# PCOD9439060 Si02
#       5
#     8   8   8   8   8
#     4  11  22  37  57  84 117 156 196 240 293 355
#     4  10  21  40  62  85 117 159 200 245 300 360
#     4  10  22  39  60  86 116 150 193 246 302 358
#     4   9  20  39  62  86 118 158 201 246 298 357
#     4  12  24  37  57  87 121 157 201 247 298 358
#
# _framework density 20.168092000000001
#
# number of rings (size 3 to 8) (size 9 to 14) (size 15 to 20)
#    0.000    1.600    0.000    4.800    0.000    7.200 
#    0.000    0.000    0.000    0.000    0.000    0.000 
#    0.000    0.000    0.000    0.000    0.000    0.000 
#
# Total GULP energy -223400.027343 kJ/mol
# GULP energy per Si atom -5585.000684 kJ/mol
# Density = 2.012219 g / cm^3
# Si number density = 20.168092 Si / 1000 Ang^3
#
#
#
# Elastic Constant Matrix: (Units=GPa)
#
#
# Indices 1 2 3 4 5 6 
#
# 1 198.0057 45.1305 95.8136 0.0000 0.0000 0.0000
# 2 45.1305 26.1437 29.3776 0.0000 0.0000 0.0000
# 3 95.8136 29.3776 147.0653 0.0000 0.0000 0.0000
# 4 0.0000 0.0000 0.0000 18.4011 0.0000 0.0000
# 5 0.0000 0.0000 0.0000 0.0000 -5.5989 0.0000
# 6 0.0000 0.0000 0.0000 0.0000 0.0000 44.7357
#
#
#
# Elastic Compliance Matrix: (Units=1/GPa)
#
#
# Indices 1 2 3 4 5 6 
#
# 1 0.009779 -0.012535 -0.003867 0.000000 0.000000 0.000000
# 2 -0.012535 0.065390 -0.004896 0.000000 0.000000 0.000000
# 3 -0.003867 -0.004896 0.010297 0.000000 0.000000 0.000000
# 4 0.000000 0.000000 0.000000 0.054345 0.000000 0.000000
# 5 0.000000 0.000000 0.000000 0.000000 -0.178606 0.000000
# 6 0.000000 0.000000 0.000000 0.000000 0.000000 0.022354
#
#
# Mechanical properties :
#
#
# Convention : Reuss Voigt Hill
#
# Bulk Modulus (GPa) = 23.32605 79.09534 51.21070
# Shear Modulus (GPa) = 123.63165 24.90045 74.26605
#
# Velocity S-wave (km/s) = 7.83797 3.51756 6.07482
# Velocity P-wave (km/s) = 9.66967 7.47000 8.64012
#
# Compressibility (1/GPa) = 0.04287053
#
# Stress axis : x y z
#
# Youngs Moduli (GPa) = 102.26496 15.29286 97.11729
#
# Poissons Ratio (x) = 0.19170 0.37553
# Poissons Ratio (y) = 1.28190 0.47544
# Poissons Ratio (z) = 0.39543 0.07487
#
# Static dielectric constant tensor:
#      x y z
#    x 1.673140 0.000000 0.000000 
#    y 0.000000 1.716510 0.000000 
#    z 0.000000 0.000000 1.767380 
# 
# From -- ./inp_files/18196.got.cif
#   From: 2010.05.17/outbox.cif.g08.bks.cpg/sg57_10_cif.got.tgz:18196.got - 2010.06.03 13:58:18.
