data_PCOD9439464
_publ_section_title
;
Structure prediction by ZEFSAII (Michael W. Deem and Ramdas Pophale) SiO2 
 PCOD9439464
Probable space group: P B C M
;
_chemical_formula_sum "Si O2"
_cell_formula_units_Z 48
_cell_length_a 16.048865
_cell_length_b 8.700327
_cell_length_c 14.309634
_cell_angle_alpha 90.000000
_cell_angle_beta 90.000000
_cell_angle_gamma 90.000000
_cell_volume 1998.059540
_symmetry_space_group_name_H-M "P B C M"
_symmetry_group_IT_number 57
_symmetry_cell_setting 'orthorhombic'
loop_
_space_group_symop_operation_xyz
x,y,z
-x,-y,1/2+z
x,1/2-y,-z
-x,1/2+y,1/2-z
-x,-y,-z
x,y,1/2-z
-x,1/2+y,z
x,1/2-y,1/2+z
loop_
_atom_site_type_symbol
_atom_site_label
_atom_site_fract_x
_atom_site_fract_y
_atom_site_fract_z
Si Si1 0.550680 0.863947 0.643274
Si Si2 0.385077 0.799314 0.393679
Si Si3 0.773612 0.337148 0.594515
Si Si4 0.317155 0.138940 0.641773
Si Si5 0.151044 0.332418 0.858719
Si Si6 0.090158 0.468147 0.456897
O O1 0.580191 0.868989 0.750000
O O2 0.454184 0.818818 0.644487
O O3 0.600346 0.717877 0.602755
O O4 0.577412 0.029848 0.607500
O O5 0.377316 0.750000 0.500000
O O6 0.291995 0.775110 0.352661
O O7 0.790055 0.250000 0.500000
O O8 0.718898 0.493087 0.588663
O O9 0.865943 0.406918 0.612237
O O10 0.328177 0.089493 0.750000
O O11 0.244892 0.266997 0.640111
O O12 0.131720 0.375199 0.750000
O O13 0.142293 0.449300 0.945417
O O14 0.095148 0.188900 0.896588
O O15 0.000000 0.500000 0.500000
#
# Coordination Sequence:
#
# PCOD9439464 Si02
#       6
#     8   8   8   8   8   8
#     4  11  23  41  67  95 129 178 230 283 332 392
#     4  11  24  40  58  93 131 171 220 269 330 398
#     4  10  23  40  61  91 131 169 212 268 338 400
#     4   9  20  40  65  90 123 169 219 270 331 390
#     4   9  20  40  64  94 126 166 219 274 332 400
#     4  10  22  40  68  95 129 172 219 274 342 414
#
# _framework density 24.023309000000001
#
# number of rings (size 3 to 8) (size 9 to 14) (size 15 to 20)
#    0.000    2.000    0.000    2.000    7.000    4.667 
#    3.000    0.833    0.000    0.000    0.000    0.000 
#    0.000    0.000    0.000    0.000    0.000    0.000 
#
# Total GULP energy -267443.392557 kJ/mol
# GULP energy per Si atom -5571.737345 kJ/mol
# Density = 2.396863 g / cm^3
# Si number density = 24.023309 Si / 1000 Ang^3
#
#
#
# Elastic Constant Matrix: (Units=GPa)
#
#
# Indices 1 2 3 4 5 6 
#
# 1 116.0268 28.1237 -7.2743 0.0000 0.0000 0.0000
# 2 28.1237 81.2315 14.0376 0.0000 0.0000 0.0000
# 3 -7.2743 14.0376 111.3570 0.0000 0.0000 0.0000
# 4 0.0000 0.0000 0.0000 -107.7262 0.0000 0.0000
# 5 0.0000 0.0000 0.0000 0.0000 35.5538 0.0000
# 6 0.0000 0.0000 0.0000 0.0000 0.0000 28.1164
#
#
#
# Elastic Compliance Matrix: (Units=1/GPa)
#
#
# Indices 1 2 3 4 5 6 
#
# 1 0.009529 -0.003483 0.001062 0.000000 0.000000 0.000000
# 2 -0.003483 0.013857 -0.001974 0.000000 0.000000 0.000000
# 3 0.001062 -0.001974 0.009298 0.000000 0.000000 0.000000
# 4 0.000000 0.000000 0.000000 -0.009283 0.000000 0.000000
# 5 0.000000 0.000000 0.000000 0.000000 0.028126 0.000000
# 6 0.000000 0.000000 0.000000 0.000000 0.000000 0.035566
#
#
# Mechanical properties :
#
#
# Convention : Reuss Voigt Hill
#
# Bulk Modulus (GPa) = 41.85118 42.04323 41.94721
# Shear Modulus (GPa) = 48.14590 9.43736 28.79163
#
# Velocity S-wave (km/s) = 4.48161 1.98417 3.46567
# Velocity P-wave (km/s) = 6.65122 4.77371 5.78908
#
# Compressibility (1/GPa) = 0.02389419
#
# Stress axis : x y z
#
# Youngs Moduli (GPa) = 104.93820 72.16333 107.54584
#
# Poissons Ratio (x) = 0.25132 -0.11416
# Poissons Ratio (y) = 0.36547 0.21233
# Poissons Ratio (z) = -0.11139 0.14248
#
# Static dielectric constant tensor:
#      x y z
#    x 2.016630 0.000000 0.000000 
#    y 0.000000 1.984250 0.000000 
#    z 0.000000 0.000000 1.929810 
# 
# From -- ./inp_files/18938.got.cif
#   From: 2010.05.17/outbox.cif.g08.bks.cpg/sg57_10_cif.got.tgz:18938.got - 2010.06.03 13:58:18.
