data_PCOD9439326
_publ_section_title
;
Structure prediction by ZEFSAII (Michael W. Deem and Ramdas Pophale) SiO2 
 PCOD9439326
Probable space group: P B C M
;
_chemical_formula_sum "Si O2"
_cell_formula_units_Z 64
_cell_length_a 21.773650
_cell_length_b 9.267469
_cell_length_c 14.273525
_cell_angle_alpha 90.000000
_cell_angle_beta 90.000000
_cell_angle_gamma 90.000000
_cell_volume 2880.206456
_symmetry_space_group_name_H-M "P B C M"
_symmetry_group_IT_number 57
_symmetry_cell_setting 'orthorhombic'
loop_
_space_group_symop_operation_xyz
x,y,z
-x,-y,1/2+z
x,1/2-y,-z
-x,1/2+y,1/2-z
-x,-y,-z
x,y,1/2-z
-x,1/2+y,z
x,1/2-y,1/2+z
loop_
_atom_site_type_symbol
_atom_site_label
_atom_site_fract_x
_atom_site_fract_y
_atom_site_fract_z
Si Si1 0.804239 0.826292 0.856933
Si Si2 0.920018 0.130846 0.355254
Si Si3 0.982784 0.866332 0.431975
Si Si4 0.338225 0.398460 0.858124
Si Si5 0.183402 0.027346 0.549007
Si Si6 0.571361 0.378138 0.636971
Si Si7 0.546206 0.798902 0.363367
Si Si8 0.692529 0.397599 0.524872
O O1 0.822893 0.859550 0.750000
O O2 0.729385 0.826490 0.859448
O O3 0.828539 0.671601 0.890650
O O4 0.823194 0.937970 0.938409
O O5 0.901138 0.165834 0.250000
O O6 0.963920 0.261488 0.391173
O O7 0.951453 0.969704 0.355458
O O8 0.861369 0.099835 0.420059
O O9 0.948103 0.750000 0.500000
O O10 0.000000 0.000000 0.500000
O O11 0.349962 0.444917 0.750000
O O12 0.393188 0.292281 0.887644
O O13 0.334190 0.526293 0.932577
O O14 0.255070 0.996713 0.567466
O O15 0.575595 0.374402 0.750000
O O16 0.551780 0.537793 0.605617
O O17 0.517656 0.270928 0.607225
O O18 0.637462 0.355645 0.592742
O O19 0.545427 0.800240 0.250000
O O20 0.726164 0.250000 0.500000
#
# Coordination Sequence:
#
# PCOD9439326 Si02
#       8
#     8   8   8   8   8   8   8   8
#     4   9  18  37  65  94 125 173 227 275 334 399
#     4  11  22  40  70 106 141 184 231 277 335 402
#     4   9  21  41  67  97 137 183 224 277 336 382
#     4   9  19  38  61  82 115 160 214 272 328 387
#     4  10  22  38  64  97 136 171 216 280 330 392
#     4  10  22  39  60  87 120 158 202 260 326 390
#     4   9  19  36  60  87 116 154 203 262 326 390
#     4  11  25  40  57  89 124 167 212 261 326 392
#
# _framework density 22.220628999999999
#
# number of rings (size 3 to 8) (size 9 to 14) (size 15 to 20)
#    0.000    2.250    0.000    1.500    3.500    6.000 
#    0.000    0.000    0.000   16.500    0.000    0.000 
#    0.000    0.000    0.000    0.000    0.000    0.000 
#
# Total GULP energy -357104.914977 kJ/mol
# GULP energy per Si atom -5579.764297 kJ/mol
# Density = 2.217005 g / cm^3
# Si number density = 22.220629 Si / 1000 Ang^3
#
#
#
# Elastic Constant Matrix: (Units=GPa)
#
#
# Indices 1 2 3 4 5 6 
#
# 1 95.8535 31.6433 45.6374 0.0000 0.0000 0.0000
# 2 31.6433 92.0202 22.4377 0.0000 0.0000 0.0000
# 3 45.6374 22.4377 109.6817 0.0000 0.0000 0.0000
# 4 0.0000 0.0000 0.0000 23.0573 0.0000 0.0000
# 5 0.0000 0.0000 0.0000 0.0000 26.1128 0.0000
# 6 0.0000 0.0000 0.0000 0.0000 0.0000 26.2617
#
#
#
# Elastic Compliance Matrix: (Units=1/GPa)
#
#
# Indices 1 2 3 4 5 6 
#
# 1 0.014050 -0.003585 -0.005113 0.000000 0.000000 0.000000
# 2 -0.003585 0.012352 -0.001035 0.000000 0.000000 0.000000
# 3 -0.005113 -0.001035 0.011456 0.000000 0.000000 0.000000
# 4 0.000000 0.000000 0.000000 0.043370 0.000000 0.000000
# 5 0.000000 0.000000 0.000000 0.000000 0.038295 0.000000
# 6 0.000000 0.000000 0.000000 0.000000 0.000000 0.038078
#
#
# Mechanical properties :
#
#
# Convention : Reuss Voigt Hill
#
# Bulk Modulus (GPa) = 54.36800 55.22134 54.79467
# Shear Modulus (GPa) = 27.29255 28.27549 27.78402
#
# Velocity S-wave (km/s) = 3.50845 3.57107 3.53989
# Velocity P-wave (km/s) = 6.39787 6.47369 6.43589
#
# Compressibility (1/GPa) = 0.01839317
#
# Stress axis : x y z
#
# Youngs Moduli (GPa) = 71.17274 80.95618 87.28683
#
# Poissons Ratio (x) = 0.29022 0.44628
# Poissons Ratio (y) = 0.25514 0.09037
# Poissons Ratio (z) = 0.36389 0.08382
#
# Static dielectric constant tensor:
#      x y z
#    x 1.850910 0.000000 0.000000 
#    y 0.000000 1.810710 0.000000 
#    z 0.000000 0.000000 1.880190 
# 
# From -- ./inp_files/19479.got.cif
#   From: 2010.05.17/outbox.cif.g08.bks.cpg/sg57_10_cif.got.tgz:19479.got - 2010.06.03 13:58:18.
