data_PCOD9439423
_publ_section_title
;
Structure prediction by ZEFSAII (Michael W. Deem and Ramdas Pophale) SiO2 
 PCOD9439423
Probable space group: P B C M
;
_chemical_formula_sum "Si O2"
_cell_formula_units_Z 32
_cell_length_a 5.732284
_cell_length_b 9.656569
_cell_length_c 21.900484
_cell_angle_alpha 90.000000
_cell_angle_beta 90.000000
_cell_angle_gamma 90.000000
_cell_volume 1212.283683
_symmetry_space_group_name_H-M "P B C M"
_symmetry_group_IT_number 57
_symmetry_cell_setting 'orthorhombic'
loop_
_space_group_symop_operation_xyz
x,y,z
-x,-y,1/2+z
x,1/2-y,-z
-x,1/2+y,1/2-z
-x,-y,-z
x,y,1/2-z
-x,1/2+y,z
x,1/2-y,1/2+z
loop_
_atom_site_type_symbol
_atom_site_label
_atom_site_fract_x
_atom_site_fract_y
_atom_site_fract_z
Si Si1 0.270568 0.915585 0.553505
Si Si2 0.647660 0.926293 0.648359
Si Si3 0.074450 0.640050 0.921938
Si Si4 0.905813 0.751549 0.750000
Si Si5 0.281347 0.966081 0.750000
O O1 0.513931 0.882269 0.586107
O O2 0.086742 0.804926 0.582521
O O3 0.237956 0.892369 0.481391
O O4 0.174435 0.069626 0.565777
O O5 0.771146 0.811042 0.690315
O O6 0.812136 0.055338 0.632684
O O7 0.438970 0.980256 0.690839
O O8 0.904272 0.587923 0.750000
O O9 0.158655 0.818569 0.750000
#
# Coordination Sequence:
#
# PCOD9439423 Si02
#       5
#     8   8   8   4   4
#     4  10  22  40  63  93 127 161 199 246 300 359
#     4  11  23  40  66  90 119 161 208 250 298 361
#     4  10  22  40  63  93 127 161 199 246 300 359
#     4  11  26  44  63  89 121 159 205 257 308 358
#     4  11  26  44  63  89 121 159 205 257 308 358
#
# _framework density 26.396464000000002
#
# number of rings (size 3 to 8) (size 9 to 14) (size 15 to 20)
#    0.000    1.500    0.000    3.750    0.000   14.000 
#    0.000    5.000    0.000    0.000    0.000    0.000 
#    0.000    0.000    0.000    0.000    0.000    0.000 
#
# Total GULP energy -179359.261899 kJ/mol
# GULP energy per Si atom -5604.976934 kJ/mol
# Density = 2.633638 g / cm^3
# Si number density = 26.396464 Si / 1000 Ang^3
#
#
#
# Elastic Constant Matrix: (Units=GPa)
#
#
# Indices 1 2 3 4 5 6 
#
# 1 44.5319 -15.6529 35.9121 0.0000 0.0000 0.0000
# 2 -15.6529 84.3248 -14.1447 0.0000 0.0000 0.0000
# 3 35.9121 -14.1447 107.7727 0.0000 0.0000 0.0000
# 4 0.0000 0.0000 0.0000 23.7097 0.0000 0.0000
# 5 0.0000 0.0000 0.0000 0.0000 62.6835 0.0000
# 6 0.0000 0.0000 0.0000 0.0000 0.0000 34.0527
#
#
#
# Elastic Compliance Matrix: (Units=1/GPa)
#
#
# Indices 1 2 3 4 5 6 
#
# 1 0.032140 0.004263 -0.010150 0.000000 0.000000 0.000000
# 2 0.004263 0.012691 0.000245 0.000000 0.000000 0.000000
# 3 -0.010150 0.000245 0.012693 0.000000 0.000000 0.000000
# 4 0.000000 0.000000 0.000000 0.042177 0.000000 0.000000
# 5 0.000000 0.000000 0.000000 0.000000 0.015953 0.000000
# 6 0.000000 0.000000 0.000000 0.000000 0.000000 0.029366
#
#
# Mechanical properties :
#
#
# Convention : Reuss Voigt Hill
#
# Bulk Modulus (GPa) = 21.62579 27.65093 24.63836
# Shear Modulus (GPa) = 29.11756 39.45684 34.28720
#
# Velocity S-wave (km/s) = 3.32488 3.87043 3.60798
# Velocity P-wave (km/s) = 4.79064 5.52011 5.16826
#
# Compressibility (1/GPa) = 0.04624108
#
# Stress axis : x y z
#
# Youngs Moduli (GPa) = 31.11405 78.79349 78.78250
#
# Poissons Ratio (x) = -0.33593 0.79965
# Poissons Ratio (y) = -0.13265 -0.01930
# Poissons Ratio (z) = 0.31581 -0.01931
#
# Static dielectric constant tensor:
#      x y z
#    x 2.035220 0.000000 0.000000 
#    y 0.000000 2.010930 0.000000 
#    z 0.000000 0.000000 2.094800 
# 
# From -- ./inp_files/23337.got.cif
#   From: 2010.05.17/outbox.cif.g08.bks.cpg/sg57_12_cif.got.tgz:23337.got - 2010.06.03 13:58:18.
