data_PCOD9439590
_publ_section_title
;
Structure prediction by ZEFSAII (Michael W. Deem and Ramdas Pophale) SiO2 
 PCOD9439590
Probable space group: P B C M
;
_chemical_formula_sum "Si O2"
_cell_formula_units_Z 44
_cell_length_a 7.831639
_cell_length_b 13.746635
_cell_length_c 19.893780
_cell_angle_alpha 90.000000
_cell_angle_beta 90.000000
_cell_angle_gamma 90.000000
_cell_volume 2141.738150
_symmetry_space_group_name_H-M "P B C M"
_symmetry_group_IT_number 57
_symmetry_cell_setting 'orthorhombic'
loop_
_space_group_symop_operation_xyz
x,y,z
-x,-y,1/2+z
x,1/2-y,-z
-x,1/2+y,1/2-z
-x,-y,-z
x,y,1/2-z
-x,1/2+y,z
x,1/2-y,1/2+z
loop_
_atom_site_type_symbol
_atom_site_label
_atom_site_fract_x
_atom_site_fract_y
_atom_site_fract_z
Si Si1 0.208373 0.918861 0.250000
Si Si2 0.812391 0.136330 0.382766
Si Si3 0.952679 0.870828 0.750000
Si Si4 0.976879 0.113155 0.517540
Si Si5 0.342435 0.839718 0.388195
Si Si6 0.709086 0.587487 0.606323
Si Si7 0.174023 0.163588 0.750000
O O1 0.309490 0.888676 0.316142
O O2 0.026990 0.863123 0.250000
O O3 0.155562 0.030947 0.250000
O O4 0.936025 0.161148 0.445896
O O5 0.676303 0.223464 0.379666
O O6 0.925684 0.132609 0.315484
O O7 0.731054 0.029881 0.394990
O O8 0.825875 0.779685 0.750000
O O9 0.811304 0.126976 0.563790
O O10 0.146081 0.135932 0.559623
O O11 0.000000 0.000000 0.500000
O O12 0.523397 0.875951 0.414699
O O13 0.744350 0.620400 0.682853
#
# Coordination Sequence:
#
# PCOD9439590 Si02
#       7
#     4   8   4   8   8   8   4
#     4  12  21  40  67  98 132 172 216 269 326 385
#     4  11  22  41  67  95 131 178 215 270 337 390
#     4  12  22  40  74  94 128 176 222 266 336 388
#     4  10  22  43  66  93 130 177 216 267 334 392
#     4  12  24  42  67 100 134 172 223 278 324 390
#     4  11  24  43  68  96 137 170 222 273 328 395
#     4  12  21  42  67  98 126 178 218 263 324 397
#
# _framework density 20.544060999999999
#
# number of rings (size 3 to 8) (size 9 to 14) (size 15 to 20)
#    0.000    0.727    5.455    2.182    0.000    4.364 
#    0.000   12.727    0.000    0.000    0.000    0.000 
#    0.000    0.000    0.000    0.000    0.000    0.000 
#
# Total GULP energy -246080.640047 kJ/mol
# GULP energy per Si atom -5592.741819 kJ/mol
# Density = 2.049730 g / cm^3
# Si number density = 20.544061 Si / 1000 Ang^3
#
#
#
# Elastic Constant Matrix: (Units=GPa)
#
#
# Indices 1 2 3 4 5 6 
#
# 1 160.5441 55.5728 60.6777 0.0000 0.0000 0.0000
# 2 55.5728 147.1663 38.9864 0.0000 0.0000 0.0000
# 3 60.6777 38.9864 137.6071 0.0000 0.0000 0.0000
# 4 0.0000 0.0000 0.0000 12.9537 0.0000 0.0000
# 5 0.0000 0.0000 0.0000 0.0000 -12.1003 0.0000
# 6 0.0000 0.0000 0.0000 0.0000 0.0000 2.0773
#
#
#
# Elastic Compliance Matrix: (Units=1/GPa)
#
#
# Indices 1 2 3 4 5 6 
#
# 1 0.008132 -0.002293 -0.002936 0.000000 0.000000 0.000000
# 2 -0.002293 0.007993 -0.001253 0.000000 0.000000 0.000000
# 3 -0.002936 -0.001253 0.008917 0.000000 0.000000 0.000000
# 4 0.000000 0.000000 0.000000 0.077198 0.000000 0.000000
# 5 0.000000 0.000000 0.000000 0.000000 -0.082642 0.000000
# 6 0.000000 0.000000 0.000000 0.000000 0.000000 0.481401
#
#
# Mechanical properties :
#
#
# Convention : Reuss Voigt Hill
#
# Bulk Modulus (GPa) = 82.80395 83.97683 83.39039
# Shear Modulus (GPa) = 9.65269 19.92483 14.78876
#
# Velocity S-wave (km/s) = 2.16996 3.11763 2.68592
# Velocity P-wave (km/s) = 6.83164 7.34334 7.09211
#
# Compressibility (1/GPa) = 0.01207672
#
# Stress axis : x y z
#
# Youngs Moduli (GPa) = 122.96582 125.10967 112.14617
#
# Poissons Ratio (x) = 0.28688 0.32929
# Poissons Ratio (y) = 0.28197 0.14057
# Poissons Ratio (z) = 0.36106 0.15682
#
# Static dielectric constant tensor:
#      x y z
#    x 1.702430 0.000000 0.000000 
#    y 0.000000 1.768840 0.000000 
#    z 0.000000 0.000000 1.731790 
# 
# From -- ./inp_files/20866.got.cif
#   From: 2010.05.17/outbox.cif.g08.bks.cpg/sg57_11_cif.got.tgz:20866.got - 2010.06.03 13:58:18.
