data_PCOD9439268
_publ_section_title
;
Structure prediction by ZEFSAII (Michael W. Deem and Ramdas Pophale) SiO2 
 PCOD9439268
Probable space group: P B C M
;
_chemical_formula_sum "Si O2"
_cell_formula_units_Z 52
_cell_length_a 20.851431
_cell_length_b 7.613416
_cell_length_c 15.757363
_cell_angle_alpha 90.000000
_cell_angle_beta 90.000000
_cell_angle_gamma 90.000000
_cell_volume 2501.491121
_symmetry_space_group_name_H-M "P B C M"
_symmetry_group_IT_number 57
_symmetry_cell_setting 'orthorhombic'
loop_
_space_group_symop_operation_xyz
x,y,z
-x,-y,1/2+z
x,1/2-y,-z
-x,1/2+y,1/2-z
-x,-y,-z
x,y,1/2-z
-x,1/2+y,z
x,1/2-y,1/2+z
loop_
_atom_site_type_symbol
_atom_site_label
_atom_site_fract_x
_atom_site_fract_y
_atom_site_fract_z
Si Si1 0.592038 0.476738 0.345851
Si Si2 0.098178 0.205397 0.657363
Si Si3 0.117885 0.750000 0.000000
Si Si4 0.973935 0.338079 0.849472
Si Si5 0.349131 0.461047 0.482636
Si Si6 0.792392 0.933835 0.451405
Si Si7 0.446907 0.387879 0.345358
O O1 0.614221 0.429611 0.250000
O O2 0.638053 0.448125 0.426442
O O3 0.522730 0.390231 0.362109
O O4 0.577122 0.686566 0.344765
O O5 0.108860 0.281299 0.750000
O O6 0.165840 0.131426 0.627670
O O7 0.047161 0.337121 0.614861
O O8 0.052841 0.034457 0.655635
O O9 0.073307 0.752261 0.083403
O O10 0.163722 0.579629 0.003793
O O11 0.971603 0.275682 0.750000
O O12 0.349991 0.250000 0.500000
O O13 0.279875 0.502967 0.442909
O O14 0.406467 0.490250 0.416052
O O15 0.787354 0.750000 0.500000
O O16 0.437680 0.460861 0.250000
#
# Coordination Sequence:
#
# PCOD9439268 Si02
#       7
#     8   8   4   8   8   8   8
#     4   9  17  31  51  75 103 131 168 215 257 301
#     4   9  19  34  54  80 108 137 175 224 271 320
#     4  10  22  38  56  78 110 144 172 226 274 308
#     4   9  19  34  54  81 107 134 175 222 272 319
#     4   9  18  34  50  71 103 138 170 209 253 310
#     4  10  22  37  54  77 108 144 185 214 263 329
#     4   9  17  30  51  76 101 131 168 212 259 302
#
# _framework density 20.787600999999999
#
# number of rings (size 3 to 8) (size 9 to 14) (size 15 to 20)
#    0.000    2.769    0.000    0.462    3.231    1.846 
#    2.769    3.077    0.000    0.000    0.000    0.000 
#    0.000    0.000    0.000    0.000    0.000    0.000 
#
# Total GULP energy -289476.687828 kJ/mol
# GULP energy per Si atom -5566.859381 kJ/mol
# Density = 2.074029 g / cm^3
# Si number density = 20.787601 Si / 1000 Ang^3
#
#
#
# Elastic Constant Matrix: (Units=GPa)
#
#
# Indices 1 2 3 4 5 6 
#
# 1 110.2881 2.0353 51.1837 0.0000 0.0000 0.0000
# 2 2.0353 28.6760 4.7425 0.0000 0.0000 0.0000
# 3 51.1837 4.7425 59.2151 0.0000 0.0000 0.0000
# 4 0.0000 0.0000 0.0000 7.2447 0.0000 0.0000
# 5 0.0000 0.0000 0.0000 0.0000 -3.0934 0.0000
# 6 0.0000 0.0000 0.0000 0.0000 0.0000 26.3252
#
#
#
# Elastic Compliance Matrix: (Units=1/GPa)
#
#
# Indices 1 2 3 4 5 6 
#
# 1 0.015175 0.001107 -0.013206 0.000000 0.000000 0.000000
# 2 0.001107 0.035421 -0.003794 0.000000 0.000000 0.000000
# 3 -0.013206 -0.003794 0.028606 0.000000 0.000000 0.000000
# 4 0.000000 0.000000 0.000000 0.138032 0.000000 0.000000
# 5 0.000000 0.000000 0.000000 0.000000 -0.323271 0.000000
# 6 0.000000 0.000000 0.000000 0.000000 0.000000 0.037986
#
#
# Mechanical properties :
#
#
# Convention : Reuss Voigt Hill
#
# Bulk Modulus (GPa) = 21.08917 34.90024 27.99470
# Shear Modulus (GPa) = -244.39730 15.44315 -114.47707
#
# Velocity S-wave (km/s) = -10.85468 2.72858 -7.42896
# Velocity P-wave (km/s) = 12.12153 5.17226 7.75175
#
# Compressibility (1/GPa) = 0.04741771
#
# Stress axis : x y z
#
# Youngs Moduli (GPa) = 65.89594 28.23165 34.95752
#
# Poissons Ratio (x) = -0.03125 0.46164
# Poissons Ratio (y) = -0.07294 0.13262
# Poissons Ratio (z) = 0.87021 0.10710
#
# Static dielectric constant tensor:
#      x y z
#    x 1.778450 0.000000 0.000000 
#    y 0.000000 1.761440 0.000000 
#    z 0.000000 0.000000 1.783300 
# 
# From -- ./inp_files/19293.got.cif
#   From: 2010.05.17/outbox.cif.g08.bks.cpg/sg57_10_cif.got.tgz:19293.got - 2010.06.03 13:58:18.
