data_PCOD9439821
_publ_section_title
;
Structure prediction by ZEFSAII (Michael W. Deem and Ramdas Pophale) SiO2 
 PCOD9439821
Probable space group: P B C M
;
_chemical_formula_sum "Si O2"
_cell_formula_units_Z 64
_cell_length_a 23.170424
_cell_length_b 10.284442
_cell_length_c 15.341909
_cell_angle_alpha 90.000000
_cell_angle_beta 90.000000
_cell_angle_gamma 90.000000
_cell_volume 3655.898391
_symmetry_space_group_name_H-M "P B C M"
_symmetry_group_IT_number 57
_symmetry_cell_setting 'orthorhombic'
loop_
_space_group_symop_operation_xyz
x,y,z
-x,-y,1/2+z
x,1/2-y,-z
-x,1/2+y,1/2-z
-x,-y,-z
x,y,1/2-z
-x,1/2+y,z
x,1/2-y,1/2+z
loop_
_atom_site_type_symbol
_atom_site_label
_atom_site_fract_x
_atom_site_fract_y
_atom_site_fract_z
Si Si1 0.856208 0.593303 0.500000
Si Si2 0.946716 0.903459 0.147270
Si Si3 0.946716 0.903457 0.852730
Si Si4 0.437395 0.250000 0.101652
Si Si5 0.724448 0.592683 0.500000
Si Si6 0.570847 0.250000 0.144875
Si Si7 0.638332 0.508586 0.850595
Si Si8 0.361668 0.008586 0.149405
O O1 0.852326 0.750000 0.500000
O O2 0.893603 0.559023 0.585167
O O3 0.893604 0.559023 0.414833
O O4 0.790618 0.545657 0.500000
O O5 0.932575 0.914404 0.250000
O O6 0.960872 0.750001 0.130646
O O7 1.000000 0.000001 0.129282
O O8 0.932575 0.914403 0.750000
O O9 0.506086 0.250000 0.109719
O O10 0.408708 0.376507 0.143609
O O11 0.408708 0.123493 0.143609
O O12 0.421279 0.250000 0.000000
O O13 0.723538 0.750000 0.500000
O O14 0.690075 0.544481 0.584982
O O15 0.690075 0.544481 0.415018
O O16 0.565893 0.250001 0.250000
O O17 0.606310 0.377708 0.119809
O O18 0.606310 0.122292 0.119810
O O19 0.657012 0.494608 0.750000
O O20 0.342988 0.994608 0.250000
#
# Coordination Sequence:
#
# PCOD9439821 Si02
#       8
#     8   8   8   8   8   8   8   8
#     4   9  19  33  53  78 113 139 181 228 254 307
#     4   9  17  31  54  83 112 143 175 214 265 311
#     4   9  17  31  54  83 112 143 175 214 265 311
#     4  12  22  36  58  87 109 134 175 221 277 337
#     4  11  22  38  55  84 106 141 194 227 265 316
#     4  10  24  38  56  82 106 139 177 218 280 341
#     4  11  22  39  58  78 108 141 178 225 273 325
#     4  11  22  39  58  78 108 141 178 225 273 325
#
# _framework density 17.505956000000001
#
# number of rings (size 3 to 8) (size 9 to 14) (size 15 to 20)
#    0.000    1.750    2.500    2.250    1.750    4.000 
#    0.000    2.500    5.500    0.000    0.000    0.000 
#    0.000    0.000    0.000    0.000    0.000    0.000 
#
# Total GULP energy -357255.907322 kJ/mol
# GULP energy per Si atom -5582.123552 kJ/mol
# Density = 1.746611 g / cm^3
# Si number density = 17.505956 Si / 1000 Ang^3
#
#
#
# Elastic Constant Matrix: (Units=GPa)
#
#
# Indices 1 2 3 4 5 6 
#
# 1 169.4026 62.4560 78.9205 0.0000 0.0000 0.0000
# 2 62.4560 107.7651 30.4083 0.0000 0.0000 0.0000
# 3 78.9205 30.4083 93.7420 0.0000 0.0000 0.0000
# 4 0.0000 0.0000 0.0000 23.2662 0.0000 0.0000
# 5 0.0000 0.0000 0.0000 0.0000 4.7621 0.0000
# 6 0.0000 0.0000 0.0000 0.0000 0.0000 16.9426
#
#
#
# Elastic Compliance Matrix: (Units=1/GPa)
#
#
# Indices 1 2 3 4 5 6 
#
# 1 0.011225 -0.004226 -0.008080 0.000000 0.000000 0.000000
# 2 -0.004226 0.011805 -0.000272 0.000000 0.000000 0.000000
# 3 -0.008080 -0.000272 0.017558 0.000000 0.000000 0.000000
# 4 0.000000 0.000000 0.000000 0.042981 0.000000 0.000000
# 5 0.000000 0.000000 0.000000 0.000000 0.209992 0.000000
# 6 0.000000 0.000000 0.000000 0.000000 0.000000 0.059023
#
#
# Mechanical properties :
#
#
# Convention : Reuss Voigt Hill
#
# Bulk Modulus (GPa) = 64.79217 79.38661 72.08939
# Shear Modulus (GPa) = 13.05881 22.26916 17.66399
#
# Velocity S-wave (km/s) = 2.73420 3.57051 3.17997
# Velocity P-wave (km/s) = 6.86000 7.90220 7.39947
#
# Compressibility (1/GPa) = 0.01543396
#
# Stress axis : x y z
#
# Youngs Moduli (GPa) = 89.08570 84.70841 56.95457
#
# Poissons Ratio (x) = 0.35796 0.46017
# Poissons Ratio (y) = 0.37646 0.01548
# Poissons Ratio (z) = 0.71977 0.02302
#
# Static dielectric constant tensor:
#      x y z
#    x 1.561780 0.000000 0.000000 
#    y 0.000000 1.592860 0.000000 
#    z 0.000000 0.000000 1.611480 
# 
# From -- ./inp_files/19488.got.cif
#   From: 2010.05.17/outbox.cif.g08.bks.cpg/sg57_10_cif.got.tgz:19488.got - 2010.06.03 13:58:18.
