data_PCOD9439426
_publ_section_title
;
Structure prediction by ZEFSAII (Michael W. Deem and Ramdas Pophale) SiO2 
 PCOD9439426
Probable space group: P B C M
;
_chemical_formula_sum "Si O2"
_cell_formula_units_Z 28
_cell_length_a 5.290658
_cell_length_b 12.011226
_cell_length_c 19.920556
_cell_angle_alpha 90.000000
_cell_angle_beta 90.000000
_cell_angle_gamma 90.000000
_cell_volume 1265.897328
_symmetry_space_group_name_H-M "P B C M"
_symmetry_group_IT_number 57
_symmetry_cell_setting 'orthorhombic'
loop_
_space_group_symop_operation_xyz
x,y,z
-x,-y,1/2+z
x,1/2-y,-z
-x,1/2+y,1/2-z
-x,-y,-z
x,y,1/2-z
-x,1/2+y,z
x,1/2-y,1/2+z
loop_
_atom_site_type_symbol
_atom_site_label
_atom_site_fract_x
_atom_site_fract_y
_atom_site_fract_z
Si Si1 0.646424 0.345817 0.629446
Si Si2 0.125413 0.266100 0.175184
Si Si3 0.821427 0.560328 0.556394
Si Si4 0.480200 0.750000 0.000000
O O1 0.378166 0.305712 0.658540
O O2 0.664095 0.468241 0.598174
O O3 0.685334 0.268918 0.564268
O O4 0.885863 0.316450 0.674356
O O5 0.152660 0.314831 0.250000
O O6 0.086647 0.360478 0.118104
O O7 0.651282 0.642883 0.512406
O O8 0.000000 0.500000 0.500000
#
# Coordination Sequence:
#
# PCOD9439426 Si02
#       4
#     8   8   8   4
#     4  11  23  42  66  93 129 174 219 272 337 403
#     4  11  26  44  64  96 137 179 229 282 336 407
#     4  11  22  42  71 102 134 176 225 283 346 403
#     4  10  22  40  64 100 132 162 216 278 334 400
#
# _framework density 22.118696
#
# number of rings (size 3 to 8) (size 9 to 14) (size 15 to 20)
#    0.000    1.143    0.000    6.857    0.000   10.286 
#    0.000    0.000    0.000    0.000    0.000    0.000 
#    0.000    0.000    0.000    0.000    0.000    0.000 
#
# Total GULP energy -156168.646355 kJ/mol
# GULP energy per Si atom -5577.451656 kJ/mol
# Density = 2.206835 g / cm^3
# Si number density = 22.118696 Si / 1000 Ang^3
#
#
#
# Elastic Constant Matrix: (Units=GPa)
#
#
# Indices 1 2 3 4 5 6 
#
# 1 67.3713 66.6815 53.7016 0.0000 0.0000 0.0000
# 2 66.6815 137.6191 50.2003 0.0000 0.0000 0.0000
# 3 53.7016 50.2003 163.3021 0.0000 0.0000 0.0000
# 4 0.0000 0.0000 0.0000 26.3833 0.0000 0.0000
# 5 0.0000 0.0000 0.0000 0.0000 108.2159 0.0000
# 6 0.0000 0.0000 0.0000 0.0000 0.0000 -62.1076
#
#
#
# Elastic Compliance Matrix: (Units=1/GPa)
#
#
# Indices 1 2 3 4 5 6 
#
# 1 0.034353 -0.014106 -0.006961 0.000000 0.000000 0.000000
# 2 -0.014106 0.013977 0.000342 0.000000 0.000000 0.000000
# 3 -0.006961 0.000342 0.008307 0.000000 0.000000 0.000000
# 4 0.000000 0.000000 0.000000 0.037903 0.000000 0.000000
# 5 0.000000 0.000000 0.000000 0.000000 0.009241 0.000000
# 6 0.000000 0.000000 0.000000 0.000000 0.000000 -0.016101
#
#
# Mechanical properties :
#
#
# Convention : Reuss Voigt Hill
#
# Bulk Modulus (GPa) = 65.84145 78.82880 72.33512
# Shear Modulus (GPa) = 37.26014 27.67894 32.46954
#
# Velocity S-wave (km/s) = 4.10878 3.54133 3.83556
# Velocity P-wave (km/s) = 7.23474 7.24139 7.23806
#
# Compressibility (1/GPa) = 0.01518800
#
# Stress axis : x y z
#
# Youngs Moduli (GPa) = 29.10927 71.54814 120.37507
#
# Poissons Ratio (x) = 1.00928 0.83789
# Poissons Ratio (y) = 0.41063 -0.04121
# Poissons Ratio (z) = 0.20262 -0.02449
#
# Static dielectric constant tensor:
#      x y z
#    x 1.859790 0.000000 0.000000 
#    y 0.000000 1.950690 0.000000 
#    z 0.000000 0.000000 3.965730 
# 
# From -- ./inp_files/23291.got.cif
#   From: 2010.05.17/outbox.cif.g08.bks.cpg/sg57_12_cif.got.tgz:23291.got - 2010.06.03 13:58:18.
