data_PCOD9439277
_publ_section_title
;
Structure prediction by ZEFSAII (Michael W. Deem and Ramdas Pophale) SiO2 
 PCOD9439277
Probable space group: P B C M
;
_chemical_formula_sum "Si O2"
_cell_formula_units_Z 56
_cell_length_a 12.991321
_cell_length_b 14.572754
_cell_length_c 14.684414
_cell_angle_alpha 90.000000
_cell_angle_beta 90.000000
_cell_angle_gamma 90.000000
_cell_volume 2780.043347
_symmetry_space_group_name_H-M "P B C M"
_symmetry_group_IT_number 57
_symmetry_cell_setting 'orthorhombic'
loop_
_space_group_symop_operation_xyz
x,y,z
-x,-y,1/2+z
x,1/2-y,-z
-x,1/2+y,1/2-z
-x,-y,-z
x,y,1/2-z
-x,1/2+y,z
x,1/2-y,1/2+z
loop_
_atom_site_type_symbol
_atom_site_label
_atom_site_fract_x
_atom_site_fract_y
_atom_site_fract_z
Si Si1 0.749535 0.967751 0.973471
Si Si2 0.748726 0.176748 0.580561
Si Si3 0.466925 0.106129 0.013374
Si Si4 0.461151 0.739499 0.646026
Si Si5 0.023635 0.778107 0.359477
Si Si6 0.872778 0.931132 0.144160
Si Si7 0.050475 0.417501 0.857284
O O1 0.848144 0.938412 0.914251
O O2 0.725088 0.073008 0.948982
O O3 0.782558 0.961753 0.078610
O O4 0.652687 0.901945 0.959533
O O5 0.741185 0.250000 0.500000
O O6 0.658911 0.210159 0.647430
O O7 0.866562 0.181524 0.612900
O O8 0.524445 0.163897 0.092520
O O9 0.484861 0.164314 0.920524
O O10 0.500000 0.000000 0.000000
O O11 0.499700 0.742424 0.750000
O O12 0.023254 0.779831 0.250000
O O13 0.924575 0.836515 0.387955
O O14 0.007053 0.674226 0.390218
O O15 0.842769 0.925944 0.250000
O O16 0.967328 0.002031 0.135744
O O17 0.076935 0.407403 0.750000
#
# Coordination Sequence:
#
# PCOD9439277 Si02
#       7
#     8   8   8   8   8   8   8
#     4  12  24  40  70  93 130 178 219 270 339 397
#     4  12  22  40  69  97 128 169 227 275 328 400
#     4  11  24  48  67 101 138 170 230 290 338 409
#     4  11  25  46  72  99 134 176 226 287 350 402
#     4  10  22  37  59  92 134 174 214 261 315 390
#     4  10  22  40  59  93 135 170 217 268 317 392
#     4  10  22  39  60  97 137 169 215 264 320 397
#
# _framework density 20.14357
#
# number of rings (size 3 to 8) (size 9 to 14) (size 15 to 20)
#    0.000    1.143    4.286    1.714    2.000    4.571 
#    0.000    5.000    0.000    0.000    0.000    0.000 
#    0.000    0.000    0.000    0.000    0.000    0.000 
#
# Total GULP energy -312820.212916 kJ/mol
# GULP energy per Si atom -5586.075231 kJ/mol
# Density = 2.009772 g / cm^3
# Si number density = 20.143570 Si / 1000 Ang^3
#
#
#
# Elastic Constant Matrix: (Units=GPa)
#
#
# Indices 1 2 3 4 5 6 
#
# 1 62.2189 5.9604 15.2808 0.0000 0.0000 0.0000
# 2 5.9604 71.5365 20.4741 0.0000 0.0000 0.0000
# 3 15.2808 20.4741 85.4684 0.0000 0.0000 0.0000
# 4 0.0000 0.0000 0.0000 8.7614 0.0000 0.0000
# 5 0.0000 0.0000 0.0000 0.0000 -9.6838 0.0000
# 6 0.0000 0.0000 0.0000 0.0000 0.0000 34.8570
#
#
#
# Elastic Compliance Matrix: (Units=1/GPa)
#
#
# Indices 1 2 3 4 5 6 
#
# 1 0.016833 -0.000581 -0.002870 0.000000 0.000000 0.000000
# 2 -0.000581 0.015028 -0.003496 0.000000 0.000000 0.000000
# 3 -0.002870 -0.003496 0.013051 0.000000 0.000000 0.000000
# 4 0.000000 0.000000 0.000000 0.114137 0.000000 0.000000
# 5 0.000000 0.000000 0.000000 0.000000 -0.103266 0.000000
# 6 0.000000 0.000000 0.000000 0.000000 0.000000 0.028689
#
#
# Mechanical properties :
#
#
# Convention : Reuss Voigt Hill
#
# Bulk Modulus (GPa) = 32.24056 33.62826 32.93441
# Shear Modulus (GPa) = 45.99574 18.62081 32.30827
#
# Velocity S-wave (km/s) = 4.78367 3.04370 4.00922
# Velocity P-wave (km/s) = 6.82287 5.39284 6.14956
#
# Compressibility (1/GPa) = 0.03101683
#
# Stress axis : x y z
#
# Youngs Moduli (GPa) = 59.40745 66.54291 76.62302
#
# Poissons Ratio (x) = 0.03866 0.21994
# Poissons Ratio (y) = 0.03452 0.26788
# Poissons Ratio (z) = 0.17052 0.23264
#
# Static dielectric constant tensor:
#      x y z
#    x 1.720020 0.000000 0.000000 
#    y 0.000000 1.717300 0.000000 
#    z 0.000000 0.000000 1.727280 
# 
# From -- ./inp_files/18606.got.cif
#   From: 2010.05.17/outbox.cif.g08.bks.cpg/sg57_10_cif.got.tgz:18606.got - 2010.06.03 13:58:18.
