data_PCOD9439636
_publ_section_title
;
Structure prediction by ZEFSAII (Michael W. Deem and Ramdas Pophale) SiO2 
 PCOD9439636
Probable space group: P B C M
;
_chemical_formula_sum "Si O2"
_cell_formula_units_Z 36
_cell_length_a 4.740315
_cell_length_b 21.213816
_cell_length_c 13.365171
_cell_angle_alpha 90.000000
_cell_angle_beta 90.000000
_cell_angle_gamma 90.000000
_cell_volume 1344.003870
_symmetry_space_group_name_H-M "P B C M"
_symmetry_group_IT_number 57
_symmetry_cell_setting 'orthorhombic'
loop_
_space_group_symop_operation_xyz
x,y,z
-x,-y,1/2+z
x,1/2-y,-z
-x,1/2+y,1/2-z
-x,-y,-z
x,y,1/2-z
-x,1/2+y,z
x,1/2-y,1/2+z
loop_
_atom_site_type_symbol
_atom_site_label
_atom_site_fract_x
_atom_site_fract_y
_atom_site_fract_z
Si Si1 0.918914 0.255749 0.363346
Si Si2 0.386774 0.168744 0.365186
Si Si3 0.312719 0.462875 0.250000
Si Si4 0.295762 0.953576 0.556416
Si Si5 0.154312 0.596893 0.636749
O O1 0.033175 0.255085 0.250000
O O2 0.613999 0.224796 0.365097
O O3 0.884568 0.329488 0.381285
O O4 0.118177 0.203372 0.414066
O O5 0.330734 0.147521 0.250000
O O6 0.528327 0.109937 0.418734
O O7 0.209995 0.514772 0.339689
O O8 0.531995 0.425063 0.165476
O O9 0.075363 0.934236 0.468793
O O10 0.500000 0.000000 0.500000
O O11 0.989438 0.583020 0.750000
#
# Coordination Sequence:
#
# PCOD9439636 Si02
#       5
#     8   8   4   8   8
#     4   9  20  44  74 110 145 193 251 318 384 441
#     4  10  22  44  77 109 148 193 248 317 381 453
#     4  10  24  46  68 102 150 204 252 308 376 468
#     4  12  26  45  71 112 154 205 256 314 390 466
#     4   9  23  45  73 104 150 197 255 319 383 457
#
# _framework density 26.785639
#
# number of rings (size 3 to 8) (size 9 to 14) (size 15 to 20)
#    0.667    1.333    1.111    0.667    1.556    6.222 
#    8.000    2.222    0.000    0.000    2.889    0.000 
#    0.000    0.000    0.000    0.000    0.000    0.000 
#
# Total GULP energy -200496.054138 kJ/mol
# GULP energy per Si atom -5569.334837 kJ/mol
# Density = 2.672467 g / cm^3
# Si number density = 26.785639 Si / 1000 Ang^3
#
#
#
# Elastic Constant Matrix: (Units=GPa)
#
#
# Indices 1 2 3 4 5 6 
#
# 1 120.5740 32.2258 38.4554 0.0000 0.0000 0.0000
# 2 32.2258 149.6741 107.3342 0.0000 0.0000 0.0000
# 3 38.4554 107.3342 219.3348 0.0000 0.0000 0.0000
# 4 0.0000 0.0000 0.0000 60.1501 0.0000 0.0000
# 5 0.0000 0.0000 0.0000 0.0000 74.5785 0.0000
# 6 0.0000 0.0000 0.0000 0.0000 0.0000 -4.1209
#
#
#
# Elastic Compliance Matrix: (Units=1/GPa)
#
#
# Indices 1 2 3 4 5 6 
#
# 1 0.008930 -0.001232 -0.000963 0.000000 0.000000 0.000000
# 2 -0.001232 0.010464 -0.004904 0.000000 0.000000 0.000000
# 3 -0.000963 -0.004904 0.007128 0.000000 0.000000 0.000000
# 4 0.000000 0.000000 0.000000 0.016625 0.000000 0.000000
# 5 0.000000 0.000000 0.000000 0.000000 0.013409 0.000000
# 6 0.000000 0.000000 0.000000 0.000000 0.000000 -0.242663
#
#
# Mechanical properties :
#
#
# Convention : Reuss Voigt Hill
#
# Bulk Modulus (GPa) = 81.14996 93.95707 87.55351
# Shear Modulus (GPa) = -29.79720 46.89269 8.54775
#
# Velocity S-wave (km/s) = -3.33893 4.18863 1.78832
# Velocity P-wave (km/s) = 3.93665 7.65156 6.08456
#
# Compressibility (1/GPa) = 0.01232286
#
# Stress axis : x y z
#
# Youngs Moduli (GPa) = 111.98144 95.56972 140.29107
#
# Poissons Ratio (x) = 0.11778 0.13504
# Poissons Ratio (y) = 0.13801 0.68804
# Poissons Ratio (z) = 0.10779 0.46871
#
# Static dielectric constant tensor:
#      x y z
#    x 2.230870 0.000000 0.000000 
#    y 0.000000 1.989430 0.000000 
#    z 0.000000 0.000000 2.703350 
# 
# From -- ./inp_files/14852.got.cif
#   From: 2010.05.17/outbox.cif.g08.bks.cpg/sg57_8_cif.got.tgz:14852.got - 2010.06.03 13:58:18.
