data_PCOD9439004
_publ_section_title
;
Structure prediction by ZEFSAII (Michael W. Deem and Ramdas Pophale) SiO2 
 PCOD9439004
Probable space group: P B C M
;
_chemical_formula_sum "Si O2"
_cell_formula_units_Z 44
_cell_length_a 8.101421
_cell_length_b 15.011465
_cell_length_c 15.071526
_cell_angle_alpha 90.000000
_cell_angle_beta 90.000000
_cell_angle_gamma 90.000000
_cell_volume 1832.911544
_symmetry_space_group_name_H-M "P B C M"
_symmetry_group_IT_number 57
_symmetry_cell_setting 'orthorhombic'
loop_
_space_group_symop_operation_xyz
x,y,z
-x,-y,1/2+z
x,1/2-y,-z
-x,1/2+y,1/2-z
-x,-y,-z
x,y,1/2-z
-x,1/2+y,z
x,1/2-y,1/2+z
loop_
_atom_site_type_symbol
_atom_site_label
_atom_site_fract_x
_atom_site_fract_y
_atom_site_fract_z
Si Si1 0.493710 0.015523 0.893323
Si Si2 0.916995 0.177915 0.927558
Si Si3 0.155266 0.014426 0.414565
Si Si4 0.922779 0.887044 0.750000
Si Si5 0.219988 0.756111 0.250000
Si Si6 0.719066 0.834853 0.049464
Si Si7 0.513848 0.873016 0.750000
O O1 0.681979 0.023096 0.865953
O O2 0.389169 0.105380 0.884954
O O3 0.447434 0.929803 0.835343
O O4 0.500000 0.000000 0.000000
O O5 0.907338 0.075373 0.961399
O O6 0.813295 0.191304 0.839897
O O7 0.110182 0.197428 0.907399
O O8 0.864008 0.250000 0.000000
O O9 0.044889 0.053882 0.337398
O O10 0.220107 0.096102 0.473587
O O11 0.719162 0.862391 0.750000
O O12 0.065278 0.813670 0.750000
O O13 0.403823 0.715314 0.250000
O O14 0.638660 0.750000 0.000000
#
# Coordination Sequence:
#
# PCOD9439004 Si02
#       7
#     8   8   8   4   4   8   4
#     4   9  21  40  67  97 134 176 238 274 364 412
#     4  11  25  41  63 103 139 177 238 281 348 428
#     4  10  21  41  66  92 135 183 223 289 353 406
#     4  10  21  43  69  93 139 174 233 295 343 404
#     4  12  27  44  69 107 136 183 242 274 365 418
#     4  10  21  39  64  98 132 178 236 278 348 422
#     4  10  24  43  70 104 133 183 233 293 344 430
#
# _framework density 24.005521999999999
#
# number of rings (size 3 to 8) (size 9 to 14) (size 15 to 20)
#    0.000    1.818    0.000    3.273    7.636    1.455 
#    9.818    0.909    0.000    0.000    0.000    0.000 
#    0.000    0.000    0.000    0.000    0.000    0.000 
#
# Total GULP energy -245296.821549 kJ/mol
# GULP energy per Si atom -5574.927762 kJ/mol
# Density = 2.395088 g / cm^3
# Si number density = 24.005522 Si / 1000 Ang^3
#
#
#
# Elastic Constant Matrix: (Units=GPa)
#
#
# Indices 1 2 3 4 5 6 
#
# 1 41.2727 19.1191 -6.3847 0.0000 0.0000 0.0000
# 2 19.1191 141.5062 32.4300 0.0000 0.0000 0.0000
# 3 -6.3847 32.4300 81.1056 0.0000 0.0000 0.0000
# 4 0.0000 0.0000 0.0000 43.1102 0.0000 0.0000
# 5 0.0000 0.0000 0.0000 0.0000 13.9524 0.0000
# 6 0.0000 0.0000 0.0000 0.0000 0.0000 46.7060
#
#
#
# Elastic Compliance Matrix: (Units=1/GPa)
#
#
# Indices 1 2 3 4 5 6 
#
# 1 0.026942 -0.004543 0.003937 0.000000 0.000000 0.000000
# 2 -0.004543 0.008546 -0.003775 0.000000 0.000000 0.000000
# 3 0.003937 -0.003775 0.014149 0.000000 0.000000 0.000000
# 4 0.000000 0.000000 0.000000 0.023196 0.000000 0.000000
# 5 0.000000 0.000000 0.000000 0.000000 0.071672 0.000000
# 6 0.000000 0.000000 0.000000 0.000000 0.000000 0.021411
#
#
# Mechanical properties :
#
#
# Convention : Reuss Voigt Hill
#
# Bulk Modulus (GPa) = 24.46350 39.35702 31.91026
# Shear Modulus (GPa) = 26.55315 35.33506 30.94411
#
# Velocity S-wave (km/s) = 3.32946 3.84077 3.59422
# Velocity P-wave (km/s) = 4.99933 6.00827 5.52687
#
# Compressibility (1/GPa) = 0.04087722
#
# Stress axis : x y z
#
# Youngs Moduli (GPa) = 37.11613 117.01903 70.67736
#
# Poissons Ratio (x) = 0.53157 -0.27828
# Poissons Ratio (y) = 0.16860 0.26678
# Poissons Ratio (z) = -0.14614 0.44169
#
# Static dielectric constant tensor:
#      x y z
#    x 2.009980 0.000000 0.000000 
#    y 0.000000 2.176730 0.000000 
#    z 0.000000 0.000000 1.259150 
# 
# From -- ./inp_files/20853.got.cif
#   From: 2010.05.17/outbox.cif.g08.bks.cpg/sg57_11_cif.got.tgz:20853.got - 2010.06.03 13:58:18.
