data_PCOD9439526
_publ_section_title
;
Structure prediction by ZEFSAII (Michael W. Deem and Ramdas Pophale) SiO2 
 PCOD9439526
Probable space group: P B C M
;
_chemical_formula_sum "Si O2"
_cell_formula_units_Z 52
_cell_length_a 21.008629
_cell_length_b 5.503163
_cell_length_c 20.758137
_cell_angle_alpha 90.000000
_cell_angle_beta 90.000000
_cell_angle_gamma 90.000000
_cell_volume 2399.929379
_symmetry_space_group_name_H-M "P B C M"
_symmetry_group_IT_number 57
_symmetry_cell_setting 'orthorhombic'
loop_
_space_group_symop_operation_xyz
x,y,z
-x,-y,1/2+z
x,1/2-y,-z
-x,1/2+y,1/2-z
-x,-y,-z
x,y,1/2-z
-x,1/2+y,z
x,1/2-y,1/2+z
loop_
_atom_site_type_symbol
_atom_site_label
_atom_site_fract_x
_atom_site_fract_y
_atom_site_fract_z
Si Si1 0.957671 0.693877 0.750000
Si Si2 0.788288 0.350381 0.681728
Si Si3 0.880366 0.541782 0.351152
Si Si4 0.531507 0.134126 0.672201
Si Si5 0.928618 0.494264 0.024413
Si Si6 0.763114 0.772284 0.077066
Si Si7 0.326234 0.031180 0.322928
O O1 0.909375 0.741285 0.690325
O O2 0.995648 0.437616 0.750000
O O3 0.785736 0.498564 0.750000
O O4 0.784541 0.480225 0.612747
O O5 0.851010 0.184749 0.685124
O O6 0.726716 0.177507 0.682963
O O7 0.934997 0.468170 0.399528
O O8 0.821553 0.606265 0.398332
O O9 0.523769 0.142441 0.750000
O O10 0.507813 0.397607 0.648512
O O11 0.605523 0.079935 0.660036
O O12 0.895185 0.250000 0.000000
O O13 0.000000 0.500000 0.000000
O O14 0.900593 0.750000 0.000000
O O15 0.701065 0.699415 0.119955
O O16 0.753680 0.750000 0.000000
O O17 0.332151 0.142673 0.250000
#
# Coordination Sequence:
#
# PCOD9439526 Si02
#       7
#     4   8   8   8   8   8   8
#     4  12  32  48  72 100 132 174 212 274 348 428
#     4  10  22  41  68  93 126 174 219 289 344 409
#     4  11  26  43  66  94 130 161 225 270 346 402
#     4   9  18  32  58  97 141 181 226 282 337 399
#     4  10  24  41  65  89 122 162 205 255 318 392
#     4  11  25  41  67  97 131 179 229 291 341 409
#     4   9  20  38  62  99 133 178 232 281 347 398
#
# _framework density 21.667304000000001
#
# number of rings (size 3 to 8) (size 9 to 14) (size 15 to 20)
#    0.000    1.846    0.769    0.923   15.077    1.846 
#    0.000    0.000    0.000    0.923    0.000    0.000 
#    0.000    0.000    0.000    0.000    0.000    0.000 
#
# Total GULP energy -289653.240368 kJ/mol
# GULP energy per Si atom -5570.254622 kJ/mol
# Density = 2.161799 g / cm^3
# Si number density = 21.667304 Si / 1000 Ang^3
#
#
#
# Elastic Constant Matrix: (Units=GPa)
#
#
# Indices 1 2 3 4 5 6 
#
# 1 68.2029 6.1591 23.3950 0.0000 0.0000 0.0000
# 2 6.1591 96.5792 16.7483 0.0000 0.0000 0.0000
# 3 23.3950 16.7483 136.3812 0.0000 0.0000 0.0000
# 4 0.0000 0.0000 0.0000 25.7993 0.0000 0.0000
# 5 0.0000 0.0000 0.0000 0.0000 21.5363 0.0000
# 6 0.0000 0.0000 0.0000 0.0000 0.0000 21.3476
#
#
#
# Elastic Compliance Matrix: (Units=1/GPa)
#
#
# Indices 1 2 3 4 5 6 
#
# 1 0.015607 -0.000543 -0.002611 0.000000 0.000000 0.000000
# 2 -0.000543 0.010598 -0.001208 0.000000 0.000000 0.000000
# 3 -0.002611 -0.001208 0.007929 0.000000 0.000000 0.000000
# 4 0.000000 0.000000 0.000000 0.038761 0.000000 0.000000
# 5 0.000000 0.000000 0.000000 0.000000 0.046433 0.000000
# 6 0.000000 0.000000 0.000000 0.000000 0.000000 0.046844
#
#
# Mechanical properties :
#
#
# Convention : Reuss Voigt Hill
#
# Bulk Modulus (GPa) = 39.35391 43.75200 41.55295
# Shear Modulus (GPa) = 27.26805 30.72734 28.99769
#
# Velocity S-wave (km/s) = 3.55137 3.76991 3.66227
# Velocity P-wave (km/s) = 5.91764 6.25988 6.09117
#
# Compressibility (1/GPa) = 0.02541044
#
# Stress axis : x y z
#
# Youngs Moduli (GPa) = 64.07542 94.35423 126.12551
#
# Poissons Ratio (x) = 0.05119 0.32926
# Poissons Ratio (y) = 0.03477 0.15242
# Poissons Ratio (z) = 0.16727 0.11402
#
# Static dielectric constant tensor:
#      x y z
#    x 1.793090 0.000000 0.000000 
#    y 0.000000 1.920670 0.000000 
#    z 0.000000 0.000000 1.858780 
# 
# From -- ./inp_files/25738.got.cif
#   From: 2010.05.17/outbox.cif.g08.bks.cpg/sg57_13_cif.got.tgz:25738.got - 2010.06.03 13:58:18.
