data_PCOD9439633
_publ_section_title
;
Structure prediction by ZEFSAII (Michael W. Deem and Ramdas Pophale) SiO2 
 PCOD9439633
Probable space group: P B C M
;
_chemical_formula_sum "Si O2"
_cell_formula_units_Z 44
_cell_length_a 8.657313
_cell_length_b 10.696371
_cell_length_c 20.214383
_cell_angle_alpha 90.000000
_cell_angle_beta 90.000000
_cell_angle_gamma 90.000000
_cell_volume 1871.888893
_symmetry_space_group_name_H-M "P B C M"
_symmetry_group_IT_number 57
_symmetry_cell_setting 'orthorhombic'
loop_
_space_group_symop_operation_xyz
x,y,z
-x,-y,1/2+z
x,1/2-y,-z
-x,1/2+y,1/2-z
-x,-y,-z
x,y,1/2-z
-x,1/2+y,z
x,1/2-y,1/2+z
loop_
_atom_site_type_symbol
_atom_site_label
_atom_site_fract_x
_atom_site_fract_y
_atom_site_fract_z
Si Si1 0.385165 0.672512 0.915365
Si Si2 0.173847 0.139774 0.324843
Si Si3 0.811352 0.344857 0.823982
Si Si4 0.171099 0.016803 0.469418
Si Si5 0.353536 0.402240 0.327201
Si Si6 0.640452 0.750000 0.500000
O O1 0.267077 0.748470 0.871978
O O2 0.285545 0.601498 0.970919
O O3 0.492898 0.582556 0.870847
O O4 0.517959 0.764726 0.941656
O O5 0.210392 0.088482 0.250000
O O6 0.178492 0.054290 0.390928
O O7 0.271996 0.266713 0.334077
O O8 0.993356 0.174640 0.323034
O O9 0.749874 0.323905 0.750000
O O10 0.233182 0.986830 0.842482
O O11 0.252994 0.130410 0.507354
O O12 0.000000 0.000000 0.500000
O O13 0.395775 0.412853 0.250000
#
# Coordination Sequence:
#
# PCOD9439633 Si02
#       6
#     8   8   8   8   8   4
#     4  12  26  45  71 104 141 190 243 300 368 441
#     4  10  24  46  72 104 143 191 245 301 362 436
#     4  10  24  43  71 106 142 185 237 300 364 430
#     4  12  30  47  76 107 148 196 248 304 373 449
#     4  10  22  44  72 104 145 186 239 305 370 438
#     4  12  28  50  68 104 144 190 246 302 366 440
#
# _framework density 23.505669000000001
#
# number of rings (size 3 to 8) (size 9 to 14) (size 15 to 20)
#    0.000    1.091    1.818    2.182   10.182    1.455 
#    0.000    0.000    0.000    0.000    0.000    0.000 
#    0.000    0.000    0.000    0.000    0.000    0.000 
#
# Total GULP energy -245891.305633 kJ/mol
# GULP energy per Si atom -5588.438764 kJ/mol
# Density = 2.345217 g / cm^3
# Si number density = 23.505669 Si / 1000 Ang^3
#
#
#
# Elastic Constant Matrix: (Units=GPa)
#
#
# Indices 1 2 3 4 5 6 
#
# 1 140.6006 39.3923 40.3535 0.0000 0.0000 0.0000
# 2 39.3923 68.0293 28.2343 0.0000 0.0000 0.0000
# 3 40.3535 28.2343 76.6499 0.0000 0.0000 0.0000
# 4 0.0000 0.0000 0.0000 40.2005 0.0000 0.0000
# 5 0.0000 0.0000 0.0000 0.0000 40.4792 0.0000
# 6 0.0000 0.0000 0.0000 0.0000 0.0000 41.6999
#
#
#
# Elastic Compliance Matrix: (Units=1/GPa)
#
#
# Indices 1 2 3 4 5 6 
#
# 1 0.009181 -0.003908 -0.003394 0.000000 0.000000 0.000000
# 2 -0.003908 0.019016 -0.004947 0.000000 0.000000 0.000000
# 3 -0.003394 -0.004947 0.016656 0.000000 0.000000 0.000000
# 4 0.000000 0.000000 0.000000 0.024875 0.000000 0.000000
# 5 0.000000 0.000000 0.000000 0.000000 0.024704 0.000000
# 6 0.000000 0.000000 0.000000 0.000000 0.000000 0.023981
#
#
# Mechanical properties :
#
#
# Convention : Reuss Voigt Hill
#
# Bulk Modulus (GPa) = 49.12987 55.69333 52.41160
# Shear Modulus (GPa) = 33.40108 36.29589 34.84848
#
# Velocity S-wave (km/s) = 3.77368 3.93381 3.85458
# Velocity P-wave (km/s) = 6.31935 6.66169 6.49278
#
# Compressibility (1/GPa) = 0.02035422
#
# Stress axis : x y z
#
# Youngs Moduli (GPa) = 108.91636 52.58855 60.03990
#
# Poissons Ratio (x) = 0.20550 0.20379
# Poissons Ratio (y) = 0.42562 0.29703
# Poissons Ratio (z) = 0.36969 0.26016
#
# Static dielectric constant tensor:
#      x y z
#    x 1.791240 0.000000 0.000000 
#    y 0.000000 1.886960 0.000000 
#    z 0.000000 0.000000 2.033970 
# 
# From -- ./inp_files/26621.got.cif
#   From: 2010.05.17/outbox.cif.g08.bks.cpg/sg57_14_cif.got.tgz:26621.got - 2010.06.03 13:58:18.
