data_PCOD9439822
_publ_section_title
;
Structure prediction by ZEFSAII (Michael W. Deem and Ramdas Pophale) SiO2 
 PCOD9439822
Probable space group: P B C M
;
_chemical_formula_sum "Si O2"
_cell_formula_units_Z 48
_cell_length_a 8.663320
_cell_length_b 7.797456
_cell_length_c 33.512888
_cell_angle_alpha 90.000000
_cell_angle_beta 90.000000
_cell_angle_gamma 90.000000
_cell_volume 2263.857802
_symmetry_space_group_name_H-M "P B C M"
_symmetry_group_IT_number 57
_symmetry_cell_setting 'orthorhombic'
loop_
_space_group_symop_operation_xyz
x,y,z
-x,-y,1/2+z
x,1/2-y,-z
-x,1/2+y,1/2-z
-x,-y,-z
x,y,1/2-z
-x,1/2+y,z
x,1/2-y,1/2+z
loop_
_atom_site_type_symbol
_atom_site_label
_atom_site_fract_x
_atom_site_fract_y
_atom_site_fract_z
Si Si1 0.658364 0.948242 0.336306
Si Si2 0.259704 0.003514 0.750000
Si Si3 0.325516 0.660270 0.638654
Si Si4 0.896567 0.856225 0.839594
Si Si5 0.111293 0.386725 0.028369
Si Si6 0.880965 0.321335 0.915794
Si Si7 0.009298 0.779429 0.750000
O O1 0.646327 0.941441 0.288530
O O2 0.500890 0.896530 0.357685
O O3 0.793616 0.814412 0.346714
O O4 0.686635 0.147621 0.344446
O O5 0.095666 0.106818 0.750000
O O6 0.195365 0.807840 0.750000
O O7 0.215272 0.520752 0.659128
O O8 0.253192 0.687944 0.595142
O O9 0.964498 0.846379 0.794824
O O10 0.020296 0.867108 0.875659
O O11 0.187506 0.517817 0.059764
O O12 0.001597 0.273087 0.056126
O O13 0.199159 0.250000 0.000000
O O14 0.000000 0.500000 0.000000
#
# Coordination Sequence:
#
# PCOD9439822 Si02
#       7
#     8   4   8   8   8   8   4
#     4  11  25  42  59  89 128 182 230 274 330 392
#     4  10  24  41  61  88 128 171 233 295 340 376
#     4  12  24  41  64  90 133 175 223 271 330 396
#     4  11  24  42  62  95 132 177 233 275 331 380
#     4   9  19  35  62 103 134 155 200 271 352 401
#     4  11  20  38  66  97 131 167 215 278 327 394
#     4  10  24  39  61  94 128 175 229 287 326 372
#
# _framework density 21.202745
#
# number of rings (size 3 to 8) (size 9 to 14) (size 15 to 20)
#    0.000    1.333    3.333    2.000    7.000    1.333 
#    0.000    0.833    0.000    0.000    0.000   73.500 
#    0.000    0.000    0.000    0.000    0.000    0.000 
#
# Total GULP energy -267558.401818 kJ/mol
# GULP energy per Si atom -5574.133371 kJ/mol
# Density = 2.115449 g / cm^3
# Si number density = 21.202745 Si / 1000 Ang^3
#
#
#
# Elastic Constant Matrix: (Units=GPa)
#
#
# Indices 1 2 3 4 5 6 
#
# 1 69.7433 19.1795 33.9347 0.0000 0.0000 0.0000
# 2 19.1795 113.6255 32.4660 0.0000 0.0000 0.0000
# 3 33.9347 32.4660 98.7397 0.0000 0.0000 0.0000
# 4 0.0000 0.0000 0.0000 30.3754 0.0000 0.0000
# 5 0.0000 0.0000 0.0000 0.0000 -1.0612 0.0000
# 6 0.0000 0.0000 0.0000 0.0000 0.0000 20.9234
#
#
#
# Elastic Compliance Matrix: (Units=1/GPa)
#
#
# Indices 1 2 3 4 5 6 
#
# 1 0.017405 -0.001356 -0.005536 0.000000 0.000000 0.000000
# 2 -0.001356 0.009819 -0.002762 0.000000 0.000000 0.000000
# 3 -0.005536 -0.002762 0.012938 0.000000 0.000000 0.000000
# 4 0.000000 0.000000 0.000000 0.032921 0.000000 0.000000
# 5 0.000000 0.000000 0.000000 0.000000 -0.942351 0.000000
# 6 0.000000 0.000000 0.000000 0.000000 0.000000 0.047793
#
#
# Mechanical properties :
#
#
# Convention : Reuss Voigt Hill
#
# Bulk Modulus (GPa) = 47.95338 50.36320 49.15829
# Shear Modulus (GPa) = -6.28761 23.14941 8.43090
#
# Velocity S-wave (km/s) = -1.72392 3.30784 1.99624
# Velocity P-wave (km/s) = 4.32471 6.19627 5.34308
#
# Compressibility (1/GPa) = 0.02085359
#
# Stress axis : x y z
#
# Youngs Moduli (GPa) = 57.45570 101.84264 77.28900
#
# Poissons Ratio (x) = 0.13811 0.42785
# Poissons Ratio (y) = 0.07792 0.21351
# Poissons Ratio (z) = 0.31806 0.28134
#
# Static dielectric constant tensor:
#      x y z
#    x 1.770550 0.000000 0.000000 
#    y 0.000000 1.884810 0.000000 
#    z 0.000000 0.000000 1.825970 
# 
# From -- ./inp_files/29509.got.cif
#   From: 2010.05.17/outbox.cif.g08.bks.cpg/sg57_15_cif.got.tgz:29509.got - 2010.06.03 13:58:18.
