data_PCOD9439130
_publ_section_title
;
Structure prediction by ZEFSAII (Michael W. Deem and Ramdas Pophale) SiO2 
 PCOD9439130
Probable space group: P B C M
;
_chemical_formula_sum "Si O2"
_cell_formula_units_Z 64
_cell_length_a 12.787358
_cell_length_b 15.954274
_cell_length_c 16.229847
_cell_angle_alpha 90.000000
_cell_angle_beta 90.000000
_cell_angle_gamma 90.000000
_cell_volume 3311.099991
_symmetry_space_group_name_H-M "P B C M"
_symmetry_group_IT_number 57
_symmetry_cell_setting 'orthorhombic'
loop_
_space_group_symop_operation_xyz
x,y,z
-x,-y,1/2+z
x,1/2-y,-z
-x,1/2+y,1/2-z
-x,-y,-z
x,y,1/2-z
-x,1/2+y,z
x,1/2-y,1/2+z
loop_
_atom_site_type_symbol
_atom_site_label
_atom_site_fract_x
_atom_site_fract_y
_atom_site_fract_z
Si Si1 0.074754 0.687503 0.349808
Si Si2 0.304454 0.181884 0.928336
Si Si3 0.982353 0.989670 0.903413
Si Si4 0.280019 0.776485 0.150124
Si Si5 0.489550 0.282789 0.651614
Si Si6 0.245269 0.531696 0.849011
Si Si7 0.920318 0.664078 0.652910
Si Si8 0.582059 0.940808 0.954821
O O1 0.075411 0.689639 0.250000
O O2 0.191589 0.711535 0.378778
O O3 0.036979 0.596231 0.376106
O O4 0.995659 0.761057 0.378576
O O5 0.394856 0.219321 0.869397
O O6 0.194167 0.167852 0.885671
O O7 0.289114 0.250000 0.000000
O O8 0.346976 0.100014 0.973915
O O9 0.860247 0.987788 0.880061
O O10 0.028924 0.073312 0.861981
O O11 0.000000 0.000000 0.000000
O O12 0.280035 0.774141 0.250000
O O13 0.398527 0.755907 0.125735
O O14 0.244927 0.870128 0.127560
O O15 0.490723 0.299918 0.750000
O O16 0.470381 0.365583 0.597269
O O17 0.250507 0.525229 0.750000
O O18 0.344788 0.490466 0.891632
O O19 0.910104 0.677076 0.750000
O O20 0.500000 0.000000 0.000000
#
# Coordination Sequence:
#
# PCOD9439130 Si02
#       8
#     8   8   8   8   8   8   8   8
#     4  10  22  41  65  92 125 170 216 270 327 391
#     4  10  23  40  62  90 129 162 212 271 330 392
#     4  12  26  40  62  98 136 171 218 274 339 398
#     4   9  19  39  65  92 122 159 216 269 314 381
#     4  10  21  40  66  94 122 170 223 267 329 405
#     4  11  22  42  67  93 127 176 230 272 322 410
#     4  11  23  42  66  92 128 170 218 270 327 393
#     4  11  24  41  61  93 133 168 212 274 338 390
#
# _framework density 19.328925000000002
#
# number of rings (size 3 to 8) (size 9 to 14) (size 15 to 20)
#    0.000    1.500    1.250    3.375    5.250    2.000 
#    0.000    4.375    0.000    0.000    0.000    0.000 
#    0.000    0.000    0.000    0.000    0.000    0.000 
#
# Total GULP energy -357680.373606 kJ/mol
# GULP energy per Si atom -5588.755838 kJ/mol
# Density = 1.928493 g / cm^3
# Si number density = 19.328925 Si / 1000 Ang^3
#
#
#
# Elastic Constant Matrix: (Units=GPa)
#
#
# Indices 1 2 3 4 5 6 
#
# 1 86.8578 17.2206 23.1896 0.0000 0.0000 0.0000
# 2 17.2206 80.7254 5.1391 0.0000 0.0000 0.0000
# 3 23.1896 5.1391 60.8709 0.0000 0.0000 0.0000
# 4 0.0000 0.0000 0.0000 -4.0334 0.0000 0.0000
# 5 0.0000 0.0000 0.0000 0.0000 20.6296 0.0000
# 6 0.0000 0.0000 0.0000 0.0000 0.0000 33.2951
#
#
#
# Elastic Compliance Matrix: (Units=1/GPa)
#
#
# Indices 1 2 3 4 5 6 
#
# 1 0.013312 -0.002530 -0.004858 0.000000 0.000000 0.000000
# 2 -0.002530 0.012936 -0.000128 0.000000 0.000000 0.000000
# 3 -0.004858 -0.000128 0.018290 0.000000 0.000000 0.000000
# 4 0.000000 0.000000 0.000000 -0.247927 0.000000 0.000000
# 5 0.000000 0.000000 0.000000 0.000000 0.048474 0.000000
# 6 0.000000 0.000000 0.000000 0.000000 0.000000 0.030034
#
#
# Mechanical properties :
#
#
# Convention : Reuss Voigt Hill
#
# Bulk Modulus (GPa) = 33.89307 35.50587 34.69947
# Shear Modulus (GPa) = -49.99277 22.17190 -13.91043
#
# Velocity S-wave (km/s) = -5.09121 3.39054 -2.68558
# Velocity P-wave (km/s) = 4.12159 5.80834 2.89390
#
# Compressibility (1/GPa) = 0.02950456
#
# Stress axis : x y z
#
# Youngs Moduli (GPa) = 75.12200 77.30578 54.67583
#
# Poissons Ratio (x) = 0.19562 0.26560
# Poissons Ratio (y) = 0.19009 0.00700
# Poissons Ratio (z) = 0.36492 0.00990
#
# Static dielectric constant tensor:
#      x y z
#    x 1.671740 0.000000 0.000000 
#    y 0.000000 1.661990 0.000000 
#    z 0.000000 0.000000 1.487910 
# 
# From -- ./inp_files/22066.got.cif
#   From: 2010.05.17/outbox.cif.g08.bks.cpg/sg57_12_cif.got.tgz:22066.got - 2010.06.03 13:58:18.
