data_PCOD9439794
_publ_section_title
;
Structure prediction by ZEFSAII (Michael W. Deem and Ramdas Pophale) SiO2 
 PCOD9439794
Probable space group: P B C M
;
_chemical_formula_sum "Si O2"
_cell_formula_units_Z 32
_cell_length_a 4.883995
_cell_length_b 9.514369
_cell_length_c 25.632373
_cell_angle_alpha 90.000000
_cell_angle_beta 90.000000
_cell_angle_gamma 90.000000
_cell_volume 1191.088457
_symmetry_space_group_name_H-M "P B C M"
_symmetry_group_IT_number 57
_symmetry_cell_setting 'orthorhombic'
loop_
_space_group_symop_operation_xyz
x,y,z
-x,-y,1/2+z
x,1/2-y,-z
-x,1/2+y,1/2-z
-x,-y,-z
x,y,1/2-z
-x,1/2+y,z
x,1/2-y,1/2+z
loop_
_atom_site_type_symbol
_atom_site_label
_atom_site_fract_x
_atom_site_fract_y
_atom_site_fract_z
Si Si1 0.473518 0.923782 0.309024
Si Si2 0.849444 0.166603 0.192990
Si Si3 0.328087 0.614581 0.033150
Si Si4 0.818540 0.600989 0.396416
O O1 0.374304 0.963904 0.250000
O O2 0.761786 0.003814 0.311552
O O3 0.308286 0.983289 0.358388
O O4 0.427077 0.757901 0.309864
O O5 0.969191 0.195257 0.250000
O O6 0.032019 0.203633 0.144004
O O7 0.059757 0.557030 0.063239
O O8 0.561096 0.664960 0.073632
O O9 0.240943 0.750000 0.000000
O O10 0.500000 0.500000 0.000000
#
# Coordination Sequence:
#
# PCOD9439794 Si02
#       4
#     8   8   8   8
#     4  10  23  44  74 114 153 191 241 296 365 450
#     4  10  23  44  74 114 153 193 241 296 366 450
#     4  12  30  50  73 106 141 189 250 314 361 426
#     4  12  25  46  78 102 148 187 245 292 376 425
#
# _framework density 26.866181999999998
#
# number of rings (size 3 to 8) (size 9 to 14) (size 15 to 20)
#    0.000    1.000    2.500    2.250    7.000    2.000 
#    0.000    5.000    0.000    0.000    0.000    0.000 
#    0.000    0.000    0.000    0.000    0.000    0.000 
#
# Total GULP energy -179023.075685 kJ/mol
# GULP energy per Si atom -5594.471115 kJ/mol
# Density = 2.680503 g / cm^3
# Si number density = 26.866182 Si / 1000 Ang^3
#
#
#
# Elastic Constant Matrix: (Units=GPa)
#
#
# Indices 1 2 3 4 5 6 
#
# 1 120.4728 -18.6572 48.0251 0.0000 0.0000 0.0000
# 2 -18.6572 56.8549 14.1762 0.0000 0.0000 0.0000
# 3 48.0251 14.1762 156.8100 0.0000 0.0000 0.0000
# 4 0.0000 0.0000 0.0000 26.3387 0.0000 0.0000
# 5 0.0000 0.0000 0.0000 0.0000 61.8483 0.0000
# 6 0.0000 0.0000 0.0000 0.0000 0.0000 26.6103
#
#
#
# Elastic Compliance Matrix: (Units=1/GPa)
#
#
# Indices 1 2 3 4 5 6 
#
# 1 0.010390 0.004300 -0.003571 0.000000 0.000000 0.000000
# 2 0.004300 0.019774 -0.003105 0.000000 0.000000 0.000000
# 3 -0.003571 -0.003105 0.007751 0.000000 0.000000 0.000000
# 4 0.000000 0.000000 0.000000 0.037967 0.000000 0.000000
# 5 0.000000 0.000000 0.000000 0.000000 0.016169 0.000000
# 6 0.000000 0.000000 0.000000 0.000000 0.000000 0.037579
#
#
# Mechanical properties :
#
#
# Convention : Reuss Voigt Hill
#
# Bulk Modulus (GPa) = 30.15298 46.80289 38.47794
# Shear Modulus (GPa) = 34.37944 42.33236 38.35590
#
# Velocity S-wave (km/s) = 3.58111 3.97378 3.78254
# Velocity P-wave (km/s) = 5.32418 6.20590 5.78187
#
# Compressibility (1/GPa) = 0.03316422
#
# Stress axis : x y z
#
# Youngs Moduli (GPa) = 96.24654 50.57219 129.00882
#
# Poissons Ratio (x) = -0.21745 0.46066
# Poissons Ratio (y) = -0.41385 0.40051
# Poissons Ratio (z) = 0.34368 0.15700
#
# Static dielectric constant tensor:
#      x y z
#    x 2.095060 0.000000 0.000000 
#    y 0.000000 2.080290 0.000000 
#    z 0.000000 0.000000 2.152580 
# 
# From -- ./inp_files/23344.got.cif
#   From: 2010.05.17/outbox.cif.g08.bks.cpg/sg57_12_cif.got.tgz:23344.got - 2010.06.03 13:58:18.
