data_PCOD9439357
_publ_section_title
;
Structure prediction by ZEFSAII (Michael W. Deem and Ramdas Pophale) SiO2 
 PCOD9439357
Probable space group: P B C M
;
_chemical_formula_sum "Si O2"
_cell_formula_units_Z 64
_cell_length_a 15.247400
_cell_length_b 24.207696
_cell_length_c 8.579791
_cell_angle_alpha 90.000000
_cell_angle_beta 90.000000
_cell_angle_gamma 90.000000
_cell_volume 3166.838815
_symmetry_space_group_name_H-M "P B C M"
_symmetry_group_IT_number 57
_symmetry_cell_setting 'orthorhombic'
loop_
_space_group_symop_operation_xyz
x,y,z
-x,-y,1/2+z
x,1/2-y,-z
-x,1/2+y,1/2-z
-x,-y,-z
x,y,1/2-z
-x,1/2+y,z
x,1/2-y,1/2+z
loop_
_atom_site_type_symbol
_atom_site_label
_atom_site_fract_x
_atom_site_fract_y
_atom_site_fract_z
Si Si1 0.901693 0.007098 0.436518
Si Si2 0.999467 0.689070 0.564741
Si Si3 0.851469 0.607860 0.064742
Si Si4 0.354773 0.604309 0.061960
Si Si5 0.546007 0.631122 0.937587
Si Si6 0.596670 0.513451 0.562334
Si Si7 0.289690 0.308429 0.436655
Si Si8 0.164805 0.629809 0.438753
O O1 0.902718 0.005018 0.250000
O O2 0.864672 0.067195 0.480633
O O3 0.849120 0.953961 0.497156
O O4 0.000000 0.000000 0.500000
O O5 0.978142 0.750000 0.500000
O O6 0.989110 0.689185 0.750000
O O7 0.097962 0.672152 0.516484
O O8 0.936843 0.641624 0.494126
O O9 0.854609 0.604708 0.250000
O O10 0.770696 0.644153 0.006674
O O11 0.356614 0.604474 0.250000
O O12 0.347525 0.539563 0.010589
O O13 0.266575 0.635577 0.013807
O O14 0.448273 0.627301 0.005045
O O15 0.537330 0.629750 0.750000
O O16 0.603435 0.576989 0.986137
O O17 0.608649 0.681463 0.981667
O O18 0.500000 0.500000 0.500000
O O19 0.599795 0.513177 0.750000
O O20 0.258735 0.250000 0.500000
O O21 0.283169 0.310302 0.250000
O O22 0.158386 0.634867 0.250000
#
# Coordination Sequence:
#
# PCOD9439357 Si02
#       8
#     8   8   8   8   8   8   8   8
#     4  11  22  38  63  93 130 169 207 252 310 370
#     4  12  25  43  67  90 119 158 204 255 307 366
#     4  12  25  42  64  92 126 161 204 253 308 373
#     4   9  18  33  57  85 118 157 196 242 297 354
#     4   9  19  35  57  82 114 153 197 247 299 357
#     4   8  14  27  48  75 106 142 182 226 279 338
#     4  11  24  42  63  88 120 159 206 258 314 373
#     4  10  22  39  61  91 129 168 207 253 304 365
#
# _framework density 20.209426000000001
#
# number of rings (size 3 to 8) (size 9 to 14) (size 15 to 20)
#    0.000    1.750    1.250    3.375    1.750    2.000 
#    0.000    0.625    0.000    1.500    0.000    0.000 
#    0.000    0.000    0.000    0.000    0.000    0.000 
#
# Total GULP energy -357262.753168 kJ/mol
# GULP energy per Si atom -5582.230518 kJ/mol
# Density = 2.016343 g / cm^3
# Si number density = 20.209426 Si / 1000 Ang^3
#
#
#
# Elastic Constant Matrix: (Units=GPa)
#
#
# Indices 1 2 3 4 5 6 
#
# 1 88.2966 4.9635 12.5290 0.0000 0.0000 0.0000
# 2 4.9635 67.4929 17.8082 0.0000 0.0000 0.0000
# 3 12.5290 17.8082 56.5739 0.0000 0.0000 0.0000
# 4 0.0000 0.0000 0.0000 28.3467 0.0000 0.0000
# 5 0.0000 0.0000 0.0000 0.0000 25.8780 0.0000
# 6 0.0000 0.0000 0.0000 0.0000 0.0000 26.7005
#
#
#
# Elastic Compliance Matrix: (Units=1/GPa)
#
#
# Indices 1 2 3 4 5 6 
#
# 1 0.011695 -0.000193 -0.002529 0.000000 0.000000 0.000000
# 2 -0.000193 0.016162 -0.005045 0.000000 0.000000 0.000000
# 3 -0.002529 -0.005045 0.019824 0.000000 0.000000 0.000000
# 4 0.000000 0.000000 0.000000 0.035278 0.000000 0.000000
# 5 0.000000 0.000000 0.000000 0.000000 0.038643 0.000000
# 6 0.000000 0.000000 0.000000 0.000000 0.000000 0.037452
#
#
# Mechanical properties :
#
#
# Convention : Reuss Voigt Hill
#
# Bulk Modulus (GPa) = 31.10667 31.44054 31.27361
# Shear Modulus (GPa) = 26.98285 27.98922 27.48604
#
# Velocity S-wave (km/s) = 3.65795 3.72554 3.69190
# Velocity P-wave (km/s) = 5.76770 5.83929 5.80361
#
# Compressibility (1/GPa) = 0.03214745
#
# Stress axis : x y z
#
# Youngs Moduli (GPa) = 85.50505 61.87506 50.44367
#
# Poissons Ratio (x) = 0.01192 0.12759
# Poissons Ratio (y) = 0.01648 0.25447
# Poissons Ratio (z) = 0.21628 0.31214
#
# Static dielectric constant tensor:
#      x y z
#    x 1.722570 0.000000 0.000000 
#    y 0.000000 1.729430 0.000000 
#    z 0.000000 0.000000 1.688530 
# 
# From -- ./inp_files/5567.got.cif
#   From: 2010.05.17/outbox.cif.g08.bks.cpg/sg57_3_cif.got.tgz:5567.got - 2010.06.03 13:58:18.
