data_PCOD9439484
_publ_section_title
;
Structure prediction by ZEFSAII (Michael W. Deem and Ramdas Pophale) SiO2 
 PCOD9439484
Probable space group: P B C M
;
_chemical_formula_sum "Si O2"
_cell_formula_units_Z 64
_cell_length_a 14.782256
_cell_length_b 25.601691
_cell_length_c 8.421563
_cell_angle_alpha 90.000000
_cell_angle_beta 90.000000
_cell_angle_gamma 90.000000
_cell_volume 3187.146837
_symmetry_space_group_name_H-M "P B C M"
_symmetry_group_IT_number 57
_symmetry_cell_setting 'orthorhombic'
loop_
_space_group_symop_operation_xyz
x,y,z
-x,-y,1/2+z
x,1/2-y,-z
-x,1/2+y,1/2-z
-x,-y,-z
x,y,1/2-z
-x,1/2+y,z
x,1/2-y,1/2+z
loop_
_atom_site_type_symbol
_atom_site_label
_atom_site_fract_x
_atom_site_fract_y
_atom_site_fract_z
Si Si1 0.345633 0.598636 0.940194
Si Si2 0.985397 0.165155 0.064155
Si Si3 0.213795 0.692478 0.561155
Si Si4 0.523602 0.558403 0.059593
Si Si5 0.819200 0.804711 0.558389
Si Si6 0.790387 0.021093 0.066045
Si Si7 0.031775 0.555170 0.933100
Si Si8 0.730330 0.586055 0.441737
O O1 0.337582 0.592636 0.750000
O O2 0.284945 0.648098 0.993258
O O3 0.450337 0.598320 0.987514
O O4 0.304541 0.547946 0.027382
O O5 0.977383 0.176806 0.250000
O O6 0.076679 0.191254 0.999374
O O7 0.889813 0.180109 0.987473
O O8 0.000689 0.103573 0.036475
O O9 0.237325 0.750000 0.500000
O O10 0.217137 0.692628 0.750000
O O11 0.517016 0.558518 0.250000
O O12 0.625625 0.575385 0.017459
O O13 0.500000 0.500000 0.000000
O O14 0.779747 0.750000 0.500000
O O15 0.821762 0.804796 0.750000
O O16 0.765446 0.856841 0.510246
O O17 0.815073 0.028325 0.250000
O O18 0.860335 0.051637 0.954468
O O19 0.787052 0.960405 0.021999
O O20 0.006996 0.562125 0.750000
O O21 0.000000 0.500000 0.000000
O O22 0.740035 0.581128 0.250000
#
# Coordination Sequence:
#
# PCOD9439484 Si02
#       8
#     8   8   8   8   8   8   8   8
#     4  11  23  40  61  88 125 163 201 253 312 367
#     4  11  22  38  62  90 121 160 208 256 306 369
#     4  11  24  41  63  89 122 165 209 257 311 367
#     4  11  22  37  63  93 124 161 204 253 311 374
#     4  10  23  42  63  88 119 160 205 252 306 356
#     4  12  23  36  60  91 123 161 202 248 308 371
#     4  12  24  38  56  84 124 166 208 254 309 368
#     4  10  22  41  63  89 125 163 201 252 312 371
#
# _framework density 20.080656000000001
#
# number of rings (size 3 to 8) (size 9 to 14) (size 15 to 20)
#    0.000    1.000    2.500    4.875    0.000    5.500 
#    0.000    0.625    0.000    3.000    0.000    0.000 
#    0.000    0.000    0.000    0.000    0.000    0.000 
#
# Total GULP energy -357817.347993 kJ/mol
# GULP energy per Si atom -5590.896062 kJ/mol
# Density = 2.003495 g / cm^3
# Si number density = 20.080656 Si / 1000 Ang^3
#
#
#
# Elastic Constant Matrix: (Units=GPa)
#
#
# Indices 1 2 3 4 5 6 
#
# 1 81.3213 37.6190 15.1006 0.0000 0.0000 0.0000
# 2 37.6190 139.9923 13.2357 0.0000 0.0000 0.0000
# 3 15.1006 13.2357 38.3346 0.0000 0.0000 0.0000
# 4 0.0000 0.0000 0.0000 32.2118 0.0000 0.0000
# 5 0.0000 0.0000 0.0000 0.0000 25.2739 0.0000
# 6 0.0000 0.0000 0.0000 0.0000 0.0000 18.9904
#
#
#
# Elastic Compliance Matrix: (Units=1/GPa)
#
#
# Indices 1 2 3 4 5 6 
#
# 1 0.014789 -0.003539 -0.004604 0.000000 0.000000 0.000000
# 2 -0.003539 0.008231 -0.001448 0.000000 0.000000 0.000000
# 3 -0.004604 -0.001448 0.028399 0.000000 0.000000 0.000000
# 4 0.000000 0.000000 0.000000 0.031045 0.000000 0.000000
# 5 0.000000 0.000000 0.000000 0.000000 0.039566 0.000000
# 6 0.000000 0.000000 0.000000 0.000000 0.000000 0.052658
#
#
# Mechanical properties :
#
#
# Convention : Reuss Voigt Hill
#
# Bulk Modulus (GPa) = 31.01884 43.50653 37.26268
# Shear Modulus (GPa) = 24.43605 28.20808 26.32206
#
# Velocity S-wave (km/s) = 3.49219 3.75205 3.62445
# Velocity P-wave (km/s) = 5.63393 6.36266 6.00935
#
# Compressibility (1/GPa) = 0.03223848
#
# Stress axis : x y z
#
# Youngs Moduli (GPa) = 67.61870 121.49039 35.21192
#
# Poissons Ratio (x) = 0.42993 0.16211
# Poissons Ratio (y) = 0.23929 0.05098
# Poissons Ratio (z) = 0.31130 0.17591
#
# Static dielectric constant tensor:
#      x y z
#    x 1.773670 0.000000 0.000000 
#    y 0.000000 1.716030 0.000000 
#    z 0.000000 0.000000 1.646010 
# 
# From -- ./inp_files/5551.got.cif
#   From: 2010.05.17/outbox.cif.g08.bks.cpg/sg57_3_cif.got.tgz:5551.got - 2010.06.03 13:58:18.
