data_PCOD9439703
_publ_section_title
;
Structure prediction by ZEFSAII (Michael W. Deem and Ramdas Pophale) SiO2 
 PCOD9439703
Probable space group: P B C M
;
_chemical_formula_sum "Si O2"
_cell_formula_units_Z 40
_cell_length_a 18.558829
_cell_length_b 5.262740
_cell_length_c 17.560615
_cell_angle_alpha 90.000000
_cell_angle_beta 90.000000
_cell_angle_gamma 90.000000
_cell_volume 1715.150390
_symmetry_space_group_name_H-M "P B C M"
_symmetry_group_IT_number 57
_symmetry_cell_setting 'orthorhombic'
loop_
_space_group_symop_operation_xyz
x,y,z
-x,-y,1/2+z
x,1/2-y,-z
-x,1/2+y,1/2-z
-x,-y,-z
x,y,1/2-z
-x,1/2+y,z
x,1/2-y,1/2+z
loop_
_atom_site_type_symbol
_atom_site_label
_atom_site_fract_x
_atom_site_fract_y
_atom_site_fract_z
Si Si1 0.419061 0.001580 0.035681
Si Si2 0.177563 0.648490 0.662493
Si Si3 0.763902 0.998324 0.447347
Si Si4 0.959524 0.668811 0.342538
Si Si5 0.674329 0.832243 0.662419
O O1 0.396326 0.038645 0.122998
O O2 0.388442 0.750000 0.000000
O O3 0.384984 0.250000 0.000000
O O4 0.500000 0.000000 0.000000
O O5 0.162777 0.721997 0.750000
O O6 0.119610 0.437871 0.638701
O O7 0.257678 0.525208 0.659716
O O8 0.175165 0.892233 0.608872
O O9 0.777443 0.750000 0.500000
O O10 0.702823 0.908350 0.386081
O O11 0.752796 0.250000 0.500000
O O12 0.961720 0.680347 0.250000
O O13 0.986734 0.943040 0.368582
O O14 0.660288 0.765890 0.750000
#
# Coordination Sequence:
#
# PCOD9439703 Si02
#       5
#     8   8   8   8   8
#     4  10  24  46  70  98 137 186 227 271 341 427
#     4  10  23  41  65 103 142 173 232 306 353 406
#     4  12  25  42  65  99 140 183 230 285 357 429
#     4   9  19  35  59  89 129 182 228 276 349 423
#     4  11  25  43  71 108 142 180 236 307 355 403
#
# _framework density 23.321569
#
# number of rings (size 3 to 8) (size 9 to 14) (size 15 to 20)
#    0.000    1.600    2.000    1.200    8.400    0.000 
#    0.000    4.000    0.000    3.600    0.000    0.000 
#    0.000    0.000    0.000    0.000    0.000    0.000 
#
# Total GULP energy -222943.074289 kJ/mol
# GULP energy per Si atom -5573.576857 kJ/mol
# Density = 2.326849 g / cm^3
# Si number density = 23.321569 Si / 1000 Ang^3
#
#
#
# Elastic Constant Matrix: (Units=GPa)
#
#
# Indices 1 2 3 4 5 6 
#
# 1 105.8569 11.1788 35.2227 0.0000 0.0000 0.0000
# 2 11.1788 165.2169 60.3719 0.0000 0.0000 0.0000
# 3 35.2227 60.3719 153.8493 0.0000 0.0000 0.0000
# 4 0.0000 0.0000 0.0000 31.3914 0.0000 0.0000
# 5 0.0000 0.0000 0.0000 0.0000 17.0324 0.0000
# 6 0.0000 0.0000 0.0000 0.0000 0.0000 -17.3110
#
#
#
# Elastic Compliance Matrix: (Units=1/GPa)
#
#
# Indices 1 2 3 4 5 6 
#
# 1 0.010231 0.000191 -0.002417 0.000000 0.000000 0.000000
# 2 0.000191 0.007069 -0.002818 0.000000 0.000000 0.000000
# 3 -0.002417 -0.002818 0.008159 0.000000 0.000000 0.000000
# 4 0.000000 0.000000 0.000000 0.031856 0.000000 0.000000
# 5 0.000000 0.000000 0.000000 0.000000 0.058712 0.000000
# 6 0.000000 0.000000 0.000000 0.000000 0.000000 -0.057767
#
#
# Mechanical properties :
#
#
# Convention : Reuss Voigt Hill
#
# Bulk Modulus (GPa) = 65.05673 70.94109 67.99891
# Shear Modulus (GPa) = 68.05320 27.43254 47.74287
#
# Velocity S-wave (km/s) = 5.40775 3.43340 4.52946
# Velocity P-wave (km/s) = 8.18216 6.79723 7.52164
#
# Compressibility (1/GPa) = 0.01537120
#
# Stress axis : x y z
#
# Youngs Moduli (GPa) = 97.74360 141.45505 122.56374
#
# Poissons Ratio (x) = -0.02703 0.29627
# Poissons Ratio (y) = -0.01867 0.34536
# Poissons Ratio (z) = 0.23627 0.39860
#
# Static dielectric constant tensor:
#      x y z
#    x 1.354160 0.000000 0.000000 
#    y 0.000000 1.864690 0.000000 
#    z 0.000000 0.000000 1.908720 
# 
# From -- ./inp_files/22760.got.cif
#   From: 2010.05.17/outbox.cif.g08.bks.cpg/sg57_12_cif.got.tgz:22760.got - 2010.06.03 13:58:18.
