data_PCOD9439952
_publ_section_title
;
Structure prediction by ZEFSAII (Michael W. Deem and Ramdas Pophale) SiO2 
 PCOD9439952
Probable space group: P B C M
;
_chemical_formula_sum "Si O2"
_cell_formula_units_Z 36
_cell_length_a 9.191181
_cell_length_b 8.423673
_cell_length_c 19.073324
_cell_angle_alpha 90.000000
_cell_angle_beta 90.000000
_cell_angle_gamma 90.000000
_cell_volume 1476.723562
_symmetry_space_group_name_H-M "P B C M"
_symmetry_group_IT_number 57
_symmetry_cell_setting 'orthorhombic'
loop_
_space_group_symop_operation_xyz
x,y,z
-x,-y,1/2+z
x,1/2-y,-z
-x,1/2+y,1/2-z
-x,-y,-z
x,y,1/2-z
-x,1/2+y,z
x,1/2-y,1/2+z
loop_
_atom_site_type_symbol
_atom_site_label
_atom_site_fract_x
_atom_site_fract_y
_atom_site_fract_z
Si Si1 0.710377 0.252840 0.129956
Si Si2 0.081667 0.750000 0.000000
Si Si3 0.433219 0.075007 0.665983
Si Si4 0.149844 0.313549 0.106454
Si Si5 0.069518 0.500988 0.675913
O O1 0.800630 0.201741 0.060246
O O2 0.589422 0.392521 0.130618
O O3 0.837192 0.338536 0.173128
O O4 0.620619 0.106165 0.160363
O O5 0.960782 0.645153 0.957306
O O6 0.435154 0.118467 0.750000
O O7 0.320768 0.168644 0.615157
O O8 0.114089 0.129858 0.120128
O O9 0.092026 0.435485 0.165375
O O10 0.091775 0.420200 0.750000
#
# Coordination Sequence:
#
# PCOD9439952 Si02
#       5
#     8   4   8   8   8
#     4  11  26  43  69  95 138 178 216 277 325 402
#     4  10  26  48  64  98 134 180 228 256 332 396
#     4  12  24  43  68 102 131 171 222 279 340 385
#     4  11  24  39  67  94 133 173 217 275 318 393
#     4  11  21  39  63  96 129 172 219 271 331 383
#
# _framework density 24.378294
#
# number of rings (size 3 to 8) (size 9 to 14) (size 15 to 20)
#    0.000    0.889    0.000    8.000    0.000    9.778 
#    0.000    0.000    0.000    0.000    0.000    0.000 
#    0.000    0.000    0.000    0.000    0.000    0.000 
#
# Total GULP energy -200517.010735 kJ/mol
# GULP energy per Si atom -5569.916965 kJ/mol
# Density = 2.432281 g / cm^3
# Si number density = 24.378294 Si / 1000 Ang^3
#
#
#
# Elastic Constant Matrix: (Units=GPa)
#
#
# Indices 1 2 3 4 5 6 
#
# 1 136.9617 -0.4045 38.3134 0.0000 0.0000 0.0000
# 2 -0.4045 84.5872 24.3983 0.0000 0.0000 0.0000
# 3 38.3134 24.3983 122.2702 0.0000 0.0000 0.0000
# 4 0.0000 0.0000 0.0000 23.4484 0.0000 0.0000
# 5 0.0000 0.0000 0.0000 0.0000 -1.8705 0.0000
# 6 0.0000 0.0000 0.0000 0.0000 0.0000 45.2935
#
#
#
# Elastic Compliance Matrix: (Units=1/GPa)
#
#
# Indices 1 2 3 4 5 6 
#
# 1 0.008055 0.000813 -0.002686 0.000000 0.000000 0.000000
# 2 0.000813 0.012626 -0.002774 0.000000 0.000000 0.000000
# 3 -0.002686 -0.002774 0.009574 0.000000 0.000000 0.000000
# 4 0.000000 0.000000 0.000000 0.042647 0.000000 0.000000
# 5 0.000000 0.000000 0.000000 0.000000 -0.534609 0.000000
# 6 0.000000 0.000000 0.000000 0.000000 0.000000 0.022078
#
#
# Mechanical properties :
#
#
# Convention : Reuss Voigt Hill
#
# Bulk Modulus (GPa) = 47.70838 52.04816 49.87827
# Shear Modulus (GPa) = -11.81066 32.14174 10.16554
#
# Velocity S-wave (km/s) = -2.20347 3.63500 2.04425
# Velocity P-wave (km/s) = 3.62475 6.24613 5.10651
#
# Compressibility (1/GPa) = 0.02096068
#
# Stress axis : x y z
#
# Youngs Moduli (GPa) = 124.14334 79.20013 104.44957
#
# Poissons Ratio (x) = -0.06442 0.28059
# Poissons Ratio (y) = -0.10098 0.28978
# Poissons Ratio (z) = 0.33350 0.21973
#
# Static dielectric constant tensor:
#      x y z
#    x 1.910590 0.000000 0.000000 
#    y 0.000000 1.998740 0.000000 
#    z 0.000000 0.000000 2.067660 
# 
# From -- ./inp_files/23998.got.cif
#   From: 2010.05.17/outbox.cif.g08.bks.cpg/sg57_12_cif.got.tgz:23998.got - 2010.06.03 13:58:18.
