data_PCOD9439619
_publ_section_title
;
Structure prediction by ZEFSAII (Michael W. Deem and Ramdas Pophale) SiO2 
 PCOD9439619
Probable space group: P B C M
;
_chemical_formula_sum "Si O2"
_cell_formula_units_Z 40
_cell_length_a 5.144422
_cell_length_b 24.056969
_cell_length_c 14.785239
_cell_angle_alpha 90.000000
_cell_angle_beta 90.000000
_cell_angle_gamma 90.000000
_cell_volume 1829.809359
_symmetry_space_group_name_H-M "P B C M"
_symmetry_group_IT_number 57
_symmetry_cell_setting 'orthorhombic'
loop_
_space_group_symop_operation_xyz
x,y,z
-x,-y,1/2+z
x,1/2-y,-z
-x,1/2+y,1/2-z
-x,-y,-z
x,y,1/2-z
-x,1/2+y,z
x,1/2-y,1/2+z
loop_
_atom_site_type_symbol
_atom_site_label
_atom_site_fract_x
_atom_site_fract_y
_atom_site_fract_z
Si Si1 0.158501 0.633197 0.468090
Si Si2 0.749738 0.488705 0.938447
Si Si3 0.840064 0.599899 0.651363
Si Si4 0.977090 0.765902 0.856115
Si Si5 0.512532 0.193967 0.903104
O O1 0.237242 0.576648 0.417697
O O2 0.004035 0.675136 0.404891
O O3 0.404896 0.669096 0.500540
O O4 0.009483 0.617245 0.562550
O O5 0.762392 0.535542 0.861758
O O6 0.500000 0.500000 0.000000
O O7 0.000000 0.500000 0.000000
O O8 0.966728 0.608275 0.750000
O O9 0.585753 0.638949 0.648828
O O10 0.929721 0.772332 0.750000
O O11 0.238420 0.728652 0.868871
O O12 0.737976 0.732660 0.898533
#
# Coordination Sequence:
#
# PCOD9439619 Si02
#       5
#     8   8   8   8   8
#     4  11  26  44  75  97 145 182 236 284 357 414
#     4  10  22  44  64  96 130 173 220 283 338 407
#     4  11  24  43  71 104 136 179 230 286 345 411
#     4  12  28  44  67 102 142 186 234 285 348 419
#     4  12  25  43  67 101 137 178 231 291 341 409
#
# _framework density 21.860202999999998
#
# number of rings (size 3 to 8) (size 9 to 14) (size 15 to 20)
#    0.000    0.800    4.000    2.400    5.600    2.400 
#    0.000    0.000    0.000    1.200    0.000    0.000 
#    0.000    0.000    0.000    0.000    0.000    0.000 
#
# Total GULP energy -223536.892193 kJ/mol
# GULP energy per Si atom -5588.422305 kJ/mol
# Density = 2.181045 g / cm^3
# Si number density = 21.860203 Si / 1000 Ang^3
#
#
#
# Elastic Constant Matrix: (Units=GPa)
#
#
# Indices 1 2 3 4 5 6 
#
# 1 134.9879 49.9795 27.6707 0.0000 0.0000 0.0000
# 2 49.9795 179.0173 83.2317 0.0000 0.0000 0.0000
# 3 27.6707 83.2317 90.7567 0.0000 0.0000 0.0000
# 4 0.0000 0.0000 0.0000 12.0101 0.0000 0.0000
# 5 0.0000 0.0000 0.0000 0.0000 17.5215 0.0000
# 6 0.0000 0.0000 0.0000 0.0000 0.0000 24.1872
#
#
#
# Elastic Compliance Matrix: (Units=1/GPa)
#
#
# Indices 1 2 3 4 5 6 
#
# 1 0.008288 -0.001986 -0.000706 0.000000 0.000000 0.000000
# 2 -0.001986 0.010214 -0.008762 0.000000 0.000000 0.000000
# 3 -0.000706 -0.008762 0.019269 0.000000 0.000000 0.000000
# 4 0.000000 0.000000 0.000000 0.083263 0.000000 0.000000
# 5 0.000000 0.000000 0.000000 0.000000 0.057073 0.000000
# 6 0.000000 0.000000 0.000000 0.000000 0.000000 0.041344
#
#
# Mechanical properties :
#
#
# Convention : Reuss Voigt Hill
#
# Bulk Modulus (GPa) = 67.27493 80.72509 74.00001
# Shear Modulus (GPa) = 20.21731 27.00242 23.60987
#
# Velocity S-wave (km/s) = 3.04443 3.51840 3.28996
# Velocity P-wave (km/s) = 6.57266 7.31530 6.95390
#
# Compressibility (1/GPa) = 0.01486438
#
# Stress axis : x y z
#
# Youngs Moduli (GPa) = 120.65661 97.90353 51.89685
#
# Poissons Ratio (x) = 0.19441 0.03663
# Poissons Ratio (y) = 0.23959 0.45471
# Poissons Ratio (z) = 0.08516 0.85781
#
# Static dielectric constant tensor:
#      x y z
#    x 1.838970 0.000000 0.000000 
#    y 0.000000 1.848300 0.000000 
#    z 0.000000 0.000000 1.774780 
# 
# From -- ./inp_files/20114.got.cif
#   From: 2010.05.17/outbox.cif.g08.bks.cpg/sg57_11_cif.got.tgz:20114.got - 2010.06.03 13:58:18.
