data_PCOD9439324
_publ_section_title
;
Structure prediction by ZEFSAII (Michael W. Deem and Ramdas Pophale) SiO2 
 PCOD9439324
Probable space group: P B C M
;
_chemical_formula_sum "Si O2"
_cell_formula_units_Z 48
_cell_length_a 16.925608
_cell_length_b 8.925824
_cell_length_c 16.357152
_cell_angle_alpha 90.000000
_cell_angle_beta 90.000000
_cell_angle_gamma 90.000000
_cell_volume 2471.156707
_symmetry_space_group_name_H-M "P B C M"
_symmetry_group_IT_number 57
_symmetry_cell_setting 'orthorhombic'
loop_
_space_group_symop_operation_xyz
x,y,z
-x,-y,1/2+z
x,1/2-y,-z
-x,1/2+y,1/2-z
-x,-y,-z
x,y,1/2-z
-x,1/2+y,z
x,1/2-y,1/2+z
loop_
_atom_site_type_symbol
_atom_site_label
_atom_site_fract_x
_atom_site_fract_y
_atom_site_fract_z
Si Si1 0.412982 0.929682 0.996472
Si Si2 0.149124 0.843246 0.654682
Si Si3 0.693410 0.528399 0.844437
Si Si4 0.983021 0.626886 0.436447
Si Si5 0.691497 0.657775 0.083206
Si Si6 0.836384 0.992586 0.655807
O O1 0.367827 0.966589 0.911443
O O2 0.415900 0.750000 0.000000
O O3 0.500000 0.000000 0.000000
O O4 0.366708 0.016483 0.070006
O O5 0.130617 0.873247 0.750000
O O6 0.176428 0.670722 0.647665
O O7 0.067713 0.841841 0.604555
O O8 0.219277 0.960467 0.632267
O O9 0.679814 0.481869 0.750000
O O10 0.684720 0.709159 0.850415
O O11 0.950422 0.750000 0.500000
O O12 0.922495 0.566354 0.369178
O O13 0.000000 0.500000 0.500000
O O14 0.776769 0.588481 0.095901
O O15 0.684367 0.750000 0.000000
O O16 0.820476 0.953268 0.750000
#
# Coordination Sequence:
#
# PCOD9439324 Si02
#       6
#     8   8   8   8   8   8
#     4  11  23  43  69  97 130 167 206 255 310 372
#     4  10  23  41  59  84 119 162 206 259 316 371
#     4  10  22  41  66  95 128 166 210 259 317 378
#     4  12  25  39  58  84 118 158 214 264 316 374
#     4  10  22  38  64  93 125 157 206 249 307 373
#     4  11  23  40  58  84 121 161 207 259 315 374
#
# _framework density 19.424102000000001
#
# number of rings (size 3 to 8) (size 9 to 14) (size 15 to 20)
#    0.000    1.333    1.667    4.000    7.000    0.667 
#    0.000    5.000    0.000    0.000    0.000    0.000 
#    0.000    0.000    0.000    0.000    0.000    0.000 
#
# Total GULP energy -267417.527722 kJ/mol
# GULP energy per Si atom -5571.198494 kJ/mol
# Density = 1.937989 g / cm^3
# Si number density = 19.424102 Si / 1000 Ang^3
#
#
#
# Elastic Constant Matrix: (Units=GPa)
#
#
# Indices 1 2 3 4 5 6 
#
# 1 95.8333 31.6984 16.7570 0.0000 0.0000 0.0000
# 2 31.6984 118.8276 22.3767 0.0000 0.0000 0.0000
# 3 16.7570 22.3767 36.0053 0.0000 0.0000 0.0000
# 4 0.0000 0.0000 0.0000 27.4929 0.0000 0.0000
# 5 0.0000 0.0000 0.0000 0.0000 17.0364 0.0000
# 6 0.0000 0.0000 0.0000 0.0000 0.0000 28.1602
#
#
#
# Elastic Compliance Matrix: (Units=1/GPa)
#
#
# Indices 1 2 3 4 5 6 
#
# 1 0.011945 -0.002423 -0.004053 0.000000 0.000000 0.000000
# 2 -0.002423 0.010023 -0.005101 0.000000 0.000000 0.000000
# 3 -0.004053 -0.005101 0.032830 0.000000 0.000000 0.000000
# 4 0.000000 0.000000 0.000000 0.036373 0.000000 0.000000
# 5 0.000000 0.000000 0.000000 0.000000 0.058698 0.000000
# 6 0.000000 0.000000 0.000000 0.000000 0.000000 0.035511
#
#
# Mechanical properties :
#
#
# Convention : Reuss Voigt Hill
#
# Bulk Modulus (GPa) = 31.60274 43.59227 37.59751
# Shear Modulus (GPa) = 22.82243 26.52684 24.67464
#
# Velocity S-wave (km/s) = 3.43148 3.69950 3.56801
# Velocity P-wave (km/s) = 5.65732 6.38275 6.03095
#
# Compressibility (1/GPa) = 0.03164282
#
# Stress axis : x y z
#
# Youngs Moduli (GPa) = 83.71681 99.77496 30.45959
#
# Poissons Ratio (x) = 0.24177 0.12346
# Poissons Ratio (y) = 0.20286 0.15538
# Poissons Ratio (z) = 0.33933 0.50896
#
# Static dielectric constant tensor:
#      x y z
#    x 1.682100 0.000000 0.000000 
#    y 0.000000 1.694680 0.000000 
#    z 0.000000 0.000000 1.664800 
# 
# From -- ./inp_files/22490.got.cif
#   From: 2010.05.17/outbox.cif.g08.bks.cpg/sg57_12_cif.got.tgz:22490.got - 2010.06.03 13:58:18.
