data_PCOD9439844
_publ_section_title
;
Structure prediction by ZEFSAII (Michael W. Deem and Ramdas Pophale) SiO2 
 PCOD9439844
Probable space group: P B C M
;
_chemical_formula_sum "Si O2"
_cell_formula_units_Z 40
_cell_length_a 17.945945
_cell_length_b 5.122239
_cell_length_c 19.542968
_cell_angle_alpha 90.000000
_cell_angle_beta 90.000000
_cell_angle_gamma 90.000000
_cell_volume 1796.456443
_symmetry_space_group_name_H-M "P B C M"
_symmetry_group_IT_number 57
_symmetry_cell_setting 'orthorhombic'
loop_
_space_group_symop_operation_xyz
x,y,z
-x,-y,1/2+z
x,1/2-y,-z
-x,1/2+y,1/2-z
-x,-y,-z
x,y,1/2-z
-x,1/2+y,z
x,1/2-y,1/2+z
loop_
_atom_site_type_symbol
_atom_site_label
_atom_site_fract_x
_atom_site_fract_y
_atom_site_fract_z
Si Si1 0.233199 0.250000 0.000000
Si Si2 0.951015 0.773736 0.750000
Si Si3 0.448727 0.203248 0.672711
Si Si4 0.178663 0.316378 0.145697
Si Si5 0.636638 0.097112 0.059432
Si Si6 0.273390 0.825020 0.175240
O O1 0.180839 0.261515 0.933846
O O2 0.291459 0.022561 0.979590
O O3 0.898492 0.722358 0.684534
O O4 0.017706 0.565809 0.750000
O O5 0.414650 0.183370 0.750000
O O6 0.513537 0.984842 0.669211
O O7 0.399754 0.127630 0.606395
O O8 0.210509 0.606055 0.159110
O O9 0.237396 0.108567 0.175238
O O10 0.666008 0.295522 0.116805
O O11 0.592026 0.250000 0.000000
O O12 0.304712 0.770730 0.250000
#
# Coordination Sequence:
#
# PCOD9439844 Si02
#       6
#     4   4   8   8   8   8
#     4  10  24  42  62  96 134 164 204 268 336 378
#     4  12  24  42  66  98 126 168 218 252 292 374
#     4  10  24  44  63  86 126 173 216 263 316 379
#     4  11  22  40  63  91 129 164 199 260 313 368
#     4  11  23  38  62  95 125 164 213 267 317 394
#     4  11  20  37  62  92 122 161 207 264 321 362
#
# _framework density 22.266058000000001
#
# number of rings (size 3 to 8) (size 9 to 14) (size 15 to 20)
#    0.000    1.200    4.000    1.800    2.800    0.800 
#    0.000    5.000    0.000    0.000    0.000    0.000 
#    0.000    0.000    0.000    0.000    0.000    0.000 
#
# Total GULP energy -223583.720994 kJ/mol
# GULP energy per Si atom -5589.593025 kJ/mol
# Density = 2.221538 g / cm^3
# Si number density = 22.266058 Si / 1000 Ang^3
#
#
#
# Elastic Constant Matrix: (Units=GPa)
#
#
# Indices 1 2 3 4 5 6 
#
# 1 48.6508 12.4215 33.1412 0.0000 0.0000 0.0000
# 2 12.4215 32.5128 0.6202 0.0000 0.0000 0.0000
# 3 33.1412 0.6202 208.0324 0.0000 0.0000 0.0000
# 4 0.0000 0.0000 0.0000 13.6819 0.0000 0.0000
# 5 0.0000 0.0000 0.0000 0.0000 78.7304 0.0000
# 6 0.0000 0.0000 0.0000 0.0000 0.0000 42.5918
#
#
#
# Elastic Compliance Matrix: (Units=1/GPa)
#
#
# Indices 1 2 3 4 5 6 
#
# 1 0.025840 -0.009794 -0.004087 0.000000 0.000000 0.000000
# 2 -0.009794 0.034471 0.001457 0.000000 0.000000 0.000000
# 3 -0.004087 0.001457 0.005454 0.000000 0.000000 0.000000
# 4 0.000000 0.000000 0.000000 0.073089 0.000000 0.000000
# 5 0.000000 0.000000 0.000000 0.000000 0.012702 0.000000
# 6 0.000000 0.000000 0.000000 0.000000 0.000000 0.023479
#
#
# Mechanical properties :
#
#
# Convention : Reuss Voigt Hill
#
# Bulk Modulus (GPa) = 24.43981 42.39576 33.41778
# Shear Modulus (GPa) = 23.41697 43.20170 33.30934
#
# Velocity S-wave (km/s) = 3.24649 4.40960 3.87197
# Velocity P-wave (km/s) = 5.00530 6.70880 5.91866
#
# Compressibility (1/GPa) = 0.04091684
#
# Stress axis : x y z
#
# Youngs Moduli (GPa) = 38.70038 29.00974 183.36084
#
# Poissons Ratio (x) = 0.28412 0.74944
# Poissons Ratio (y) = 0.37903 -0.26725
# Poissons Ratio (z) = 0.15818 -0.04228
#
# Static dielectric constant tensor:
#      x y z
#    x 1.808520 0.000000 0.000000 
#    y 0.000000 1.853500 0.000000 
#    z 0.000000 0.000000 1.663950 
# 
# From -- ./inp_files/22801.got.cif
#   From: 2010.05.17/outbox.cif.g08.bks.cpg/sg57_12_cif.got.tgz:22801.got - 2010.06.03 13:58:18.
