data_PCOD9439276
_publ_section_title
;
Structure prediction by ZEFSAII (Michael W. Deem and Ramdas Pophale) SiO2 
 PCOD9439276
Probable space group: P B C M
;
_chemical_formula_sum "Si O2"
_cell_formula_units_Z 64
_cell_length_a 14.922521
_cell_length_b 12.908241
_cell_length_c 14.797777
_cell_angle_alpha 90.000000
_cell_angle_beta 90.000000
_cell_angle_gamma 90.000000
_cell_volume 2850.399559
_symmetry_space_group_name_H-M "P B C M"
_symmetry_group_IT_number 57
_symmetry_cell_setting 'orthorhombic'
loop_
_space_group_symop_operation_xyz
x,y,z
-x,-y,1/2+z
x,1/2-y,-z
-x,1/2+y,1/2-z
-x,-y,-z
x,y,1/2-z
-x,1/2+y,z
x,1/2-y,1/2+z
loop_
_atom_site_type_symbol
_atom_site_label
_atom_site_fract_x
_atom_site_fract_y
_atom_site_fract_z
Si Si1 0.854951 0.350287 0.385531
Si Si2 0.837719 0.378541 0.899716
Si Si3 0.352838 0.528795 0.358939
Si Si4 0.281508 0.489350 0.644432
Si Si5 0.541145 0.895369 0.644699
Si Si6 0.009395 0.477760 0.607852
Si Si7 0.670466 0.788102 0.103388
Si Si8 0.844552 0.685472 0.089964
O O1 0.856536 0.360477 0.494076
O O2 0.858582 0.232526 0.356898
O O3 0.759753 0.397990 0.357330
O O4 0.933634 0.427041 0.353199
O O5 0.736565 0.414726 0.891019
O O6 0.907859 0.461992 0.862009
O O7 0.350490 0.532270 0.250000
O O8 0.443103 0.585269 0.394342
O O9 0.350366 0.407995 0.386093
O O10 0.275591 0.453027 0.750000
O O11 0.381953 0.473845 0.610753
O O12 0.217196 0.418381 0.582207
O O13 0.531081 0.919887 0.750000
O O14 0.589616 0.783634 0.639575
O O15 0.064965 0.370424 0.624402
O O16 0.000000 0.500000 0.500000
O O17 0.770637 0.758586 0.140035
O O18 0.676637 0.750000 0.000000
O O19 0.868836 0.750000 0.000000
#
# Coordination Sequence:
#
# PCOD9439276 Si02
#       8
#     8   8   8   8   8   8   8   8
#     4   9  20  37  56  89 119 157 195 251 299 354
#     4  10  22  37  57  88 125 155 202 249 298 349
#     4  11  25  42  61  88 125 165 203 251 307 369
#     4   9  18  36  61  86 114 156 205 247 290 361
#     4   9  20  40  61  84 120 163 204 242 299 370
#     4   9  19  32  60  86 116 154 204 245 288 363
#     4  10  22  37  63  95 122 157 202 261 306 356
#     4   9  19  32  59  90 117 151 197 246 301 350
#
# _framework density 22.452991999999998
#
# number of rings (size 3 to 8) (size 9 to 14) (size 15 to 20)
#    0.000    2.500    0.000    0.375   15.750    2.500 
#    2.250    5.000    0.000    1.500    0.000    0.000 
#    0.000    0.000    0.000    0.000    0.000    0.000 
#
# Total GULP energy -356683.259414 kJ/mol
# GULP energy per Si atom -5573.175928 kJ/mol
# Density = 2.240189 g / cm^3
# Si number density = 22.452992 Si / 1000 Ang^3
#
#
#
# Elastic Constant Matrix: (Units=GPa)
#
#
# Indices 1 2 3 4 5 6 
#
# 1 178.0931 60.1128 -2.2811 0.0000 0.0000 0.0000
# 2 60.1128 109.2105 -2.9734 0.0000 0.0000 0.0000
# 3 -2.2811 -2.9734 55.6242 0.0000 0.0000 0.0000
# 4 0.0000 0.0000 0.0000 -7.3307 0.0000 0.0000
# 5 0.0000 0.0000 0.0000 0.0000 35.3243 0.0000
# 6 0.0000 0.0000 0.0000 0.0000 0.0000 24.4618
#
#
#
# Elastic Compliance Matrix: (Units=1/GPa)
#
#
# Indices 1 2 3 4 5 6 
#
# 1 0.006897 -0.003794 0.000080 0.000000 0.000000 0.000000
# 2 -0.003794 0.011257 0.000446 0.000000 0.000000 0.000000
# 3 0.000080 0.000446 0.018005 0.000000 0.000000 0.000000
# 4 0.000000 0.000000 0.000000 -0.136413 0.000000 0.000000
# 5 0.000000 0.000000 0.000000 0.000000 0.028309 0.000000
# 6 0.000000 0.000000 0.000000 0.000000 0.000000 0.040880
#
#
# Mechanical properties :
#
#
# Convention : Reuss Voigt Hill
#
# Bulk Modulus (GPa) = 33.75742 50.29383 42.02562
# Shear Modulus (GPa) = -341.16396 29.69573 -155.73412
#
# Velocity S-wave (km/s) = -12.34001 3.64067 -8.33730
# Velocity P-wave (km/s) = 13.71010 6.33410 8.59785
#
# Compressibility (1/GPa) = 0.02962311
#
# Stress axis : x y z
#
# Youngs Moduli (GPa) = 144.99770 88.83293 55.54036
#
# Poissons Ratio (x) = 0.33703 -0.00444
# Poissons Ratio (y) = 0.55011 -0.02478
# Poissons Ratio (z) = -0.01160 -0.03963
#
# Static dielectric constant tensor:
#      x y z
#    x 1.879660 0.000000 0.000000 
#    y 0.000000 1.832820 0.000000 
#    z 0.000000 0.000000 1.900940 
# 
# From -- ./inp_files/22691.got.cif
#   From: 2010.05.17/outbox.cif.g08.bks.cpg/sg57_12_cif.got.tgz:22691.got - 2010.06.03 13:58:18.
