data_PCOD9439496
_publ_section_title
;
Structure prediction by ZEFSAII (Michael W. Deem and Ramdas Pophale) SiO2 
 PCOD9439496
Probable space group: P B C M
;
_chemical_formula_sum "Si O2"
_cell_formula_units_Z 52
_cell_length_a 10.305310
_cell_length_b 8.982859
_cell_length_c 27.001344
_cell_angle_alpha 90.000000
_cell_angle_beta 90.000000
_cell_angle_gamma 90.000000
_cell_volume 2499.545376
_symmetry_space_group_name_H-M "P B C M"
_symmetry_group_IT_number 57
_symmetry_cell_setting 'orthorhombic'
loop_
_space_group_symop_operation_xyz
x,y,z
-x,-y,1/2+z
x,1/2-y,-z
-x,1/2+y,1/2-z
-x,-y,-z
x,y,1/2-z
-x,1/2+y,z
x,1/2-y,1/2+z
loop_
_atom_site_type_symbol
_atom_site_label
_atom_site_fract_x
_atom_site_fract_y
_atom_site_fract_z
Si Si1 0.161056 0.435115 0.562361
Si Si2 0.310373 0.027128 0.750000
Si Si3 0.036528 0.715045 0.903605
Si Si4 0.581450 0.634168 0.250000
Si Si5 0.432002 0.391043 0.400769
Si Si6 0.825369 0.486848 0.856656
Si Si7 0.646556 0.591724 0.144241
Si Si8 0.358578 0.250000 0.500000
O O1 0.123202 0.605667 0.563187
O O2 0.216062 0.405899 0.617892
O O3 0.267428 0.375747 0.524545
O O4 0.039041 0.326750 0.560111
O O5 0.378468 0.191135 0.750000
O O6 0.225122 0.009801 0.699730
O O7 0.428184 0.906315 0.750000
O O8 0.934865 0.606847 0.874236
O O9 0.117826 0.822540 0.867243
O O10 0.642863 0.560045 0.201544
O O11 0.301139 0.485560 0.391389
O O12 0.416826 0.252805 0.363683
O O13 0.557988 0.479946 0.386305
O O14 0.436498 0.324916 0.455643
#
# Coordination Sequence:
#
# PCOD9439496 Si02
#       8
#     8   4   8   4   8   8   8   4
#     4  10  22  41  64  94 126 175 214 275 323 387
#     4  12  24  38  68  96 134 170 224 263 337 395
#     4  10  22  42  65  87 134 170 220 269 329 379
#     4  12  20  38  64  98 126 172 208 267 331 403
#     4  11  23  41  64  95 131 164 216 279 330 390
#     4  11  22  43  61  96 129 173 215 282 321 394
#     4  11  22  39  65  93 131 166 211 271 333 395
#     4  10  22  44  68  96 132 172 226 272 344 394
#
# _framework density 20.803782999999999
#
# number of rings (size 3 to 8) (size 9 to 14) (size 15 to 20)
#    0.000    1.231    6.154    0.000    2.154    4.923 
#    0.000    3.077    0.000    0.000    0.000    0.000 
#    0.000    0.000    0.000    0.000    0.000    0.000 
#
# Total GULP energy -290445.028126 kJ/mol
# GULP energy per Si atom -5585.481310 kJ/mol
# Density = 2.075643 g / cm^3
# Si number density = 20.803783 Si / 1000 Ang^3
#
#
#
# Elastic Constant Matrix: (Units=GPa)
#
#
# Indices 1 2 3 4 5 6 
#
# 1 24.2851 28.2966 21.0632 0.0000 0.0000 0.0000
# 2 28.2966 108.5708 22.6111 0.0000 0.0000 0.0000
# 3 21.0632 22.6111 126.2397 0.0000 0.0000 0.0000
# 4 0.0000 0.0000 0.0000 193.6789 0.0000 0.0000
# 5 0.0000 0.0000 0.0000 0.0000 4.0415 0.0000
# 6 0.0000 0.0000 0.0000 0.0000 0.0000 46.2184
#
#
#
# Elastic Compliance Matrix: (Units=1/GPa)
#
#
# Indices 1 2 3 4 5 6 
#
# 1 0.066593 -0.015625 -0.008312 0.000000 0.000000 0.000000
# 2 -0.015625 0.013234 0.000237 0.000000 0.000000 0.000000
# 3 -0.008312 0.000237 0.009266 0.000000 0.000000 0.000000
# 4 0.000000 0.000000 0.000000 0.005163 0.000000 0.000000
# 5 0.000000 0.000000 0.000000 0.000000 0.247433 0.000000
# 6 0.000000 0.000000 0.000000 0.000000 0.000000 0.021636
#
#
# Mechanical properties :
#
#
# Convention : Reuss Voigt Hill
#
# Bulk Modulus (GPa) = 23.98581 44.78192 34.38387
# Shear Modulus (GPa) = 11.77514 61.26275 36.51894
#
# Velocity S-wave (km/s) = 2.38168 5.43248 4.19429
# Velocity P-wave (km/s) = 4.37238 7.80523 6.32611
#
# Compressibility (1/GPa) = 0.04169131
#
# Stress axis : x y z
#
# Youngs Moduli (GPa) = 15.01661 75.56555 107.92160
#
# Poissons Ratio (x) = 1.18070 0.89710
# Poissons Ratio (y) = 0.23463 -0.02555
# Poissons Ratio (z) = 0.12483 -0.01789
#
# Static dielectric constant tensor:
#      x y z
#    x 1.743280 0.000000 0.000000 
#    y 0.000000 1.786650 0.000000 
#    z 0.000000 0.000000 1.740940 
# 
# From -- ./inp_files/28590.got.cif
#   From: 2010.05.17/outbox.cif.g08.bks.cpg/sg57_15_cif.got.tgz:28590.got - 2010.06.03 13:58:18.
