data_PCOD9439074
_publ_section_title
;
Structure prediction by ZEFSAII (Michael W. Deem and Ramdas Pophale) SiO2 
 PCOD9439074
Probable space group: P B C M
;
_chemical_formula_sum "Si O2"
_cell_formula_units_Z 60
_cell_length_a 15.359485
_cell_length_b 8.700797
_cell_length_c 17.699828
_cell_angle_alpha 90.000000
_cell_angle_beta 90.000000
_cell_angle_gamma 90.000000
_cell_volume 2365.400784
_symmetry_space_group_name_H-M "P B C M"
_symmetry_group_IT_number 57
_symmetry_cell_setting 'orthorhombic'
loop_
_space_group_symop_operation_xyz
x,y,z
-x,-y,1/2+z
x,1/2-y,-z
-x,1/2+y,1/2-z
-x,-y,-z
x,y,1/2-z
-x,1/2+y,z
x,1/2-y,1/2+z
loop_
_atom_site_type_symbol
_atom_site_label
_atom_site_fract_x
_atom_site_fract_y
_atom_site_fract_z
Si Si1 0.934543 0.900306 0.451092
Si Si2 0.324968 0.452422 0.331286
Si Si3 0.240302 0.423214 0.976384
Si Si4 0.398704 0.955628 0.164679
Si Si5 0.156629 0.233217 0.334419
Si Si6 0.460715 0.235187 0.587338
Si Si7 0.233332 0.750000 0.000000
Si Si8 0.225853 0.773680 0.333774
O O1 0.940334 0.750000 0.500000
O O2 0.837553 0.959897 0.465360
O O3 0.925097 0.836274 0.365331
O O4 0.000000 0.000000 0.500000
O O5 0.370487 0.434271 0.250000
O O6 0.242746 0.338386 0.330053
O O7 0.393165 0.401712 0.393827
O O8 0.284264 0.619712 0.335001
O O9 0.186486 0.388572 0.898552
O O10 0.288383 0.588319 0.989808
O O11 0.274477 0.250000 0.000000
O O12 0.425087 0.992550 0.250000
O O13 0.454061 0.813272 0.133380
O O14 0.298108 0.907711 0.167465
O O15 0.416197 0.107417 0.115671
O O16 0.139319 0.172755 0.250000
O O17 0.480821 0.250000 0.500000
O O18 0.182818 0.733320 0.918133
O O19 0.180623 0.775247 0.250000
#
# Coordination Sequence:
#
# PCOD9439074 Si02
#       8
#     8   8   8   8   8   8   4   8
#     4   9  19  37  60  91 129 169 219 265 323 396
#     4  10  21  40  63  88 121 169 211 268 340 399
#     4   9  21  39  59  95 130 171 225 273 339 406
#     4  11  24  44  61  86 123 165 214 271 341 421
#     4   9  19  38  66  93 131 174 224 279 338 403
#     4  12  26  39  65  91 119 157 213 273 341 415
#     4  12  24  38  68  94 134 178 226 288 360 410
#     4  10  24  40  60  90 125 163 218 274 336 419
#
# _framework density 25.365680000000001
#
# number of rings (size 3 to 8) (size 9 to 14) (size 15 to 20)
#    0.000    2.133    0.000    4.000    5.600    3.733 
#    0.000    2.667    0.000    0.000    0.000    0.000 
#    0.000    0.000    0.000    0.000    0.000    0.000 
#
# Total GULP energy -334188.510446 kJ/mol
# GULP energy per Si atom -5569.808507 kJ/mol
# Density = 2.530795 g / cm^3
# Si number density = 25.365680 Si / 1000 Ang^3
#
#
#
# Elastic Constant Matrix: (Units=GPa)
#
#
# Indices 1 2 3 4 5 6 
#
# 1 21.3261 17.5903 -1.5703 0.0000 0.0000 0.0000
# 2 17.5903 138.4456 23.4076 0.0000 0.0000 0.0000
# 3 -1.5703 23.4076 231.0898 0.0000 0.0000 0.0000
# 4 0.0000 0.0000 0.0000 27.3382 0.0000 0.0000
# 5 0.0000 0.0000 0.0000 0.0000 18.7689 0.0000
# 6 0.0000 0.0000 0.0000 0.0000 0.0000 28.4740
#
#
#
# Elastic Compliance Matrix: (Units=1/GPa)
#
#
# Indices 1 2 3 4 5 6 
#
# 1 0.052631 -0.006865 0.001053 0.000000 0.000000 0.000000
# 2 -0.006865 0.008244 -0.000882 0.000000 0.000000 0.000000
# 3 0.001053 -0.000882 0.004424 0.000000 0.000000 0.000000
# 4 0.000000 0.000000 0.000000 0.036579 0.000000 0.000000
# 5 0.000000 0.000000 0.000000 0.000000 0.053280 0.000000
# 6 0.000000 0.000000 0.000000 0.000000 0.000000 0.035120
#
#
# Mechanical properties :
#
#
# Convention : Reuss Voigt Hill
#
# Bulk Modulus (GPa) = 19.26358 52.19073 35.72715
# Shear Modulus (GPa) = 22.62764 38.34515 30.48640
#
# Velocity S-wave (km/s) = 2.98997 3.89227 3.47057
# Velocity P-wave (km/s) = 4.41936 6.38903 5.49320
#
# Compressibility (1/GPa) = 0.05191144
#
# Stress axis : x y z
#
# Youngs Moduli (GPa) = 19.00025 121.29476 226.05043
#
# Poissons Ratio (x) = 0.83270 -0.23803
# Poissons Ratio (y) = 0.13044 0.19932
# Poissons Ratio (z) = -0.02001 0.10695
#
# Static dielectric constant tensor:
#      x y z
#    x 1.898070 0.000000 0.000000 
#    y 0.000000 2.369520 0.000000 
#    z 0.000000 0.000000 2.317060 
# 
# From -- ./inp_files/22894.got.cif
#   From: 2010.05.17/outbox.cif.g08.bks.cpg/sg57_12_cif.got.tgz:22894.got - 2010.06.03 13:58:18.
