data_PCOD9439122
_publ_section_title
;
Structure prediction by ZEFSAII (Michael W. Deem and Ramdas Pophale) SiO2 
 PCOD9439122
Probable space group: P B C M
;
_chemical_formula_sum "Si O2"
_cell_formula_units_Z 56
_cell_length_a 6.189061
_cell_length_b 14.878990
_cell_length_c 28.330554
_cell_angle_alpha 90.000000
_cell_angle_beta 90.000000
_cell_angle_gamma 90.000000
_cell_volume 2608.875067
_symmetry_space_group_name_H-M "P B C M"
_symmetry_group_IT_number 57
_symmetry_cell_setting 'orthorhombic'
loop_
_space_group_symop_operation_xyz
x,y,z
-x,-y,1/2+z
x,1/2-y,-z
-x,1/2+y,1/2-z
-x,-y,-z
x,y,1/2-z
-x,1/2+y,z
x,1/2-y,1/2+z
loop_
_atom_site_type_symbol
_atom_site_label
_atom_site_fract_x
_atom_site_fract_y
_atom_site_fract_z
Si Si1 0.304072 0.145324 0.113339
Si Si2 0.996757 0.481605 0.931714
Si Si3 0.449205 0.682554 0.591514
Si Si4 0.619230 0.399018 0.802136
Si Si5 0.796245 0.922389 0.156901
Si Si6 0.923132 0.243872 0.660353
Si Si7 0.689411 0.074189 0.996214
O O1 0.432607 0.222852 0.087554
O O2 0.449141 0.106895 0.155326
O O3 0.212772 0.074391 0.077096
O O4 0.095280 0.190761 0.136429
O O5 0.934709 0.527331 0.883011
O O6 0.083668 0.555455 0.968030
O O7 0.795544 0.423447 0.951408
O O8 0.597757 0.620544 0.626270
O O9 0.231344 0.700977 0.620618
O O10 0.413509 0.646437 0.538990
O O11 0.520674 0.393170 0.750000
O O12 0.728564 0.496985 0.808446
O O13 0.776758 0.311871 0.808540
O O14 0.934639 0.840398 0.179540
O O15 0.500000 0.000000 0.000000
#
# Coordination Sequence:
#
# PCOD9439122 Si02
#       7
#     8   8   8   8   8   8   8
#     4  10  23  42  66  90 134 179 215 269 337 399
#     4  11  22  38  66  92 126 177 222 263 332 388
#     4  10  21  40  65  93 132 178 219 266 328 385
#     4  11  25  43  69 103 131 169 223 280 336 404
#     4  11  21  40  72  96 131 179 215 266 344 401
#     4  10  22  43  69  95 129 177 216 267 329 398
#     4  11  22  37  63  96 129 169 228 275 308 389
#
# _framework density 21.465191999999998
#
# number of rings (size 3 to 8) (size 9 to 14) (size 15 to 20)
#    0.000    1.429    4.286    0.857    0.000    1.143 
#    0.000   10.000    0.000    0.000    0.000    0.000 
#    0.000    0.000    0.000    0.000    0.000    0.000 
#
# Total GULP energy -312194.111819 kJ/mol
# GULP energy per Si atom -5574.894854 kJ/mol
# Density = 2.141634 g / cm^3
# Si number density = 21.465192 Si / 1000 Ang^3
#
#
#
# Elastic Constant Matrix: (Units=GPa)
#
#
# Indices 1 2 3 4 5 6 
#
# 1 77.7062 20.3273 10.7664 0.0000 0.0000 0.0000
# 2 20.3273 74.4763 16.4333 0.0000 0.0000 0.0000
# 3 10.7664 16.4333 39.3511 0.0000 0.0000 0.0000
# 4 0.0000 0.0000 0.0000 16.2951 0.0000 0.0000
# 5 0.0000 0.0000 0.0000 0.0000 11.1222 0.0000
# 6 0.0000 0.0000 0.0000 0.0000 0.0000 31.3931
#
#
#
# Elastic Compliance Matrix: (Units=1/GPa)
#
#
# Indices 1 2 3 4 5 6 
#
# 1 0.014074 -0.003295 -0.002474 0.000000 0.000000 0.000000
# 2 -0.003295 0.015561 -0.005597 0.000000 0.000000 0.000000
# 3 -0.002474 -0.005597 0.028427 0.000000 0.000000 0.000000
# 4 0.000000 0.000000 0.000000 0.061368 0.000000 0.000000
# 5 0.000000 0.000000 0.000000 0.000000 0.089910 0.000000
# 6 0.000000 0.000000 0.000000 0.000000 0.000000 0.031854
#
#
# Mechanical properties :
#
#
# Convention : Reuss Voigt Hill
#
# Bulk Modulus (GPa) = 28.30576 31.84306 30.07441
# Shear Modulus (GPa) = 18.13541 21.36254 19.74898
#
# Velocity S-wave (km/s) = 2.90983 3.15813 3.03652
# Velocity P-wave (km/s) = 4.95024 5.30710 5.13177
#
# Compressibility (1/GPa) = 0.03532850
#
# Stress axis : x y z
#
# Youngs Moduli (GPa) = 71.05385 64.26128 35.17828
#
# Poissons Ratio (x) = 0.21176 0.08705
# Poissons Ratio (y) = 0.23414 0.19689
# Poissons Ratio (z) = 0.17582 0.35967
#
# Static dielectric constant tensor:
#      x y z
#    x 1.828130 0.000000 0.000000 
#    y 0.000000 1.864100 0.000000 
#    z 0.000000 0.000000 1.821380 
# 
# From -- ./inp_files/29181.got.cif
#   From: 2010.05.17/outbox.cif.g08.bks.cpg/sg57_15_cif.got.tgz:29181.got - 2010.06.03 13:58:18.
