data_PCOD9439153
_publ_section_title
;
Structure prediction by ZEFSAII (Michael W. Deem and Ramdas Pophale) SiO2 
 PCOD9439153
Probable space group: P B C M
;
_chemical_formula_sum "Si O2"
_cell_formula_units_Z 40
_cell_length_a 5.374808
_cell_length_b 12.952221
_cell_length_c 25.844199
_cell_angle_alpha 90.000000
_cell_angle_beta 90.000000
_cell_angle_gamma 90.000000
_cell_volume 1799.162031
_symmetry_space_group_name_H-M "P B C M"
_symmetry_group_IT_number 57
_symmetry_cell_setting 'orthorhombic'
loop_
_space_group_symop_operation_xyz
x,y,z
-x,-y,1/2+z
x,1/2-y,-z
-x,1/2+y,1/2-z
-x,-y,-z
x,y,1/2-z
-x,1/2+y,z
x,1/2-y,1/2+z
loop_
_atom_site_type_symbol
_atom_site_label
_atom_site_fract_x
_atom_site_fract_y
_atom_site_fract_z
Si Si1 0.959388 0.245065 0.250000
Si Si2 0.961342 0.668251 0.033164
Si Si3 0.002043 0.130049 0.358055
Si Si4 0.538387 0.877996 0.250000
Si Si5 0.305256 0.549584 0.961175
Si Si6 0.493020 0.000609 0.643214
O O1 0.217590 0.307231 0.250000
O O2 0.949334 0.180674 0.302790
O O3 0.718716 0.316676 0.250000
O O4 0.000373 0.705662 0.091928
O O5 0.871588 0.551059 0.045043
O O6 0.798387 0.750000 0.000000
O O7 0.175525 0.643038 0.991011
O O8 0.769479 0.053721 0.368469
O O9 0.275204 0.078727 0.352488
O O10 0.538683 0.943665 0.197596
O O11 0.428610 0.571573 0.905732
O O12 0.500000 0.500000 0.000000
#
# Coordination Sequence:
#
# PCOD9439153 Si02
#       6
#     4   8   8   4   8   8
#     4  12  26  42  64 100 134 160 226 278 326 400
#     4  10  23  39  64  95 132 174 215 273 337 390
#     4  11  23  44  65  93 129 176 214 266 332 397
#     4  12  26  42  66 100 124 174 218 282 332 382
#     4  10  21  41  63  94 130 172 224 270 323 410
#     4  11  23  43  69  89 129 177 219 264 334 394
#
# _framework density 22.232572000000001
#
# number of rings (size 3 to 8) (size 9 to 14) (size 15 to 20)
#    0.000    1.200    2.000    3.600    2.800    2.400 
#    0.000    0.000    0.000    0.000    0.000    0.000 
#    0.000    0.000    0.000    0.000    0.000    0.000 
#
# Total GULP energy -223107.121231 kJ/mol
# GULP energy per Si atom -5577.678031 kJ/mol
# Density = 2.218197 g / cm^3
# Si number density = 22.232572 Si / 1000 Ang^3
#
#
#
# Elastic Constant Matrix: (Units=GPa)
#
#
# Indices 1 2 3 4 5 6 
#
# 1 131.2617 20.1018 27.9766 0.0000 0.0000 0.0000
# 2 20.1018 42.6989 34.5401 0.0000 0.0000 0.0000
# 3 27.9766 34.5401 207.2875 0.0000 0.0000 0.0000
# 4 0.0000 0.0000 0.0000 36.8325 0.0000 0.0000
# 5 0.0000 0.0000 0.0000 0.0000 39.8438 0.0000
# 6 0.0000 0.0000 0.0000 0.0000 0.0000 20.2841
#
#
#
# Elastic Compliance Matrix: (Units=1/GPa)
#
#
# Indices 1 2 3 4 5 6 
#
# 1 0.008262 -0.003453 -0.000540 0.000000 0.000000 0.000000
# 2 -0.003453 0.028512 -0.004285 0.000000 0.000000 0.000000
# 3 -0.000540 -0.004285 0.005611 0.000000 0.000000 0.000000
# 4 0.000000 0.000000 0.000000 0.027150 0.000000 0.000000
# 5 0.000000 0.000000 0.000000 0.000000 0.025098 0.000000
# 6 0.000000 0.000000 0.000000 0.000000 0.000000 0.049300
#
#
# Mechanical properties :
#
#
# Convention : Reuss Voigt Hill
#
# Bulk Modulus (GPa) = 38.71535 60.72057 49.71796
# Shear Modulus (GPa) = 29.56873 39.30071 34.43472
#
# Velocity S-wave (km/s) = 3.65084 4.20897 3.93980
# Velocity P-wave (km/s) = 5.93490 7.14083 6.56561
#
# Compressibility (1/GPa) = 0.02582955
#
# Stress axis : x y z
#
# Youngs Moduli (GPa) = 121.03285 35.07349 178.22018
#
# Poissons Ratio (x) = 0.12111 0.09619
# Poissons Ratio (y) = 0.41794 0.76364
# Poissons Ratio (z) = 0.06532 0.15028
#
# Static dielectric constant tensor:
#      x y z
#    x 1.843550 0.000000 0.000000 
#    y 0.000000 2.346190 0.000000 
#    z 0.000000 0.000000 2.026700 
# 
# From -- ./inp_files/26146.got.cif
#   From: 2010.05.17/outbox.cif.g08.bks.cpg/sg57_14_cif.got.tgz:26146.got - 2010.06.03 13:58:18.
