data_PCOD9439245
_publ_section_title
;
Structure prediction by ZEFSAII (Michael W. Deem and Ramdas Pophale) SiO2 
 PCOD9439245
Probable space group: P B C M
;
_chemical_formula_sum "Si O2"
_cell_formula_units_Z 28
_cell_length_a 6.780617
_cell_length_b 15.628827
_cell_length_c 10.576212
_cell_angle_alpha 90.000000
_cell_angle_beta 90.000000
_cell_angle_gamma 90.000000
_cell_volume 1120.793867
_symmetry_space_group_name_H-M "P B C M"
_symmetry_group_IT_number 57
_symmetry_cell_setting 'orthorhombic'
loop_
_space_group_symop_operation_xyz
x,y,z
-x,-y,1/2+z
x,1/2-y,-z
-x,1/2+y,1/2-z
-x,-y,-z
x,y,1/2-z
-x,1/2+y,z
x,1/2-y,1/2+z
loop_
_atom_site_type_symbol
_atom_site_label
_atom_site_fract_x
_atom_site_fract_y
_atom_site_fract_z
Si Si1 0.663075 0.110409 0.750000
Si Si2 0.735591 0.997967 0.974599
Si Si3 0.757822 0.302513 0.750000
Si Si4 0.285042 0.509989 0.250000
Si Si5 0.850857 0.810842 0.612119
O O1 0.653981 0.211891 0.750000
O O2 0.769939 0.074303 0.875603
O O3 0.451996 0.062616 0.750000
O O4 0.787144 0.907118 0.914829
O O5 0.500000 0.000000 0.000000
O O6 0.825422 0.002596 0.115832
O O7 0.639039 0.391223 0.750000
O O8 0.912322 0.305879 0.867253
O O9 0.784884 0.750000 0.500000
O O10 0.774620 0.782897 0.750000
#
# Coordination Sequence:
#
# PCOD9439245 Si02
#       5
#     4   8   4   4   8
#     4  10  21  45  68  99 145 190 238 298 367 416
#     4  10  22  46  66 101 142 185 236 301 355 432
#     4  10  25  44  73  99 150 187 246 303 361 433
#     4  10  24  39  69 108 133 191 238 293 362 427
#     4  10  24  45  68 104 139 185 245 297 364 431
#
# _framework density 24.982292999999999
#
# number of rings (size 3 to 8) (size 9 to 14) (size 15 to 20)
#    0.857    1.143    1.429    0.000    6.000    1.143 
#   25.714    0.000    0.000    0.000    0.000    0.000 
#    0.000    0.000    0.000    0.000    0.000    0.000 
#
# Total GULP energy -156502.442950 kJ/mol
# GULP energy per Si atom -5589.372962 kJ/mol
# Density = 2.492543 g / cm^3
# Si number density = 24.982293 Si / 1000 Ang^3
#
#
#
# Elastic Constant Matrix: (Units=GPa)
#
#
# Indices 1 2 3 4 5 6 
#
# 1 93.3743 58.2170 2.6815 0.0000 0.0000 0.0000
# 2 58.2170 208.6868 46.2182 0.0000 0.0000 0.0000
# 3 2.6815 46.2182 210.3220 0.0000 0.0000 0.0000
# 4 0.0000 0.0000 0.0000 45.6751 0.0000 0.0000
# 5 0.0000 0.0000 0.0000 0.0000 9.2882 0.0000
# 6 0.0000 0.0000 0.0000 0.0000 0.0000 40.3972
#
#
#
# Elastic Compliance Matrix: (Units=1/GPa)
#
#
# Indices 1 2 3 4 5 6 
#
# 1 0.013053 -0.003789 0.000666 0.000000 0.000000 0.000000
# 2 -0.003789 0.006137 -0.001300 0.000000 0.000000 0.000000
# 3 0.000666 -0.001300 0.005032 0.000000 0.000000 0.000000
# 4 0.000000 0.000000 0.000000 0.021894 0.000000 0.000000
# 5 0.000000 0.000000 0.000000 0.000000 0.107664 0.000000
# 6 0.000000 0.000000 0.000000 0.000000 0.000000 0.024754
#
#
# Mechanical properties :
#
#
# Convention : Reuss Voigt Hill
#
# Bulk Modulus (GPa) = 65.03830 80.73517 72.88673
# Shear Modulus (GPa) = 25.97346 46.08984 36.03165
#
# Velocity S-wave (km/s) = 3.22790 4.29989 3.80187
# Velocity P-wave (km/s) = 6.32319 7.55243 6.96498
#
# Compressibility (1/GPa) = 0.01537556
#
# Stress axis : x y z
#
# Youngs Moduli (GPa) = 76.61240 162.95125 198.73397
#
# Poissons Ratio (x) = 0.61740 -0.13239
# Poissons Ratio (y) = 0.29027 0.25841
# Poissons Ratio (z) = -0.05104 0.21188
#
# Static dielectric constant tensor:
#      x y z
#    x 2.092340 0.000000 0.000000 
#    y 0.000000 1.858100 0.000000 
#    z 0.000000 0.000000 2.065530 
# 
# From -- ./inp_files/11269.got.cif
#   From: 2010.05.17/outbox.cif.g08.bks.cpg/sg57_6_cif.got.tgz:11269.got - 2010.06.03 13:58:18.
