data_PCOD9439776
_publ_section_title
;
Structure prediction by ZEFSAII (Michael W. Deem and Ramdas Pophale) SiO2 
 PCOD9439776
Probable space group: P B C M
;
_chemical_formula_sum "Si O2"
_cell_formula_units_Z 52
_cell_length_a 20.635304
_cell_length_b 5.218679
_cell_length_c 21.800402
_cell_angle_alpha 90.000000
_cell_angle_beta 90.000000
_cell_angle_gamma 90.000000
_cell_volume 2347.664094
_symmetry_space_group_name_H-M "P B C M"
_symmetry_group_IT_number 57
_symmetry_cell_setting 'orthorhombic'
loop_
_space_group_symop_operation_xyz
x,y,z
-x,-y,1/2+z
x,1/2-y,-z
-x,1/2+y,1/2-z
-x,-y,-z
x,y,1/2-z
-x,1/2+y,z
x,1/2-y,1/2+z
loop_
_atom_site_type_symbol
_atom_site_label
_atom_site_fract_x
_atom_site_fract_y
_atom_site_fract_z
Si Si1 0.086276 0.353039 0.750000
Si Si2 0.037289 0.462603 0.614008
Si Si3 0.171606 0.664589 0.250000
Si Si4 0.168050 0.078603 0.439384
Si Si5 0.349278 0.025125 0.315160
Si Si6 0.760413 0.887894 0.148309
Si Si7 0.697228 0.240821 0.933322
Si Si8 0.457682 0.217741 0.750000
O O1 0.048564 0.434722 0.687820
O O2 0.145822 0.551319 0.750000
O O3 0.115694 0.061462 0.750000
O O4 0.101280 0.556931 0.577664
O O5 0.983655 0.674234 0.597704
O O6 0.215988 0.615506 0.309132
O O7 0.163378 0.250000 0.500000
O O8 0.177090 0.259550 0.380318
O O9 0.233858 0.911013 0.440505
O O10 0.350858 0.873198 0.250000
O O11 0.284551 0.193880 0.315912
O O12 0.410547 0.214302 0.307210
O O13 0.345558 0.873044 0.378302
O O14 0.718460 0.982667 0.090843
O O15 0.666303 0.250000 0.000000
O O16 0.513251 0.435607 0.750000
#
# Coordination Sequence:
#
# PCOD9439776 Si02
#       8
#     4   8   4   8   8   8   8   4
#     4  12  24  43  62  86 117 151 204 261 344 422
#     4  12  27  44  65  87 117 163 217 281 339 411
#     4  12  23  36  68  94 119 161 196 273 342 412
#     4  11  24  43  61  89 126 167 225 270 348 425
#     4   9  23  38  63 107 139 179 234 287 325 398
#     4  11  22  38  63  98 133 166 215 280 349 403
#     4  11  23  39  68  96 141 182 218 285 357 416
#     4  10  23  43  72 104 150 198 234 282 336 380
#
# _framework density 22.149675999999999
#
# number of rings (size 3 to 8) (size 9 to 14) (size 15 to 20)
#    0.462    0.615    3.846    2.308    7.538    0.615 
#    0.000    0.000    0.000    0.923    0.000    0.000 
#    0.000    0.000    0.000    0.000    0.000    0.000 
#
# Total GULP energy -290429.343434 kJ/mol
# GULP energy per Si atom -5585.179681 kJ/mol
# Density = 2.209926 g / cm^3
# Si number density = 22.149676 Si / 1000 Ang^3
#
#
#
# Elastic Constant Matrix: (Units=GPa)
#
#
# Indices 1 2 3 4 5 6 
#
# 1 60.1532 8.1653 14.3071 0.0000 0.0000 0.0000
# 2 8.1653 58.3059 12.9980 0.0000 0.0000 0.0000
# 3 14.3071 12.9980 121.7922 0.0000 0.0000 0.0000
# 4 0.0000 0.0000 0.0000 23.6962 0.0000 0.0000
# 5 0.0000 0.0000 0.0000 0.0000 5.1627 0.0000
# 6 0.0000 0.0000 0.0000 0.0000 0.0000 24.3036
#
#
#
# Elastic Compliance Matrix: (Units=1/GPa)
#
#
# Indices 1 2 3 4 5 6 
#
# 1 0.017332 -0.002021 -0.001820 0.000000 0.000000 0.000000
# 2 -0.002021 0.017805 -0.001663 0.000000 0.000000 0.000000
# 3 -0.001820 -0.001663 0.008602 0.000000 0.000000 0.000000
# 4 0.000000 0.000000 0.000000 0.042201 0.000000 0.000000
# 5 0.000000 0.000000 0.000000 0.000000 0.193698 0.000000
# 6 0.000000 0.000000 0.000000 0.000000 0.000000 0.041146
#
#
# Mechanical properties :
#
#
# Convention : Reuss Voigt Hill
#
# Bulk Modulus (GPa) = 30.55343 34.57691 32.56517
# Shear Modulus (GPa) = 14.58993 24.28457 19.43725
#
# Velocity S-wave (km/s) = 2.56929 3.31476 2.96555
# Velocity P-wave (km/s) = 4.75665 5.50406 5.14395
#
# Compressibility (1/GPa) = 0.03272955
#
# Stress axis : x y z
#
# Youngs Moduli (GPa) = 57.69830 56.16508 116.25231
#
# Poissons Ratio (x) = 0.11353 0.21161
# Poissons Ratio (y) = 0.11663 0.19329
# Poissons Ratio (z) = 0.10502 0.09339
#
# Static dielectric constant tensor:
#      x y z
#    x 1.814670 0.000000 0.000000 
#    y 0.000000 1.864190 0.000000 
#    z 0.000000 0.000000 1.857510 
# 
# From -- ./inp_files/25779.got.cif
#   From: 2010.05.17/outbox.cif.g08.bks.cpg/sg57_13_cif.got.tgz:25779.got - 2010.06.03 13:58:18.
