data_PCOD9439772
_publ_section_title
;
Structure prediction by ZEFSAII (Michael W. Deem and Ramdas Pophale) SiO2 
 PCOD9439772
Probable space group: P B C M
;
_chemical_formula_sum "Si O2"
_cell_formula_units_Z 56
_cell_length_a 30.860265
_cell_length_b 4.964240
_cell_length_c 14.468033
_cell_angle_alpha 90.000000
_cell_angle_beta 90.000000
_cell_angle_gamma 90.000000
_cell_volume 2216.470275
_symmetry_space_group_name_H-M "P B C M"
_symmetry_group_IT_number 57
_symmetry_cell_setting 'orthorhombic'
loop_
_space_group_symop_operation_xyz
x,y,z
-x,-y,1/2+z
x,1/2-y,-z
-x,1/2+y,1/2-z
-x,-y,-z
x,y,1/2-z
-x,1/2+y,z
x,1/2-y,1/2+z
loop_
_atom_site_type_symbol
_atom_site_label
_atom_site_fract_x
_atom_site_fract_y
_atom_site_fract_z
Si Si1 0.343548 0.394927 0.147137
Si Si2 0.712428 0.117478 0.898166
Si Si3 0.026971 0.697941 0.638594
Si Si4 0.110051 0.366538 0.900644
Si Si5 0.412057 0.250000 0.000000
Si Si6 0.470912 0.557961 0.643781
Si Si7 0.144260 0.064148 0.750000
Si Si8 0.809576 0.222364 0.889007
O O1 0.358903 0.319609 0.250000
O O2 0.318765 0.675580 0.152879
O O3 0.381613 0.407097 0.072494
O O4 0.309380 0.172210 0.111025
O O5 0.762073 0.114589 0.866069
O O6 0.713848 0.250000 0.000000
O O7 0.031621 0.680630 0.750000
O O8 0.069952 0.567181 0.597110
O O9 0.012310 0.995537 0.612198
O O10 0.107074 0.123848 0.829527
O O11 0.151037 0.529811 0.858433
O O12 0.119895 0.250000 0.000000
O O13 0.439346 0.047940 0.064540
O O14 0.454933 0.521856 0.750000
O O15 0.486792 0.864359 0.634419
O O16 0.179851 0.988274 0.668246
O O17 0.812871 0.250000 0.000000
#
# Coordination Sequence:
#
# PCOD9439772 Si02
#       8
#     8   8   8   8   4   8   4   8
#     4  12  27  45  69 102 142 191 247 296 359 437
#     4  11  25  49  71 101 142 190 243 303 360 431
#     4  10  24  43  69  99 139 185 228 281 349 429
#     4  12  26  45  73 107 140 179 237 290 357 435
#     4  12  24  46  70 102 146 196 240 300 368 428
#     4  10  23  43  70 107 142 185 243 304 364 433
#     4  12  26  46  72 104 140 188 226 298 362 422
#     4  11  27  44  73 103 141 181 238 300 362 424
#
# _framework density 25.265397
#
# number of rings (size 3 to 8) (size 9 to 14) (size 15 to 20)
#    0.000    0.857    3.571    1.714    6.000    2.857 
#    0.000    2.857    0.000    0.000    0.000    0.000 
#    0.000    0.000    0.000    0.000    0.000    0.000 
#
# Total GULP energy -312911.025266 kJ/mol
# GULP energy per Si atom -5587.696880 kJ/mol
# Density = 2.520789 g / cm^3
# Si number density = 25.265397 Si / 1000 Ang^3
#
#
#
# Elastic Constant Matrix: (Units=GPa)
#
#
# Indices 1 2 3 4 5 6 
#
# 1 110.0297 0.7538 35.4672 0.0000 0.0000 0.0000
# 2 0.7538 61.8844 -8.5483 0.0000 0.0000 0.0000
# 3 35.4672 -8.5483 179.8916 0.0000 0.0000 0.0000
# 4 0.0000 0.0000 0.0000-2082.4493 0.0000 0.0000
# 5 0.0000 0.0000 0.0000 0.0000 41.2589 0.0000
# 6 0.0000 0.0000 0.0000 0.0000 0.0000 14.6574
#
#
#
# Elastic Compliance Matrix: (Units=1/GPa)
#
#
# Indices 1 2 3 4 5 6 
#
# 1 0.009714 -0.000385 -0.001934 0.000000 0.000000 0.000000
# 2 -0.000385 0.016281 0.000850 0.000000 0.000000 0.000000
# 3 -0.001934 0.000850 0.005981 0.000000 0.000000 0.000000
# 4 0.000000 0.000000 0.000000 -0.000480 0.000000 0.000000
# 5 0.000000 0.000000 0.000000 0.000000 0.024237 0.000000
# 6 0.000000 0.000000 0.000000 0.000000 0.000000 0.068225
#
#
# Mechanical properties :
#
#
# Convention : Reuss Voigt Hill
#
# Bulk Modulus (GPa) = 34.43836 45.23900 39.83868
# Shear Modulus (GPa) = 36.60966 -383.69775 -173.54405
#
# Velocity S-wave (km/s) = 3.81071 -12.33680 -8.29684
# Velocity P-wave (km/s) = 5.74650 13.60090 8.71671
#
# Compressibility (1/GPa) = 0.02903739
#
# Stress axis : x y z
#
# Youngs Moduli (GPa) = 102.94022 61.42048 167.21005
#
# Poissons Ratio (x) = 0.02367 0.32332
# Poissons Ratio (y) = 0.03968 -0.14207
# Poissons Ratio (z) = 0.19904 -0.05219
#
# Static dielectric constant tensor:
#      x y z
#    x 1.972500 0.000000 0.000000 
#    y 0.000000 2.105980 0.000000 
#    z 0.000000 0.000000 2.048060 
# 
# From -- ./inp_files/19663.got.cif
#   From: 2010.05.17/outbox.cif.g08.bks.cpg/sg57_10_cif.got.tgz:19663.got - 2010.06.03 13:58:18.
