data_PCOD9439466
_publ_section_title
;
Structure prediction by ZEFSAII (Michael W. Deem and Ramdas Pophale) SiO2 
 PCOD9439466
Probable space group: P B C M
;
_chemical_formula_sum "Si O2"
_cell_formula_units_Z 48
_cell_length_a 8.780587
_cell_length_b 10.960469
_cell_length_c 24.110176
_cell_angle_alpha 90.000000
_cell_angle_beta 90.000000
_cell_angle_gamma 90.000000
_cell_volume 2320.347706
_symmetry_space_group_name_H-M "P B C M"
_symmetry_group_IT_number 57
_symmetry_cell_setting 'orthorhombic'
loop_
_space_group_symop_operation_xyz
x,y,z
-x,-y,1/2+z
x,1/2-y,-z
-x,1/2+y,1/2-z
-x,-y,-z
x,y,1/2-z
-x,1/2+y,z
x,1/2-y,1/2+z
loop_
_atom_site_type_symbol
_atom_site_label
_atom_site_fract_x
_atom_site_fract_y
_atom_site_fract_z
Si Si1 0.153887 0.539575 0.250000
Si Si2 0.112679 0.252385 0.750000
Si Si3 0.230951 0.863489 0.865641
Si Si4 0.715049 0.905691 0.437442
Si Si5 0.607550 0.311175 0.059400
Si Si6 0.110495 0.299592 0.870444
Si Si7 0.852145 0.992296 0.960131
O O1 0.093525 0.397738 0.250000
O O2 0.245144 0.569460 0.193581
O O3 0.023694 0.645495 0.250000
O O4 0.184495 0.282835 0.809833
O O5 0.363682 0.778478 0.889077
O O6 0.072507 0.787509 0.864396
O O7 0.223729 0.969226 0.911474
O O8 0.536475 0.893972 0.426054
O O9 0.814512 0.799973 0.410013
O O10 0.739087 0.909953 0.503075
O O11 0.765036 0.381976 0.048693
O O12 0.572603 0.250000 0.000000
O O13 0.126413 0.429005 0.900941
O O14 0.000000 0.000000 0.000000
#
# Coordination Sequence:
#
# PCOD9439466 Si02
#       7
#     4   4   8   8   8   8   8
#     4  10  22  44  69  97 135 175 235 286 351 401
#     4  10  22  40  69  99 131 181 229 296 345 417
#     4  11  24  43  67  95 131 173 223 283 337 410
#     4  12  24  41  66  94 137 176 222 276 351 411
#     4  12  25  41  65  95 138 179 223 276 352 420
#     4  11  23  41  67  96 129 175 231 282 347 405
#     4  12  23  41  67 100 138 177 227 287 345 422
#
# _framework density 20.686553
#
# number of rings (size 3 to 8) (size 9 to 14) (size 15 to 20)
#    0.000    0.667    5.000    3.000    2.333    1.333 
#    0.000    1.667    0.000    0.000    0.000    0.000 
#    0.000    0.000    0.000    0.000    0.000    0.000 
#
# Total GULP energy -267612.065056 kJ/mol
# GULP energy per Si atom -5575.251355 kJ/mol
# Density = 2.063947 g / cm^3
# Si number density = 20.686553 Si / 1000 Ang^3
#
#
#
# Elastic Constant Matrix: (Units=GPa)
#
#
# Indices 1 2 3 4 5 6 
#
# 1 53.6797 24.9833 9.3686 0.0000 0.0000 0.0000
# 2 24.9833 74.6330 34.5623 0.0000 0.0000 0.0000
# 3 9.3686 34.5623 130.3034 0.0000 0.0000 0.0000
# 4 0.0000 0.0000 0.0000 38.6144 0.0000 0.0000
# 5 0.0000 0.0000 0.0000 0.0000 12.0984 0.0000
# 6 0.0000 0.0000 0.0000 0.0000 0.0000 32.4437
#
#
#
# Elastic Compliance Matrix: (Units=1/GPa)
#
#
# Indices 1 2 3 4 5 6 
#
# 1 0.022088 -0.007591 0.000425 0.000000 0.000000 0.000000
# 2 -0.007591 0.017884 -0.004198 0.000000 0.000000 0.000000
# 3 0.000425 -0.004198 0.008757 0.000000 0.000000 0.000000
# 4 0.000000 0.000000 0.000000 0.025897 0.000000 0.000000
# 5 0.000000 0.000000 0.000000 0.000000 0.082655 0.000000
# 6 0.000000 0.000000 0.000000 0.000000 0.000000 0.030823
#
#
# Mechanical properties :
#
#
# Convention : Reuss Voigt Hill
#
# Bulk Modulus (GPa) = 38.45819 44.04937 41.25378
# Shear Modulus (GPa) = 22.77925 29.27809 26.02867
#
# Velocity S-wave (km/s) = 3.32198 3.76615 3.55102
# Velocity P-wave (km/s) = 5.77454 6.34443 6.06618
#
# Compressibility (1/GPa) = 0.02600227
#
# Stress axis : x y z
#
# Youngs Moduli (GPa) = 45.27421 55.91616 114.19076
#
# Poissons Ratio (x) = 0.42445 -0.04857
# Poissons Ratio (y) = 0.34367 0.47936
# Poissons Ratio (z) = -0.01926 0.23473
#
# Static dielectric constant tensor:
#      x y z
#    x 1.786520 0.000000 0.000000 
#    y 0.000000 1.783980 0.000000 
#    z 0.000000 0.000000 1.776540 
# 
# From -- ./inp_files/26734.got.cif
#   From: 2010.05.17/outbox.cif.g08.bks.cpg/sg57_14_cif.got.tgz:26734.got - 2010.06.03 13:58:18.
