data_PCOD9439307
_publ_section_title
;
Structure prediction by ZEFSAII (Michael W. Deem and Ramdas Pophale) SiO2 
 PCOD9439307
Probable space group: P B C M
;
_chemical_formula_sum "Si O2"
_cell_formula_units_Z 40
_cell_length_a 5.912863
_cell_length_b 19.928412
_cell_length_c 14.496536
_cell_angle_alpha 90.000000
_cell_angle_beta 90.000000
_cell_angle_gamma 90.000000
_cell_volume 1708.184388
_symmetry_space_group_name_H-M "P B C M"
_symmetry_group_IT_number 57
_symmetry_cell_setting 'orthorhombic'
loop_
_space_group_symop_operation_xyz
x,y,z
-x,-y,1/2+z
x,1/2-y,-z
-x,1/2+y,1/2-z
-x,-y,-z
x,y,1/2-z
-x,1/2+y,z
x,1/2-y,1/2+z
loop_
_atom_site_type_symbol
_atom_site_label
_atom_site_fract_x
_atom_site_fract_y
_atom_site_fract_z
Si Si1 0.823422 0.335635 0.977952
Si Si2 0.186498 0.056393 0.515383
Si Si3 0.473856 0.134010 0.646291
Si Si4 0.538629 0.896980 0.646933
Si Si5 0.206323 0.260857 0.897601
O O1 0.698621 0.376773 0.897460
O O2 0.938295 0.273317 0.918634
O O3 0.653197 0.343262 0.066157
O O4 0.045263 0.374707 0.009481
O O5 0.341175 0.069047 0.605129
O O6 0.344552 0.054396 0.425936
O O7 0.000000 0.000000 0.500000
O O8 0.566503 0.123115 0.750000
O O9 0.293092 0.195119 0.653063
O O10 0.524673 0.922396 0.750000
O O11 0.684087 0.827441 0.645051
O O12 0.308449 0.250000 0.000000
#
# Coordination Sequence:
#
# PCOD9439307 Si02
#       5
#     8   8   8   8   8
#     4  10  22  40  64  86 125 164 201 246 313 360
#     4  10  23  43  64  85 122 165 207 259 313 362
#     4  11  24  40  62  95 126 160 210 257 304 371
#     4  10  22  38  61  91 120 154 204 251 301 368
#     4  11  20  39  61  87 126 160 193 241 304 370
#
# _framework density 23.416675999999999
#
# number of rings (size 3 to 8) (size 9 to 14) (size 15 to 20)
#    0.000    1.600    6.000    0.600    2.800    8.800 
#    0.000    2.000    0.000    0.000    0.000    0.000 
#    0.000    0.000    0.000    0.000    0.000    0.000 
#
# Total GULP energy -222772.634136 kJ/mol
# GULP energy per Si atom -5569.315853 kJ/mol
# Density = 2.336338 g / cm^3
# Si number density = 23.416676 Si / 1000 Ang^3
#
#
#
# Elastic Constant Matrix: (Units=GPa)
#
#
# Indices 1 2 3 4 5 6 
#
# 1 82.4443 10.1019 24.2686 0.0000 0.0000 0.0000
# 2 10.1019 62.0403 6.8791 0.0000 0.0000 0.0000
# 3 24.2686 6.8791 156.2017 0.0000 0.0000 0.0000
# 4 0.0000 0.0000 0.0000 13.1997 0.0000 0.0000
# 5 0.0000 0.0000 0.0000 0.0000 -19.8903 0.0000
# 6 0.0000 0.0000 0.0000 0.0000 0.0000 59.8276
#
#
#
# Elastic Compliance Matrix: (Units=1/GPa)
#
#
# Indices 1 2 3 4 5 6 
#
# 1 0.012928 -0.001892 -0.001925 0.000000 0.000000 0.000000
# 2 -0.001892 0.016474 -0.000432 0.000000 0.000000 0.000000
# 3 -0.001925 -0.000432 0.006720 0.000000 0.000000 0.000000
# 4 0.000000 0.000000 0.000000 0.075759 0.000000 0.000000
# 5 0.000000 0.000000 0.000000 0.000000 -0.050276 0.000000
# 6 0.000000 0.000000 0.000000 0.000000 0.000000 0.016715
#
#
# Mechanical properties :
#
#
# Convention : Reuss Voigt Hill
#
# Bulk Modulus (GPa) = 36.19843 42.57616 39.38730
# Shear Modulus (GPa) = 52.06929 27.92319 39.99624
#
# Velocity S-wave (km/s) = 4.72062 3.45693 4.13731
# Velocity P-wave (km/s) = 6.72341 5.84425 6.29919
#
# Compressibility (1/GPa) = 0.02762551
#
# Stress axis : x y z
#
# Youngs Moduli (GPa) = 77.35206 60.70022 148.80706
#
# Poissons Ratio (x) = 0.11482 0.28649
# Poissons Ratio (y) = 0.14631 0.06423
# Poissons Ratio (z) = 0.14892 0.02620
#
# Static dielectric constant tensor:
#      x y z
#    x 1.913030 0.000000 0.000000 
#    y 0.000000 2.098400 0.000000 
#    z 0.000000 0.000000 1.877350 
# 
# From -- ./inp_files/14945.got.cif
#   From: 2010.05.17/outbox.cif.g08.bks.cpg/sg57_8_cif.got.tgz:14945.got - 2010.06.03 13:58:18.
