data_PCOD9439191
_publ_section_title
;
Structure prediction by ZEFSAII (Michael W. Deem and Ramdas Pophale) SiO2 
 PCOD9439191
Probable space group: P B C M
;
_chemical_formula_sum "Si O2"
_cell_formula_units_Z 56
_cell_length_a 12.665510
_cell_length_b 13.847092
_cell_length_c 14.282350
_cell_angle_alpha 90.000000
_cell_angle_beta 90.000000
_cell_angle_gamma 90.000000
_cell_volume 2504.845430
_symmetry_space_group_name_H-M "P B C M"
_symmetry_group_IT_number 57
_symmetry_cell_setting 'orthorhombic'
loop_
_space_group_symop_operation_xyz
x,y,z
-x,-y,1/2+z
x,1/2-y,-z
-x,1/2+y,1/2-z
-x,-y,-z
x,y,1/2-z
-x,1/2+y,z
x,1/2-y,1/2+z
loop_
_atom_site_type_symbol
_atom_site_label
_atom_site_fract_x
_atom_site_fract_y
_atom_site_fract_z
Si Si1 0.891143 0.236255 0.110733
Si Si2 0.378092 0.441169 0.354664
Si Si3 0.668511 0.155115 0.113506
Si Si4 0.122993 0.250389 0.642916
Si Si5 0.390114 0.634620 0.604776
Si Si6 0.190364 0.103632 0.502066
Si Si7 0.175937 0.547855 0.649834
O O1 0.793203 0.167105 0.134197
O O2 0.869418 0.343849 0.148573
O O3 0.006516 0.203024 0.140573
O O4 0.889306 0.250000 0.000000
O O5 0.351397 0.403513 0.250000
O O6 0.376966 0.556801 0.347948
O O7 0.493113 0.404341 0.383342
O O8 0.294954 0.415356 0.436733
O O9 0.618763 0.256708 0.143953
O O10 0.646921 0.145376 0.002601
O O11 0.153202 0.234422 0.750000
O O12 0.115166 0.153193 0.579772
O O13 0.200613 0.318607 0.582668
O O14 0.302503 0.564015 0.647540
O O15 0.150292 0.010462 0.444919
O O16 0.146062 0.501297 0.750000
#
# Coordination Sequence:
#
# PCOD9439191 Si02
#       7
#     8   8   8   8   8   8   8
#     4  11  19  43  68  98 131 173 221 290 344 407
#     4  12  25  42  65 102 141 182 233 283 339 409
#     4  10  21  41  73  97 133 179 227 278 348 400
#     4  11  25  45  68  96 131 180 234 283 349 417
#     4  10  21  42  68  98 137 177 227 278 335 406
#     4  11  24  44  66  91 137 178 221 287 342 403
#     4  11  22  39  68 102 133 173 226 282 344 412
#
# _framework density 22.356670000000001
#
# number of rings (size 3 to 8) (size 9 to 14) (size 15 to 20)
#    0.000    1.143    5.714    2.143    0.000    6.286 
#    2.571    0.000    0.000    0.000    0.000    0.000 
#    0.000    0.000    0.000    0.000    0.000    0.000 
#
# Total GULP energy -312677.594274 kJ/mol
# GULP energy per Si atom -5583.528469 kJ/mol
# Density = 2.230578 g / cm^3
# Si number density = 22.356670 Si / 1000 Ang^3
#
#
#
# Elastic Constant Matrix: (Units=GPa)
#
#
# Indices 1 2 3 4 5 6 
#
# 1 83.1583 43.0750 17.8209 0.0000 0.0000 0.0000
# 2 43.0750 79.8199 33.3394 0.0000 0.0000 0.0000
# 3 17.8209 33.3394 190.7305 0.0000 0.0000 0.0000
# 4 0.0000 0.0000 0.0000 -1.9318 0.0000 0.0000
# 5 0.0000 0.0000 0.0000 0.0000 -41.9313 0.0000
# 6 0.0000 0.0000 0.0000 0.0000 0.0000 20.5975
#
#
#
# Elastic Compliance Matrix: (Units=1/GPa)
#
#
# Indices 1 2 3 4 5 6 
#
# 1 0.016691 -0.009014 0.000016 0.000000 0.000000 0.000000
# 2 -0.009014 0.018383 -0.002371 0.000000 0.000000 0.000000
# 3 0.000016 -0.002371 0.005656 0.000000 0.000000 0.000000
# 4 0.000000 0.000000 0.000000 -0.517644 0.000000 0.000000
# 5 0.000000 0.000000 0.000000 0.000000 -0.023849 0.000000
# 6 0.000000 0.000000 0.000000 0.000000 0.000000 0.048549
#
#
# Mechanical properties :
#
#
# Convention : Reuss Voigt Hill
#
# Bulk Modulus (GPa) = 55.58059 60.24216 57.91138
# Shear Modulus (GPa) = -11.80698 12.64512 0.41907
#
# Velocity S-wave (km/s) = -2.30058 2.38083 0.43342
# Velocity P-wave (km/s) = 4.22587 5.87897 5.11958
#
# Compressibility (1/GPa) = 0.01799189
#
# Stress axis : x y z
#
# Youngs Moduli (GPa) = 59.91268 54.39807 176.80476
#
# Poissons Ratio (x) = 0.49035 -0.00285
# Poissons Ratio (y) = 0.54006 0.41922
# Poissons Ratio (z) = -0.00097 0.12898
#
# Static dielectric constant tensor:
#      x y z
#    x 1.789220 0.000000 0.000000 
#    y 0.000000 1.872620 0.000000 
#    z 0.000000 0.000000 1.936100 
# 
# From -- ./inp_files/17683.got.cif
#   From: 2010.05.17/outbox.cif.g08.bks.cpg/sg57_9_cif.got.tgz:17683.got - 2010.06.03 13:58:18.
