data_PCOD9439835
_publ_section_title
;
Structure prediction by ZEFSAII (Michael W. Deem and Ramdas Pophale) SiO2 
 PCOD9439835
Probable space group: P B C M
;
_chemical_formula_sum "Si O2"
_cell_formula_units_Z 32
_cell_length_a 4.790657
_cell_length_b 24.102395
_cell_length_c 11.444960
_cell_angle_alpha 90.000000
_cell_angle_beta 90.000000
_cell_angle_gamma 90.000000
_cell_volume 1321.507269
_symmetry_space_group_name_H-M "P B C M"
_symmetry_group_IT_number 57
_symmetry_cell_setting 'orthorhombic'
loop_
_space_group_symop_operation_xyz
x,y,z
-x,-y,1/2+z
x,1/2-y,-z
-x,1/2+y,1/2-z
-x,-y,-z
x,y,1/2-z
-x,1/2+y,z
x,1/2-y,1/2+z
loop_
_atom_site_type_symbol
_atom_site_label
_atom_site_fract_x
_atom_site_fract_y
_atom_site_fract_z
Si Si1 0.838455 0.107701 0.384408
Si Si2 0.916926 0.730218 0.379378
Si Si3 0.705521 0.189691 0.750000
Si Si4 0.659523 0.942150 0.493503
Si Si5 0.800466 0.609394 0.750000
O O1 0.761754 0.098223 0.250000
O O2 0.564373 0.102736 0.461771
O O3 0.973995 0.168108 0.395858
O O4 0.068198 0.063308 0.426041
O O5 0.776738 0.750000 0.500000
O O6 0.768555 0.728994 0.250000
O O7 0.177572 0.772448 0.356514
O O8 0.399472 0.163766 0.750000
O O9 0.891321 0.133975 0.750000
O O10 0.746959 0.926394 0.363940
O O11 0.500000 0.000000 0.500000
#
# Coordination Sequence:
#
# PCOD9439835 Si02
#       5
#     8   8   4   8   4
#     4  11  25  46  72 100 138 175 229 278 339 404
#     4   9  19  38  65  96 133 174 217 270 333 402
#     4  10  24  40  68  98 140 176 220 278 342 416
#     4  12  27  45  71  99 134 184 228 287 337 397
#     4  12  24  44  66 100 140 174 232 280 338 404
#
# _framework density 24.214774999999999
#
# number of rings (size 3 to 8) (size 9 to 14) (size 15 to 20)
#    0.750    0.500    0.000    6.000    3.500    2.000 
#    0.000    5.000    0.000    0.000    0.000    0.000 
#    0.000    0.000    0.000    0.000    0.000    0.000 
#
# Total GULP energy -179126.520691 kJ/mol
# GULP energy per Si atom -5597.703772 kJ/mol
# Density = 2.415966 g / cm^3
# Si number density = 24.214775 Si / 1000 Ang^3
#
#
#
# Elastic Constant Matrix: (Units=GPa)
#
#
# Indices 1 2 3 4 5 6 
#
# 1 60.8943 -9.5502 8.7719 0.0000 0.0000 0.0000
# 2 -9.5502 76.0174 28.6178 0.0000 0.0000 0.0000
# 3 8.7719 28.6178 160.2051 0.0000 0.0000 0.0000
# 4 0.0000 0.0000 0.0000 19.7803 0.0000 0.0000
# 5 0.0000 0.0000 0.0000 0.0000 15.5430 0.0000
# 6 0.0000 0.0000 0.0000 0.0000 0.0000 22.3943
#
#
#
# Elastic Compliance Matrix: (Units=1/GPa)
#
#
# Indices 1 2 3 4 5 6 
#
# 1 0.017044 0.002672 -0.001411 0.000000 0.000000 0.000000
# 2 0.002672 0.014522 -0.002740 0.000000 0.000000 0.000000
# 3 -0.001411 -0.002740 0.006809 0.000000 0.000000 0.000000
# 4 0.000000 0.000000 0.000000 0.050555 0.000000 0.000000
# 5 0.000000 0.000000 0.000000 0.000000 0.064338 0.000000
# 6 0.000000 0.000000 0.000000 0.000000 0.000000 0.044654
#
#
# Mechanical properties :
#
#
# Convention : Reuss Voigt Hill
#
# Bulk Modulus (GPa) = 28.23439 39.19954 33.71696
# Shear Modulus (GPa) = 23.50884 29.49535 26.50210
#
# Velocity S-wave (km/s) = 3.11922 3.49388 3.31185
# Velocity P-wave (km/s) = 4.96568 5.70085 5.34592
#
# Compressibility (1/GPa) = 0.03541780
#
# Stress axis : x y z
#
# Youngs Moduli (GPa) = 58.67097 68.85961 146.86937
#
# Poissons Ratio (x) = -0.18402 0.20717
# Poissons Ratio (y) = -0.15679 0.40249
# Poissons Ratio (z) = 0.08276 0.18871
#
# Static dielectric constant tensor:
#      x y z
#    x 1.876340 0.000000 0.000000 
#    y 0.000000 1.910230 0.000000 
#    z 0.000000 0.000000 2.030110 
# 
# From -- ./inp_files/10782.got.cif
#   From: 2010.05.17/outbox.cif.g08.bks.cpg/sg57_6_cif.got.tgz:10782.got - 2010.06.03 13:58:18.
