data_PCOD9439248
_publ_section_title
;
Structure prediction by ZEFSAII (Michael W. Deem and Ramdas Pophale) SiO2 
 PCOD9439248
Probable space group: P B C M
;
_chemical_formula_sum "Si O2"
_cell_formula_units_Z 48
_cell_length_a 22.955394
_cell_length_b 5.065443
_cell_length_c 19.871470
_cell_angle_alpha 90.000000
_cell_angle_beta 90.000000
_cell_angle_gamma 90.000000
_cell_volume 2310.639426
_symmetry_space_group_name_H-M "P B C M"
_symmetry_group_IT_number 57
_symmetry_cell_setting 'orthorhombic'
loop_
_space_group_symop_operation_xyz
x,y,z
-x,-y,1/2+z
x,1/2-y,-z
-x,1/2+y,1/2-z
-x,-y,-z
x,y,1/2-z
-x,1/2+y,z
x,1/2-y,1/2+z
loop_
_atom_site_type_symbol
_atom_site_label
_atom_site_fract_x
_atom_site_fract_y
_atom_site_fract_z
Si Si1 0.733273 0.770109 0.866283
Si Si2 0.534551 0.104784 0.831855
Si Si3 0.662588 0.279598 0.671750
Si Si4 0.140763 0.215842 0.174511
Si Si5 0.033602 0.581587 0.168687
Si Si6 0.825124 0.988711 0.956698
O O1 0.691786 0.518262 0.868999
O O2 0.792479 0.682273 0.827654
O O3 0.760690 0.890208 0.934408
O O4 0.701358 0.015603 0.831599
O O5 0.536231 0.101717 0.750000
O O6 0.485669 0.315468 0.852962
O O7 0.598309 0.199999 0.852858
O O8 0.658634 0.368034 0.750000
O O9 0.127107 0.118953 0.250000
O O10 0.095225 0.442627 0.155571
O O11 0.143008 0.998841 0.115513
O O12 0.030478 0.597302 0.250000
O O13 0.014877 0.869629 0.144638
O O14 0.851384 0.750000 0.000000
O O15 0.824600 0.250000 0.000000
#
# Coordination Sequence:
#
# PCOD9439248 Si02
#       6
#     8   8   8   8   8   8
#     4  10  22  33  54  79 109 144 183 222 281 329
#     4   9  17  28  43  65 103 153 183 206 263 332
#     4  11  19  31  49  79 115 141 181 233 273 318
#     4   9  20  36  60  86 111 147 188 231 277 330
#     4   9  18  32  51  78 110 141 180 227 272 320
#     4  10  22  40  56  78 113 152 180 221 284 341
#
# _framework density 20.773472999999999
#
# number of rings (size 3 to 8) (size 9 to 14) (size 15 to 20)
#    1.000    1.333    0.000    3.500    0.000    5.333 
#    0.000    5.833    0.000    3.000    0.000    0.000 
#    0.000   46.667    0.000    0.000    0.000    0.000 
#
# Total GULP energy -267511.985835 kJ/mol
# GULP energy per Si atom -5573.166372 kJ/mol
# Density = 2.072619 g / cm^3
# Si number density = 20.773473 Si / 1000 Ang^3
#
#
#
# Elastic Constant Matrix: (Units=GPa)
#
#
# Indices 1 2 3 4 5 6 
#
# 1 68.0991 4.2088 5.3020 0.0000 0.0000 0.0000
# 2 4.2088 63.1466 6.6595 0.0000 0.0000 0.0000
# 3 5.3020 6.6595 62.6118 0.0000 0.0000 0.0000
# 4 0.0000 0.0000 0.0000 80.0041 0.0000 0.0000
# 5 0.0000 0.0000 0.0000 0.0000 3.8008 0.0000
# 6 0.0000 0.0000 0.0000 0.0000 0.0000 27.2439
#
#
#
# Elastic Compliance Matrix: (Units=1/GPa)
#
#
# Indices 1 2 3 4 5 6 
#
# 1 0.014829 -0.000866 -0.001164 0.000000 0.000000 0.000000
# 2 -0.000866 0.016066 -0.001636 0.000000 0.000000 0.000000
# 3 -0.001164 -0.001636 0.016244 0.000000 0.000000 0.000000
# 4 0.000000 0.000000 0.000000 0.012499 0.000000 0.000000
# 5 0.000000 0.000000 0.000000 0.000000 0.263105 0.000000
# 6 0.000000 0.000000 0.000000 0.000000 0.000000 0.036705
#
#
# Mechanical properties :
#
#
# Convention : Reuss Voigt Hill
#
# Bulk Modulus (GPa) = 25.11976 25.13311 25.12644
# Shear Modulus (GPa) = 13.15624 34.05558 23.60591
#
# Velocity S-wave (km/s) = 2.51931 4.05332 3.37463
# Velocity P-wave (km/s) = 4.53664 5.83359 5.22551
#
# Compressibility (1/GPa) = 0.03980929
#
# Stress axis : x y z
#
# Youngs Moduli (GPa) = 67.43736 62.24190 61.56144
#
# Poissons Ratio (x) = 0.05388 0.07163
# Poissons Ratio (y) = 0.05838 0.10069
# Poissons Ratio (z) = 0.07847 0.10180
#
# Static dielectric constant tensor:
#      x y z
#    x 1.784670 0.000000 0.000000 
#    y 0.000000 1.748090 0.000000 
#    z 0.000000 0.000000 1.778490 
# 
# From -- ./inp_files/23102.got.cif
#   From: 2010.05.17/outbox.cif.g08.bks.cpg/sg57_12_cif.got.tgz:23102.got - 2010.06.03 13:58:18.
