data_PCOD9439177
_publ_section_title
;
Structure prediction by ZEFSAII (Michael W. Deem and Ramdas Pophale) SiO2 
 PCOD9439177
Probable space group: P B C M
;
_chemical_formula_sum "Si O2"
_cell_formula_units_Z 40
_cell_length_a 8.235714
_cell_length_b 17.160636
_cell_length_c 14.374982
_cell_angle_alpha 90.000000
_cell_angle_beta 90.000000
_cell_angle_gamma 90.000000
_cell_volume 2031.617502
_symmetry_space_group_name_H-M "P B C M"
_symmetry_group_IT_number 57
_symmetry_cell_setting 'orthorhombic'
loop_
_space_group_symop_operation_xyz
x,y,z
-x,-y,1/2+z
x,1/2-y,-z
-x,1/2+y,1/2-z
-x,-y,-z
x,y,1/2-z
-x,1/2+y,z
x,1/2-y,1/2+z
loop_
_atom_site_type_symbol
_atom_site_label
_atom_site_fract_x
_atom_site_fract_y
_atom_site_fract_z
Si Si1 0.752957 0.681667 0.750000
Si Si2 0.570075 0.910719 0.088035
Si Si3 0.343063 0.674765 0.057838
Si Si4 0.990547 0.552967 0.750000
Si Si5 0.148320 0.521590 0.065273
Si Si6 0.461496 0.326527 0.750000
Si Si7 0.633135 0.491722 0.250000
O O1 0.669864 0.645638 0.842486
O O2 0.933945 0.644011 0.750000
O O3 0.697771 0.771223 0.750000
O O4 0.691893 0.971895 0.040985
O O5 0.451214 0.956094 0.158355
O O6 0.477316 0.863316 0.009805
O O7 0.200371 0.611305 0.067934
O O8 0.428127 0.689242 0.157943
O O9 0.285915 0.750000 0.000000
O O10 0.907260 0.510371 0.664015
O O11 0.180706 0.535549 0.750000
O O12 0.000000 0.500000 0.000000
O O13 0.402760 0.416128 0.750000
#
# Coordination Sequence:
#
# PCOD9439177 Si02
#       7
#     4   8   8   4   8   4   4
#     4   9  20  41  62  93 134 169 208 285 345 381
#     4  10  21  41  67  94 128 177 229 269 321 416
#     4  12  24  41  67  98 134 174 227 283 331 405
#     4  10  23  42  61  96 137 172 221 279 335 405
#     4  11  23  41  65  96 136 175 220 275 337 400
#     4  12  23  40  69 100 129 170 233 283 331 395
#     4  11  22  41  74  97 128 181 232 265 329 407
#
# _framework density 19.688745000000001
#
# number of rings (size 3 to 8) (size 9 to 14) (size 15 to 20)
#    0.000    1.200    4.000    3.000    2.800    0.000 
#    0.000    7.000    0.000    0.000    0.000    0.000 
#    0.000    0.000    0.000    0.000    0.000    0.000 
#
# Total GULP energy -223415.627819 kJ/mol
# GULP energy per Si atom -5585.390695 kJ/mol
# Density = 1.964393 g / cm^3
# Si number density = 19.688745 Si / 1000 Ang^3
#
#
#
# Elastic Constant Matrix: (Units=GPa)
#
#
# Indices 1 2 3 4 5 6 
#
# 1 91.5382 26.1789 20.4318 0.0000 0.0000 0.0000
# 2 26.1789 89.0654 25.0054 0.0000 0.0000 0.0000
# 3 20.4318 25.0054 125.5871 0.0000 0.0000 0.0000
# 4 0.0000 0.0000 0.0000 155.9237 0.0000 0.0000
# 5 0.0000 0.0000 0.0000 0.0000 -5.5728 0.0000
# 6 0.0000 0.0000 0.0000 0.0000 0.0000 1.9150
#
#
#
# Elastic Compliance Matrix: (Units=1/GPa)
#
#
# Indices 1 2 3 4 5 6 
#
# 1 0.012136 -0.003191 -0.001339 0.000000 0.000000 0.000000
# 2 -0.003191 0.012732 -0.002016 0.000000 0.000000 0.000000
# 3 -0.001339 -0.002016 0.008582 0.000000 0.000000 0.000000
# 4 0.000000 0.000000 0.000000 0.006413 0.000000 0.000000
# 5 0.000000 0.000000 0.000000 0.000000 -0.179442 0.000000
# 6 0.000000 0.000000 0.000000 0.000000 0.000000 0.522192
#
#
# Mechanical properties :
#
#
# Convention : Reuss Voigt Hill
#
# Bulk Modulus (GPa) = 49.12218 49.93588 49.52903
# Shear Modulus (GPa) = 12.42265 46.09146 29.25706
#
# Velocity S-wave (km/s) = 2.51460 4.84364 3.85902
# Velocity P-wave (km/s) = 5.78226 7.52987 6.71317
#
# Compressibility (1/GPa) = 0.02035740
#
# Stress axis : x y z
#
# Youngs Moduli (GPa) = 82.40001 78.54453 116.52554
#
# Poissons Ratio (x) = 0.25065 0.15603
# Poissons Ratio (y) = 0.26295 0.23489
# Poissons Ratio (z) = 0.11033 0.15833
#
# Static dielectric constant tensor:
#      x y z
#    x 1.688010 0.000000 0.000000 
#    y 0.000000 1.719540 0.000000 
#    z 0.000000 0.000000 1.678000 
# 
# From -- ./inp_files/15999.got.cif
#   From: 2010.05.17/outbox.cif.g08.bks.cpg/sg57_8_cif.got.tgz:15999.got - 2010.06.03 13:58:18.
