data_PCOD9439186
_publ_section_title
;
Structure prediction by ZEFSAII (Michael W. Deem and Ramdas Pophale) SiO2 
 PCOD9439186
Probable space group: P B C M
;
_chemical_formula_sum "Si O2"
_cell_formula_units_Z 56
_cell_length_a 8.793032
_cell_length_b 21.828711
_cell_length_c 13.423997
_cell_angle_alpha 90.000000
_cell_angle_beta 90.000000
_cell_angle_gamma 90.000000
_cell_volume 2576.609426
_symmetry_space_group_name_H-M "P B C M"
_symmetry_group_IT_number 57
_symmetry_cell_setting 'orthorhombic'
loop_
_space_group_symop_operation_xyz
x,y,z
-x,-y,1/2+z
x,1/2-y,-z
-x,1/2+y,1/2-z
-x,-y,-z
x,y,1/2-z
-x,1/2+y,z
x,1/2-y,1/2+z
loop_
_atom_site_type_symbol
_atom_site_label
_atom_site_fract_x
_atom_site_fract_y
_atom_site_fract_z
Si Si1 0.416160 0.159295 0.562087
Si Si2 0.894491 0.277159 0.869469
Si Si3 0.073550 0.345077 0.128952
Si Si4 0.536801 0.284725 0.636251
Si Si5 0.379211 0.551069 0.526378
Si Si6 0.136333 0.587601 0.130181
Si Si7 0.921334 0.025426 0.868654
O O1 0.239803 0.147994 0.581891
O O2 0.463022 0.217842 0.626882
O O3 0.449617 0.175873 0.446536
O O4 0.529526 0.103663 0.584626
O O5 0.905057 0.273188 0.750000
O O6 0.714255 0.275996 0.892246
O O7 0.941078 0.346923 0.894552
O O8 0.986654 0.217270 0.904259
O O9 0.090144 0.342555 0.250000
O O10 0.980102 0.406519 0.105573
O O11 0.527969 0.307384 0.750000
O O12 0.500000 0.500000 0.500000
O O13 0.292956 0.579843 0.430368
O O14 0.245976 0.519965 0.588697
O O15 0.162345 0.586605 0.250000
O O16 0.032877 0.529655 0.101711
O O17 0.915319 0.022635 0.750000
#
# Coordination Sequence:
#
# PCOD9439186 Si02
#       7
#     8   8   8   8   8   8   8
#     4  11  23  39  63  99 134 172 215 267 340 394
#     4   9  18  38  68  93 122 171 219 272 329 381
#     4  10  21  41  68  98 131 173 226 275 324 392
#     4  10  21  42  65  92 132 169 216 272 328 395
#     4  12  25  42  66  97 137 174 221 273 336 401
#     4  10  21  42  68  95 130 174 226 280 333 391
#     4  10  23  44  68  94 129 179 230 274 326 394
#
# _framework density 21.733989000000001
#
# number of rings (size 3 to 8) (size 9 to 14) (size 15 to 20)
#    0.000    1.714    1.429    2.571    0.000    2.857 
#   10.286    0.000    0.000    0.000    0.000    1.000 
#    0.000    0.000    0.000    0.000    0.000    0.000 
#
# Total GULP energy -313131.762888 kJ/mol
# GULP energy per Si atom -5591.638623 kJ/mol
# Density = 2.168452 g / cm^3
# Si number density = 21.733989 Si / 1000 Ang^3
#
#
#
# Elastic Constant Matrix: (Units=GPa)
#
#
# Indices 1 2 3 4 5 6 
#
# 1 149.6092 68.9704 26.3094 0.0000 0.0000 0.0000
# 2 68.9704 127.5032 26.8364 0.0000 0.0000 0.0000
# 3 26.3094 26.8364 93.5378 0.0000 0.0000 0.0000
# 4 0.0000 0.0000 0.0000 27.5744 0.0000 0.0000
# 5 0.0000 0.0000 0.0000 0.0000 33.5414 0.0000
# 6 0.0000 0.0000 0.0000 0.0000 0.0000 44.6410
#
#
#
# Elastic Compliance Matrix: (Units=1/GPa)
#
#
# Indices 1 2 3 4 5 6 
#
# 1 0.009032 -0.004631 -0.001212 0.000000 0.000000 0.000000
# 2 -0.004631 0.010721 -0.001773 0.000000 0.000000 0.000000
# 3 -0.001212 -0.001773 0.011541 0.000000 0.000000 0.000000
# 4 0.000000 0.000000 0.000000 0.036265 0.000000 0.000000
# 5 0.000000 0.000000 0.000000 0.000000 0.029814 0.000000
# 6 0.000000 0.000000 0.000000 0.000000 0.000000 0.022401
#
#
# Mechanical properties :
#
#
# Convention : Reuss Voigt Hill
#
# Bulk Modulus (GPa) = 62.26007 68.32028 65.29017
# Shear Modulus (GPa) = 35.62283 37.72031 36.67157
#
# Velocity S-wave (km/s) = 4.05289 4.17051 4.11212
# Velocity P-wave (km/s) = 7.11406 7.39553 7.25616
#
# Compressibility (1/GPa) = 0.01606166
#
# Stress axis : x y z
#
# Youngs Moduli (GPa) = 110.71868 93.27469 86.65104
#
# Poissons Ratio (x) = 0.43191 0.10501
# Poissons Ratio (y) = 0.51269 0.15367
# Poissons Ratio (z) = 0.13418 0.16542
#
# Static dielectric constant tensor:
#      x y z
#    x 1.733630 0.000000 0.000000 
#    y 0.000000 1.752320 0.000000 
#    z 0.000000 0.000000 1.839380 
# 
# From -- ./inp_files/16694.got.cif
#   From: 2010.05.17/outbox.cif.g08.bks.cpg/sg57_9_cif.got.tgz:16694.got - 2010.06.03 13:58:18.
