data_PCOD9439644
_publ_section_title
;
Structure prediction by ZEFSAII (Michael W. Deem and Ramdas Pophale) SiO2 
 PCOD9439644
Probable space group: P B C M
;
_chemical_formula_sum "Si O2"
_cell_formula_units_Z 40
_cell_length_a 10.506018
_cell_length_b 9.354689
_cell_length_c 18.458502
_cell_angle_alpha 90.000000
_cell_angle_beta 90.000000
_cell_angle_gamma 90.000000
_cell_volume 1814.111378
_symmetry_space_group_name_H-M "P B C M"
_symmetry_group_IT_number 57
_symmetry_cell_setting 'orthorhombic'
loop_
_space_group_symop_operation_xyz
x,y,z
-x,-y,1/2+z
x,1/2-y,-z
-x,1/2+y,1/2-z
-x,-y,-z
x,y,1/2-z
-x,1/2+y,z
x,1/2-y,1/2+z
loop_
_atom_site_type_symbol
_atom_site_label
_atom_site_fract_x
_atom_site_fract_y
_atom_site_fract_z
Si Si1 0.968934 0.720655 0.080676
Si Si2 0.371153 0.418129 0.480144
Si Si3 0.092903 0.630361 0.250000
Si Si4 0.172784 0.946321 0.408467
Si Si5 0.835679 0.043275 0.750000
Si Si6 0.233833 0.404053 0.331766
O O1 0.948863 0.552685 0.089237
O O2 0.873384 0.797533 0.136663
O O3 0.107594 0.792243 0.083674
O O4 0.920269 0.750000 0.000000
O O5 0.378701 0.250000 0.500000
O O6 0.500000 0.500000 0.500000
O O7 0.264842 0.500160 0.528568
O O8 0.336620 0.421428 0.394846
O O9 0.100600 0.799089 0.250000
O O10 0.168596 0.556607 0.315727
O O11 0.950969 0.569316 0.250000
O O12 0.232450 0.965151 0.327919
O O13 0.274995 0.356190 0.250000
#
# Coordination Sequence:
#
# PCOD9439644 Si02
#       6
#     8   8   4   8   4   8
#     4  12  23  39  69 106 140 182 224 286 371 425
#     4  12  28  52  71 102 140 195 245 293 344 426
#     4  10  24  38  65 102 155 178 233 277 377 421
#     4  12  25  41  70 103 151 176 240 285 363 422
#     4  12  24  38  63 110 145 190 231 293 361 435
#     4  10  22  45  73  96 144 179 230 293 365 416
#
# _framework density 22.049363
#
# number of rings (size 3 to 8) (size 9 to 14) (size 15 to 20)
#    0.600    0.000    6.000    1.800    1.400    2.400 
#    1.800    0.000    0.000    0.000    0.000    0.000 
#    0.000    0.000    0.000    0.000    0.000    0.000 
#
# Total GULP energy -223350.313835 kJ/mol
# GULP energy per Si atom -5583.757846 kJ/mol
# Density = 2.199918 g / cm^3
# Si number density = 22.049363 Si / 1000 Ang^3
#
#
#
# Elastic Constant Matrix: (Units=GPa)
#
#
# Indices 1 2 3 4 5 6 
#
# 1 93.4598 25.3924 54.4898 0.0000 0.0000 0.0000
# 2 25.3924 99.1633 26.3343 0.0000 0.0000 0.0000
# 3 54.4898 26.3343 221.5698 0.0000 0.0000 0.0000
# 4 0.0000 0.0000 0.0000 40.6047 0.0000 0.0000
# 5 0.0000 0.0000 0.0000 0.0000 18.8472 0.0000
# 6 0.0000 0.0000 0.0000 0.0000 0.0000 20.5499
#
#
#
# Elastic Compliance Matrix: (Units=1/GPa)
#
#
# Indices 1 2 3 4 5 6 
#
# 1 0.013100 -0.002580 -0.002915 0.000000 0.000000 0.000000
# 2 -0.002580 0.010921 -0.000663 0.000000 0.000000 0.000000
# 3 -0.002915 -0.000663 0.005309 0.000000 0.000000 0.000000
# 4 0.000000 0.000000 0.000000 0.024628 0.000000 0.000000
# 5 0.000000 0.000000 0.000000 0.000000 0.053058 0.000000
# 6 0.000000 0.000000 0.000000 0.000000 0.000000 0.048662
#
#
# Mechanical properties :
#
#
# Convention : Reuss Voigt Hill
#
# Bulk Modulus (GPa) = 58.77898 69.62513 64.20205
# Shear Modulus (GPa) = 28.79061 36.53211 32.66136
#
# Velocity S-wave (km/s) = 3.61741 4.07484 3.85292
# Velocity P-wave (km/s) = 6.64555 7.33379 6.99814
#
# Compressibility (1/GPa) = 0.01701288
#
# Stress axis : x y z
#
# Youngs Moduli (GPa) = 76.33338 91.56397 188.35985
#
# Poissons Ratio (x) = 0.23628 0.54908
# Poissons Ratio (y) = 0.19697 0.12496
# Poissons Ratio (z) = 0.22252 0.06075
#
# Static dielectric constant tensor:
#      x y z
#    x 1.768970 0.000000 0.000000 
#    y 0.000000 1.823350 0.000000 
#    z 0.000000 0.000000 1.933950 
# 
# From -- ./inp_files/21669.got.cif
#   From: 2010.05.17/outbox.cif.g08.bks.cpg/sg57_11_cif.got.tgz:21669.got - 2010.06.03 13:58:18.
