data_PCOD9439578
_publ_section_title
;
Structure prediction by ZEFSAII (Michael W. Deem and Ramdas Pophale) SiO2 
 PCOD9439578
Probable space group: P B C M
;
_chemical_formula_sum "Si O2"
_cell_formula_units_Z 32
_cell_length_a 13.710983
_cell_length_b 10.486449
_cell_length_c 9.522520
_cell_angle_alpha 90.000000
_cell_angle_beta 90.000000
_cell_angle_gamma 90.000000
_cell_volume 1369.143393
_symmetry_space_group_name_H-M "P B C M"
_symmetry_group_IT_number 57
_symmetry_cell_setting 'orthorhombic'
loop_
_space_group_symop_operation_xyz
x,y,z
-x,-y,1/2+z
x,1/2-y,-z
-x,1/2+y,1/2-z
-x,-y,-z
x,y,1/2-z
-x,1/2+y,z
x,1/2-y,1/2+z
loop_
_atom_site_type_symbol
_atom_site_label
_atom_site_fract_x
_atom_site_fract_y
_atom_site_fract_z
Si Si1 0.728095 0.880842 0.750000
Si Si2 0.034236 0.874477 0.917483
Si Si3 0.336764 0.091240 0.750000
Si Si4 0.598159 0.250000 0.000000
Si Si5 0.244584 0.946102 0.008128
Si Si6 0.499902 0.410973 0.750000
O O1 0.710213 0.730374 0.750000
O O2 0.615148 0.923891 0.750000
O O3 0.781403 0.944536 0.618896
O O4 0.013810 0.873181 0.750000
O O5 0.995999 0.750000 0.000000
O O6 0.151114 0.878936 0.941792
O O7 0.000000 0.000000 0.000000
O O8 0.298198 0.019567 0.615033
O O9 0.451071 0.052117 0.750000
O O10 0.675806 0.347975 0.069582
O O11 0.534854 0.170566 0.113064
#
# Coordination Sequence:
#
# PCOD9439578 Si02
#       6
#     4   8   4   4   8   4
#     4  12  27  38  68 105 144 198 246 311 371 452
#     4  12  28  52  84 118 156 199 257 322 394 476
#     4  10  24  44  61  98 142 187 241 314 367 443
#     4  10  22  42  72  96 134 188 246 302 358 446
#     4  11  24  45  73 101 142 195 243 304 378 451
#     4  10  25  40  65  99 142 187 253 309 376 425
#
# _framework density 23.372278999999999
#
# number of rings (size 3 to 8) (size 9 to 14) (size 15 to 20)
#    0.000    1.000    2.500    2.250   10.500    4.000 
#    0.000    0.000    0.000    0.000    0.000    0.000 
#    0.000    0.000    0.000    0.000    0.000    0.000 
#
# Total GULP energy -178855.886342 kJ/mol
# GULP energy per Si atom -5589.246448 kJ/mol
# Density = 2.331908 g / cm^3
# Si number density = 23.372279 Si / 1000 Ang^3
#
#
#
# Elastic Constant Matrix: (Units=GPa)
#
#
# Indices 1 2 3 4 5 6 
#
# 1 33.9635 1.8739 19.3357 0.0000 0.0000 0.0000
# 2 1.8739 154.7924 52.8958 0.0000 0.0000 0.0000
# 3 19.3357 52.8958 148.2312 0.0000 0.0000 0.0000
# 4 0.0000 0.0000 0.0000 31.9493 0.0000 0.0000
# 5 0.0000 0.0000 0.0000 0.0000 24.2837 0.0000
# 6 0.0000 0.0000 0.0000 0.0000 0.0000 32.1266
#
#
#
# Elastic Compliance Matrix: (Units=1/GPa)
#
#
# Indices 1 2 3 4 5 6 
#
# 1 0.031994 0.001183 -0.004596 0.000000 0.000000 0.000000
# 2 0.001183 0.007401 -0.002795 0.000000 0.000000 0.000000
# 3 -0.004596 -0.002795 0.008343 0.000000 0.000000 0.000000
# 4 0.000000 0.000000 0.000000 0.031300 0.000000 0.000000
# 5 0.000000 0.000000 0.000000 0.000000 0.041180 0.000000
# 6 0.000000 0.000000 0.000000 0.000000 0.000000 0.031127
#
#
# Mechanical properties :
#
#
# Convention : Reuss Voigt Hill
#
# Bulk Modulus (GPa) = 28.31019 53.91089 41.11054
# Shear Modulus (GPa) = 28.48427 35.19735 31.84081
#
# Velocity S-wave (km/s) = 3.49480 3.88486 3.69498
# Velocity P-wave (km/s) = 5.33141 6.57564 5.98594
#
# Compressibility (1/GPa) = 0.03532298
#
# Stress axis : x y z
#
# Youngs Moduli (GPa) = 31.25539 135.11325 119.85778
#
# Poissons Ratio (x) = -0.15985 0.55082
# Poissons Ratio (y) = -0.03698 0.33505
# Poissons Ratio (z) = 0.14364 0.37770
#
# Static dielectric constant tensor:
#      x y z
#    x 1.911230 0.000000 0.000000 
#    y 0.000000 1.916960 0.000000 
#    z 0.000000 0.000000 1.825690 
# 
# From -- ./inp_files/4149.got.cif
#   From: 2010.05.17/outbox.cif.g08.bks.cpg/sg57_3_cif.got.tgz:4149.got - 2010.06.03 13:58:18.
