data_PCOD9439654
_publ_section_title
;
Structure prediction by ZEFSAII (Michael W. Deem and Ramdas Pophale) SiO2 
 PCOD9439654
Probable space group: P B C M
;
_chemical_formula_sum "Si O2"
_cell_formula_units_Z 40
_cell_length_a 11.944550
_cell_length_b 8.929255
_cell_length_c 17.419973
_cell_angle_alpha 90.000000
_cell_angle_beta 90.000000
_cell_angle_gamma 90.000000
_cell_volume 1857.943470
_symmetry_space_group_name_H-M "P B C M"
_symmetry_group_IT_number 57
_symmetry_cell_setting 'orthorhombic'
loop_
_space_group_symop_operation_xyz
x,y,z
-x,-y,1/2+z
x,1/2-y,-z
-x,1/2+y,1/2-z
-x,-y,-z
x,y,1/2-z
-x,1/2+y,z
x,1/2-y,1/2+z
loop_
_atom_site_type_symbol
_atom_site_label
_atom_site_fract_x
_atom_site_fract_y
_atom_site_fract_z
Si Si1 0.900536 0.451703 0.618163
Si Si2 0.133033 0.311967 0.250000
Si Si3 0.702658 0.963669 0.750000
Si Si4 0.372844 0.461929 0.586193
Si Si5 0.128835 0.763916 0.250000
Si Si6 0.545229 0.250000 0.000000
Si Si7 0.126090 0.094521 0.039972
O O1 0.864803 0.589641 0.672137
O O2 0.848755 0.316993 0.667842
O O3 0.867448 0.474850 0.529672
O O4 0.035794 0.443880 0.605775
O O5 0.232169 0.194040 0.250000
O O6 0.005578 0.256470 0.250000
O O7 0.625336 0.983592 0.823540
O O8 0.802799 0.084630 0.750000
O O9 0.386578 0.621872 0.544463
O O10 0.465244 0.346123 0.556199
O O11 0.250430 0.393612 0.570676
O O12 0.089534 0.250000 0.000000
#
# Coordination Sequence:
#
# PCOD9439654 Si02
#       7
#     8   4   4   8   4   4   8
#     4  10  23  37  59  95 136 182 218 262 318 399
#     4  11  21  39  57  91 138 178 214 263 319 398
#     4  12  26  40  72  98 134 184 219 275 342 408
#     4  11  24  46  70  99 126 175 222 289 349 403
#     4  11  21  37  57  93 136 174 217 268 317 390
#     4  10  26  48  74  92 130 168 228 306 348 394
#     4  11  21  38  66  94 133 179 230 268 329 409
#
# _framework density 21.529181999999999
#
# number of rings (size 3 to 8) (size 9 to 14) (size 15 to 20)
#    0.000    1.200    1.000    6.000    2.800    2.400 
#    1.800    0.000    0.000    1.200    0.000    0.000 
#    0.000    0.000    0.000    0.000    0.000    0.000 
#
# Total GULP energy -223418.335128 kJ/mol
# GULP energy per Si atom -5585.458378 kJ/mol
# Density = 2.148018 g / cm^3
# Si number density = 21.529182 Si / 1000 Ang^3
#
#
#
# Elastic Constant Matrix: (Units=GPa)
#
#
# Indices 1 2 3 4 5 6 
#
# 1 49.5961 23.5852 33.6894 0.0000 0.0000 0.0000
# 2 23.5852 95.3060 38.9523 0.0000 0.0000 0.0000
# 3 33.6894 38.9523 134.9606 0.0000 0.0000 0.0000
# 4 0.0000 0.0000 0.0000 19.4736 0.0000 0.0000
# 5 0.0000 0.0000 0.0000 0.0000 28.0978 0.0000
# 6 0.0000 0.0000 0.0000 0.0000 0.0000 24.3852
#
#
#
# Elastic Compliance Matrix: (Units=1/GPa)
#
#
# Indices 1 2 3 4 5 6 
#
# 1 0.025706 -0.004239 -0.005194 0.000000 0.000000 0.000000
# 2 -0.004239 0.012595 -0.002577 0.000000 0.000000 0.000000
# 3 -0.005194 -0.002577 0.009450 0.000000 0.000000 0.000000
# 4 0.000000 0.000000 0.000000 0.051351 0.000000 0.000000
# 5 0.000000 0.000000 0.000000 0.000000 0.035590 0.000000
# 6 0.000000 0.000000 0.000000 0.000000 0.000000 0.041008
#
#
# Mechanical properties :
#
#
# Convention : Reuss Voigt Hill
#
# Bulk Modulus (GPa) = 42.13682 52.47960 47.30821
# Shear Modulus (GPa) = 24.08126 26.63373 25.35749
#
# Velocity S-wave (km/s) = 3.34809 3.52106 3.43566
# Velocity P-wave (km/s) = 5.87883 6.39995 6.14492
#
# Compressibility (1/GPa) = 0.02373221
#
# Stress axis : x y z
#
# Youngs Moduli (GPa) = 38.90070 79.39830 105.82277
#
# Poissons Ratio (x) = 0.33656 0.54959
# Poissons Ratio (y) = 0.16490 0.27270
# Poissons Ratio (z) = 0.20203 0.20461
#
# Static dielectric constant tensor:
#      x y z
#    x 1.753570 0.000000 0.000000 
#    y 0.000000 1.861770 0.000000 
#    z 0.000000 0.000000 1.834170 
# 
# From -- ./inp_files/21689.got.cif
#   From: 2010.05.17/outbox.cif.g08.bks.cpg/sg57_11_cif.got.tgz:21689.got - 2010.06.03 13:58:18.
