data_PCOD9439960
_publ_section_title
;
Structure prediction by ZEFSAII (Michael W. Deem and Ramdas Pophale) SiO2 
 PCOD9439960
Probable space group: P B C M
;
_chemical_formula_sum "Si O2"
_cell_formula_units_Z 36
_cell_length_a 7.516191
_cell_length_b 9.306802
_cell_length_c 19.827014
_cell_angle_alpha 90.000000
_cell_angle_beta 90.000000
_cell_angle_gamma 90.000000
_cell_volume 1386.933364
_symmetry_space_group_name_H-M "P B C M"
_symmetry_group_IT_number 57
_symmetry_cell_setting 'orthorhombic'
loop_
_space_group_symop_operation_xyz
x,y,z
-x,-y,1/2+z
x,1/2-y,-z
-x,1/2+y,1/2-z
-x,-y,-z
x,y,1/2-z
-x,1/2+y,z
x,1/2-y,1/2+z
loop_
_atom_site_type_symbol
_atom_site_label
_atom_site_fract_x
_atom_site_fract_y
_atom_site_fract_z
Si Si1 0.175558 0.637298 0.250000
Si Si2 0.206327 0.364083 0.250000
Si Si3 0.304524 0.673581 0.863372
Si Si4 0.689057 0.805085 0.101026
Si Si5 0.197003 0.469539 0.523251
Si Si6 0.593949 0.553410 0.250000
O O1 0.056185 0.497053 0.250000
O O2 0.173621 0.730506 0.182452
O O3 0.375509 0.563535 0.250000
O O4 0.225672 0.371019 0.332531
O O5 0.304251 0.203487 0.250000
O O6 0.491866 0.749808 0.879329
O O7 0.245338 0.608128 0.933269
O O8 0.357963 0.543042 0.814015
O O9 0.793944 0.670292 0.071057
O O10 0.685691 0.925230 0.041893
O O11 0.000000 0.500000 0.500000
#
# Coordination Sequence:
#
# PCOD9439960 Si02
#       6
#     4   4   8   8   8   4
#     4  11  19  33  66 117 141 174 229 306 369 427
#     4  12  20  40  70 106 149 169 236 309 366 427
#     4  11  20  40  74 107 143 184 241 300 365 434
#     4  11  23  43  74 104 136 189 246 305 360 440
#     4  11  26  48  66  99 153 200 241 297 374 442
#     4  11  17  35  70 109 144 179 227 315 371 420
#
# _framework density 25.956545999999999
#
# number of rings (size 3 to 8) (size 9 to 14) (size 15 to 20)
#    0.000    0.889    6.667    0.667    0.000    0.000 
#    8.000    3.333    0.000    0.000    0.000    0.000 
#    0.000    0.000    0.000    0.000    0.000    0.000 
#
# Total GULP energy -200914.033006 kJ/mol
# GULP energy per Si atom -5580.945361 kJ/mol
# Density = 2.589747 g / cm^3
# Si number density = 25.956546 Si / 1000 Ang^3
#
#
#
# Elastic Constant Matrix: (Units=GPa)
#
#
# Indices 1 2 3 4 5 6 
#
# 1 67.1909 22.2097 29.1755 0.0000 0.0000 0.0000
# 2 22.2097 128.4869 36.2319 0.0000 0.0000 0.0000
# 3 29.1755 36.2319 209.8983 0.0000 0.0000 0.0000
# 4 0.0000 0.0000 0.0000 53.6713 0.0000 0.0000
# 5 0.0000 0.0000 0.0000 0.0000 -60.3455 0.0000
# 6 0.0000 0.0000 0.0000 0.0000 0.0000 36.5321
#
#
#
# Elastic Compliance Matrix: (Units=1/GPa)
#
#
# Indices 1 2 3 4 5 6 
#
# 1 0.016468 -0.002314 -0.001890 0.000000 0.000000 0.000000
# 2 -0.002314 0.008506 -0.001147 0.000000 0.000000 0.000000
# 3 -0.001890 -0.001147 0.005225 0.000000 0.000000 0.000000
# 4 0.000000 0.000000 0.000000 0.018632 0.000000 0.000000
# 5 0.000000 0.000000 0.000000 0.000000 -0.016571 0.000000
# 6 0.000000 0.000000 0.000000 0.000000 0.000000 0.027373
#
#
# Mechanical properties :
#
#
# Convention : Reuss Voigt Hill
#
# Bulk Modulus (GPa) = 51.28460 64.53445 57.90953
# Shear Modulus (GPa) = 65.07610 27.16884 46.12247
#
# Velocity S-wave (km/s) = 5.01254 3.23879 4.21992
# Velocity P-wave (km/s) = 7.30079 6.23721 6.78986
#
# Compressibility (1/GPa) = 0.01949903
#
# Stress axis : x y z
#
# Youngs Moduli (GPa) = 60.72275 117.56129 191.39442
#
# Poissons Ratio (x) = 0.27201 0.36167
# Poissons Ratio (y) = 0.14050 0.21947
# Poissons Ratio (z) = 0.11475 0.13481
#
# Static dielectric constant tensor:
#      x y z
#    x 2.644800 0.000000 0.000000 
#    y 0.000000 2.211180 0.000000 
#    z 0.000000 0.000000 2.001100 
# 
# From -- ./inp_files/24025.got.cif
#   From: 2010.05.17/outbox.cif.g08.bks.cpg/sg57_13_cif.got.tgz:24025.got - 2010.06.03 13:58:18.
