data_PCOD9439479
_publ_section_title
;
Structure prediction by ZEFSAII (Michael W. Deem and Ramdas Pophale) SiO2 
 PCOD9439479
Probable space group: P B C M
;
_chemical_formula_sum "Si O2"
_cell_formula_units_Z 48
_cell_length_a 7.991655
_cell_length_b 20.321982
_cell_length_c 15.335594
_cell_angle_alpha 90.000000
_cell_angle_beta 90.000000
_cell_angle_gamma 90.000000
_cell_volume 2490.596605
_symmetry_space_group_name_H-M "P B C M"
_symmetry_group_IT_number 57
_symmetry_cell_setting 'orthorhombic'
loop_
_space_group_symop_operation_xyz
x,y,z
-x,-y,1/2+z
x,1/2-y,-z
-x,1/2+y,1/2-z
-x,-y,-z
x,y,1/2-z
-x,1/2+y,z
x,1/2-y,1/2+z
loop_
_atom_site_type_symbol
_atom_site_label
_atom_site_fract_x
_atom_site_fract_y
_atom_site_fract_z
Si Si1 0.377771 0.260704 0.250000
Si Si2 0.384712 0.539468 0.405451
Si Si3 0.891276 0.248970 0.750000
Si Si4 0.872300 0.783165 0.095586
Si Si5 0.353579 0.871598 0.250000
Si Si6 0.378441 0.859471 0.750000
Si Si7 0.724180 0.037081 0.910351
Si Si8 0.096227 0.064173 0.643844
O O1 0.283743 0.266211 0.342263
O O2 0.487031 0.326189 0.250000
O O3 0.469169 0.191204 0.250000
O O4 0.375868 0.593637 0.332229
O O5 0.305502 0.566954 0.494528
O O6 0.582541 0.520615 0.413323
O O7 0.261765 0.478169 0.380275
O O8 0.795772 0.180046 0.750000
O O9 0.778987 0.312344 0.750000
O O10 0.986025 0.247578 0.657957
O O11 0.894203 0.863016 0.100041
O O12 0.866902 0.750000 0.000000
O O13 0.340522 0.916319 0.334203
O O14 0.922627 0.028907 0.889146
O O15 0.088808 0.070894 0.750000
#
# Coordination Sequence:
#
# PCOD9439479 Si02
#       8
#     4   8   4   8   4   4   8   8
#     4  10  24  42  62  98 126 169 226 270 338 392
#     4  11  26  43  64 101 135 179 217 274 334 392
#     4  10  22  41  62  96 120 171 222 259 332 388
#     4  11  23  42  67  97 129 167 218 278 330 388
#     4  11  19  41  72  85 123 174 222 278 310 397
#     4  11  25  42  62  89 139 170 210 277 334 393
#     4  11  23  41  67  98 130 167 229 269 324 397
#     4  12  22  44  73  96 130 178 230 271 325 400
#
# _framework density 19.272489
#
# number of rings (size 3 to 8) (size 9 to 14) (size 15 to 20)
#    0.000    1.000    5.000    2.000    2.333    4.000 
#    6.000    3.333    0.000    0.000    0.000    0.000 
#    0.000    0.000    0.000    0.000    0.000    0.000 
#
# Total GULP energy -267478.140350 kJ/mol
# GULP energy per Si atom -5572.461257 kJ/mol
# Density = 1.922862 g / cm^3
# Si number density = 19.272489 Si / 1000 Ang^3
#
#
#
# Elastic Constant Matrix: (Units=GPa)
#
#
# Indices 1 2 3 4 5 6 
#
# 1 93.8588 27.8406 33.4521 0.0000 0.0000 0.0000
# 2 27.8406 50.1010 19.5793 0.0000 0.0000 0.0000
# 3 33.4521 19.5793 160.5133 0.0000 0.0000 0.0000
# 4 0.0000 0.0000 0.0000 -59.7204 0.0000 0.0000
# 5 0.0000 0.0000 0.0000 0.0000 -50.7201 0.0000
# 6 0.0000 0.0000 0.0000 0.0000 0.0000 30.5275
#
#
#
# Elastic Compliance Matrix: (Units=1/GPa)
#
#
# Indices 1 2 3 4 5 6 
#
# 1 0.013324 -0.006635 -0.001967 0.000000 0.000000 0.000000
# 2 -0.006635 0.024263 -0.001577 0.000000 0.000000 0.000000
# 3 -0.001967 -0.001577 0.006832 0.000000 0.000000 0.000000
# 4 0.000000 0.000000 0.000000 -0.016745 0.000000 0.000000
# 5 0.000000 0.000000 0.000000 0.000000 -0.019716 0.000000
# 6 0.000000 0.000000 0.000000 0.000000 0.000000 0.032757
#
#
# Mechanical properties :
#
#
# Convention : Reuss Voigt Hill
#
# Bulk Modulus (GPa) = 41.56180 51.80189 46.68185
# Shear Modulus (GPa) = 72.36544 -1.07585 35.64480
#
# Velocity S-wave (km/s) = 6.13434 -0.74796 4.30527
# Velocity P-wave (km/s) = 8.47264 5.11772 6.99917
#
# Compressibility (1/GPa) = 0.02406056
#
# Stress axis : x y z
#
# Youngs Moduli (GPa) = 75.05500 41.21529 146.36208
#
# Poissons Ratio (x) = 0.27346 0.28795
# Poissons Ratio (y) = 0.49798 0.23078
# Poissons Ratio (z) = 0.14766 0.06499
#
# Static dielectric constant tensor:
#      x y z
#    x 1.753750 0.000000 0.000000 
#    y 0.000000 1.632590 0.000000 
#    z 0.000000 0.000000 1.649130 
# 
# From -- ./inp_files/16429.got.cif
#   From: 2010.05.17/outbox.cif.g08.bks.cpg/sg57_9_cif.got.tgz:16429.got - 2010.06.03 13:58:18.
