data_PCOD9439683
_publ_section_title
;
Structure prediction by ZEFSAII (Michael W. Deem and Ramdas Pophale) SiO2 
 PCOD9439683
Probable space group: P B C M
;
_chemical_formula_sum "Si O2"
_cell_formula_units_Z 32
_cell_length_a 17.702102
_cell_length_b 5.625130
_cell_length_c 14.322693
_cell_angle_alpha 90.000000
_cell_angle_beta 90.000000
_cell_angle_gamma 90.000000
_cell_volume 1426.205430
_symmetry_space_group_name_H-M "P B C M"
_symmetry_group_IT_number 57
_symmetry_cell_setting 'orthorhombic'
loop_
_space_group_symop_operation_xyz
x,y,z
-x,-y,1/2+z
x,1/2-y,-z
-x,1/2+y,1/2-z
-x,-y,-z
x,y,1/2-z
-x,1/2+y,z
x,1/2-y,1/2+z
loop_
_atom_site_type_symbol
_atom_site_label
_atom_site_fract_x
_atom_site_fract_y
_atom_site_fract_z
Si Si1 0.716090 0.750000 0.000000
Si Si2 0.973209 0.455549 0.106924
Si Si3 0.544819 0.250000 0.000000
Si Si4 0.800320 0.079270 0.643909
Si Si5 0.342336 0.592193 0.144305
O O1 0.663681 0.630899 0.922843
O O2 0.769284 0.918529 0.939216
O O3 0.887055 0.372233 0.120257
O O4 0.019115 0.226443 0.145257
O O5 0.000000 0.500000 0.000000
O O6 0.599090 0.260371 0.091119
O O7 0.500000 0.500000 0.000000
O O8 0.796060 0.976814 0.750000
O O9 0.742202 0.298833 0.644291
O O10 0.364568 0.542859 0.250000
#
# Coordination Sequence:
#
# PCOD9439683 Si02
#       5
#     4   8   4   8   8
#     4  12  21  44  74 105 144 192 258 312 379 436
#     4  10  23  40  63  96 139 190 241 303 383 441
#     4  12  27  50  78 115 154 198 240 300 377 450
#     4  11  25  42  70 105 140 193 254 314 375 453
#     4  11  26  47  75 111 151 199 258 314 375 458
#
# _framework density 22.437162000000001
#
# number of rings (size 3 to 8) (size 9 to 14) (size 15 to 20)
#    0.000    1.000    2.500    3.000   10.500    2.000 
#    0.000    0.000    0.000    0.000    0.000    0.000 
#    0.000    0.000    0.000    0.000    0.000    0.000 
#
# Total GULP energy -178617.789204 kJ/mol
# GULP energy per Si atom -5581.805913 kJ/mol
# Density = 2.238609 g / cm^3
# Si number density = 22.437162 Si / 1000 Ang^3
#
#
#
# Elastic Constant Matrix: (Units=GPa)
#
#
# Indices 1 2 3 4 5 6 
#
# 1 120.2902 36.4193 36.4631 0.0000 0.0000 0.0000
# 2 36.4193 107.1231 34.1654 0.0000 0.0000 0.0000
# 3 36.4631 34.1654 210.5104 0.0000 0.0000 0.0000
# 4 0.0000 0.0000 0.0000 14.9583 0.0000 0.0000
# 5 0.0000 0.0000 0.0000 0.0000 -64.1607 0.0000
# 6 0.0000 0.0000 0.0000 0.0000 0.0000 27.4500
#
#
#
# Elastic Compliance Matrix: (Units=1/GPa)
#
#
# Indices 1 2 3 4 5 6 
#
# 1 0.009541 -0.002865 -0.001188 0.000000 0.000000 0.000000
# 2 -0.002865 0.010705 -0.001241 0.000000 0.000000 0.000000
# 3 -0.001188 -0.001241 0.005158 0.000000 0.000000 0.000000
# 4 0.000000 0.000000 0.000000 0.066852 0.000000 0.000000
# 5 0.000000 0.000000 0.000000 0.000000 -0.015586 0.000000
# 6 0.000000 0.000000 0.000000 0.000000 0.000000 0.036430
#
#
# Mechanical properties :
#
#
# Convention : Reuss Voigt Hill
#
# Bulk Modulus (GPa) = 67.49533 72.44656 69.97094
# Shear Modulus (GPa) = 38.87266 17.70792 28.29029
#
# Velocity S-wave (km/s) = 4.16686 2.81236 3.55472
# Velocity P-wave (km/s) = 7.30052 6.55016 6.93549
#
# Compressibility (1/GPa) = 0.01481584
#
# Stress axis : x y z
#
# Youngs Moduli (GPa) = 104.81550 93.41545 193.89230
#
# Poissons Ratio (x) = 0.26762 0.23027
# Poissons Ratio (y) = 0.30028 0.24065
# Poissons Ratio (z) = 0.12448 0.11594
#
# Static dielectric constant tensor:
#      x y z
#    x 1.876510 0.000000 0.000000 
#    y 0.000000 1.929120 0.000000 
#    z 0.000000 0.000000 1.832480 
# 
# From -- ./inp_files/18835.got.cif
#   From: 2010.05.17/outbox.cif.g08.bks.cpg/sg57_10_cif.got.tgz:18835.got - 2010.06.03 13:58:18.
