data_PCOD9439397
_publ_section_title
;
Structure prediction by ZEFSAII (Michael W. Deem and Ramdas Pophale) SiO2 
 PCOD9439397
Probable space group: P B C M
;
_chemical_formula_sum "Si O2"
_cell_formula_units_Z 64
_cell_length_a 12.298134
_cell_length_b 31.872388
_cell_length_c 8.765754
_cell_angle_alpha 90.000000
_cell_angle_beta 90.000000
_cell_angle_gamma 90.000000
_cell_volume 3435.920472
_symmetry_space_group_name_H-M "P B C M"
_symmetry_group_IT_number 57
_symmetry_cell_setting 'orthorhombic'
loop_
_space_group_symop_operation_xyz
x,y,z
-x,-y,1/2+z
x,1/2-y,-z
-x,1/2+y,1/2-z
-x,-y,-z
x,y,1/2-z
-x,1/2+y,z
x,1/2-y,1/2+z
loop_
_atom_site_type_symbol
_atom_site_label
_atom_site_fract_x
_atom_site_fract_y
_atom_site_fract_z
Si Si1 0.871045 0.386423 0.572689
Si Si2 0.514170 0.546741 0.933042
Si Si3 0.503912 0.704983 0.934113
Si Si4 0.101547 0.126149 0.932515
Si Si5 0.254079 0.055211 0.430921
Si Si6 0.114775 0.986756 0.927688
Si Si7 0.637025 0.375884 0.065604
Si Si8 0.754927 0.705676 0.933181
O O1 0.878193 0.374320 0.750000
O O2 0.874328 0.436993 0.564056
O O3 0.757073 0.372759 0.501798
O O4 0.977177 0.370848 0.483923
O O5 0.512187 0.543977 0.750000
O O6 0.423416 0.580832 0.981560
O O7 0.500000 0.500000 0.000000
O O8 0.631537 0.563434 0.987444
O O9 0.501164 0.707326 0.750000
O O10 0.433274 0.664819 0.980696
O O11 0.629758 0.698446 0.981738
O O12 0.468033 0.750000 0.000000
O O13 0.108175 0.120677 0.750000
O O14 0.168190 0.167533 0.977890
O O15 0.161745 0.087299 0.012818
O O16 0.266732 0.057312 0.250000
O O17 0.210490 0.009720 0.481626
O O18 0.118364 0.999685 0.750000
O O19 0.000000 0.000000 0.000000
O O20 0.642323 0.376448 0.250000
O O21 0.755420 0.708118 0.750000
O O22 0.791079 0.750000 0.000000
#
# Coordination Sequence:
#
# PCOD9439397 Si02
#       8
#     8   8   8   8   8   8   8   8
#     4  11  24  39  57  84 116 150 195 245 290 343
#     4  11  23  40  60  85 118 156 198 244 296 354
#     4   9  18  36  61  89 117 145 186 235 289 351
#     4  11  22  38  60  84 114 151 192 235 287 344
#     4  12  24  37  57  86 117 151 195 241 290 343
#     4  11  22  37  57  81 113 152 195 244 292 342
#     4  10  22  40  61  83 115 158 198 239 293 357
#     4   9  19  36  60  89 117 147 181 229 289 350
#
# _framework density 18.626740000000002
#
# number of rings (size 3 to 8) (size 9 to 14) (size 15 to 20)
#    0.000    1.500    1.250    4.125    0.000    8.000 
#    0.000    3.125    0.000    0.000    0.000    0.000 
#    0.000    0.000    0.000    0.000    0.000    0.000 
#
# Total GULP energy -357689.474485 kJ/mol
# GULP energy per Si atom -5588.898039 kJ/mol
# Density = 1.858434 g / cm^3
# Si number density = 18.626740 Si / 1000 Ang^3
#
#
#
# Elastic Constant Matrix: (Units=GPa)
#
#
# Indices 1 2 3 4 5 6 
#
# 1 104.8659 46.3038 25.8734 0.0000 0.0000 0.0000
# 2 46.3038 102.9098 33.6871 0.0000 0.0000 0.0000
# 3 25.8734 33.6871 54.2590 0.0000 0.0000 0.0000
# 4 0.0000 0.0000 0.0000 29.0512 0.0000 0.0000
# 5 0.0000 0.0000 0.0000 0.0000 29.5287 0.0000
# 6 0.0000 0.0000 0.0000 0.0000 0.0000 35.3258
#
#
#
# Elastic Compliance Matrix: (Units=1/GPa)
#
#
# Indices 1 2 3 4 5 6 
#
# 1 0.012289 -0.004532 -0.003046 0.000000 0.000000 0.000000
# 2 -0.004532 0.013867 -0.006449 0.000000 0.000000 0.000000
# 3 -0.003046 -0.006449 0.023886 0.000000 0.000000 0.000000
# 4 0.000000 0.000000 0.000000 0.034422 0.000000 0.000000
# 5 0.000000 0.000000 0.000000 0.000000 0.033865 0.000000
# 6 0.000000 0.000000 0.000000 0.000000 0.000000 0.028308
#
#
# Mechanical properties :
#
#
# Convention : Reuss Voigt Hill
#
# Bulk Modulus (GPa) = 45.47744 52.64034 49.05889
# Shear Modulus (GPa) = 27.46941 29.19250 28.33095
#
# Velocity S-wave (km/s) = 3.84439 3.96313 3.90421
# Velocity P-wave (km/s) = 6.64634 7.01882 6.83512
#
# Compressibility (1/GPa) = 0.02198892
#
# Stress axis : x y z
#
# Youngs Moduli (GPa) = 81.37548 72.11178 41.86507
#
# Poissons Ratio (x) = 0.32682 0.12752
# Poissons Ratio (y) = 0.36880 0.26997
# Poissons Ratio (z) = 0.24787 0.46501
#
# Static dielectric constant tensor:
#      x y z
#    x 1.629630 0.000000 0.000000 
#    y 0.000000 1.640380 0.000000 
#    z 0.000000 0.000000 1.629020 
# 
# From -- ./inp_files/3764.got.cif
#   From: 2010.05.17/outbox.cif.g08.bks.cpg/sg57_2_cif.got.tgz:3764.got - 2010.06.03 13:58:18.
