data_PCOD9439624
_publ_section_title
;
Structure prediction by ZEFSAII (Michael W. Deem and Ramdas Pophale) SiO2 
 PCOD9439624
Probable space group: P B C M
;
_chemical_formula_sum "Si O2"
_cell_formula_units_Z 40
_cell_length_a 4.716978
_cell_length_b 10.777689
_cell_length_c 28.832326
_cell_angle_alpha 90.000000
_cell_angle_beta 90.000000
_cell_angle_gamma 90.000000
_cell_volume 1465.781304
_symmetry_space_group_name_H-M "P B C M"
_symmetry_group_IT_number 57
_symmetry_cell_setting 'orthorhombic'
loop_
_space_group_symop_operation_xyz
x,y,z
-x,-y,1/2+z
x,1/2-y,-z
-x,1/2+y,1/2-z
-x,-y,-z
x,y,1/2-z
-x,1/2+y,z
x,1/2-y,1/2+z
loop_
_atom_site_type_symbol
_atom_site_label
_atom_site_fract_x
_atom_site_fract_y
_atom_site_fract_z
Si Si1 0.974707 0.959582 0.750000
Si Si2 0.479394 0.794332 0.750000
Si Si3 0.500000 0.000000 0.500000
Si Si4 0.749057 0.875702 0.328133
Si Si5 0.896310 0.214154 0.100545
Si Si6 0.400401 0.453450 0.894242
Si Si7 0.119450 0.250000 0.500000
O O1 0.150026 0.829692 0.750000
O O2 0.646667 0.925003 0.750000
O O3 0.068519 0.036327 0.794491
O O4 0.582969 0.720307 0.705076
O O5 0.522701 0.012549 0.556514
O O6 0.698642 0.874159 0.502756
O O7 0.961112 0.807785 0.363862
O O8 0.520865 0.958795 0.355002
O O9 0.074287 0.086184 0.106682
O O10 0.573979 0.176452 0.108597
O O11 0.933623 0.253396 0.046841
#
# Coordination Sequence:
#
# PCOD9439624 Si02
#       7
#     4   4   4   8   8   8   4
#     4  11  26  45  72 104 144 183 238 305 370 442
#     4  11  26  45  72 104 142 181 238 303 368 442
#     4  10  22  46  68 102 142 192 242 298 358 432
#     4  11  24  46  71 105 140 190 240 297 372 438
#     4  11  25  43  68 101 141 187 241 295 358 433
#     4  11  25  43  69 100 141 188 241 296 359 434
#     4  10  22  44  68 102 142 192 242 298 356 428
#
# _framework density 27.289200999999998
#
# number of rings (size 3 to 8) (size 9 to 14) (size 15 to 20)
#    0.000    1.200    2.000    2.400    0.000   14.400 
#    3.600    0.000    0.000    0.000    0.000    0.000 
#    0.000    0.000    0.000    0.000    0.000    0.000 
#
# Total GULP energy -224098.016904 kJ/mol
# GULP energy per Si atom -5602.450423 kJ/mol
# Density = 2.722709 g / cm^3
# Si number density = 27.289201 Si / 1000 Ang^3
#
#
#
# Elastic Constant Matrix: (Units=GPa)
#
#
# Indices 1 2 3 4 5 6 
#
# 1 104.1010 29.9499 24.3097 0.0000 0.0000 0.0000
# 2 29.9499 102.0492 53.3455 0.0000 0.0000 0.0000
# 3 24.3097 53.3455 219.4781 0.0000 0.0000 0.0000
# 4 0.0000 0.0000 0.0000 59.9374 0.0000 0.0000
# 5 0.0000 0.0000 0.0000 0.0000 11.4999 0.0000
# 6 0.0000 0.0000 0.0000 0.0000 0.0000 39.3227
#
#
#
# Elastic Compliance Matrix: (Units=1/GPa)
#
#
# Indices 1 2 3 4 5 6 
#
# 1 0.010535 -0.002843 -0.000476 0.000000 0.000000 0.000000
# 2 -0.002843 0.011993 -0.002600 0.000000 0.000000 0.000000
# 3 -0.000476 -0.002600 0.005241 0.000000 0.000000 0.000000
# 4 0.000000 0.000000 0.000000 0.016684 0.000000 0.000000
# 5 0.000000 0.000000 0.000000 0.000000 0.086957 0.000000
# 6 0.000000 0.000000 0.000000 0.000000 0.000000 0.025431
#
#
# Mechanical properties :
#
#
# Convention : Reuss Voigt Hill
#
# Bulk Modulus (GPa) = 62.77144 71.20428 66.98786
# Shear Modulus (GPa) = 28.73746 43.35355 36.04550
#
# Velocity S-wave (km/s) = 3.24863 3.99014 3.63832
# Velocity P-wave (km/s) = 6.09292 6.88312 6.50004
#
# Compressibility (1/GPa) = 0.01593081
#
# Stress axis : x y z
#
# Youngs Moduli (GPa) = 94.92033 83.38366 190.80643
#
# Poissons Ratio (x) = 0.23707 0.09079
# Poissons Ratio (y) = 0.26987 0.49610
# Poissons Ratio (z) = 0.04517 0.21680
#
# Static dielectric constant tensor:
#      x y z
#    x 2.033260 0.000000 0.000000 
#    y 0.000000 2.106030 0.000000 
#    z 0.000000 0.000000 2.092320 
# 
# From -- ./inp_files/27846.got.cif
#   From: 2010.05.17/outbox.cif.g08.bks.cpg/sg57_14_cif.got.tgz:27846.got - 2010.06.03 13:58:18.
