data_PCOD9439534
_publ_section_title
;
Structure prediction by ZEFSAII (Michael W. Deem and Ramdas Pophale) SiO2 
 PCOD9439534
Probable space group: P B C M
;
_chemical_formula_sum "Si O2"
_cell_formula_units_Z 32
_cell_length_a 7.473143
_cell_length_b 12.669540
_cell_length_c 14.382509
_cell_angle_alpha 90.000000
_cell_angle_beta 90.000000
_cell_angle_gamma 90.000000
_cell_volume 1361.754422
_symmetry_space_group_name_H-M "P B C M"
_symmetry_group_IT_number 57
_symmetry_cell_setting 'orthorhombic'
loop_
_space_group_symop_operation_xyz
x,y,z
-x,-y,1/2+z
x,1/2-y,-z
-x,1/2+y,1/2-z
-x,-y,-z
x,y,1/2-z
-x,1/2+y,z
x,1/2-y,1/2+z
loop_
_atom_site_type_symbol
_atom_site_label
_atom_site_fract_x
_atom_site_fract_y
_atom_site_fract_z
Si Si1 0.709558 0.806366 0.139780
Si Si2 0.945198 0.198580 0.143755
Si Si3 0.204751 0.983785 0.972262
Si Si4 0.334371 0.623242 0.854986
O O1 0.746754 0.817311 0.250000
O O2 0.496498 0.793713 0.129718
O O3 0.851957 0.717818 0.107683
O O4 0.740512 0.916764 0.088561
O O5 0.954764 0.159749 0.250000
O O6 0.815373 0.122633 0.087380
O O7 0.851092 0.312780 0.142392
O O8 0.322514 0.962193 0.063719
O O9 0.000000 0.000000 0.000000
O O10 0.357509 0.579611 0.750000
#
# Coordination Sequence:
#
# PCOD9439534 Si02
#       4
#     8   8   8   8
#     4  10  22  43  67  92 128 170 210 259 314 371
#     4  10  22  43  65  91 126 165 209 260 313 372
#     4  12  23  39  66  96 128 165 209 260 317 373
#     4  10  22  42  63  90 130 169 210 260 310 370
#
# _framework density 23.499096000000002
#
# number of rings (size 3 to 8) (size 9 to 14) (size 15 to 20)
#    0.000    1.500    2.500    2.250    0.000    1.000 
#   13.500    0.000    0.000    0.000    0.000    0.000 
#    0.000    0.000    0.000    0.000    0.000    0.000 
#
# Total GULP energy -178807.239195 kJ/mol
# GULP energy per Si atom -5587.726225 kJ/mol
# Density = 2.344561 g / cm^3
# Si number density = 23.499096 Si / 1000 Ang^3
#
#
#
# Elastic Constant Matrix: (Units=GPa)
#
#
# Indices 1 2 3 4 5 6 
#
# 1 106.1237 -1.3499 14.4355 0.0000 0.0000 0.0000
# 2 -1.3499 49.8897 35.4099 0.0000 0.0000 0.0000
# 3 14.4355 35.4099 102.1095 0.0000 0.0000 0.0000
# 4 0.0000 0.0000 0.0000 18.0207 0.0000 0.0000
# 5 0.0000 0.0000 0.0000 0.0000 24.6747 0.0000
# 6 0.0000 0.0000 0.0000 0.0000 0.0000 28.7441
#
#
#
# Elastic Compliance Matrix: (Units=1/GPa)
#
#
# Indices 1 2 3 4 5 6 
#
# 1 0.009708 0.001641 -0.001941 0.000000 0.000000 0.000000
# 2 0.001641 0.026866 -0.009549 0.000000 0.000000 0.000000
# 3 -0.001941 -0.009549 0.013379 0.000000 0.000000 0.000000
# 4 0.000000 0.000000 0.000000 0.055492 0.000000 0.000000
# 5 0.000000 0.000000 0.000000 0.000000 0.040527 0.000000
# 6 0.000000 0.000000 0.000000 0.000000 0.000000 0.034790
#
#
# Mechanical properties :
#
#
# Convention : Reuss Voigt Hill
#
# Bulk Modulus (GPa) = 33.05328 39.45711 36.25519
# Shear Modulus (GPa) = 23.74789 28.26306 26.00548
#
# Velocity S-wave (km/s) = 3.18242 3.47180 3.33026
# Velocity P-wave (km/s) = 5.25358 5.73573 5.49994
#
# Compressibility (1/GPa) = 0.03025418
#
# Stress axis : x y z
#
# Youngs Moduli (GPa) = 103.00879 37.22204 74.74315
#
# Poissons Ratio (x) = -0.06107 0.14510
# Poissons Ratio (y) = -0.16899 0.71369
# Poissons Ratio (z) = 0.19998 0.35542
#
# Static dielectric constant tensor:
#      x y z
#    x 1.911710 0.000000 0.000000 
#    y 0.000000 2.032760 0.000000 
#    z 0.000000 0.000000 1.989430 
# 
# From -- ./inp_files/15500.got.cif
#   From: 2010.05.17/outbox.cif.g08.bks.cpg/sg57_8_cif.got.tgz:15500.got - 2010.06.03 13:58:18.
