data_PCOD9439929
_publ_section_title
;
Structure prediction by ZEFSAII (Michael W. Deem and Ramdas Pophale) SiO2 
 PCOD9439929
Probable space group: P B C M
;
_chemical_formula_sum "Si O2"
_cell_formula_units_Z 36
_cell_length_a 8.717466
_cell_length_b 7.562954
_cell_length_c 21.378404
_cell_angle_alpha 90.000000
_cell_angle_beta 90.000000
_cell_angle_gamma 90.000000
_cell_volume 1409.473779
_symmetry_space_group_name_H-M "P B C M"
_symmetry_group_IT_number 57
_symmetry_cell_setting 'orthorhombic'
loop_
_space_group_symop_operation_xyz
x,y,z
-x,-y,1/2+z
x,1/2-y,-z
-x,1/2+y,1/2-z
-x,-y,-z
x,y,1/2-z
-x,1/2+y,z
x,1/2-y,1/2+z
loop_
_atom_site_type_symbol
_atom_site_label
_atom_site_fract_x
_atom_site_fract_y
_atom_site_fract_z
Si Si1 0.383302 0.250000 0.500000
Si Si2 0.957528 0.434646 0.250000
Si Si3 0.247551 0.751087 0.850756
Si Si4 0.842736 0.433573 0.530898
Si Si5 0.250531 0.274830 0.250000
Si Si6 0.561308 0.614916 0.363160
O O1 0.278072 0.412819 0.478785
O O2 0.458203 0.315498 0.565182
O O3 0.880336 0.334049 0.307719
O O4 0.881391 0.625665 0.250000
O O5 0.141089 0.444560 0.250000
O O6 0.149525 0.871106 0.898307
O O7 0.346884 0.570957 0.868259
O O8 0.390689 0.878813 0.833856
O O9 0.791213 0.250000 0.500000
O O10 0.000000 0.500000 0.500000
O O11 0.344567 0.233709 0.186728
#
# Coordination Sequence:
#
# PCOD9439929 Si02
#       6
#     4   4   8   8   4   8
#     4  12  26  44  74 108 146 200 240 312 364 448
#     4  10  25  44  76 104 144 190 245 305 374 449
#     4  11  25  45  72 107 147 193 245 306 373 446
#     4  12  26  44  70 104 149 188 243 298 370 435
#     4  10  25  46  72 106 146 194 245 311 376 451
#     4  11  25  46  73 107 151 193 252 308 380 448
#
# _framework density 25.541447999999999
#
# number of rings (size 3 to 8) (size 9 to 14) (size 15 to 20)
#    0.000    0.889    3.333    2.000    4.667    5.333 
#    0.000    0.000    0.000    0.000    0.000    0.000 
#    0.000    0.000    0.000    0.000    0.000    0.000 
#
# Total GULP energy -201181.974168 kJ/mol
# GULP energy per Si atom -5588.388171 kJ/mol
# Density = 2.548331 g / cm^3
# Si number density = 25.541448 Si / 1000 Ang^3
#
#
#
# Elastic Constant Matrix: (Units=GPa)
#
#
# Indices 1 2 3 4 5 6 
#
# 1 141.0413 26.0848 53.8044 0.0000 0.0000 0.0000
# 2 26.0848 142.7929 13.6406 0.0000 0.0000 0.0000
# 3 53.8044 13.6406 82.0259 0.0000 0.0000 0.0000
# 4 0.0000 0.0000 0.0000 26.0167 0.0000 0.0000
# 5 0.0000 0.0000 0.0000 0.0000 41.6495 0.0000
# 6 0.0000 0.0000 0.0000 0.0000 0.0000 38.3125
#
#
#
# Elastic Compliance Matrix: (Units=1/GPa)
#
#
# Indices 1 2 3 4 5 6 
#
# 1 0.009647 -0.001176 -0.006132 0.000000 0.000000 0.000000
# 2 -0.001176 0.007260 -0.000436 0.000000 0.000000 0.000000
# 3 -0.006132 -0.000436 0.016286 0.000000 0.000000 0.000000
# 4 0.000000 0.000000 0.000000 0.038437 0.000000 0.000000
# 5 0.000000 0.000000 0.000000 0.000000 0.024010 0.000000
# 6 0.000000 0.000000 0.000000 0.000000 0.000000 0.026101
#
#
# Mechanical properties :
#
#
# Convention : Reuss Voigt Hill
#
# Bulk Modulus (GPa) = 56.48371 61.43554 58.95962
# Shear Modulus (GPa) = 34.93312 39.35112 37.14212
#
# Velocity S-wave (km/s) = 3.70226 3.92940 3.81752
# Velocity P-wave (km/s) = 6.35910 6.68524 6.52421
#
# Compressibility (1/GPa) = 0.01770422
#
# Stress axis : x y z
#
# Youngs Moduli (GPa) = 103.65876 137.74728 61.40200
#
# Poissons Ratio (x) = 0.16206 0.37653
# Poissons Ratio (y) = 0.12195 0.02674
# Poissons Ratio (z) = 0.63566 0.06000
#
# Static dielectric constant tensor:
#      x y z
#    x 1.953010 0.000000 0.000000 
#    y 0.000000 2.179770 0.000000 
#    z 0.000000 0.000000 1.958580 
# 
# From -- ./inp_files/24035.got.cif
#   From: 2010.05.17/outbox.cif.g08.bks.cpg/sg57_13_cif.got.tgz:24035.got - 2010.06.03 13:58:18.
