data_PCOD9439932
_publ_section_title
;
Structure prediction by ZEFSAII (Michael W. Deem and Ramdas Pophale) SiO2 
 PCOD9439932
Probable space group: P B C M
;
_chemical_formula_sum "Si O2"
_cell_formula_units_Z 32
_cell_length_a 10.792058
_cell_length_b 13.040527
_cell_length_c 10.215719
_cell_angle_alpha 90.000000
_cell_angle_beta 90.000000
_cell_angle_gamma 90.000000
_cell_volume 1437.700262
_symmetry_space_group_name_H-M "P B C M"
_symmetry_group_IT_number 57
_symmetry_cell_setting 'orthorhombic'
loop_
_space_group_symop_operation_xyz
x,y,z
-x,-y,1/2+z
x,1/2-y,-z
-x,1/2+y,1/2-z
-x,-y,-z
x,y,1/2-z
-x,1/2+y,z
x,1/2-y,1/2+z
loop_
_atom_site_type_symbol
_atom_site_label
_atom_site_fract_x
_atom_site_fract_y
_atom_site_fract_z
Si Si1 0.786937 0.250000 0.000000
Si Si2 0.994988 0.094884 0.402888
Si Si3 0.265816 0.364340 0.983014
Si Si4 0.429284 0.428066 0.750000
Si Si5 0.682980 0.978531 0.250000
Si Si6 0.647778 0.283298 0.750000
O O1 0.881265 0.336894 0.952055
O O2 0.697694 0.226267 0.877890
O O3 0.983607 0.067650 0.250000
O O4 0.128321 0.148077 0.423718
O O5 0.000000 0.000000 0.500000
O O6 0.346476 0.427820 0.879147
O O7 0.318205 0.250000 0.000000
O O8 0.267199 0.423107 0.120989
O O9 0.532153 0.517490 0.750000
O O10 0.505300 0.319121 0.750000
O O11 0.706930 0.100800 0.250000
#
# Coordination Sequence:
#
# PCOD9439932 Si02
#       6
#     4   8   8   4   4   4
#     4  12  24  50  68 106 150 188 244 298 376 440
#     4  12  28  47  73 107 144 194 248 309 382 446
#     4  12  24  46  74 107 144 190 245 309 365 441
#     4  10  25  46  69 106 143 192 249 282 380 426
#     4  10  25  46  71 105 146 188 244 300 365 444
#     4  10  26  44  72 101 147 198 237 302 363 444
#
# _framework density 22.257767999999999
#
# number of rings (size 3 to 8) (size 9 to 14) (size 15 to 20)
#    0.750    0.000    3.750    3.000    5.250    0.000 
#    0.000    0.000    0.000    0.000    0.000    0.000 
#    0.000    0.000    0.000    0.000    0.000    0.000 
#
# Total GULP energy -178834.593919 kJ/mol
# GULP energy per Si atom -5588.581060 kJ/mol
# Density = 2.220711 g / cm^3
# Si number density = 22.257768 Si / 1000 Ang^3
#
#
#
# Elastic Constant Matrix: (Units=GPa)
#
#
# Indices 1 2 3 4 5 6 
#
# 1 75.3310 -20.5621 35.3775 0.0000 0.0000 0.0000
# 2 -20.5621 46.5826 26.8895 0.0000 0.0000 0.0000
# 3 35.3775 26.8895 216.5523 0.0000 0.0000 0.0000
# 4 0.0000 0.0000 0.0000 26.5853 0.0000 0.0000
# 5 0.0000 0.0000 0.0000 0.0000 38.0654 0.0000
# 6 0.0000 0.0000 0.0000 0.0000 0.0000 28.6165
#
#
#
# Elastic Compliance Matrix: (Units=1/GPa)
#
#
# Indices 1 2 3 4 5 6 
#
# 1 0.018132 0.010464 -0.004261 0.000000 0.000000 0.000000
# 2 0.010464 0.029163 -0.005331 0.000000 0.000000 0.000000
# 3 -0.004261 -0.005331 0.005976 0.000000 0.000000 0.000000
# 4 0.000000 0.000000 0.000000 0.037615 0.000000 0.000000
# 5 0.000000 0.000000 0.000000 0.000000 0.026271 0.000000
# 6 0.000000 0.000000 0.000000 0.000000 0.000000 0.034945
#
#
# Mechanical properties :
#
#
# Convention : Reuss Voigt Hill
#
# Bulk Modulus (GPa) = 18.17706 46.87507 32.52606
# Shear Modulus (GPa) = 29.63905 38.43753 34.03829
#
# Velocity S-wave (km/s) = 3.65311 4.16014 3.91484
# Velocity P-wave (km/s) = 5.09685 6.64692 5.92281
#
# Compressibility (1/GPa) = 0.05501441
#
# Stress axis : x y z
#
# Youngs Moduli (GPa) = 55.15048 34.28987 167.33829
#
# Poissons Ratio (x) = -0.35880 0.71311
# Poissons Ratio (y) = -0.57708 0.89202
# Poissons Ratio (z) = 0.23502 0.18279
#
# Static dielectric constant tensor:
#      x y z
#    x 1.899130 0.000000 0.000000 
#    y 0.000000 1.835940 0.000000 
#    z 0.000000 0.000000 1.761310 
# 
# From -- ./inp_files/2456.got.cif
#   From: 2010.05.17/outbox.cif.g08.bks.cpg/sg57_2_cif.got.tgz:2456.got - 2010.06.03 13:58:18.
