data_PCOD9439853
_publ_section_title
;
Structure prediction by ZEFSAII (Michael W. Deem and Ramdas Pophale) SiO2 
 PCOD9439853
Probable space group: P B C M
;
_chemical_formula_sum "Si O2"
_cell_formula_units_Z 40
_cell_length_a 17.465261
_cell_length_b 8.639118
_cell_length_c 13.034931
_cell_angle_alpha 90.000000
_cell_angle_beta 90.000000
_cell_angle_gamma 90.000000
_cell_volume 1966.768404
_symmetry_space_group_name_H-M "P B C M"
_symmetry_group_IT_number 57
_symmetry_cell_setting 'orthorhombic'
loop_
_space_group_symop_operation_xyz
x,y,z
-x,-y,1/2+z
x,1/2-y,-z
-x,1/2+y,1/2-z
-x,-y,-z
x,y,1/2-z
-x,1/2+y,z
x,1/2-y,1/2+z
loop_
_atom_site_type_symbol
_atom_site_label
_atom_site_fract_x
_atom_site_fract_y
_atom_site_fract_z
Si Si1 0.245837 0.920563 0.042265
Si Si2 0.596196 0.987332 0.624176
Si Si3 0.492299 0.750000 0.000000
Si Si4 0.115648 0.121243 0.574129
Si Si5 0.049049 0.577048 0.250000
Si Si6 0.837457 0.154232 0.750000
Si Si7 0.111645 0.174955 0.250000
O O1 0.320277 0.020090 0.070682
O O2 0.210036 0.874742 0.149909
O O3 0.266797 0.750000 0.000000
O O4 0.180314 0.013233 0.977761
O O5 0.599518 0.988892 0.750000
O O6 0.558045 0.141333 0.574779
O O7 0.544497 0.850867 0.577129
O O8 0.076834 0.250000 0.500000
O O9 0.151699 0.242742 0.655059
O O10 0.058195 0.019264 0.643712
O O11 0.125117 0.680561 0.250000
O O12 0.979843 0.698395 0.250000
O O13 0.893933 0.008631 0.750000
#
# Coordination Sequence:
#
# PCOD9439853 Si02
#       7
#     8   8   4   8   4   4   4
#     4  12  24  43  67  96 134 180 223 276 340 398
#     4  11  23  43  69  99 138 182 226 279 336 396
#     4  10  24  42  68 102 140 178 232 274 330 408
#     4  11  24  43  65  96 129 168 222 280 330 403
#     4  11  25  45  65  95 133 171 222 275 346 406
#     4  12  22  42  66  94 134 170 222 278 324 402
#     4  11  25  45  65  93 131 171 218 279 336 404
#
# _framework density 20.337931000000001
#
# number of rings (size 3 to 8) (size 9 to 14) (size 15 to 20)
#    0.000    0.800    6.000    1.800    1.400    0.800 
#    3.600    0.000    6.600    0.000    0.000    0.000 
#    0.000    0.000    0.000    0.000    0.000    0.000 
#
# Total GULP energy -222679.086967 kJ/mol
# GULP energy per Si atom -5566.977174 kJ/mol
# Density = 2.029164 g / cm^3
# Si number density = 20.337931 Si / 1000 Ang^3
#
#
#
# Elastic Constant Matrix: (Units=GPa)
#
#
# Indices 1 2 3 4 5 6 
#
# 1 78.6818 21.1224 35.2511 0.0000 0.0000 0.0000
# 2 21.1224 88.6725 42.2575 0.0000 0.0000 0.0000
# 3 35.2511 42.2575 139.5083 0.0000 0.0000 0.0000
# 4 0.0000 0.0000 0.0000 59.0434 0.0000 0.0000
# 5 0.0000 0.0000 0.0000 0.0000 45.6398 0.0000
# 6 0.0000 0.0000 0.0000 0.0000 0.0000 22.2865
#
#
#
# Elastic Compliance Matrix: (Units=1/GPa)
#
#
# Indices 1 2 3 4 5 6 
#
# 1 0.014633 -0.002014 -0.003087 0.000000 0.000000 0.000000
# 2 -0.002014 0.013457 -0.003567 0.000000 0.000000 0.000000
# 3 -0.003087 -0.003567 0.009029 0.000000 0.000000 0.000000
# 4 0.000000 0.000000 0.000000 0.016937 0.000000 0.000000
# 5 0.000000 0.000000 0.000000 0.000000 0.021911 0.000000
# 6 0.000000 0.000000 0.000000 0.000000 0.000000 0.044870
#
#
# Mechanical properties :
#
#
# Convention : Reuss Voigt Hill
#
# Bulk Modulus (GPa) = 50.55300 56.01382 53.28341
# Shear Modulus (GPa) = 34.53777 39.27605 36.90691
#
# Velocity S-wave (km/s) = 4.12539 4.39928 4.26453
# Velocity P-wave (km/s) = 6.89944 7.30795 7.10663
#
# Compressibility (1/GPa) = 0.01978122
#
# Stress axis : x y z
#
# Youngs Moduli (GPa) = 68.33666 74.30915 110.75811
#
# Poissons Ratio (x) = 0.14969 0.34195
# Poissons Ratio (y) = 0.13766 0.39510
# Poissons Ratio (z) = 0.21098 0.26508
#
# Static dielectric constant tensor:
#      x y z
#    x 1.754130 0.000000 0.000000 
#    y 0.000000 1.938780 0.000000 
#    z 0.000000 0.000000 1.733820 
# 
# From -- ./inp_files/14062.got.cif
#   From: 2010.05.17/outbox.cif.g08.bks.cpg/sg57_8_cif.got.tgz:14062.got - 2010.06.03 13:58:18.
