data_PCOD9439345
_publ_section_title
;
Structure prediction by ZEFSAII (Michael W. Deem and Ramdas Pophale) SiO2 
 PCOD9439345
Probable space group: P B C M
;
_chemical_formula_sum "Si O2"
_cell_formula_units_Z 64
_cell_length_a 10.762423
_cell_length_b 10.137362
_cell_length_c 29.452951
_cell_angle_alpha 90.000000
_cell_angle_beta 90.000000
_cell_angle_gamma 90.000000
_cell_volume 3213.392882
_symmetry_space_group_name_H-M "P B C M"
_symmetry_group_IT_number 57
_symmetry_cell_setting 'orthorhombic'
loop_
_space_group_symop_operation_xyz
x,y,z
-x,-y,1/2+z
x,1/2-y,-z
-x,1/2+y,1/2-z
-x,-y,-z
x,y,1/2-z
-x,1/2+y,z
x,1/2-y,1/2+z
loop_
_atom_site_type_symbol
_atom_site_label
_atom_site_fract_x
_atom_site_fract_y
_atom_site_fract_z
Si Si1 0.404451 0.857379 0.802366
Si Si2 0.251391 0.534248 0.577351
Si Si3 0.135438 0.928777 0.662700
Si Si4 0.854030 0.749341 0.449998
Si Si5 0.298013 0.025391 0.916047
Si Si6 0.025578 0.661556 0.865859
Si Si7 0.597047 0.386007 0.506470
Si Si8 0.525167 0.089704 0.855250
O O1 0.425534 0.824418 0.750000
O O2 0.262245 0.909989 0.808684
O O3 0.431208 0.727494 0.832999
O O4 0.494084 0.975953 0.818652
O O5 0.208301 0.389410 0.562066
O O6 0.142266 0.597695 0.607666
O O7 0.293438 0.606675 0.530804
O O8 0.371762 0.538130 0.609634
O O9 0.065576 0.789996 0.662335
O O10 0.189094 0.959941 0.612697
O O11 0.042990 0.054018 0.666540
O O12 0.915256 0.750000 0.500000
O O13 0.753879 0.867403 0.450795
O O14 0.939618 0.786353 0.407169
O O15 0.396441 0.097996 0.883578
O O16 0.357442 0.905017 0.942735
O O17 0.528753 0.250000 0.500000
O O18 0.500000 0.500000 0.500000
#
# Coordination Sequence:
#
# PCOD9439345 Si02
#       8
#     8   8   8   8   8   8   8   8
#     4  11  24  45  70  97 123 153 198 259 329 398
#     4  12  23  38  64  89 128 173 217 256 309 364
#     4  10  22  41  66  89 124 165 206 258 313 372
#     4  11  23  37  58  88 126 175 222 269 295 341
#     4  10  22  39  59  91 128 170 215 256 306 365
#     4  11  22  41  62  89 123 168 220 253 308 366
#     4  12  26  36  57  88 132 169 218 259 301 356
#     4  11  23  40  68  94 127 161 202 253 322 387
#
# _framework density 19.916644000000002
#
# number of rings (size 3 to 8) (size 9 to 14) (size 15 to 20)
#    0.000    1.000    5.000    1.875    3.500    2.000 
#    0.000    0.625    0.000    0.000    0.000    0.000 
#    0.000    0.000    0.000    0.000    0.000    0.000 
#
# Total GULP energy -357117.945342 kJ/mol
# GULP energy per Si atom -5579.967896 kJ/mol
# Density = 1.987131 g / cm^3
# Si number density = 19.916644 Si / 1000 Ang^3
#
#
#
# Elastic Constant Matrix: (Units=GPa)
#
#
# Indices 1 2 3 4 5 6 
#
# 1 51.1492 29.9734 1.5336 0.0000 0.0000 0.0000
# 2 29.9734 116.3242 9.9966 0.0000 0.0000 0.0000
# 3 1.5336 9.9966 52.3527 0.0000 0.0000 0.0000
# 4 0.0000 0.0000 0.0000 17.4973 0.0000 0.0000
# 5 0.0000 0.0000 0.0000 0.0000 14.9932 0.0000
# 6 0.0000 0.0000 0.0000 0.0000 0.0000 32.1722
#
#
#
# Elastic Compliance Matrix: (Units=1/GPa)
#
#
# Indices 1 2 3 4 5 6 
#
# 1 0.023039 -0.005977 0.000466 0.000000 0.000000 0.000000
# 2 -0.005977 0.010290 -0.001790 0.000000 0.000000 0.000000
# 3 0.000466 -0.001790 0.019429 0.000000 0.000000 0.000000
# 4 0.000000 0.000000 0.000000 0.057152 0.000000 0.000000
# 5 0.000000 0.000000 0.000000 0.000000 0.066697 0.000000
# 6 0.000000 0.000000 0.000000 0.000000 0.000000 0.031083
#
#
# Mechanical properties :
#
#
# Convention : Reuss Voigt Hill
#
# Bulk Modulus (GPa) = 26.20649 33.64815 29.92732
# Shear Modulus (GPa) = 21.27572 24.82070 23.04821
#
# Velocity S-wave (km/s) = 3.27194 3.53403 3.40550
# Velocity P-wave (km/s) = 5.24030 5.79514 5.52469
#
# Compressibility (1/GPa) = 0.03815849
#
# Stress axis : x y z
#
# Youngs Moduli (GPa) = 43.40482 97.17741 51.46864
#
# Poissons Ratio (x) = 0.58078 -0.02400
# Poissons Ratio (y) = 0.25941 0.09212
# Poissons Ratio (z) = -0.02024 0.17393
#
# Static dielectric constant tensor:
#      x y z
#    x 1.774700 0.000000 0.000000 
#    y 0.000000 1.719470 0.000000 
#    z 0.000000 0.000000 1.686290 
# 
# From -- ./inp_files/29765.got.cif
#   From: 2010.05.17/outbox.cif.g08.bks.cpg/sg57_15_cif.got.tgz:29765.got - 2010.06.03 13:58:18.
