data_PCOD9439665
_publ_section_title
;
Structure prediction by ZEFSAII (Michael W. Deem and Ramdas Pophale) SiO2 
 PCOD9439665
Probable space group: P B C M
;
_chemical_formula_sum "Si O2"
_cell_formula_units_Z 60
_cell_length_a 8.577237
_cell_length_b 23.432548
_cell_length_c 15.437600
_cell_angle_alpha 90.000000
_cell_angle_beta 90.000000
_cell_angle_gamma 90.000000
_cell_volume 3102.749466
_symmetry_space_group_name_H-M "P B C M"
_symmetry_group_IT_number 57
_symmetry_cell_setting 'orthorhombic'
loop_
_space_group_symop_operation_xyz
x,y,z
-x,-y,1/2+z
x,1/2-y,-z
-x,1/2+y,1/2-z
-x,-y,-z
x,y,1/2-z
-x,1/2+y,z
x,1/2-y,1/2+z
loop_
_atom_site_type_symbol
_atom_site_label
_atom_site_fract_x
_atom_site_fract_y
_atom_site_fract_z
Si Si1 0.478078 0.111752 0.647541
Si Si2 0.084823 0.014186 0.150374
Si Si3 0.832733 0.395896 0.895497
Si Si4 0.340860 0.527140 0.531614
Si Si5 0.349142 0.675910 0.250000
Si Si6 0.943553 0.307777 0.459140
Si Si7 0.607858 0.231464 0.901047
Si Si8 0.876321 0.902216 0.146366
O O1 0.494347 0.104393 0.750000
O O2 0.610520 0.076172 0.599394
O O3 0.502667 0.177503 0.623443
O O4 0.304956 0.090839 0.621957
O O5 0.138015 0.007578 0.250000
O O6 0.225484 0.014824 0.082523
O O7 0.979292 0.958474 0.127638
O O8 0.980010 0.070509 0.143355
O O9 0.723428 0.367287 0.824759
O O10 0.742621 0.442782 0.951779
O O11 0.887734 0.346803 0.961179
O O12 0.500000 0.500000 0.500000
O O13 0.405311 0.720500 0.327729
O O14 0.014279 0.250000 0.500000
O O15 0.053264 0.347336 0.401308
O O16 0.789823 0.288677 0.405529
O O17 0.572388 0.250000 0.000000
O O18 0.881789 0.893672 0.250000
#
# Coordination Sequence:
#
# PCOD9439665 Si02
#       8
#     8   8   8   8   4   8   8   8
#     4  11  22  40  62  92 127 171 221 275 333 404
#     4  11  23  43  68  95 131 174 218 280 339 404
#     4  12  23  41  65  97 132 171 226 274 341 396
#     4  12  25  41  67  96 131 175 220 276 338 419
#     4  12  22  40  68  98 134 172 218 290 326 394
#     4  11  22  38  62  93 122 170 222 269 322 403
#     4  11  21  39  66  93 126 175 224 264 335 405
#     4  10  23  39  64  95 127 167 222 278 332 395
#
# _framework density 19.337686000000001
#
# number of rings (size 3 to 8) (size 9 to 14) (size 15 to 20)
#    0.000    0.800    6.667    1.600    2.800    1.600 
#    2.400    0.000    0.000    1.600    0.000    0.000 
#    0.000    0.000    0.000    0.000    0.000    0.000 
#
# Total GULP energy -334265.542651 kJ/mol
# GULP energy per Si atom -5571.092378 kJ/mol
# Density = 1.929367 g / cm^3
# Si number density = 19.337686 Si / 1000 Ang^3
#
#
#
# Elastic Constant Matrix: (Units=GPa)
#
#
# Indices 1 2 3 4 5 6 
#
# 1 35.3105 3.7959 28.9977 0.0000 0.0000 0.0000
# 2 3.7959 67.3605 19.4724 0.0000 0.0000 0.0000
# 3 28.9977 19.4724 100.8516 0.0000 0.0000 0.0000
# 4 0.0000 0.0000 0.0000 33.3005 0.0000 0.0000
# 5 0.0000 0.0000 0.0000 0.0000 19.9353 0.0000
# 6 0.0000 0.0000 0.0000 0.0000 0.0000 25.0489
#
#
#
# Elastic Compliance Matrix: (Units=1/GPa)
#
#
# Indices 1 2 3 4 5 6 
#
# 1 0.037145 0.001053 -0.010883 0.000000 0.000000 0.000000
# 2 0.001053 0.015753 -0.003344 0.000000 0.000000 0.000000
# 3 -0.010883 -0.003344 0.013691 0.000000 0.000000 0.000000
# 4 0.000000 0.000000 0.000000 0.030030 0.000000 0.000000
# 5 0.000000 0.000000 0.000000 0.000000 0.050162 0.000000
# 6 0.000000 0.000000 0.000000 0.000000 0.000000 0.039922
#
#
# Mechanical properties :
#
#
# Convention : Reuss Voigt Hill
#
# Bulk Modulus (GPa) = 24.85173 34.22827 29.54000
# Shear Modulus (GPa) = 22.07850 25.74070 23.90960
#
# Velocity S-wave (km/s) = 3.38262 3.65240 3.52010
# Velocity P-wave (km/s) = 5.30429 5.96032 5.64185
#
# Compressibility (1/GPa) = 0.04023865
#
# Stress axis : x y z
#
# Youngs Moduli (GPa) = 26.92170 63.48024 73.04292
#
# Poissons Ratio (x) = -0.06684 0.79496
# Poissons Ratio (y) = -0.02835 0.24428
# Poissons Ratio (z) = 0.29300 0.21230
#
# Static dielectric constant tensor:
#      x y z
#    x 1.673920 0.000000 0.000000 
#    y 0.000000 1.675470 0.000000 
#    z 0.000000 0.000000 1.673870 
# 
# From -- ./inp_files/16913.got.cif
#   From: 2010.05.17/outbox.cif.g08.bks.cpg/sg57_9_cif.got.tgz:16913.got - 2010.06.03 13:58:18.
