data_PCOD9439815
_publ_section_title
;
Structure prediction by ZEFSAII (Michael W. Deem and Ramdas Pophale) SiO2 
 PCOD9439815
Probable space group: P B C M
;
_chemical_formula_sum "Si O2"
_cell_formula_units_Z 56
_cell_length_a 5.012322
_cell_length_b 28.862755
_cell_length_c 14.285494
_cell_angle_alpha 90.000000
_cell_angle_beta 90.000000
_cell_angle_gamma 90.000000
_cell_volume 2066.674158
_symmetry_space_group_name_H-M "P B C M"
_symmetry_group_IT_number 57
_symmetry_cell_setting 'orthorhombic'
loop_
_space_group_symop_operation_xyz
x,y,z
-x,-y,1/2+z
x,1/2-y,-z
-x,1/2+y,1/2-z
-x,-y,-z
x,y,1/2-z
-x,1/2+y,z
x,1/2-y,1/2+z
loop_
_atom_site_type_symbol
_atom_site_label
_atom_site_fract_x
_atom_site_fract_y
_atom_site_fract_z
Si Si1 0.216585 0.986870 0.861784
Si Si2 0.333837 0.321807 0.146962
Si Si3 0.427165 0.574947 0.646035
Si Si4 0.503962 0.690466 0.250000
Si Si5 0.973591 0.373294 0.038512
Si Si6 0.263030 0.431491 0.909918
Si Si7 0.995720 0.630827 0.250000
Si Si8 0.648586 0.205639 0.038413
O O1 0.173378 0.985536 0.750000
O O2 0.936856 0.975338 0.910777
O O3 0.443632 0.948963 0.887237
O O4 0.361086 0.035722 0.881583
O O5 0.355842 0.298862 0.250000
O O6 0.466401 0.372607 0.156243
O O7 0.032844 0.337858 0.123405
O O8 0.437728 0.299512 0.049076
O O9 0.327972 0.560699 0.750000
O O10 0.188817 0.582961 0.574922
O O11 0.304062 0.645432 0.250000
O O12 0.445174 0.711509 0.353935
O O13 0.815127 0.677123 0.250000
O O14 0.238933 0.395006 0.993987
O O15 0.817084 0.341427 0.965701
O O16 0.113378 0.400259 0.833652
O O17 0.810776 0.250000 0.000000
#
# Coordination Sequence:
#
# PCOD9439815 Si02
#       8
#     8   8   8   4   8   8   4   8
#     4  11  23  40  61  98 138 192 246 307 356 422
#     4  10  23  47  74 102 139 196 250 300 368 447
#     4   9  22  41  64  90 136 185 243 299 360 424
#     4  12  26  48  80 112 150 192 240 304 374 452
#     4  11  24  42  69  98 136 188 238 302 371 445
#     4  12  24  38  67 100 142 187 247 297 367 432
#     4  12  22  44  72 104 144 200 242 296 374 438
#     4  11  27  48  74 111 148 185 241 308 378 451
#
# _framework density 27.096674
#
# number of rings (size 3 to 8) (size 9 to 14) (size 15 to 20)
#    0.000    1.143    2.857    2.143    7.000    2.286 
#    0.000    0.000    0.000    0.000    0.000    0.000 
#    0.000    0.000    0.000    0.000    0.000    0.000 
#
# Total GULP energy -313038.126302 kJ/mol
# GULP energy per Si atom -5589.966541 kJ/mol
# Density = 2.703500 g / cm^3
# Si number density = 27.096674 Si / 1000 Ang^3
#
#
#
# Elastic Constant Matrix: (Units=GPa)
#
#
# Indices 1 2 3 4 5 6 
#
# 1 86.7147 15.6376 12.3457 0.0000 0.0000 0.0000
# 2 15.6376 94.4150 62.0609 0.0000 0.0000 0.0000
# 3 12.3457 62.0609 177.6148 0.0000 0.0000 0.0000
# 4 0.0000 0.0000 0.0000 55.0962 0.0000 0.0000
# 5 0.0000 0.0000 0.0000 0.0000 10.5074 0.0000
# 6 0.0000 0.0000 0.0000 0.0000 0.0000 28.9971
#
#
#
# Elastic Compliance Matrix: (Units=1/GPa)
#
#
# Indices 1 2 3 4 5 6 
#
# 1 0.011892 -0.001851 -0.000180 0.000000 0.000000 0.000000
# 2 -0.001851 0.014038 -0.004776 0.000000 0.000000 0.000000
# 3 -0.000180 -0.004776 0.007312 0.000000 0.000000 0.000000
# 4 0.000000 0.000000 0.000000 0.018150 0.000000 0.000000
# 5 0.000000 0.000000 0.000000 0.000000 0.095171 0.000000
# 6 0.000000 0.000000 0.000000 0.000000 0.000000 0.034486
#
#
# Mechanical properties :
#
#
# Convention : Reuss Voigt Hill
#
# Bulk Modulus (GPa) = 50.95271 59.87032 55.41152
# Shear Modulus (GPa) = 24.85035 36.83350 30.84192
#
# Velocity S-wave (km/s) = 3.03165 3.69092 3.37741
# Velocity P-wave (km/s) = 5.57668 6.34877 5.97521
#
# Compressibility (1/GPa) = 0.01962604
#
# Stress axis : x y z
#
# Youngs Moduli (GPa) = 84.09348 71.23662 136.77020
#
# Poissons Ratio (x) = 0.13189 0.02457
# Poissons Ratio (y) = 0.15570 0.65325
# Poissons Ratio (z) = 0.01511 0.34025
#
# Static dielectric constant tensor:
#      x y z
#    x 2.156520 0.000000 0.000000 
#    y 0.000000 2.173500 0.000000 
#    z 0.000000 0.000000 2.240120 
# 
# From -- ./inp_files/15297.got.cif
#   From: 2010.05.17/outbox.cif.g08.bks.cpg/sg57_8_cif.got.tgz:15297.got - 2010.06.03 13:58:18.
