data_PCOD9439723
_publ_section_title
;
Structure prediction by ZEFSAII (Michael W. Deem and Ramdas Pophale) SiO2 
 PCOD9439723
Probable space group: P B C M
;
_chemical_formula_sum "Si O2"
_cell_formula_units_Z 64
_cell_length_a 14.721873
_cell_length_b 25.570067
_cell_length_c 8.455253
_cell_angle_alpha 90.000000
_cell_angle_beta 90.000000
_cell_angle_gamma 90.000000
_cell_volume 3182.889343
_symmetry_space_group_name_H-M "P B C M"
_symmetry_group_IT_number 57
_symmetry_cell_setting 'orthorhombic'
loop_
_space_group_symop_operation_xyz
x,y,z
-x,-y,1/2+z
x,1/2-y,-z
-x,1/2+y,1/2-z
-x,-y,-z
x,y,1/2-z
-x,1/2+y,z
x,1/2-y,1/2+z
loop_
_atom_site_type_symbol
_atom_site_label
_atom_site_fract_x
_atom_site_fract_y
_atom_site_fract_z
Si Si1 0.008863 0.665607 0.064936
Si Si2 0.817284 0.804964 0.437185
Si Si3 0.522225 0.941388 0.561678
Si Si4 0.784469 0.307991 0.559007
Si Si5 0.279374 0.089274 0.559158
Si Si6 0.208824 0.977913 0.934693
Si Si7 0.344725 0.599524 0.937501
Si Si8 0.030693 0.944721 0.068097
O O1 0.003430 0.677765 0.250000
O O2 0.110473 0.680704 0.008959
O O3 0.998091 0.603907 0.033624
O O4 0.923835 0.691414 0.979381
O O5 0.780695 0.750000 0.500000
O O6 0.808819 0.805526 0.250000
O O7 0.765525 0.856760 0.497986
O O8 0.513063 0.941470 0.750000
O O9 0.623482 0.923988 0.514593
O O10 0.449969 0.901206 0.485518
O O11 0.500000 0.000000 0.500000
O O12 0.761258 0.250000 0.500000
O O13 0.781927 0.311287 0.750000
O O14 0.714473 0.350502 0.490287
O O15 0.289581 0.091261 0.750000
O O16 0.215021 0.039133 0.528309
O O17 0.183321 0.970939 0.750000
O O18 0.303712 0.950037 0.967986
O O19 0.138836 0.948050 0.046476
O O20 0.336314 0.591871 0.750000
O O21 0.003592 0.938088 0.250000
O O22 0.000000 0.000000 0.000000
#
# Coordination Sequence:
#
# PCOD9439723 Si02
#       8
#     8   8   8   8   8   8   8   8
#     4  11  23  40  64  92 126 166 216 268 316 376
#     4  11  24  43  66  93 128 169 216 267 318 373
#     4  12  24  40  66  97 130 165 207 259 319 387
#     4  11  24  42  65  93 129 170 216 267 316 373
#     4  10  23  42  65  93 127 166 211 263 319 380
#     4  11  21  37  61  90 127 164 205 259 318 377
#     4  12  24  40  64  94 129 167 209 259 317 379
#     4  12  24  37  56  85 126 170 215 261 318 381
#
# _framework density 20.107517999999999
#
# number of rings (size 3 to 8) (size 9 to 14) (size 15 to 20)
#    0.000    0.750    2.500    6.000    0.000    5.000 
#    0.000    0.625    0.000    1.500    0.000    0.000 
#    0.000    0.000    0.000    0.000    0.000    0.000 
#
# Total GULP energy -357929.520944 kJ/mol
# GULP energy per Si atom -5592.648765 kJ/mol
# Density = 2.006175 g / cm^3
# Si number density = 20.107518 Si / 1000 Ang^3
#
#
#
# Elastic Constant Matrix: (Units=GPa)
#
#
# Indices 1 2 3 4 5 6 
#
# 1 78.2596 35.0974 16.0182 0.0000 0.0000 0.0000
# 2 35.0974 141.5638 23.9646 0.0000 0.0000 0.0000
# 3 16.0182 23.9646 59.8087 0.0000 0.0000 0.0000
# 4 0.0000 0.0000 0.0000 30.0686 0.0000 0.0000
# 5 0.0000 0.0000 0.0000 0.0000 33.5678 0.0000
# 6 0.0000 0.0000 0.0000 0.0000 0.0000 17.3021
#
#
#
# Elastic Compliance Matrix: (Units=1/GPa)
#
#
# Indices 1 2 3 4 5 6 
#
# 1 0.014763 -0.003208 -0.002668 0.000000 0.000000 0.000000
# 2 -0.003208 0.008275 -0.002456 0.000000 0.000000 0.000000
# 3 -0.002668 -0.002456 0.018419 0.000000 0.000000 0.000000
# 4 0.000000 0.000000 0.000000 0.033257 0.000000 0.000000
# 5 0.000000 0.000000 0.000000 0.000000 0.029790 0.000000
# 6 0.000000 0.000000 0.000000 0.000000 0.000000 0.057796
#
#
# Mechanical properties :
#
#
# Convention : Reuss Voigt Hill
#
# Bulk Modulus (GPa) = 40.33773 47.75474 44.04623
# Shear Modulus (GPa) = 26.70494 29.82452 28.26473
#
# Velocity S-wave (km/s) = 3.64827 3.85548 3.75331
# Velocity P-wave (km/s) = 6.15233 6.60461 6.38248
#
# Compressibility (1/GPa) = 0.02479069
#
# Stress axis : x y z
#
# Youngs Moduli (GPa) = 67.73675 120.84219 54.29208
#
# Poissons Ratio (x) = 0.38772 0.14487
# Poissons Ratio (y) = 0.21733 0.13337
# Poissons Ratio (z) = 0.18074 0.29685
#
# Static dielectric constant tensor:
#      x y z
#    x 1.767400 0.000000 0.000000 
#    y 0.000000 1.733320 0.000000 
#    z 0.000000 0.000000 1.691600 
# 
# From -- ./inp_files/5669.got.cif
#   From: 2010.05.17/outbox.cif.g08.bks.cpg/sg57_3_cif.got.tgz:5669.got - 2010.06.03 13:58:18.
