data_PCOD9439616
_publ_section_title
;
Structure prediction by ZEFSAII (Michael W. Deem and Ramdas Pophale) SiO2 
 PCOD9439616
Probable space group: P B C M
;
_chemical_formula_sum "Si O2"
_cell_formula_units_Z 48
_cell_length_a 17.524601
_cell_length_b 14.038611
_cell_length_c 9.952098
_cell_angle_alpha 90.000000
_cell_angle_beta 90.000000
_cell_angle_gamma 90.000000
_cell_volume 2448.425663
_symmetry_space_group_name_H-M "P B C M"
_symmetry_group_IT_number 57
_symmetry_cell_setting 'orthorhombic'
loop_
_space_group_symop_operation_xyz
x,y,z
-x,-y,1/2+z
x,1/2-y,-z
-x,1/2+y,1/2-z
-x,-y,-z
x,y,1/2-z
-x,1/2+y,z
x,1/2-y,1/2+z
loop_
_atom_site_type_symbol
_atom_site_label
_atom_site_fract_x
_atom_site_fract_y
_atom_site_fract_z
Si Si1 0.105625 0.022534 0.403350
Si Si2 0.498347 0.894922 0.250000
Si Si3 0.608129 0.146322 0.513442
Si Si4 0.652996 0.674004 0.250000
Si Si5 0.282521 0.029665 0.035837
Si Si6 0.489040 0.889347 0.750000
Si Si7 0.318899 0.110718 0.750000
Si Si8 0.994762 0.845443 0.411079
O O1 0.086745 0.054492 0.250000
O O2 0.065598 0.919574 0.421318
O O3 0.196193 0.015848 0.417795
O O4 0.072806 0.095430 0.514543
O O5 0.459420 0.848076 0.378124
O O6 0.589120 0.898486 0.250000
O O7 0.474171 0.005894 0.250000
O O8 0.644842 0.250000 0.500000
O O9 0.565212 0.119247 0.377424
O O10 0.668176 0.065899 0.552646
O O11 0.678529 0.613476 0.378595
O O12 0.560968 0.681545 0.250000
O O13 0.693151 0.776022 0.250000
O O14 0.286207 0.061163 0.881505
O O15 0.006385 0.750000 0.500000
O O16 0.981651 0.827793 0.250000
#
# Coordination Sequence:
#
# PCOD9439616 Si02
#       8
#     8   4   8   4   8   4   4   8
#     4  10  23  44  68  97 137 175 214 264 318 386
#     4  12  22  43  63  84 125 167 221 283 327 383
#     4  12  24  40  65  91 123 169 223 276 336 384
#     4  12  24  41  64  86 124 175 221 267 338 390
#     4  12  24  43  62  92 135 169 211 270 325 391
#     4  12  22  43  63  88 121 167 221 287 325 385
#     4  12  26  39  60  94 126 169 223 275 334 386
#     4  10  22  43  74 105 133 170 215 259 316 389
#
# _framework density 19.604434999999999
#
# number of rings (size 3 to 8) (size 9 to 14) (size 15 to 20)
#    0.000    0.667    4.167    4.000    1.167    2.667 
#    0.000    0.000    0.000    0.000    0.000    0.000 
#    0.000    0.000    0.000    0.000    0.000    0.000 
#
# Total GULP energy -268327.912595 kJ/mol
# GULP energy per Si atom -5590.164846 kJ/mol
# Density = 1.955981 g / cm^3
# Si number density = 19.604435 Si / 1000 Ang^3
#
#
#
# Elastic Constant Matrix: (Units=GPa)
#
#
# Indices 1 2 3 4 5 6 
#
# 1 96.9631 19.3458 25.3441 0.0000 0.0000 0.0000
# 2 19.3458 115.5739 32.9579 0.0000 0.0000 0.0000
# 3 25.3441 32.9579 147.4406 0.0000 0.0000 0.0000
# 4 0.0000 0.0000 0.0000 32.9195 0.0000 0.0000
# 5 0.0000 0.0000 0.0000 0.0000 -1.1224 0.0000
# 6 0.0000 0.0000 0.0000 0.0000 0.0000 8.2845
#
#
#
# Elastic Compliance Matrix: (Units=1/GPa)
#
#
# Indices 1 2 3 4 5 6 
#
# 1 0.011004 -0.001391 -0.001581 0.000000 0.000000 0.000000
# 2 -0.001391 0.009417 -0.001866 0.000000 0.000000 0.000000
# 3 -0.001581 -0.001866 0.007471 0.000000 0.000000 0.000000
# 4 0.000000 0.000000 0.000000 0.030377 0.000000 0.000000
# 5 0.000000 0.000000 0.000000 0.000000 -0.890935 0.000000
# 6 0.000000 0.000000 0.000000 0.000000 0.000000 0.120707
#
#
# Mechanical properties :
#
#
# Convention : Reuss Voigt Hill
#
# Bulk Modulus (GPa) = 54.89345 57.25258 56.07301
# Shear Modulus (GPa) = -7.18174 26.83829 9.82827
#
# Velocity S-wave (km/s) = -1.91606 3.70400 2.24147
# Velocity P-wave (km/s) = 4.81314 6.89639 5.94670
#
# Compressibility (1/GPa) = 0.01821711
#
# Stress axis : x y z
#
# Youngs Moduli (GPa) = 90.87698 106.18571 133.84765
#
# Poissons Ratio (x) = 0.14773 0.21155
# Poissons Ratio (y) = 0.12643 0.24976
# Poissons Ratio (z) = 0.14363 0.19814
#
# Static dielectric constant tensor:
#      x y z
#    x 1.645330 0.000000 0.000000 
#    y 0.000000 1.714020 0.000000 
#    z 0.000000 0.000000 1.707820 
# 
# From -- ./inp_files/6634.got.cif
#   From: 2010.05.17/outbox.cif.g08.bks.cpg/sg57_4_cif.got.tgz:6634.got - 2010.06.03 13:58:18.
