data_PCOD9439972
_publ_section_title
;
Structure prediction by ZEFSAII (Michael W. Deem and Ramdas Pophale) SiO2 
 PCOD9439972
Probable space group: P B C M
;
_chemical_formula_sum "Si O2"
_cell_formula_units_Z 32
_cell_length_a 8.269956
_cell_length_b 11.373760
_cell_length_c 17.442784
_cell_angle_alpha 90.000000
_cell_angle_beta 90.000000
_cell_angle_gamma 90.000000
_cell_volume 1640.676893
_symmetry_space_group_name_H-M "P B C M"
_symmetry_group_IT_number 57
_symmetry_cell_setting 'orthorhombic'
loop_
_space_group_symop_operation_xyz
x,y,z
-x,-y,1/2+z
x,1/2-y,-z
-x,1/2+y,1/2-z
-x,-y,-z
x,y,1/2-z
-x,1/2+y,z
x,1/2-y,1/2+z
loop_
_atom_site_type_symbol
_atom_site_label
_atom_site_fract_x
_atom_site_fract_y
_atom_site_fract_z
Si Si1 0.875377 0.090003 0.041611
Si Si2 0.379336 0.963989 0.431337
Si Si3 0.683590 0.927367 0.161594
Si Si4 0.189886 0.297454 0.915664
O O1 0.997474 0.182712 0.078608
O O2 0.776253 0.020751 0.107093
O O3 0.749557 0.120129 0.973623
O O4 0.000000 0.000000 0.000000
O O5 0.497148 0.917723 0.365809
O O6 0.500000 0.000000 0.500000
O O7 0.282721 0.079845 0.403798
O O8 0.695091 0.959929 0.250000
O O9 0.763632 0.801416 0.144519
O O10 0.241207 0.250000 0.000000
#
# Coordination Sequence:
#
# PCOD9439972 Si02
#       4
#     8   8   8   8
#     4   9  18  37  62  88 111 157 205 241 291 360
#     4   9  18  37  60  86 114 153 199 246 291 360
#     4  11  23  39  58  91 129 154 194 258 305 343
#     4  11  19  37  65  88 109 157 211 241 293 357
#
# _framework density 19.504145000000001
#
# number of rings (size 3 to 8) (size 9 to 14) (size 15 to 20)
#    0.000    2.000    7.500    0.000    0.000    2.000 
#    9.000    3.750    0.000    0.000    0.000    0.000 
#    0.000    0.000    0.000    0.000    0.000    0.000 
#
# Total GULP energy -178386.780293 kJ/mol
# GULP energy per Si atom -5574.586884 kJ/mol
# Density = 1.945975 g / cm^3
# Si number density = 19.504145 Si / 1000 Ang^3
#
#
#
# Elastic Constant Matrix: (Units=GPa)
#
#
# Indices 1 2 3 4 5 6 
#
# 1 135.7724 40.4853 44.4100 0.0000 0.0000 0.0000
# 2 40.4853 67.4026 17.6779 0.0000 0.0000 0.0000
# 3 44.4100 17.6779 113.8209 0.0000 0.0000 0.0000
# 4 0.0000 0.0000 0.0000 22.4567 0.0000 0.0000
# 5 0.0000 0.0000 0.0000 0.0000 9.6700 0.0000
# 6 0.0000 0.0000 0.0000 0.0000 0.0000 42.1322
#
#
#
# Elastic Compliance Matrix: (Units=1/GPa)
#
#
# Indices 1 2 3 4 5 6 
#
# 1 0.009901 -0.005144 -0.003064 0.000000 0.000000 0.000000
# 2 -0.005144 0.018138 -0.000810 0.000000 0.000000 0.000000
# 3 -0.003064 -0.000810 0.010107 0.000000 0.000000 0.000000
# 4 0.000000 0.000000 0.000000 0.044530 0.000000 0.000000
# 5 0.000000 0.000000 0.000000 0.000000 0.103413 0.000000
# 6 0.000000 0.000000 0.000000 0.000000 0.000000 0.023735
#
#
# Mechanical properties :
#
#
# Convention : Reuss Voigt Hill
#
# Bulk Modulus (GPa) = 49.72540 58.01583 53.87061
# Shear Modulus (GPa) = 21.31611 29.14662 25.23137
#
# Velocity S-wave (km/s) = 3.30949 3.86992 3.60062
# Velocity P-wave (km/s) = 6.33670 7.05537 6.70567
#
# Compressibility (1/GPa) = 0.02011045
#
# Stress axis : x y z
#
# Youngs Moduli (GPa) = 100.99662 55.13235 98.93925
#
# Poissons Ratio (x) = 0.28357 0.30319
# Poissons Ratio (y) = 0.51948 0.08016
# Poissons Ratio (z) = 0.30949 0.04467
#
# Static dielectric constant tensor:
#      x y z
#    x 1.722490 0.000000 0.000000 
#    y 0.000000 1.738320 0.000000 
#    z 0.000000 0.000000 1.661520 
# 
# From -- ./inp_files/15588.got.cif
#   From: 2010.05.17/outbox.cif.g08.bks.cpg/sg57_8_cif.got.tgz:15588.got - 2010.06.03 13:58:18.
