data_PCOD9439374
_publ_section_title
;
Structure prediction by ZEFSAII (Michael W. Deem and Ramdas Pophale) SiO2 
 PCOD9439374
Probable space group: P B C M
;
_chemical_formula_sum "Si O2"
_cell_formula_units_Z 48
_cell_length_a 9.521842
_cell_length_b 9.185636
_cell_length_c 26.620271
_cell_angle_alpha 90.000000
_cell_angle_beta 90.000000
_cell_angle_gamma 90.000000
_cell_volume 2328.320032
_symmetry_space_group_name_H-M "P B C M"
_symmetry_group_IT_number 57
_symmetry_cell_setting 'orthorhombic'
loop_
_space_group_symop_operation_xyz
x,y,z
-x,-y,1/2+z
x,1/2-y,-z
-x,1/2+y,1/2-z
-x,-y,-z
x,y,1/2-z
-x,1/2+y,z
x,1/2-y,1/2+z
loop_
_atom_site_type_symbol
_atom_site_label
_atom_site_fract_x
_atom_site_fract_y
_atom_site_fract_z
Si Si1 0.613852 0.204789 0.873237
Si Si2 0.661875 0.617071 0.115959
Si Si3 0.044456 0.419731 0.859198
Si Si4 0.834900 0.154183 0.450089
Si Si5 0.348631 0.077400 0.004260
Si Si6 0.144022 0.788857 0.306864
O O1 0.461375 0.267847 0.883569
O O2 0.715576 0.255849 0.919157
O O3 0.700233 0.255785 0.824664
O O4 0.600264 0.033309 0.863670
O O5 0.806213 0.662931 0.141027
O O6 0.706668 0.566311 0.060552
O O7 0.086201 0.585739 0.845199
O O8 0.959459 0.389122 0.911257
O O9 0.950383 0.351710 0.815823
O O10 0.874044 0.250000 0.500000
O O11 0.758588 0.005474 0.468063
O O12 0.366732 0.250000 0.000000
O O13 0.500000 0.000000 0.000000
O O14 0.141089 0.841297 0.250000
#
# Coordination Sequence:
#
# PCOD9439374 Si02
#       6
#     8   8   8   8   8   8
#     4  10  22  39  63  89 123 167 209 269 312 377
#     4  11  22  39  58  92 127 162 212 259 314 368
#     4  10  25  40  67  96 128 170 207 273 325 392
#     4  11  22  42  59  91 137 173 224 258 315 388
#     4  12  23  34  59  90 129 184 221 261 309 372
#     4  10  22  46  68  92 122 163 210 270 338 393
#
# _framework density 20.615724
#
# number of rings (size 3 to 8) (size 9 to 14) (size 15 to 20)
#    0.000    1.333    3.333    2.000    2.333    2.667 
#    0.000    4.167    0.000    0.000    0.000    0.000 
#    0.000    0.000    0.000    0.000    0.000    0.000 
#
# Total GULP energy -267685.253701 kJ/mol
# GULP energy per Si atom -5576.776119 kJ/mol
# Density = 2.056880 g / cm^3
# Si number density = 20.615724 Si / 1000 Ang^3
#
#
#
# Elastic Constant Matrix: (Units=GPa)
#
#
# Indices 1 2 3 4 5 6 
#
# 1 91.4977 26.2368 29.9372 0.0000 0.0000 0.0000
# 2 26.2368 70.3240 16.8789 0.0000 0.0000 0.0000
# 3 29.9372 16.8789 84.4519 0.0000 0.0000 0.0000
# 4 0.0000 0.0000 0.0000 22.4501 0.0000 0.0000
# 5 0.0000 0.0000 0.0000 0.0000 6.4408 0.0000
# 6 0.0000 0.0000 0.0000 0.0000 0.0000 21.7921
#
#
#
# Elastic Compliance Matrix: (Units=1/GPa)
#
#
# Indices 1 2 3 4 5 6 
#
# 1 0.013376 -0.004047 -0.003933 0.000000 0.000000 0.000000
# 2 -0.004047 0.016161 -0.001795 0.000000 0.000000 0.000000
# 3 -0.003933 -0.001795 0.013594 0.000000 0.000000 0.000000
# 4 0.000000 0.000000 0.000000 0.044543 0.000000 0.000000
# 5 0.000000 0.000000 0.000000 0.000000 0.155260 0.000000
# 6 0.000000 0.000000 0.000000 0.000000 0.000000 0.045888
#
#
# Mechanical properties :
#
#
# Convention : Reuss Voigt Hill
#
# Bulk Modulus (GPa) = 42.40696 43.59768 43.00232
# Shear Modulus (GPa) = 15.81113 21.68466 18.74789
#
# Velocity S-wave (km/s) = 2.77238 3.24674 3.01889
# Velocity P-wave (km/s) = 5.55545 5.93707 5.74943
#
# Compressibility (1/GPa) = 0.02358104
#
# Stress axis : x y z
#
# Youngs Moduli (GPa) = 74.75843 61.87914 73.56123
#
# Poissons Ratio (x) = 0.25040 0.28932
# Poissons Ratio (y) = 0.30251 0.13208
# Poissons Ratio (z) = 0.29403 0.11110
#
# Static dielectric constant tensor:
#      x y z
#    x 1.798040 0.000000 0.000000 
#    y 0.000000 1.593140 0.000000 
#    z 0.000000 0.000000 1.787980 
# 
# From -- ./inp_files/29452.got.cif
#   From: 2010.05.17/outbox.cif.g08.bks.cpg/sg57_15_cif.got.tgz:29452.got - 2010.06.03 13:58:18.
