data_PCOD9439982
_publ_section_title
;
Structure prediction by ZEFSAII (Michael W. Deem and Ramdas Pophale) SiO2 
 PCOD9439982
Probable space group: P B C M
;
_chemical_formula_sum "Si O2"
_cell_formula_units_Z 64
_cell_length_a 15.024240
_cell_length_b 25.521794
_cell_length_c 8.152041
_cell_angle_alpha 90.000000
_cell_angle_beta 90.000000
_cell_angle_gamma 90.000000
_cell_volume 3125.863912
_symmetry_space_group_name_H-M "P B C M"
_symmetry_group_IT_number 57
_symmetry_cell_setting 'orthorhombic'
loop_
_space_group_symop_operation_xyz
x,y,z
-x,-y,1/2+z
x,1/2-y,-z
-x,1/2+y,1/2-z
-x,-y,-z
x,y,1/2-z
-x,1/2+y,z
x,1/2-y,1/2+z
loop_
_atom_site_type_symbol
_atom_site_label
_atom_site_fract_x
_atom_site_fract_y
_atom_site_fract_z
Si Si1 0.118015 0.131684 0.557148
Si Si2 0.627142 0.408332 0.948037
Si Si3 0.048063 0.808704 0.941949
Si Si4 0.715114 0.808832 0.941737
Si Si5 0.636558 0.524269 0.551344
Si Si6 0.846215 0.980554 0.448938
Si Si7 0.166107 0.596074 0.049090
Si Si8 0.550035 0.631979 0.554607
O O1 0.098349 0.131618 0.750000
O O2 0.218989 0.151024 0.532795
O O3 0.106710 0.072347 0.490631
O O4 0.052422 0.172747 0.474187
O O5 0.624077 0.408005 0.750000
O O6 0.603411 0.467480 0.007089
O O7 0.729736 0.399023 0.995706
O O8 0.553990 0.368273 0.013003
O O9 0.064740 0.808599 0.750000
O O10 0.110146 0.854768 0.013706
O O11 0.063824 0.750000 0.000000
O O12 0.733416 0.813186 0.750000
O O13 0.732876 0.750000 0.000000
O O14 0.613354 0.824385 0.977770
O O15 0.629485 0.524236 0.750000
O O16 0.741415 0.526161 0.512877
O O17 0.587549 0.575922 0.490445
O O18 0.853685 0.980124 0.250000
O O19 0.870404 0.039034 0.506180
O O20 0.163397 0.594984 0.250000
O O21 0.561612 0.634246 0.750000
#
# Coordination Sequence:
#
# PCOD9439982 Si02
#       8
#     8   8   8   8   8   8   8   8
#     4  11  21  37  62  89 117 147 181 227 287 352
#     4   9  17  32  55  82 111 150 194 234 281 334
#     4  11  23  40  60  84 111 146 194 241 284 336
#     4  12  25  41  59  81 112 151 194 239 285 341
#     4   8  14  27  50  79 113 150 186 224 270 331
#     4   8  14  29  55  85 115 150 183 222 283 345
#     4   8  17  35  59  83 113 151 193 240 287 338
#     4  11  20  33  53  82 116 152 190 233 282 333
#
# _framework density 20.474340000000002
#
# number of rings (size 3 to 8) (size 9 to 14) (size 15 to 20)
#    0.000    2.250    1.250    4.500    0.000    0.500 
#    0.000    2.500    0.000    3.750    0.000    0.000 
#    0.000    0.000    0.000    0.000    0.000    0.000 
#
# Total GULP energy -357200.984360 kJ/mol
# GULP energy per Si atom -5581.265381 kJ/mol
# Density = 2.042774 g / cm^3
# Si number density = 20.474340 Si / 1000 Ang^3
#
#
#
# Elastic Constant Matrix: (Units=GPa)
#
#
# Indices 1 2 3 4 5 6 
#
# 1 21.5824 32.4902 -1.8031 0.0000 0.0000 0.0000
# 2 32.4902 135.4985 11.8023 0.0000 0.0000 0.0000
# 3 -1.8031 11.8023 21.3326 0.0000 0.0000 0.0000
# 4 0.0000 0.0000 0.0000 9.8183 0.0000 0.0000
# 5 0.0000 0.0000 0.0000 0.0000 15.6528 0.0000
# 6 0.0000 0.0000 0.0000 0.0000 0.0000 10.6958
#
#
#
# Elastic Compliance Matrix: (Units=1/GPa)
#
#
# Indices 1 2 3 4 5 6 
#
# 1 0.078526 -0.020390 0.017918 0.000000 0.000000 0.000000
# 2 -0.020390 0.013048 -0.008942 0.000000 0.000000 0.000000
# 3 0.017918 -0.008942 0.053338 0.000000 0.000000 0.000000
# 4 0.000000 0.000000 0.000000 0.101851 0.000000 0.000000
# 5 0.000000 0.000000 0.000000 0.000000 0.063886 0.000000
# 6 0.000000 0.000000 0.000000 0.000000 0.000000 0.093495
#
#
# Mechanical properties :
#
#
# Convention : Reuss Voigt Hill
#
# Bulk Modulus (GPa) = 8.19107 29.26580 18.72843
# Shear Modulus (GPa) = 10.69135 16.29499 13.49317
#
# Velocity S-wave (km/s) = 2.28761 2.82418 2.56994
# Velocity P-wave (km/s) = 3.31465 4.99596 4.23949
#
# Compressibility (1/GPa) = 0.12208423
#
# Stress axis : x y z
#
# Youngs Moduli (GPa) = 12.73463 76.63903 18.74823
#
# Poissons Ratio (x) = 1.56266 -0.33593
# Poissons Ratio (y) = 0.25966 0.16765
# Poissons Ratio (z) = -0.22818 0.68533
#
# Static dielectric constant tensor:
#      x y z
#    x 1.725920 0.000000 0.000000 
#    y 0.000000 1.764190 0.000000 
#    z 0.000000 0.000000 1.715640 
# 
# From -- ./inp_files/5576.got.cif
#   From: 2010.05.17/outbox.cif.g08.bks.cpg/sg57_3_cif.got.tgz:5576.got - 2010.06.03 13:58:18.
