data_PCOD9439317
_publ_section_title
;
Structure prediction by ZEFSAII (Michael W. Deem and Ramdas Pophale) SiO2 
 PCOD9439317
Probable space group: P B C M
;
_chemical_formula_sum "Si O2"
_cell_formula_units_Z 56
_cell_length_a 8.556745
_cell_length_b 14.125349
_cell_length_c 20.918586
_cell_angle_alpha 90.000000
_cell_angle_beta 90.000000
_cell_angle_gamma 90.000000
_cell_volume 2528.366931
_symmetry_space_group_name_H-M "P B C M"
_symmetry_group_IT_number 57
_symmetry_cell_setting 'orthorhombic'
loop_
_space_group_symop_operation_xyz
x,y,z
-x,-y,1/2+z
x,1/2-y,-z
-x,1/2+y,1/2-z
-x,-y,-z
x,y,1/2-z
-x,1/2+y,z
x,1/2-y,1/2+z
loop_
_atom_site_type_symbol
_atom_site_label
_atom_site_fract_x
_atom_site_fract_y
_atom_site_fract_z
Si Si1 0.515005 0.017833 0.679141
Si Si2 0.170596 0.889126 0.323220
Si Si3 0.653649 0.814077 0.940928
Si Si4 0.666208 0.418467 0.574228
Si Si5 0.894380 0.332430 0.678827
Si Si6 0.257718 0.168417 0.317521
Si Si7 0.847800 0.493788 0.455964
O O1 0.440920 0.022475 0.750000
O O2 0.406700 0.003724 0.617399
O O3 0.627609 0.923013 0.679986
O O4 0.640705 0.101516 0.673205
O O5 0.129260 0.923768 0.250000
O O6 0.116714 0.781086 0.326806
O O7 0.118295 0.943456 0.387894
O O8 0.475503 0.846112 0.936207
O O9 0.698392 0.764097 0.875070
O O10 0.766673 0.905263 0.943792
O O11 0.684550 0.750000 0.000000
O O12 0.799438 0.376952 0.620581
O O13 0.726842 0.442183 0.503806
O O14 0.831325 0.357408 0.750000
O O15 0.076543 0.359522 0.678023
O O16 0.281813 0.216539 0.250000
O O17 0.000000 0.500000 0.500000
#
# Coordination Sequence:
#
# PCOD9439317 Si02
#       7
#     8   8   8   8   8   8   8
#     4   9  18  37  65  89 120 167 206 251 315 373
#     4  10  22  41  65  89 124 167 212 255 310 375
#     4  11  25  41  62  94 125 166 207 263 321 379
#     4  11  23  39  64  89 132 163 208 259 313 384
#     4  10  22  38  63  96 124 161 213 263 309 374
#     4   9  18  38  63  87 117 157 202 252 309 367
#     4  12  26  43  64  95 127 172 214 261 324 383
#
# _framework density 22.148683999999999
#
# number of rings (size 3 to 8) (size 9 to 14) (size 15 to 20)
#    0.000    1.714    2.857    1.714    4.000    0.571 
#    0.000    0.714    0.000    1.714    0.000    0.000 
#    0.000    0.000    0.000    0.000    0.000    0.000 
#
# Total GULP energy -312522.903611 kJ/mol
# GULP energy per Si atom -5580.766136 kJ/mol
# Density = 2.209827 g / cm^3
# Si number density = 22.148684 Si / 1000 Ang^3
#
#
#
# Elastic Constant Matrix: (Units=GPa)
#
#
# Indices 1 2 3 4 5 6 
#
# 1 54.7085 7.9558 43.4176 0.0000 0.0000 0.0000
# 2 7.9558 35.3038 45.3277 0.0000 0.0000 0.0000
# 3 43.4176 45.3277 211.8383 0.0000 0.0000 0.0000
# 4 0.0000 0.0000 0.0000 25.1518 0.0000 0.0000
# 5 0.0000 0.0000 0.0000 0.0000 24.8367 0.0000
# 6 0.0000 0.0000 0.0000 0.0000 0.0000 7.1020
#
#
#
# Elastic Compliance Matrix: (Units=1/GPa)
#
#
# Indices 1 2 3 4 5 6 
#
# 1 0.021863 0.001139 -0.004725 0.000000 0.000000 0.000000
# 2 0.001139 0.039114 -0.008603 0.000000 0.000000 0.000000
# 3 -0.004725 -0.008603 0.007530 0.000000 0.000000 0.000000
# 4 0.000000 0.000000 0.000000 0.039759 0.000000 0.000000
# 5 0.000000 0.000000 0.000000 0.000000 0.040263 0.000000
# 6 0.000000 0.000000 0.000000 0.000000 0.000000 0.140806
#
#
# Mechanical properties :
#
#
# Convention : Reuss Voigt Hill
#
# Bulk Modulus (GPa) = 22.66018 55.02807 38.84413
# Shear Modulus (GPa) = 15.22435 25.09473 20.15954
#
# Velocity S-wave (km/s) = 2.62462 3.36968 3.02021
# Velocity P-wave (km/s) = 4.40885 6.32759 5.45327
#
# Compressibility (1/GPa) = 0.04413027
#
# Stress axis : x y z
#
# Youngs Moduli (GPa) = 45.74026 25.56601 132.80692
#
# Poissons Ratio (x) = -0.02913 0.62747
# Poissons Ratio (y) = -0.05212 1.14253
# Poissons Ratio (z) = 0.21611 0.21994
#
# Static dielectric constant tensor:
#      x y z
#    x 1.829370 0.000000 0.000000 
#    y 0.000000 1.832330 0.000000 
#    z 0.000000 0.000000 1.905070 
# 
# From -- ./inp_files/24404.got.cif
#   From: 2010.05.17/outbox.cif.g08.bks.cpg/sg57_13_cif.got.tgz:24404.got - 2010.06.03 13:58:18.
