data_PCOD9439650
_publ_section_title
;
Structure prediction by ZEFSAII (Michael W. Deem and Ramdas Pophale) SiO2 
 PCOD9439650
Probable space group: P B C M
;
_chemical_formula_sum "Si O2"
_cell_formula_units_Z 28
_cell_length_a 4.711159
_cell_length_b 14.948103
_cell_length_c 15.760607
_cell_angle_alpha 90.000000
_cell_angle_beta 90.000000
_cell_angle_gamma 90.000000
_cell_volume 1109.907493
_symmetry_space_group_name_H-M "P B C M"
_symmetry_group_IT_number 57
_symmetry_cell_setting 'orthorhombic'
loop_
_space_group_symop_operation_xyz
x,y,z
-x,-y,1/2+z
x,1/2-y,-z
-x,1/2+y,1/2-z
-x,-y,-z
x,y,1/2-z
-x,1/2+y,z
x,1/2-y,1/2+z
loop_
_atom_site_type_symbol
_atom_site_label
_atom_site_fract_x
_atom_site_fract_y
_atom_site_fract_z
Si Si1 0.507384 0.744041 0.750000
Si Si2 0.572729 0.906865 0.392996
Si Si3 0.272612 0.414286 0.658532
Si Si4 0.079430 0.856751 0.001047
O O1 0.493631 0.667146 0.676145
O O2 0.556174 0.822845 0.822748
O O3 0.898535 0.895670 0.419689
O O4 0.398744 0.884639 0.478760
O O5 0.474531 0.002776 0.360830
O O6 0.122764 0.431525 0.750000
O O7 0.050347 0.396304 0.584309
O O8 0.051708 0.750000 0.000000
#
# Coordination Sequence:
#
# PCOD9439650 Si02
#       4
#     4   8   8   8
#     4  10  22  48  74 106 146 192 244 308 362 434
#     4  12  25  49  71 109 147 195 240 309 366 446
#     4  10  23  46  74 109 147 192 248 302 374 434
#     4  12  25  46  74 104 150 193 245 300 372 439
#
# _framework density 25.227326000000001
#
# number of rings (size 3 to 8) (size 9 to 14) (size 15 to 20)
#    0.857    0.000    4.286    2.571    0.000    1.143 
#    2.571    4.286    0.000    0.000    0.000    0.000 
#    0.000    0.000    0.000    0.000    0.000    0.000 
#
# Total GULP energy -156002.434134 kJ/mol
# GULP energy per Si atom -5571.515505 kJ/mol
# Density = 2.516991 g / cm^3
# Si number density = 25.227326 Si / 1000 Ang^3
#
#
#
# Elastic Constant Matrix: (Units=GPa)
#
#
# Indices 1 2 3 4 5 6 
#
# 1 66.7620 27.2641 10.4579 0.0000 0.0000 0.0000
# 2 27.2641 229.5457 71.1581 0.0000 0.0000 0.0000
# 3 10.4579 71.1581 135.2038 0.0000 0.0000 0.0000
# 4 0.0000 0.0000 0.0000 37.8655 0.0000 0.0000
# 5 0.0000 0.0000 0.0000 0.0000 18.6099 0.0000
# 6 0.0000 0.0000 0.0000 0.0000 0.0000 7.8697
#
#
#
# Elastic Compliance Matrix: (Units=1/GPa)
#
#
# Indices 1 2 3 4 5 6 
#
# 1 0.015751 -0.001784 -0.000279 0.000000 0.000000 0.000000
# 2 -0.001784 0.005408 -0.002708 0.000000 0.000000 0.000000
# 3 -0.000279 -0.002708 0.008843 0.000000 0.000000 0.000000
# 4 0.000000 0.000000 0.000000 0.026409 0.000000 0.000000
# 5 0.000000 0.000000 0.000000 0.000000 0.053735 0.000000
# 6 0.000000 0.000000 0.000000 0.000000 0.000000 0.127070
#
#
# Mechanical properties :
#
#
# Convention : Reuss Voigt Hill
#
# Bulk Modulus (GPa) = 48.87910 72.14129 60.51020
# Shear Modulus (GPa) = 19.71773 34.37777 27.04775
#
# Velocity S-wave (km/s) = 2.79875 3.69551 3.27794
# Velocity P-wave (km/s) = 5.46457 6.84599 6.19391
#
# Compressibility (1/GPa) = 0.02045864
#
# Stress axis : x y z
#
# Youngs Moduli (GPa) = 63.48814 184.91564 113.08175
#
# Poissons Ratio (x) = 0.32993 0.03158
# Poissons Ratio (y) = 0.11328 0.30624
# Poissons Ratio (z) = 0.01773 0.50078
#
# Static dielectric constant tensor:
#      x y z
#    x 1.980150 0.000000 0.000000 
#    y 0.000000 1.905940 0.000000 
#    z 0.000000 0.000000 1.999910 
# 
# From -- ./inp_files/19772.got.cif
#   From: 2010.05.17/outbox.cif.g08.bks.cpg/sg57_10_cif.got.tgz:19772.got - 2010.06.03 13:58:18.
