data_PCOD9439963
_publ_section_title
;
Structure prediction by ZEFSAII (Michael W. Deem and Ramdas Pophale) SiO2 
 PCOD9439963
Probable space group: P B C M
;
_chemical_formula_sum "Si O2"
_cell_formula_units_Z 56
_cell_length_a 9.440100
_cell_length_b 13.719776
_cell_length_c 21.978850
_cell_angle_alpha 90.000000
_cell_angle_beta 90.000000
_cell_angle_gamma 90.000000
_cell_volume 2846.613999
_symmetry_space_group_name_H-M "P B C M"
_symmetry_group_IT_number 57
_symmetry_cell_setting 'orthorhombic'
loop_
_space_group_symop_operation_xyz
x,y,z
-x,-y,1/2+z
x,1/2-y,-z
-x,1/2+y,1/2-z
-x,-y,-z
x,y,1/2-z
-x,1/2+y,z
x,1/2-y,1/2+z
loop_
_atom_site_type_symbol
_atom_site_label
_atom_site_fract_x
_atom_site_fract_y
_atom_site_fract_z
Si Si1 0.685574 0.143431 0.925211
Si Si2 0.947882 0.878666 0.888439
Si Si3 0.971176 0.086192 0.866231
Si Si4 0.156802 0.364151 0.014019
Si Si5 0.383974 0.068343 0.903386
Si Si6 0.794335 0.709109 0.681743
Si Si7 0.265304 0.641175 0.068788
O O1 0.814398 0.120395 0.880607
O O2 0.550818 0.078731 0.908891
O O3 0.651035 0.258794 0.919086
O O4 0.733314 0.128001 0.995502
O O5 0.840520 0.801814 0.858981
O O6 0.104132 0.841389 0.907763
O O7 0.971141 0.973597 0.848252
O O8 0.880914 0.916222 0.951679
O O9 0.060232 0.101729 0.929572
O O10 0.058920 0.148927 0.818892
O O11 0.314808 0.386279 0.035380
O O12 0.134003 0.250000 0.000000
O O13 0.319241 0.137801 0.850655
O O14 0.328747 0.956892 0.901535
O O15 0.752296 0.735370 0.750000
#
# Coordination Sequence:
#
# PCOD9439963 Si02
#       7
#     8   8   8   8   8   8   8
#     4  11  23  35  60  96 135 159 196 251 317 408
#     4  12  20  37  64  93 122 157 210 265 321 364
#     4  11  21  37  62  90 121 156 204 262 314 376
#     4  11  18  33  59  87 124 160 192 247 322 388
#     4  11  24  40  58  91 134 170 202 253 331 389
#     4  11  25  43  63  86 118 168 225 266 300 363
#     4  11  21  36  61  96 131 164 197 250 329 391
#
# _framework density 19.672495000000001
#
# number of rings (size 3 to 8) (size 9 to 14) (size 15 to 20)
#    0.000    0.857    8.571    1.714    2.000    1.714 
#    0.000    0.714    0.000    1.714    0.000    0.000 
#    0.000    0.000    0.000    0.000    0.000    0.000 
#
# Total GULP energy -312572.362209 kJ/mol
# GULP energy per Si atom -5581.649325 kJ/mol
# Density = 1.962772 g / cm^3
# Si number density = 19.672495 Si / 1000 Ang^3
#
#
#
# Elastic Constant Matrix: (Units=GPa)
#
#
# Indices 1 2 3 4 5 6 
#
# 1 70.2926 -6.9658 2.9124 0.0000 0.0000 0.0000
# 2 -6.9658 89.8807 6.5554 0.0000 0.0000 0.0000
# 3 2.9124 6.5554 64.5807 0.0000 0.0000 0.0000
# 4 0.0000 0.0000 0.0000 6.8278 0.0000 0.0000
# 5 0.0000 0.0000 0.0000 0.0000 9.1456 0.0000
# 6 0.0000 0.0000 0.0000 0.0000 0.0000 25.9862
#
#
#
# Elastic Compliance Matrix: (Units=1/GPa)
#
#
# Indices 1 2 3 4 5 6 
#
# 1 0.014374 0.001170 -0.000767 0.000000 0.000000 0.000000
# 2 0.001170 0.011304 -0.001200 0.000000 0.000000 0.000000
# 3 -0.000767 -0.001200 0.015641 0.000000 0.000000 0.000000
# 4 0.000000 0.000000 0.000000 0.146461 0.000000 0.000000
# 5 0.000000 0.000000 0.000000 0.000000 0.109343 0.000000
# 6 0.000000 0.000000 0.000000 0.000000 0.000000 0.038482
#
#
# Mechanical properties :
#
#
# Convention : Reuss Voigt Hill
#
# Bulk Modulus (GPa) = 25.17341 25.52866 25.35104
# Shear Modulus (GPa) = 14.26776 23.20871 18.73824
#
# Velocity S-wave (km/s) = 2.69599 3.43848 3.08962
# Velocity P-wave (km/s) = 4.74502 5.36369 5.06381
#
# Compressibility (1/GPa) = 0.03972445
#
# Stress axis : x y z
#
# Youngs Moduli (GPa) = 69.57028 88.46380 63.93485
#
# Poissons Ratio (x) = -0.10350 0.04904
# Poissons Ratio (y) = -0.08139 0.07673
# Poissons Ratio (z) = 0.05336 0.10617
#
# Static dielectric constant tensor:
#      x y z
#    x 1.692330 0.000000 0.000000 
#    y 0.000000 1.755390 0.000000 
#    z 0.000000 0.000000 1.690210 
# 
# From -- ./inp_files/24451.got.cif
#   From: 2010.05.17/outbox.cif.g08.bks.cpg/sg57_13_cif.got.tgz:24451.got - 2010.06.03 13:58:18.
