data_PCOD9439563
_publ_section_title
;
Structure prediction by ZEFSAII (Michael W. Deem and Ramdas Pophale) SiO2 
 PCOD9439563
Probable space group: P B C M
;
_chemical_formula_sum "Si O2"
_cell_formula_units_Z 48
_cell_length_a 9.024602
_cell_length_b 12.945977
_cell_length_c 17.680067
_cell_angle_alpha 90.000000
_cell_angle_beta 90.000000
_cell_angle_gamma 90.000000
_cell_volume 2065.602714
_symmetry_space_group_name_H-M "P B C M"
_symmetry_group_IT_number 57
_symmetry_cell_setting 'orthorhombic'
loop_
_space_group_symop_operation_xyz
x,y,z
-x,-y,1/2+z
x,1/2-y,-z
-x,1/2+y,1/2-z
-x,-y,-z
x,y,1/2-z
-x,1/2+y,z
x,1/2-y,1/2+z
loop_
_atom_site_type_symbol
_atom_site_label
_atom_site_fract_x
_atom_site_fract_y
_atom_site_fract_z
Si Si1 0.273064 0.413412 0.547870
Si Si2 0.939328 0.085362 0.611136
Si Si3 0.067875 0.250000 0.500000
Si Si4 0.511822 0.523803 0.750000
Si Si5 0.565777 0.309013 0.918682
Si Si6 0.466998 0.792087 0.750000
Si Si7 0.743476 0.003012 0.383184
Si Si8 0.222338 0.675725 0.750000
O O1 0.187126 0.505678 0.587043
O O2 0.176797 0.309574 0.557700
O O3 0.438127 0.394499 0.573099
O O4 0.280869 0.438168 0.459359
O O5 0.874067 0.152856 0.677747
O O6 0.977298 0.160934 0.541651
O O7 0.086504 0.023488 0.636129
O O8 0.459142 0.404256 0.750000
O O9 0.624631 0.531433 0.679324
O O10 0.370316 0.600328 0.750000
O O11 0.516409 0.253810 0.838909
O O12 0.712430 0.377093 0.904144
O O13 0.572378 0.250000 0.000000
O O14 0.287750 0.790726 0.750000
#
# Coordination Sequence:
#
# PCOD9439563 Si02
#       8
#     8   8   4   4   8   4   8   4
#     4  11  23  43  70 106 142 187 241 288 365 423
#     4  11  25  45  69 103 141 191 233 300 360 436
#     4  10  22  42  68 102 144 182 242 288 348 438
#     4  10  23  45  67 100 146 180 238 306 350 433
#     4  11  24  44  73 105 145 191 238 306 355 424
#     4  10  26  42  64 106 138 179 242 286 355 431
#     4  10  22  42  69 101 139 184 238 291 362 430
#     4  12  27  45  71 102 140 187 240 292 375 432
#
# _framework density 23.237770000000001
#
# number of rings (size 3 to 8) (size 9 to 14) (size 15 to 20)
#    0.000    1.333    0.833    5.000    4.667    5.333 
#    1.500    1.667    0.000    0.000    0.000    0.000 
#    0.000    0.000    0.000    0.000    0.000    0.000 
#
# Total GULP energy -267820.352487 kJ/mol
# GULP energy per Si atom -5579.590677 kJ/mol
# Density = 2.318488 g / cm^3
# Si number density = 23.237770 Si / 1000 Ang^3
#
#
#
# Elastic Constant Matrix: (Units=GPa)
#
#
# Indices 1 2 3 4 5 6 
#
# 1 80.2656 9.6177 19.0663 0.0000 0.0000 0.0000
# 2 9.6177 73.6855 -1.0690 0.0000 0.0000 0.0000
# 3 19.0663 -1.0690 109.4605 0.0000 0.0000 0.0000
# 4 0.0000 0.0000 0.0000 22.9911 0.0000 0.0000
# 5 0.0000 0.0000 0.0000 0.0000 24.8814 0.0000
# 6 0.0000 0.0000 0.0000 0.0000 0.0000 42.1065
#
#
#
# Elastic Compliance Matrix: (Units=1/GPa)
#
#
# Indices 1 2 3 4 5 6 
#
# 1 0.013221 -0.001759 -0.002320 0.000000 0.000000 0.000000
# 2 -0.001759 0.013807 0.000441 0.000000 0.000000 0.000000
# 3 -0.002320 0.000441 0.009544 0.000000 0.000000 0.000000
# 4 0.000000 0.000000 0.000000 0.043495 0.000000 0.000000
# 5 0.000000 0.000000 0.000000 0.000000 0.040191 0.000000
# 6 0.000000 0.000000 0.000000 0.000000 0.000000 0.023749
#
#
# Mechanical properties :
#
#
# Convention : Reuss Voigt Hill
#
# Bulk Modulus (GPa) = 34.13440 35.40462 34.76951
# Shear Modulus (GPa) = 31.04664 33.71559 32.38112
#
# Velocity S-wave (km/s) = 3.65916 3.81320 3.73697
# Velocity P-wave (km/s) = 5.70733 5.88695 5.79784
#
# Compressibility (1/GPa) = 0.02929596
#
# Stress axis : x y z
#
# Youngs Moduli (GPa) = 75.63996 72.42588 104.77645
#
# Poissons Ratio (x) = 0.12741 0.24308
# Poissons Ratio (y) = 0.13307 -0.04623
# Poissons Ratio (z) = 0.17548 -0.03196
#
# Static dielectric constant tensor:
#      x y z
#    x 1.866750 0.000000 0.000000 
#    y 0.000000 1.957230 0.000000 
#    z 0.000000 0.000000 1.964830 
# 
# From -- ./inp_files/21023.got.cif
#   From: 2010.05.17/outbox.cif.g08.bks.cpg/sg57_11_cif.got.tgz:21023.got - 2010.06.03 13:58:18.
