data_PCOD9439120
_publ_section_title
;
Structure prediction by ZEFSAII (Michael W. Deem and Ramdas Pophale) SiO2 
 PCOD9439120
Probable space group: P B C M
;
_chemical_formula_sum "Si O2"
_cell_formula_units_Z 48
_cell_length_a 18.028835
_cell_length_b 16.132574
_cell_length_c 8.510422
_cell_angle_alpha 90.000000
_cell_angle_beta 90.000000
_cell_angle_gamma 90.000000
_cell_volume 2475.269130
_symmetry_space_group_name_H-M "P B C M"
_symmetry_group_IT_number 57
_symmetry_cell_setting 'orthorhombic'
loop_
_space_group_symop_operation_xyz
x,y,z
-x,-y,1/2+z
x,1/2-y,-z
-x,1/2+y,1/2-z
-x,-y,-z
x,y,1/2-z
-x,1/2+y,z
x,1/2-y,1/2+z
loop_
_atom_site_type_symbol
_atom_site_label
_atom_site_fract_x
_atom_site_fract_y
_atom_site_fract_z
Si Si1 0.502669 0.408145 0.061422
Si Si2 0.658762 0.157336 0.062972
Si Si3 0.180478 0.154378 0.939341
Si Si4 0.083713 0.001372 0.061163
Si Si5 0.815227 0.345349 0.438367
Si Si6 0.343676 0.157718 0.938913
O O1 0.505131 0.401656 0.250000
O O2 0.423864 0.372194 0.004196
O O3 0.500000 0.500000 0.000000
O O4 0.579144 0.373054 0.994812
O O5 0.661373 0.152717 0.250000
O O6 0.662941 0.250000 0.000000
O O7 0.734877 0.120390 0.994964
O O8 0.177255 0.158363 0.750000
O O9 0.263510 0.121971 0.986583
O O10 0.169655 0.250000 0.000000
O O11 0.123840 0.084948 0.999911
O O12 0.084809 0.003381 0.250000
O O13 0.125392 0.915544 0.012573
O O14 0.000000 0.000000 0.000000
O O15 0.827141 0.250000 0.500000
O O16 0.814562 0.339425 0.250000
O O17 0.346161 0.153133 0.750000
O O18 0.338225 0.250000 0.000000
#
# Coordination Sequence:
#
# PCOD9439120 Si02
#       6
#     8   8   8   8   8   8
#     4  11  23  37  53  83 120 158 204 251 300 355
#     4  11  22  38  60  85 116 158 202 250 304 358
#     4  10  21  40  65  93 125 163 206 255 308 368
#     4  11  25  43  65  95 127 162 203 252 310 373
#     4  10  22  41  65  94 124 161 207 255 308 369
#     4   9  20  37  58  83 113 152 199 245 297 352
#
# _framework density 19.391829999999999
#
# number of rings (size 3 to 8) (size 9 to 14) (size 15 to 20)
#    0.000    1.667    0.000    5.000    2.333    6.667 
#    0.000    1.667    0.000    0.000    0.000    0.000 
#    0.000    0.000    0.000    0.000    0.000    0.000 
#
# Total GULP energy -267562.869310 kJ/mol
# GULP energy per Si atom -5574.226444 kJ/mol
# Density = 1.934769 g / cm^3
# Si number density = 19.391830 Si / 1000 Ang^3
#
#
#
# Elastic Constant Matrix: (Units=GPa)
#
#
# Indices 1 2 3 4 5 6 
#
# 1 217.8999 92.9428 47.1722 0.0000 0.0000 0.0000
# 2 92.9428 94.0653 29.7785 0.0000 0.0000 0.0000
# 3 47.1722 29.7785 63.8373 0.0000 0.0000 0.0000
# 4 0.0000 0.0000 0.0000 29.9532 0.0000 0.0000
# 5 0.0000 0.0000 0.0000 0.0000 26.0646 0.0000
# 6 0.0000 0.0000 0.0000 0.0000 0.0000 47.0267
#
#
#
# Elastic Compliance Matrix: (Units=1/GPa)
#
#
# Indices 1 2 3 4 5 6 
#
# 1 0.008314 -0.007356 -0.002712 0.000000 0.000000 0.000000
# 2 -0.007356 0.018982 -0.003419 0.000000 0.000000 0.000000
# 3 -0.002712 -0.003419 0.019264 0.000000 0.000000 0.000000
# 4 0.000000 0.000000 0.000000 0.033385 0.000000 0.000000
# 5 0.000000 0.000000 0.000000 0.000000 0.038366 0.000000
# 6 0.000000 0.000000 0.000000 0.000000 0.000000 0.021265
#
#
# Mechanical properties :
#
#
# Convention : Reuss Voigt Hill
#
# Bulk Modulus (GPa) = 51.05851 79.50997 65.28424
# Shear Modulus (GPa) = 28.88864 34.33616 31.61240
#
# Velocity S-wave (km/s) = 3.86389 4.21248 4.04194
# Velocity P-wave (km/s) = 6.80392 8.04678 7.45131
#
# Compressibility (1/GPa) = 0.01958537
#
# Stress axis : x y z
#
# Youngs Moduli (GPa) = 120.27627 52.68219 51.91130
#
# Poissons Ratio (x) = 0.38755 0.14079
# Poissons Ratio (y) = 0.88480 0.17746
# Poissons Ratio (z) = 0.32621 0.18010
#
# Static dielectric constant tensor:
#      x y z
#    x 2.577910 0.000000 0.000000 
#    y 0.000000 1.656790 0.000000 
#    z 0.000000 0.000000 1.658570 
# 
# From -- ./inp_files/6582.got.cif
#   From: 2010.05.17/outbox.cif.g08.bks.cpg/sg57_4_cif.got.tgz:6582.got - 2010.06.03 13:58:18.
