data_PCOD9439843
_publ_section_title
;
Structure prediction by ZEFSAII (Michael W. Deem and Ramdas Pophale) SiO2 
 PCOD9439843
Probable space group: P B C M
;
_chemical_formula_sum "Si O2"
_cell_formula_units_Z 40
_cell_length_a 11.072241
_cell_length_b 8.808394
_cell_length_c 18.158547
_cell_angle_alpha 90.000000
_cell_angle_beta 90.000000
_cell_angle_gamma 90.000000
_cell_volume 1770.978778
_symmetry_space_group_name_H-M "P B C M"
_symmetry_group_IT_number 57
_symmetry_cell_setting 'orthorhombic'
loop_
_space_group_symop_operation_xyz
x,y,z
-x,-y,1/2+z
x,1/2-y,-z
-x,1/2+y,1/2-z
-x,-y,-z
x,y,1/2-z
-x,1/2+y,z
x,1/2-y,1/2+z
loop_
_atom_site_type_symbol
_atom_site_label
_atom_site_fract_x
_atom_site_fract_y
_atom_site_fract_z
Si Si1 0.829859 0.647565 0.830615
Si Si2 0.826107 0.173980 0.567430
Si Si3 0.975325 0.914098 0.613491
Si Si4 0.381743 0.564239 0.662136
Si Si5 0.393733 0.233406 0.587426
O O1 0.775665 0.622639 0.750000
O O2 0.888080 0.814611 0.835774
O O3 0.727440 0.639562 0.892503
O O4 0.938888 0.531424 0.844211
O O5 0.754349 0.250000 0.500000
O O6 0.739267 0.152594 0.636881
O O7 0.933964 0.293213 0.578576
O O8 0.890531 0.010461 0.558459
O O9 0.391180 0.554926 0.750000
O O10 0.379051 0.397937 0.625284
O O11 0.494133 0.651353 0.625915
O O12 0.407967 0.250000 0.500000
#
# Coordination Sequence:
#
# PCOD9439843 Si02
#       5
#     8   8   8   8   8
#     4  11  23  43  70 103 142 185 235 287 349 415
#     4  11  24  43  71 102 144 184 236 287 352 418
#     4  10  24  41  68 104 145 185 235 282 354 411
#     4  12  27  49  74 104 141 185 237 294 355 423
#     4  12  28  48  75 103 141 183 238 294 356 420
#
# _framework density 22.586382
#
# number of rings (size 3 to 8) (size 9 to 14) (size 15 to 20)
#    0.000    0.800    2.000    4.200    5.600    7.200 
#    0.000    0.000    0.000    0.000    0.000    0.000 
#    0.000    0.000    0.000    0.000    0.000    0.000 
#
# Total GULP energy -223738.272175 kJ/mol
# GULP energy per Si atom -5593.456804 kJ/mol
# Density = 2.253497 g / cm^3
# Si number density = 22.586382 Si / 1000 Ang^3
#
#
#
# Elastic Constant Matrix: (Units=GPa)
#
#
# Indices 1 2 3 4 5 6 
#
# 1 111.1917 25.6867 40.6618 0.0000 0.0000 0.0000
# 2 25.6867 82.7474 26.2882 0.0000 0.0000 0.0000
# 3 40.6618 26.2882 168.0876 0.0000 0.0000 0.0000
# 4 0.0000 0.0000 0.0000 26.6811 0.0000 0.0000
# 5 0.0000 0.0000 0.0000 0.0000 30.1288 0.0000
# 6 0.0000 0.0000 0.0000 0.0000 0.0000 27.9371
#
#
#
# Elastic Compliance Matrix: (Units=1/GPa)
#
#
# Indices 1 2 3 4 5 6 
#
# 1 0.010351 -0.002544 -0.002106 0.000000 0.000000 0.000000
# 2 -0.002544 0.013342 -0.001471 0.000000 0.000000 0.000000
# 3 -0.002106 -0.001471 0.006689 0.000000 0.000000 0.000000
# 4 0.000000 0.000000 0.000000 0.037480 0.000000 0.000000
# 5 0.000000 0.000000 0.000000 0.000000 0.033191 0.000000
# 6 0.000000 0.000000 0.000000 0.000000 0.000000 0.035795
#
#
# Mechanical properties :
#
#
# Convention : Reuss Voigt Hill
#
# Bulk Modulus (GPa) = 55.12902 60.81113 57.97008
# Shear Modulus (GPa) = 32.22952 34.90874 33.56913
#
# Velocity S-wave (km/s) = 3.78159 3.93563 3.85938
# Velocity P-wave (km/s) = 6.59760 6.90178 6.75140
#
# Compressibility (1/GPa) = 0.01813927
#
# Stress axis : x y z
#
# Youngs Moduli (GPa) = 96.60493 74.95054 149.50201
#
# Poissons Ratio (x) = 0.19069 0.31488
# Poissons Ratio (y) = 0.24578 0.21995
# Poissons Ratio (z) = 0.20347 0.11027
#
# Static dielectric constant tensor:
#      x y z
#    x 1.833360 0.000000 0.000000 
#    y 0.000000 1.841160 0.000000 
#    z 0.000000 0.000000 1.868990 
# 
# From -- ./inp_files/21603.got.cif
#   From: 2010.05.17/outbox.cif.g08.bks.cpg/sg57_11_cif.got.tgz:21603.got - 2010.06.03 13:58:18.
