data_PCOD9439549
_publ_section_title
;
Structure prediction by ZEFSAII (Michael W. Deem and Ramdas Pophale) SiO2 
 PCOD9439549
Probable space group: P B C M
;
_chemical_formula_sum "Si O2"
_cell_formula_units_Z 44
_cell_length_a 11.208520
_cell_length_b 11.215970
_cell_length_c 18.145273
_cell_angle_alpha 90.000000
_cell_angle_beta 90.000000
_cell_angle_gamma 90.000000
_cell_volume 2281.122545
_symmetry_space_group_name_H-M "P B C M"
_symmetry_group_IT_number 57
_symmetry_cell_setting 'orthorhombic'
loop_
_space_group_symop_operation_xyz
x,y,z
-x,-y,1/2+z
x,1/2-y,-z
-x,1/2+y,1/2-z
-x,-y,-z
x,y,1/2-z
-x,1/2+y,z
x,1/2-y,1/2+z
loop_
_atom_site_type_symbol
_atom_site_label
_atom_site_fract_x
_atom_site_fract_y
_atom_site_fract_z
Si Si1 0.827124 0.871346 0.832980
Si Si2 0.293110 0.321889 0.427465
Si Si3 0.733156 0.395179 0.571352
Si Si4 0.901937 0.442376 0.445705
Si Si5 0.916997 0.242571 0.167038
Si Si6 0.473934 0.750000 0.500000
O O1 0.792428 0.907148 0.750000
O O2 0.753555 0.755822 0.859263
O O3 0.968473 0.842895 0.832334
O O4 0.820728 0.969260 0.896901
O O5 0.241046 0.250000 0.500000
O O6 0.264478 0.461239 0.419045
O O7 0.434569 0.185794 0.556127
O O8 0.814235 0.375832 0.499953
O O9 0.801020 0.326422 0.636841
O O10 0.606644 0.340049 0.547832
O O11 0.953418 0.349246 0.387431
O O12 0.000000 0.500000 0.500000
O O13 0.897155 0.286719 0.250000
#
# Coordination Sequence:
#
# PCOD9439549 Si02
#       6
#     8   8   8   8   8   4
#     4  11  24  40  60  93 134 173 205 263 333 391
#     4  10  23  39  65  92 126 163 225 267 320 379
#     4  12  21  40  70  93 123 168 217 271 328 389
#     4  12  21  37  65  93 127 168 217 257 319 392
#     4  11  25  39  59  97 136 166 208 268 335 398
#     4  10  22  42  66  96 122 162 230 284 314 382
#
# _framework density 19.288748999999999
#
# number of rings (size 3 to 8) (size 9 to 14) (size 15 to 20)
#    0.545    0.364    5.455    2.182    0.000    0.727 
#    0.000    0.909    0.000    0.000    0.000    0.000 
#    0.000    0.000    0.000    0.000    0.000    0.000 
#
# Total GULP energy -245268.272014 kJ/mol
# GULP energy per Si atom -5574.278909 kJ/mol
# Density = 1.924485 g / cm^3
# Si number density = 19.288749 Si / 1000 Ang^3
#
#
#
# Elastic Constant Matrix: (Units=GPa)
#
#
# Indices 1 2 3 4 5 6 
#
# 1 71.6261 11.5099 21.1532 0.0000 0.0000 0.0000
# 2 11.5099 92.3323 30.6706 0.0000 0.0000 0.0000
# 3 21.1532 30.6706 118.8061 0.0000 0.0000 0.0000
# 4 0.0000 0.0000 0.0000 19.5730 0.0000 0.0000
# 5 0.0000 0.0000 0.0000 0.0000 9.7778 0.0000
# 6 0.0000 0.0000 0.0000 0.0000 0.0000 34.3650
#
#
#
# Elastic Compliance Matrix: (Units=1/GPa)
#
#
# Indices 1 2 3 4 5 6 
#
# 1 0.014831 -0.001063 -0.002366 0.000000 0.000000 0.000000
# 2 -0.001063 0.011922 -0.002889 0.000000 0.000000 0.000000
# 3 -0.002366 -0.002889 0.009584 0.000000 0.000000 0.000000
# 4 0.000000 0.000000 0.000000 0.051091 0.000000 0.000000
# 5 0.000000 0.000000 0.000000 0.000000 0.102273 0.000000
# 6 0.000000 0.000000 0.000000 0.000000 0.000000 0.029099
#
#
# Mechanical properties :
#
#
# Convention : Reuss Voigt Hill
#
# Bulk Modulus (GPa) = 42.19017 45.49243 43.84130
# Shear Modulus (GPa) = 20.89108 27.37187 24.13147
#
# Velocity S-wave (km/s) = 3.29457 3.77113 3.54088
# Velocity P-wave (km/s) = 6.03264 6.52672 6.28453
#
# Compressibility (1/GPa) = 0.02370221
#
# Stress axis : x y z
#
# Youngs Moduli (GPa) = 67.42636 83.87525 104.33943
#
# Poissons Ratio (x) = 0.08914 0.24690
# Poissons Ratio (y) = 0.07166 0.30140
# Poissons Ratio (z) = 0.15955 0.24229
#
# Static dielectric constant tensor:
#      x y z
#    x 1.744350 0.000000 0.000000 
#    y 0.000000 1.752360 0.000000 
#    z 0.000000 0.000000 1.642190 
# 
# From -- ./inp_files/21750.got.cif
#   From: 2010.05.17/outbox.cif.g08.bks.cpg/sg57_11_cif.got.tgz:21750.got - 2010.06.03 13:58:18.
