data_PCOD9439124
_publ_section_title
;
Structure prediction by ZEFSAII (Michael W. Deem and Ramdas Pophale) SiO2 
 PCOD9439124
Probable space group: P B C M
;
_chemical_formula_sum "Si O2"
_cell_formula_units_Z 48
_cell_length_a 17.167185
_cell_length_b 16.316875
_cell_length_c 8.521863
_cell_angle_alpha 90.000000
_cell_angle_beta 90.000000
_cell_angle_gamma 90.000000
_cell_volume 2387.100050
_symmetry_space_group_name_H-M "P B C M"
_symmetry_group_IT_number 57
_symmetry_cell_setting 'orthorhombic'
loop_
_space_group_symop_operation_xyz
x,y,z
-x,-y,1/2+z
x,1/2-y,-z
-x,1/2+y,1/2-z
-x,-y,-z
x,y,1/2-z
-x,1/2+y,z
x,1/2-y,1/2+z
loop_
_atom_site_type_symbol
_atom_site_label
_atom_site_fract_x
_atom_site_fract_y
_atom_site_fract_z
Si Si1 0.502282 0.158660 0.439260
Si Si2 0.659552 0.916075 0.940166
Si Si3 0.669794 0.103960 0.562169
Si Si4 0.182708 0.161742 0.439577
Si Si5 0.171557 0.836942 0.935194
Si Si6 0.912326 0.499712 0.438206
O O1 0.488479 0.250000 0.500000
O O2 0.507209 0.156966 0.250000
O O3 0.427353 0.106218 0.492223
O O4 0.583608 0.128814 0.510042
O O5 0.658394 0.912481 0.750000
O O6 0.728335 0.856064 0.993537
O O7 0.680901 0.008777 0.981852
O O8 0.677382 0.112434 0.750000
O O9 0.737452 0.155031 0.480256
O O10 0.155885 0.250000 0.500000
O O11 0.181944 0.163364 0.250000
O O12 0.131943 0.083003 0.490088
O O13 0.161955 0.838111 0.750000
O O14 0.141719 0.750000 0.000000
O O15 0.130175 0.916994 0.006109
O O16 0.911591 0.499922 0.250000
O O17 0.000000 0.500000 0.500000
#
# Coordination Sequence:
#
# PCOD9439124 Si02
#       6
#     8   8   8   8   8   8
#     4  11  22  36  54  83 120 161 211 261 310 371
#     4   9  19  37  60  85 120 162 207 259 315 368
#     4  11  21  39  62  86 122 165 209 263 321 375
#     4  10  21  40  65  94 128 168 208 257 313 373
#     4  12  25  43  68  98 129 168 217 266 323 387
#     4  11  24  45  70  97 134 170 210 262 320 382
#
# _framework density 20.108080000000001
#
# number of rings (size 3 to 8) (size 9 to 14) (size 15 to 20)
#    0.000    1.333    1.667    4.500    0.000    2.000 
#    0.000    5.000    0.000    0.000    0.000    0.000 
#    0.000    0.000    0.000    0.000    0.000    0.000 
#
# Total GULP energy -268329.805526 kJ/mol
# GULP energy per Si atom -5590.204282 kJ/mol
# Density = 2.006231 g / cm^3
# Si number density = 20.108080 Si / 1000 Ang^3
#
#
#
# Elastic Constant Matrix: (Units=GPa)
#
#
# Indices 1 2 3 4 5 6 
#
# 1 98.1258 30.3334 8.1964 0.0000 0.0000 0.0000
# 2 30.3334 124.3703 18.0364 0.0000 0.0000 0.0000
# 3 8.1964 18.0364 52.0485 0.0000 0.0000 0.0000
# 4 0.0000 0.0000 0.0000 30.2187 0.0000 0.0000
# 5 0.0000 0.0000 0.0000 0.0000 27.0923 0.0000
# 6 0.0000 0.0000 0.0000 0.0000 0.0000 14.1832
#
#
#
# Elastic Compliance Matrix: (Units=1/GPa)
#
#
# Indices 1 2 3 4 5 6 
#
# 1 0.011058 -0.002574 -0.000849 0.000000 0.000000 0.000000
# 2 -0.002574 0.009065 -0.002736 0.000000 0.000000 0.000000
# 3 -0.000849 -0.002736 0.020295 0.000000 0.000000 0.000000
# 4 0.000000 0.000000 0.000000 0.033092 0.000000 0.000000
# 5 0.000000 0.000000 0.000000 0.000000 0.036911 0.000000
# 6 0.000000 0.000000 0.000000 0.000000 0.000000 0.070506
#
#
# Mechanical properties :
#
#
# Convention : Reuss Voigt Hill
#
# Bulk Modulus (GPa) = 35.58849 43.07525 39.33187
# Shear Modulus (GPa) = 24.67783 28.83072 26.75428
#
# Velocity S-wave (km/s) = 3.50703 3.79065 3.65159
# Velocity P-wave (km/s) = 5.84260 6.37393 6.11404
#
# Compressibility (1/GPa) = 0.02809897
#
# Stress axis : x y z
#
# Youngs Moduli (GPa) = 90.43593 110.31433 49.27391
#
# Poissons Ratio (x) = 0.28392 0.04185
# Poissons Ratio (y) = 0.23276 0.13481
# Poissons Ratio (z) = 0.07682 0.30182
#
# Static dielectric constant tensor:
#      x y z
#    x 1.717510 0.000000 0.000000 
#    y 0.000000 1.665230 0.000000 
#    z 0.000000 0.000000 1.685750 
# 
# From -- ./inp_files/6581.got.cif
#   From: 2010.05.17/outbox.cif.g08.bks.cpg/sg57_4_cif.got.tgz:6581.got - 2010.06.03 13:58:18.
