data_PCOD9439917
_publ_section_title
;
Structure prediction by ZEFSAII (Michael W. Deem and Ramdas Pophale) SiO2 
 PCOD9439917
Probable space group: P B C M
;
_chemical_formula_sum "Si O2"
_cell_formula_units_Z 40
_cell_length_a 9.335514
_cell_length_b 8.226808
_cell_length_c 20.149229
_cell_angle_alpha 90.000000
_cell_angle_beta 90.000000
_cell_angle_gamma 90.000000
_cell_volume 1547.490633
_symmetry_space_group_name_H-M "P B C M"
_symmetry_group_IT_number 57
_symmetry_cell_setting 'orthorhombic'
loop_
_space_group_symop_operation_xyz
x,y,z
-x,-y,1/2+z
x,1/2-y,-z
-x,1/2+y,1/2-z
-x,-y,-z
x,y,1/2-z
-x,1/2+y,z
x,1/2-y,1/2+z
loop_
_atom_site_type_symbol
_atom_site_label
_atom_site_fract_x
_atom_site_fract_y
_atom_site_fract_z
Si Si1 0.887217 0.960910 0.750000
Si Si2 0.332359 0.874105 0.676367
Si Si3 0.902576 0.250000 0.000000
Si Si4 0.472838 0.585157 0.895820
Si Si5 0.716262 0.923099 0.992101
Si Si6 0.959594 0.243206 0.347582
O O1 0.903028 0.819418 0.808363
O O2 0.894971 0.102991 0.691599
O O3 0.355113 0.809265 0.750000
O O4 0.388402 0.747369 0.621694
O O5 0.163224 0.895841 0.666067
O O6 0.432218 0.028757 0.665748
O O7 0.968785 0.267059 0.074134
O O8 0.809720 0.082586 0.006039
O O9 0.586331 0.594656 0.955416
O O10 0.355236 0.456134 0.920719
O O11 0.791302 0.750000 0.000000
#
# Coordination Sequence:
#
# PCOD9439917 Si02
#       6
#     4   8   4   8   8   8
#     4  10  24  52  72  94 136 182 236 322 400 400
#     4  12  22  40  65  99 145 194 237 280 348 438
#     4  12  24  46  78 108 142 190 248 306 350 452
#     4  11  21  36  62 104 151 187 230 274 340 434
#     4  11  21  38  64 105 155 194 217 277 356 429
#     4  11  24  47  78  99 134 186 245 313 373 431
#
# _framework density 25.848296999999999
#
# number of rings (size 3 to 8) (size 9 to 14) (size 15 to 20)
#    0.000    0.800    8.000    0.600    2.800    0.800 
#    7.200    4.000    0.000    0.000    0.000    0.000 
#    0.000    0.000    0.000    0.000    0.000    0.000 
#
# Total GULP energy -222672.814093 kJ/mol
# GULP energy per Si atom -5566.820352 kJ/mol
# Density = 2.578947 g / cm^3
# Si number density = 25.848297 Si / 1000 Ang^3
#
#
#
# Elastic Constant Matrix: (Units=GPa)
#
#
# Indices 1 2 3 4 5 6 
#
# 1 44.6520 10.5271 53.3045 0.0000 0.0000 0.0000
# 2 10.5271 92.4919 20.0511 0.0000 0.0000 0.0000
# 3 53.3045 20.0511 190.4195 0.0000 0.0000 0.0000
# 4 0.0000 0.0000 0.0000 41.8380 0.0000 0.0000
# 5 0.0000 0.0000 0.0000 0.0000 7.5837 0.0000
# 6 0.0000 0.0000 0.0000 0.0000 0.0000 10.1658
#
#
#
# Elastic Compliance Matrix: (Units=1/GPa)
#
#
# Indices 1 2 3 4 5 6 
#
# 1 0.033941 -0.001845 -0.009307 0.000000 0.000000 0.000000
# 2 -0.001845 0.011165 -0.000659 0.000000 0.000000 0.000000
# 3 -0.009307 -0.000659 0.007926 0.000000 0.000000 0.000000
# 4 0.000000 0.000000 0.000000 0.023902 0.000000 0.000000
# 5 0.000000 0.000000 0.000000 0.000000 0.131861 0.000000
# 6 0.000000 0.000000 0.000000 0.000000 0.000000 0.098369
#
#
# Mechanical properties :
#
#
# Convention : Reuss Voigt Hill
#
# Bulk Modulus (GPa) = 34.00303 55.03654 44.51978
# Shear Modulus (GPa) = 14.68045 28.16289 21.42167
#
# Velocity S-wave (km/s) = 2.38575 3.30441 2.88192
# Velocity P-wave (km/s) = 4.55768 5.99142 5.32305
#
# Compressibility (1/GPa) = 0.02940915
#
# Stress axis : x y z
#
# Youngs Moduli (GPa) = 29.46316 89.56824 126.16353
#
# Poissons Ratio (x) = 0.16529 1.17417
# Poissons Ratio (y) = 0.05437 0.08315
# Poissons Ratio (z) = 0.27421 0.05903
#
# Static dielectric constant tensor:
#      x y z
#    x 2.136960 0.000000 0.000000 
#    y 0.000000 2.522260 0.000000 
#    z 0.000000 0.000000 2.090130 
# 
# From -- ./inp_files/24875.got.cif
#   From: 2010.05.17/outbox.cif.g08.bks.cpg/sg57_13_cif.got.tgz:24875.got - 2010.06.03 13:58:18.
