data_PCOD9439172
_publ_section_title
;
Structure prediction by ZEFSAII (Michael W. Deem and Ramdas Pophale) SiO2 
 PCOD9439172
Probable space group: P B C M
;
_chemical_formula_sum "Si O2"
_cell_formula_units_Z 48
_cell_length_a 15.942612
_cell_length_b 9.862481
_cell_length_c 15.195839
_cell_angle_alpha 90.000000
_cell_angle_beta 90.000000
_cell_angle_gamma 90.000000
_cell_volume 2389.298111
_symmetry_space_group_name_H-M "P B C M"
_symmetry_group_IT_number 57
_symmetry_cell_setting 'orthorhombic'
loop_
_space_group_symop_operation_xyz
x,y,z
-x,-y,1/2+z
x,1/2-y,-z
-x,1/2+y,1/2-z
-x,-y,-z
x,y,1/2-z
-x,1/2+y,z
x,1/2-y,1/2+z
loop_
_atom_site_type_symbol
_atom_site_label
_atom_site_fract_x
_atom_site_fract_y
_atom_site_fract_z
Si Si1 0.822072 0.611874 0.350317
Si Si2 0.228386 0.908317 0.998682
Si Si3 0.009077 0.229725 0.896960
Si Si4 0.897869 0.033684 0.348252
Si Si5 0.596721 0.961185 0.501465
Si Si6 0.354728 0.254747 0.853342
O O1 0.824559 0.563070 0.250000
O O2 0.806088 0.489246 0.416972
O O3 0.905579 0.692525 0.372647
O O4 0.744764 0.716973 0.358693
O O5 0.178388 0.972129 0.916427
O O6 0.328727 0.929280 0.996482
O O7 0.209641 0.750000 0.000000
O O8 0.936042 0.314609 0.850439
O O9 0.028623 0.073285 0.874732
O O10 0.994099 0.250000 0.000000
O O11 0.870534 0.998531 0.250000
O O12 0.616987 0.866520 0.416953
O O13 0.608560 0.884034 0.594566
O O14 0.500000 0.000000 0.500000
O O15 0.377482 0.242708 0.750000
#
# Coordination Sequence:
#
# PCOD9439172 Si02
#       6
#     8   8   8   8   8   8
#     4  10  21  41  66  91 123 169 222 267 319 381
#     4  11  25  42  63  94 132 170 210 268 332 394
#     4  12  24  42  66  93 128 174 223 276 318 376
#     4  12  26  43  64  96 134 177 225 271 326 385
#     4  10  22  39  67  93 123 164 209 262 331 400
#     4   9  20  39  64  91 122 161 211 265 315 386
#
# _framework density 20.089580999999999
#
# number of rings (size 3 to 8) (size 9 to 14) (size 15 to 20)
#    0.000    1.333    1.667    3.500    7.000    3.333 
#    0.000    0.000    0.000    0.000    0.000    0.000 
#    0.000    0.000    0.000    0.000    0.000    0.000 
#
# Total GULP energy -268173.459399 kJ/mol
# GULP energy per Si atom -5586.947071 kJ/mol
# Density = 2.004386 g / cm^3
# Si number density = 20.089581 Si / 1000 Ang^3
#
#
#
# Elastic Constant Matrix: (Units=GPa)
#
#
# Indices 1 2 3 4 5 6 
#
# 1 95.0904 17.6518 27.0347 0.0000 0.0000 0.0000
# 2 17.6518 83.3986 42.7395 0.0000 0.0000 0.0000
# 3 27.0347 42.7395 162.9873 0.0000 0.0000 0.0000
# 4 0.0000 0.0000 0.0000 19.3269 0.0000 0.0000
# 5 0.0000 0.0000 0.0000 0.0000 17.4918 0.0000
# 6 0.0000 0.0000 0.0000 0.0000 0.0000 1.1798
#
#
#
# Elastic Compliance Matrix: (Units=1/GPa)
#
#
# Indices 1 2 3 4 5 6 
#
# 1 0.011228 -0.001643 -0.001432 0.000000 0.000000 0.000000
# 2 -0.001643 0.014092 -0.003423 0.000000 0.000000 0.000000
# 3 -0.001432 -0.003423 0.007270 0.000000 0.000000 0.000000
# 4 0.000000 0.000000 0.000000 0.051741 0.000000 0.000000
# 5 0.000000 0.000000 0.000000 0.000000 0.057170 0.000000
# 6 0.000000 0.000000 0.000000 0.000000 0.000000 0.847574
#
#
# Mechanical properties :
#
#
# Convention : Reuss Voigt Hill
#
# Bulk Modulus (GPa) = 51.02965 57.36981 54.19973
# Shear Modulus (GPa) = 4.95735 24.53639 14.74687
#
# Velocity S-wave (km/s) = 1.57257 3.49857 2.71229
# Velocity P-wave (km/s) = 5.36223 6.70366 6.07011
#
# Compressibility (1/GPa) = 0.01959645
#
# Stress axis : x y z
#
# Youngs Moduli (GPa) = 89.06067 70.95983 137.54237
#
# Poissons Ratio (x) = 0.11658 0.19691
# Poissons Ratio (y) = 0.14631 0.47079
# Poissons Ratio (z) = 0.12750 0.24289
#
# Static dielectric constant tensor:
#      x y z
#    x 1.717740 0.000000 0.000000 
#    y 0.000000 1.737720 0.000000 
#    z 0.000000 0.000000 1.701410 
# 
# From -- ./inp_files/18946.got.cif
#   From: 2010.05.17/outbox.cif.g08.bks.cpg/sg57_10_cif.got.tgz:18946.got - 2010.06.03 13:58:18.
