data_PCOD9439187
_publ_section_title
;
Structure prediction by ZEFSAII (Michael W. Deem and Ramdas Pophale) SiO2 
 PCOD9439187
Probable space group: P B C M
;
_chemical_formula_sum "Si O2"
_cell_formula_units_Z 48
_cell_length_a 18.578918
_cell_length_b 9.085297
_cell_length_c 13.475549
_cell_angle_alpha 90.000000
_cell_angle_beta 90.000000
_cell_angle_gamma 90.000000
_cell_volume 2274.605131
_symmetry_space_group_name_H-M "P B C M"
_symmetry_group_IT_number 57
_symmetry_cell_setting 'orthorhombic'
loop_
_space_group_symop_operation_xyz
x,y,z
-x,-y,1/2+z
x,1/2-y,-z
-x,1/2+y,1/2-z
-x,-y,-z
x,y,1/2-z
-x,1/2+y,z
x,1/2-y,1/2+z
loop_
_atom_site_type_symbol
_atom_site_label
_atom_site_fract_x
_atom_site_fract_y
_atom_site_fract_z
Si Si1 0.098679 0.082799 0.867059
Si Si2 0.317868 0.502065 0.863761
Si Si3 0.430719 0.907728 0.528295
Si Si4 0.827024 0.077217 0.971859
Si Si5 0.046990 0.415086 0.632598
Si Si6 0.403664 0.197390 0.250000
Si Si7 0.554005 0.468892 0.750000
O O1 0.113691 0.081533 0.750000
O O2 0.069980 0.247197 0.892762
O O3 0.034470 0.965669 0.888174
O O4 0.166007 0.025252 0.930271
O O5 0.324912 0.565764 0.750000
O O6 0.365670 0.564386 0.952779
O O7 0.237347 0.522700 0.901327
O O8 0.351638 0.339905 0.842854
O O9 0.457884 0.750000 0.500000
O O10 0.413058 0.917313 0.645071
O O11 0.500000 0.000000 0.500000
O O12 0.899990 0.034406 0.914750
O O13 0.820871 0.250000 0.000000
O O14 0.055049 0.425213 0.750000
O O15 0.437918 0.356010 0.250000
O O16 0.470791 0.083949 0.250000
#
# Coordination Sequence:
#
# PCOD9439187 Si02
#       7
#     8   8   8   8   8   4   4
#     4  10  22  41  66  99 132 173 235 299 353 423
#     4  10  25  47  67  92 140 184 232 285 357 427
#     4  12  25  43  72 104 141 180 229 294 349 423
#     4  12  24  42  64  95 133 188 227 279 357 423
#     4  10  21  41  68  98 132 176 229 300 357 419
#     4  10  24  46  74 106 142 179 235 300 354 436
#     4  12  24  44  76 112 134 183 241 294 360 422
#
# _framework density 21.102564999999998
#
# number of rings (size 3 to 8) (size 9 to 14) (size 15 to 20)
#    0.500    0.667    1.667    4.000    1.167    2.667 
#    7.500    0.000    0.000    0.000    0.000    0.000 
#    0.000    0.000    0.000    0.000    0.000    0.000 
#
# Total GULP energy -267644.311542 kJ/mol
# GULP energy per Si atom -5575.923157 kJ/mol
# Density = 2.105453 g / cm^3
# Si number density = 21.102565 Si / 1000 Ang^3
#
#
#
# Elastic Constant Matrix: (Units=GPa)
#
#
# Indices 1 2 3 4 5 6 
#
# 1 44.8601 31.3715 68.2818 0.0000 0.0000 0.0000
# 2 31.3715 121.7258 33.5767 0.0000 0.0000 0.0000
# 3 68.2818 33.5767 185.1494 0.0000 0.0000 0.0000
# 4 0.0000 0.0000 0.0000 28.6974 0.0000 0.0000
# 5 0.0000 0.0000 0.0000 0.0000 66.2237 0.0000
# 6 0.0000 0.0000 0.0000 0.0000 0.0000 10.9008
#
#
#
# Elastic Compliance Matrix: (Units=1/GPa)
#
#
# Indices 1 2 3 4 5 6 
#
# 1 0.060386 -0.009916 -0.020472 0.000000 0.000000 0.000000
# 2 -0.009916 0.010276 0.001793 0.000000 0.000000 0.000000
# 3 -0.020472 0.001793 0.012626 0.000000 0.000000 0.000000
# 4 0.000000 0.000000 0.000000 0.034846 0.000000 0.000000
# 5 0.000000 0.000000 0.000000 0.000000 0.015100 0.000000
# 6 0.000000 0.000000 0.000000 0.000000 0.000000 0.091736
#
#
# Mechanical properties :
#
#
# Convention : Reuss Voigt Hill
#
# Bulk Modulus (GPa) = 38.31545 68.68836 53.50191
# Shear Modulus (GPa) = 17.19050 35.73142 26.46096
#
# Velocity S-wave (km/s) = 2.85725 4.11935 3.54492
# Velocity P-wave (km/s) = 5.39271 7.43275 6.49335
#
# Compressibility (1/GPa) = 0.02609913
#
# Stress axis : x y z
#
# Youngs Moduli (GPa) = 16.56020 97.31360 79.20422
#
# Poissons Ratio (x) = 0.96495 1.62144
# Poissons Ratio (y) = 0.16421 -0.14204
# Poissons Ratio (z) = 0.33901 -0.17452
#
# Static dielectric constant tensor:
#      x y z
#    x 1.747530 0.000000 0.000000 
#    y 0.000000 2.726270 0.000000 
#    z 0.000000 0.000000 1.817180 
# 
# From -- ./inp_files/19016.got.cif
#   From: 2010.05.17/outbox.cif.g08.bks.cpg/sg57_10_cif.got.tgz:19016.got - 2010.06.03 13:58:18.
