data_PCOD9439995
_publ_section_title
;
Structure prediction by ZEFSAII (Michael W. Deem and Ramdas Pophale) SiO2 
 PCOD9439995
Probable space group: P B C M
;
_chemical_formula_sum "Si O2"
_cell_formula_units_Z 36
_cell_length_a 6.791014
_cell_length_b 13.369078
_cell_length_c 18.761478
_cell_angle_alpha 90.000000
_cell_angle_beta 90.000000
_cell_angle_gamma 90.000000
_cell_volume 1703.347005
_symmetry_space_group_name_H-M "P B C M"
_symmetry_group_IT_number 57
_symmetry_cell_setting 'orthorhombic'
loop_
_space_group_symop_operation_xyz
x,y,z
-x,-y,1/2+z
x,1/2-y,-z
-x,1/2+y,1/2-z
-x,-y,-z
x,y,1/2-z
-x,1/2+y,z
x,1/2-y,1/2+z
loop_
_atom_site_type_symbol
_atom_site_label
_atom_site_fract_x
_atom_site_fract_y
_atom_site_fract_z
Si Si1 0.311204 0.261083 0.611707
Si Si2 0.353969 0.982956 0.750000
Si Si3 0.579777 0.228081 0.250000
Si Si4 0.225068 0.555728 0.750000
Si Si5 0.335640 0.084415 0.508637
Si Si6 0.091584 0.419279 0.134115
O O1 0.444558 0.276931 0.679923
O O2 0.408028 0.175587 0.560345
O O3 0.284612 0.360328 0.565100
O O4 0.110791 0.202017 0.632985
O O5 0.588440 0.984370 0.750000
O O6 0.273168 0.041113 0.818130
O O7 0.282856 0.869314 0.750000
O O8 0.692529 0.332023 0.250000
O O9 0.094760 0.544660 0.678620
O O10 0.145354 0.048200 0.554097
O O11 0.500000 0.000000 0.500000
#
# Coordination Sequence:
#
# PCOD9439995 Si02
#       6
#     8   4   4   4   8   8
#     4   9  19  35  60  86 119 165 201 256 309 370
#     4  11  21  37  59  93 125 163 215 259 317 378
#     4  12  21  36  65  89 121 171 202 255 329 367
#     4  11  20  39  64  90 130 164 213 268 316 387
#     4   9  17  34  63  85 119 163 205 254 310 365
#     4   9  19  38  57  87 125 161 206 262 309 366
#
# _framework density 21.13486
#
# number of rings (size 3 to 8) (size 9 to 14) (size 15 to 20)
#    1.333    0.889    2.222    2.000    0.000    0.000 
#    8.000    0.000   19.556    6.667    0.000    0.000 
#    0.000    0.000    0.000    0.000    0.000    0.000 
#
# Total GULP energy -200485.633614 kJ/mol
# GULP energy per Si atom -5569.045378 kJ/mol
# Density = 2.108676 g / cm^3
# Si number density = 21.134860 Si / 1000 Ang^3
#
#
#
# Elastic Constant Matrix: (Units=GPa)
#
#
# Indices 1 2 3 4 5 6 
#
# 1 68.9710 13.3997 39.1075 0.0000 0.0000 0.0000
# 2 13.3997 79.4340 28.8628 0.0000 0.0000 0.0000
# 3 39.1075 28.8628 133.9561 0.0000 0.0000 0.0000
# 4 0.0000 0.0000 0.0000 32.1805 0.0000 0.0000
# 5 0.0000 0.0000 0.0000 0.0000 5.5977 0.0000
# 6 0.0000 0.0000 0.0000 0.0000 0.0000 15.1781
#
#
#
# Elastic Compliance Matrix: (Units=1/GPa)
#
#
# Indices 1 2 3 4 5 6 
#
# 1 0.017478 -0.001187 -0.004847 0.000000 0.000000 0.000000
# 2 -0.001187 0.013739 -0.002614 0.000000 0.000000 0.000000
# 3 -0.004847 -0.002614 0.009443 0.000000 0.000000 0.000000
# 4 0.000000 0.000000 0.000000 0.031075 0.000000 0.000000
# 5 0.000000 0.000000 0.000000 0.000000 0.178644 0.000000
# 6 0.000000 0.000000 0.000000 0.000000 0.000000 0.065885
#
#
# Mechanical properties :
#
#
# Convention : Reuss Voigt Hill
#
# Bulk Modulus (GPa) = 42.79947 49.45566 46.12756
# Shear Modulus (GPa) = 14.64785 23.99067 19.31926
#
# Velocity S-wave (km/s) = 2.63547 3.37281 3.02668
# Velocity P-wave (km/s) = 5.43650 6.21439 5.83842
#
# Compressibility (1/GPa) = 0.02336477
#
# Stress axis : x y z
#
# Youngs Moduli (GPa) = 57.21608 72.78528 105.89601
#
# Poissons Ratio (x) = 0.08641 0.51324
# Poissons Ratio (y) = 0.06793 0.27678
# Poissons Ratio (z) = 0.27731 0.19024
#
# Static dielectric constant tensor:
#      x y z
#    x 1.781680 0.000000 0.000000 
#    y 0.000000 1.766670 0.000000 
#    z 0.000000 0.000000 1.787100 
# 
# From -- ./inp_files/23503.got.cif
#   From: 2010.05.17/outbox.cif.g08.bks.cpg/sg57_12_cif.got.tgz:23503.got - 2010.06.03 13:58:18.
