data_PCOD9439263
_publ_section_title
;
Structure prediction by ZEFSAII (Michael W. Deem and Ramdas Pophale) SiO2 
 PCOD9439263
Probable space group: P B C M
;
_chemical_formula_sum "Si O2"
_cell_formula_units_Z 52
_cell_length_a 5.548241
_cell_length_b 24.371173
_cell_length_c 17.012829
_cell_angle_alpha 90.000000
_cell_angle_beta 90.000000
_cell_angle_gamma 90.000000
_cell_volume 2300.426102
_symmetry_space_group_name_H-M "P B C M"
_symmetry_group_IT_number 57
_symmetry_cell_setting 'orthorhombic'
loop_
_space_group_symop_operation_xyz
x,y,z
-x,-y,1/2+z
x,1/2-y,-z
-x,1/2+y,1/2-z
-x,-y,-z
x,y,1/2-z
-x,1/2+y,z
x,1/2-y,1/2+z
loop_
_atom_site_type_symbol
_atom_site_label
_atom_site_fract_x
_atom_site_fract_y
_atom_site_fract_z
Si Si1 0.582950 0.716481 0.375781
Si Si2 0.297319 0.466569 0.953391
Si Si3 0.777974 0.353691 0.532122
Si Si4 0.864190 0.887465 0.837552
Si Si5 0.890043 0.635832 0.750000
Si Si6 0.979102 0.073941 0.589299
Si Si7 0.382159 0.706943 0.750000
Si Si8 0.104746 0.250000 0.000000
O O1 0.456798 0.677490 0.439347
O O2 0.758604 0.674076 0.332648
O O3 0.402044 0.750875 0.323006
O O4 0.738573 0.759896 0.423041
O O5 0.335446 0.425468 0.880801
O O6 0.121294 0.511893 0.913692
O O7 0.500000 0.500000 0.000000
O O8 0.182418 0.429246 0.022014
O O9 0.772407 0.389387 0.453138
O O10 0.902526 0.385767 0.605307
O O11 0.954215 0.303739 0.513799
O O12 0.920357 0.906791 0.750000
O O13 0.926941 0.598438 0.828886
O O14 0.127644 0.675453 0.750000
O O15 0.628729 0.668223 0.750000
#
# Coordination Sequence:
#
# PCOD9439263 Si02
#       8
#     8   8   8   8   4   8   4   4
#     4  11  23  39  64  94 131 184 231 291 346 420
#     4  10  22  44  74  98 138 179 238 300 359 435
#     4  10  22  39  63  89 132 177 228 293 341 429
#     4  10  22  39  63  95 132 168 231 289 355 410
#     4  12  30  48  73 107 153 193 240 300 362 444
#     4  10  24  45  68 103 137 188 238 299 369 429
#     4  12  30  44  69 101 149 193 238 298 358 426
#     4  10  22  36  62  88 124 174 238 284 340 418
#
# _framework density 22.604510000000001
#
# number of rings (size 3 to 8) (size 9 to 14) (size 15 to 20)
#    0.000    1.538    0.769    2.308   12.923    0.000 
#    1.385    0.000    0.000    0.000    0.000    0.000 
#    0.000    0.000    0.000    0.000    0.000    0.000 
#
# Total GULP energy -290088.760899 kJ/mol
# GULP energy per Si atom -5578.630017 kJ/mol
# Density = 2.255306 g / cm^3
# Si number density = 22.604510 Si / 1000 Ang^3
#
#
#
# Elastic Constant Matrix: (Units=GPa)
#
#
# Indices 1 2 3 4 5 6 
#
# 1 47.9540 6.3983 2.5898 0.0000 0.0000 0.0000
# 2 6.3983 77.6068 43.7641 0.0000 0.0000 0.0000
# 3 2.5898 43.7641 121.6820 0.0000 0.0000 0.0000
# 4 0.0000 0.0000 0.0000 34.0846 0.0000 0.0000
# 5 0.0000 0.0000 0.0000 0.0000 9.3632 0.0000
# 6 0.0000 0.0000 0.0000 0.0000 0.0000 33.4967
#
#
#
# Elastic Compliance Matrix: (Units=1/GPa)
#
#
# Indices 1 2 3 4 5 6 
#
# 1 0.021090 -0.001864 0.000221 0.000000 0.000000 0.000000
# 2 -0.001864 0.016328 -0.005833 0.000000 0.000000 0.000000
# 3 0.000221 -0.005833 0.010311 0.000000 0.000000 0.000000
# 4 0.000000 0.000000 0.000000 0.029339 0.000000 0.000000
# 5 0.000000 0.000000 0.000000 0.000000 0.106801 0.000000
# 6 0.000000 0.000000 0.000000 0.000000 0.000000 0.029854
#
#
# Mechanical properties :
#
#
# Convention : Reuss Voigt Hill
#
# Bulk Modulus (GPa) = 30.50702 39.19413 34.85058
# Shear Modulus (GPa) = 20.86807 28.35492 24.61149
#
# Velocity S-wave (km/s) = 3.04169 3.54558 3.30326
# Velocity P-wave (km/s) = 5.08538 5.84280 5.47720
#
# Compressibility (1/GPa) = 0.03277934
#
# Stress axis : x y z
#
# Youngs Moduli (GPa) = 47.41580 61.24263 96.98060
#
# Poissons Ratio (x) = 0.11413 -0.02147
# Poissons Ratio (y) = 0.08836 0.56569
# Poissons Ratio (z) = -0.01050 0.35723
#
# Static dielectric constant tensor:
#      x y z
#    x 1.919940 0.000000 0.000000 
#    y 0.000000 1.894960 0.000000 
#    z 0.000000 0.000000 1.884990 
# 
# From -- ./inp_files/20259.got.cif
#   From: 2010.05.17/outbox.cif.g08.bks.cpg/sg57_11_cif.got.tgz:20259.got - 2010.06.03 13:58:18.
