data_PCOD9439572
_publ_section_title
;
Structure prediction by ZEFSAII (Michael W. Deem and Ramdas Pophale) SiO2 
 PCOD9439572
Probable space group: P B C M
;
_chemical_formula_sum "Si O2"
_cell_formula_units_Z 48
_cell_length_a 16.961955
_cell_length_b 8.505696
_cell_length_c 15.596918
_cell_angle_alpha 90.000000
_cell_angle_beta 90.000000
_cell_angle_gamma 90.000000
_cell_volume 2250.217782
_symmetry_space_group_name_H-M "P B C M"
_symmetry_group_IT_number 57
_symmetry_cell_setting 'orthorhombic'
loop_
_space_group_symop_operation_xyz
x,y,z
-x,-y,1/2+z
x,1/2-y,-z
-x,1/2+y,1/2-z
-x,-y,-z
x,y,1/2-z
-x,1/2+y,z
x,1/2-y,1/2+z
loop_
_atom_site_type_symbol
_atom_site_label
_atom_site_fract_x
_atom_site_fract_y
_atom_site_fract_z
Si Si1 0.134967 0.588016 0.348408
Si Si2 0.449015 0.168633 0.250000
Si Si3 0.028480 0.120119 0.070199
Si Si4 0.179477 0.236839 0.101915
Si Si5 0.615297 0.312347 0.250000
Si Si6 0.349285 0.195953 0.901954
Si Si7 0.700175 0.171026 0.088970
O O1 0.152986 0.620545 0.250000
O O2 0.046984 0.645800 0.370426
O O3 0.142046 0.399492 0.363310
O O4 0.204578 0.660665 0.404917
O O5 0.542616 0.189841 0.250000
O O6 0.415989 0.255171 0.164944
O O7 0.419819 0.988250 0.250000
O O8 0.112692 0.104161 0.116981
O O9 0.046854 0.250000 0.000000
O O10 0.000000 0.000000 0.000000
O O11 0.268487 0.222572 0.134475
O O12 0.196187 0.250000 0.000000
O O13 0.666774 0.274105 0.166408
O O14 0.330802 0.008879 0.903203
O O15 0.366343 0.250000 0.000000
O O16 0.676760 0.250000 0.000000
#
# Coordination Sequence:
#
# PCOD9439572 Si02
#       7
#     8   4   8   8   4   8   8
#     4  11  22  38  62  93 133 172 224 281 341 394
#     4  12  26  46  74 101 144 175 218 287 341 420
#     4  11  20  39  60  86 127 178 229 277 331 394
#     4   9  19  37  62  85 124 172 221 264 327 398
#     4  12  26  48  70 109 136 175 230 275 349 420
#     4  10  22  42  69 101 133 180 229 275 349 412
#     4  11  23  44  72 100 139 182 227 288 345 415
#
# _framework density 21.33127
#
# number of rings (size 3 to 8) (size 9 to 14) (size 15 to 20)
#    0.000    1.333    4.167    3.000    3.500    1.333 
#    3.000    3.333    0.000    0.000    0.000    0.000 
#    0.000    0.000    0.000    0.000    0.000    0.000 
#
# Total GULP energy -267603.267897 kJ/mol
# GULP energy per Si atom -5575.068081 kJ/mol
# Density = 2.128272 g / cm^3
# Si number density = 21.331270 Si / 1000 Ang^3
#
#
#
# Elastic Constant Matrix: (Units=GPa)
#
#
# Indices 1 2 3 4 5 6 
#
# 1 72.5511 -1.8364 13.0496 0.0000 0.0000 0.0000
# 2 -1.8364 45.9829 19.5941 0.0000 0.0000 0.0000
# 3 13.0496 19.5941 109.8441 0.0000 0.0000 0.0000
# 4 0.0000 0.0000 0.0000 29.8284 0.0000 0.0000
# 5 0.0000 0.0000 0.0000 0.0000 -9.2501 0.0000
# 6 0.0000 0.0000 0.0000 0.0000 0.0000 26.2375
#
#
#
# Elastic Compliance Matrix: (Units=1/GPa)
#
#
# Indices 1 2 3 4 5 6 
#
# 1 0.014166 0.001388 -0.001931 0.000000 0.000000 0.000000
# 2 0.001388 0.023672 -0.004388 0.000000 0.000000 0.000000
# 3 -0.001931 -0.004388 0.010116 0.000000 0.000000 0.000000
# 4 0.000000 0.000000 0.000000 0.033525 0.000000 0.000000
# 5 0.000000 0.000000 0.000000 0.000000 -0.108107 0.000000
# 6 0.000000 0.000000 0.000000 0.000000 0.000000 0.038113
#
#
# Mechanical properties :
#
#
# Convention : Reuss Voigt Hill
#
# Bulk Modulus (GPa) = 26.25065 32.22142 29.23604
# Shear Modulus (GPa) = 146.87077 22.53455 84.70266
#
# Velocity S-wave (km/s) = 8.30673 3.25377 6.30828
# Velocity P-wave (km/s) = 10.21447 5.40870 8.17280
#
# Compressibility (1/GPa) = 0.03809429
#
# Stress axis : x y z
#
# Youngs Moduli (GPa) = 70.59267 42.24345 98.85492
#
# Poissons Ratio (x) = -0.05865 0.19085
# Poissons Ratio (y) = -0.09801 0.43374
# Poissons Ratio (z) = 0.13628 0.18535
#
# Static dielectric constant tensor:
#      x y z
#    x 1.912370 0.000000 0.000000 
#    y 0.000000 1.806090 0.000000 
#    z 0.000000 0.000000 1.744020 
# 
# From -- ./inp_files/18988.got.cif
#   From: 2010.05.17/outbox.cif.g08.bks.cpg/sg57_10_cif.got.tgz:18988.got - 2010.06.03 13:58:18.
