data_PCOD9439309
_publ_section_title
;
Structure prediction by ZEFSAII (Michael W. Deem and Ramdas Pophale) SiO2 
 PCOD9439309
Probable space group: P B C M
;
_chemical_formula_sum "Si O2"
_cell_formula_units_Z 64
_cell_length_a 7.454681
_cell_length_b 12.668395
_cell_length_c 27.449017
_cell_angle_alpha 90.000000
_cell_angle_beta 90.000000
_cell_angle_gamma 90.000000
_cell_volume 2592.253421
_symmetry_space_group_name_H-M "P B C M"
_symmetry_group_IT_number 57
_symmetry_cell_setting 'orthorhombic'
loop_
_space_group_symop_operation_xyz
x,y,z
-x,-y,1/2+z
x,1/2-y,-z
-x,1/2+y,1/2-z
-x,-y,-z
x,y,1/2-z
-x,1/2+y,z
x,1/2-y,1/2+z
loop_
_atom_site_type_symbol
_atom_site_label
_atom_site_fract_x
_atom_site_fract_y
_atom_site_fract_z
Si Si1 0.637614 0.920632 0.953668
Si Si2 0.774276 0.194531 0.628247
Si Si3 0.663043 0.350561 0.472601
Si Si4 0.814450 0.120338 0.305365
Si Si5 0.643081 0.969684 0.379814
Si Si6 0.346962 0.957156 0.194621
Si Si7 0.230474 0.189661 0.301632
Si Si8 0.171996 0.273189 0.404581
O O1 0.515838 0.874947 0.996959
O O2 0.762461 0.825923 0.935772
O O3 0.740806 0.029915 0.967551
O O4 0.491873 0.958064 0.912418
O O5 0.637658 0.184852 0.583373
O O6 0.722851 0.277136 0.670175
O O7 0.807022 0.088202 0.659325
O O8 0.958227 0.224563 0.601256
O O9 0.750914 0.250000 0.500000
O O10 0.752903 0.094923 0.250000
O O11 0.023838 0.149396 0.301327
O O12 0.783560 0.034767 0.347184
O O13 0.517790 0.923895 0.336510
O O14 0.748829 0.888871 0.414536
O O15 0.332250 0.919724 0.250000
O O16 0.344939 0.083197 0.195833
O O17 0.264616 0.244933 0.250000
O O18 0.246158 0.253375 0.350285
#
# Coordination Sequence:
#
# PCOD9439309 Si02
#       8
#     8   8   8   8   8   8   8   8
#     4  11  24  44  70 102 137 179 228 287 361 424
#     4  11  23  44  68  99 139 179 234 286 348 419
#     4  11  23  45  75  99 132 177 227 289 357 424
#     4  10  22  38  61  96 137 184 229 278 339 411
#     4  12  23  38  66  98 139 183 230 287 339 417
#     4  11  22  38  65 101 142 186 229 283 343 413
#     4   9  19  38  61  90 135 183 229 277 335 407
#     4  11  24  43  69  99 138 186 231 288 346 417
#
# _framework density 24.688942999999998
#
# number of rings (size 3 to 8) (size 9 to 14) (size 15 to 20)
#    0.000    1.250    2.500    3.000    1.750    2.500 
#    0.000    4.375    0.000    0.000    0.000    0.000 
#    0.000    0.000    0.000    0.000    0.000    0.000 
#
# Total GULP energy -357450.504034 kJ/mol
# GULP energy per Si atom -5585.164126 kJ/mol
# Density = 2.463275 g / cm^3
# Si number density = 24.688943 Si / 1000 Ang^3
#
#
#
# Elastic Constant Matrix: (Units=GPa)
#
#
# Indices 1 2 3 4 5 6 
#
# 1 42.9386 24.8152 29.7539 0.0000 0.0000 0.0000
# 2 24.8152 75.3279 18.1015 0.0000 0.0000 0.0000
# 3 29.7539 18.1015 133.1135 0.0000 0.0000 0.0000
# 4 0.0000 0.0000 0.0000 28.2515 0.0000 0.0000
# 5 0.0000 0.0000 0.0000 0.0000 28.1523 0.0000
# 6 0.0000 0.0000 0.0000 0.0000 0.0000 30.0801
#
#
#
# Elastic Compliance Matrix: (Units=1/GPa)
#
#
# Indices 1 2 3 4 5 6 
#
# 1 0.032929 -0.009386 -0.006084 0.000000 0.000000 0.000000
# 2 -0.009386 0.016399 -0.000132 0.000000 0.000000 0.000000
# 3 -0.006084 -0.000132 0.008890 0.000000 0.000000 0.000000
# 4 0.000000 0.000000 0.000000 0.035396 0.000000 0.000000
# 5 0.000000 0.000000 0.000000 0.000000 0.035521 0.000000
# 6 0.000000 0.000000 0.000000 0.000000 0.000000 0.033245
#
#
# Mechanical properties :
#
#
# Convention : Reuss Voigt Hill
#
# Bulk Modulus (GPa) = 37.01715 44.08015 40.54865
# Shear Modulus (GPa) = 24.68046 29.21075 26.94561
#
# Velocity S-wave (km/s) = 3.16516 3.44343 3.30722
# Velocity P-wave (km/s) = 5.32763 5.80539 5.57163
#
# Compressibility (1/GPa) = 0.02701451
#
# Stress axis : x y z
#
# Youngs Moduli (GPa) = 30.36813 60.97933 112.48247
#
# Poissons Ratio (x) = 0.57234 0.68435
# Poissons Ratio (y) = 0.28503 0.01486
# Poissons Ratio (z) = 0.18476 0.00805
#
# Static dielectric constant tensor:
#      x y z
#    x 2.026230 0.000000 0.000000 
#    y 0.000000 2.099460 0.000000 
#    z 0.000000 0.000000 1.958230 
# 
# From -- ./inp_files/29612.got.cif
#   From: 2010.05.17/outbox.cif.g08.bks.cpg/sg57_15_cif.got.tgz:29612.got - 2010.06.03 13:58:18.
