data_PCOD9439079
_publ_section_title
;
Structure prediction by ZEFSAII (Michael W. Deem and Ramdas Pophale) SiO2 
 PCOD9439079
Probable space group: P B C M
;
_chemical_formula_sum "Si O2"
_cell_formula_units_Z 48
_cell_length_a 15.825583
_cell_length_b 7.989403
_cell_length_c 16.251009
_cell_angle_alpha 90.000000
_cell_angle_beta 90.000000
_cell_angle_gamma 90.000000
_cell_volume 2054.728180
_symmetry_space_group_name_H-M "P B C M"
_symmetry_group_IT_number 57
_symmetry_cell_setting 'orthorhombic'
loop_
_space_group_symop_operation_xyz
x,y,z
-x,-y,1/2+z
x,1/2-y,-z
-x,1/2+y,1/2-z
-x,-y,-z
x,y,1/2-z
-x,1/2+y,z
x,1/2-y,1/2+z
loop_
_atom_site_type_symbol
_atom_site_label
_atom_site_fract_x
_atom_site_fract_y
_atom_site_fract_z
Si Si1 0.121480 0.566425 0.344162
Si Si2 0.457967 0.166664 0.250000
Si Si3 0.046409 0.113536 0.065247
Si Si4 0.190892 0.188057 0.155362
Si Si5 0.631513 0.309633 0.250000
Si Si6 0.366810 0.196559 0.909878
Si Si7 0.707115 0.173066 0.087711
O O1 0.139771 0.614414 0.250000
O O2 0.029858 0.635840 0.369768
O O3 0.135861 0.362926 0.345862
O O4 0.193604 0.633828 0.404029
O O5 0.558636 0.168561 0.250000
O O6 0.426189 0.255846 0.166400
O O7 0.417154 0.984218 0.250000
O O8 0.128160 0.055018 0.114765
O O9 0.079229 0.250000 0.000000
O O10 0.000000 0.000000 0.000000
O O11 0.211399 0.153221 0.250000
O O12 0.276897 0.211153 0.106016
O O13 0.683026 0.285836 0.166103
O O14 0.343103 0.001680 0.905921
O O15 0.399254 0.250000 0.000000
O O16 0.687088 0.250000 0.000000
#
# Coordination Sequence:
#
# PCOD9439079 Si02
#       7
#     8   4   8   8   4   8   8
#     4  10  21  40  63  89 131 175 225 279 344 398
#     4  12  26  48  74 109 142 183 228 283 345 420
#     4  12  23  39  58  91 131 174 229 282 334 399
#     4  10  21  40  63  90 127 177 226 279 337 405
#     4  12  26  48  74 107 144 177 230 283 345 424
#     4  11  23  43  72 103 140 184 232 285 354 420
#     4  11  23  44  71 104 141 184 230 290 352 417
#
# _framework density 23.360754
#
# number of rings (size 3 to 8) (size 9 to 14) (size 15 to 20)
#    0.000    1.000    3.333    4.000    2.333    0.667 
#    3.000    3.333    0.000    0.000    0.000    0.000 
#    0.000    0.000    0.000    0.000    0.000    0.000 
#
# Total GULP energy -268422.391953 kJ/mol
# GULP energy per Si atom -5592.133166 kJ/mol
# Density = 2.330758 g / cm^3
# Si number density = 23.360754 Si / 1000 Ang^3
#
#
#
# Elastic Constant Matrix: (Units=GPa)
#
#
# Indices 1 2 3 4 5 6 
#
# 1 48.2889 -15.8748 17.7424 0.0000 0.0000 0.0000
# 2 -15.8748 32.0113 21.5634 0.0000 0.0000 0.0000
# 3 17.7424 21.5634 171.4673 0.0000 0.0000 0.0000
# 4 0.0000 0.0000 0.0000 30.2994 0.0000 0.0000
# 5 0.0000 0.0000 0.0000 0.0000 20.9494 0.0000
# 6 0.0000 0.0000 0.0000 0.0000 0.0000 23.6667
#
#
#
# Elastic Compliance Matrix: (Units=1/GPa)
#
#
# Indices 1 2 3 4 5 6 
#
# 1 0.028357 0.017524 -0.005138 0.000000 0.000000 0.000000
# 2 0.017524 0.044959 -0.007467 0.000000 0.000000 0.000000
# 3 -0.005138 -0.007467 0.007303 0.000000 0.000000 0.000000
# 4 0.000000 0.000000 0.000000 0.033004 0.000000 0.000000
# 5 0.000000 0.000000 0.000000 0.000000 0.047734 0.000000
# 6 0.000000 0.000000 0.000000 0.000000 0.000000 0.042253
#
#
# Mechanical properties :
#
#
# Convention : Reuss Voigt Hill
#
# Bulk Modulus (GPa) = 11.05504 33.18106 22.11805
# Shear Modulus (GPa) = 22.32883 30.20556 26.26719
#
# Velocity S-wave (km/s) = 3.09500 3.59974 3.35687
# Velocity P-wave (km/s) = 4.18505 5.61356 4.95110
#
# Compressibility (1/GPa) = 0.09045651
#
# Stress axis : x y z
#
# Youngs Moduli (GPa) = 35.26417 22.24235 136.93508
#
# Poissons Ratio (x) = -0.38977 0.70357
# Poissons Ratio (y) = -0.61796 1.02253
# Poissons Ratio (z) = 0.18119 0.16609
#
# Static dielectric constant tensor:
#      x y z
#    x 1.950080 0.000000 0.000000 
#    y 0.000000 2.074080 0.000000 
#    z 0.000000 0.000000 1.940380 
# 
# From -- ./inp_files/18989.got.cif
#   From: 2010.05.17/outbox.cif.g08.bks.cpg/sg57_10_cif.got.tgz:18989.got - 2010.06.03 13:58:18.
