data_PCOD9439877
_publ_section_title
;
Structure prediction by ZEFSAII (Michael W. Deem and Ramdas Pophale) SiO2 
 PCOD9439877
Probable space group: P B C M
;
_chemical_formula_sum "Si O2"
_cell_formula_units_Z 28
_cell_length_a 5.517040
_cell_length_b 8.877013
_cell_length_c 22.614058
_cell_angle_alpha 90.000000
_cell_angle_beta 90.000000
_cell_angle_gamma 90.000000
_cell_volume 1107.519777
_symmetry_space_group_name_H-M "P B C M"
_symmetry_group_IT_number 57
_symmetry_cell_setting 'orthorhombic'
loop_
_space_group_symop_operation_xyz
x,y,z
-x,-y,1/2+z
x,1/2-y,-z
-x,1/2+y,1/2-z
-x,-y,-z
x,y,1/2-z
-x,1/2+y,z
x,1/2-y,1/2+z
loop_
_atom_site_type_symbol
_atom_site_label
_atom_site_fract_x
_atom_site_fract_y
_atom_site_fract_z
Si Si1 0.332099 0.113577 0.462417
Si Si2 0.958863 0.457140 0.140513
Si Si3 0.324628 0.383189 0.750000
Si Si4 0.658941 0.174361 0.357099
O O1 0.217583 0.250000 0.500000
O O2 0.145631 0.022533 0.421101
O O3 0.512533 0.195241 0.416628
O O4 0.500000 0.000000 0.500000
O O5 0.827952 0.530020 0.197316
O O6 0.890825 0.282876 0.143568
O O7 0.237952 0.504175 0.144803
O O8 0.492233 0.301788 0.698862
#
# Coordination Sequence:
#
# PCOD9439877 Si02
#       4
#     8   8   4   8
#     4  11  24  45  66  96 135 175 218 266 321 385
#     4  11  25  42  68  99 130 173 217 270 325 388
#     4  10  24  44  66  92 134 166 216 266 326 384
#     4  11  25  42  68 100 129 172 219 268 329 385
#
# _framework density 25.281711999999999
#
# number of rings (size 3 to 8) (size 9 to 14) (size 15 to 20)
#    0.000    1.143    2.857    1.714    4.000    6.857 
#    0.000    0.000    0.000    0.000    0.000    0.000 
#    0.000    0.000    0.000    0.000    0.000    0.000 
#
# Total GULP energy -155895.203324 kJ/mol
# GULP energy per Si atom -5567.685833 kJ/mol
# Density = 2.522417 g / cm^3
# Si number density = 25.281712 Si / 1000 Ang^3
#
#
#
# Elastic Constant Matrix: (Units=GPa)
#
#
# Indices 1 2 3 4 5 6 
#
# 1 25.7837 15.4033 14.8239 0.0000 0.0000 0.0000
# 2 15.4033 84.1689 46.7799 0.0000 0.0000 0.0000
# 3 14.8239 46.7799 185.5519 0.0000 0.0000 0.0000
# 4 0.0000 0.0000 0.0000 -11.4482 0.0000 0.0000
# 5 0.0000 0.0000 0.0000 0.0000 9.2151 0.0000
# 6 0.0000 0.0000 0.0000 0.0000 0.0000 35.2218
#
#
#
# Elastic Compliance Matrix: (Units=1/GPa)
#
#
# Indices 1 2 3 4 5 6 
#
# 1 0.044016 -0.007095 -0.001728 0.000000 0.000000 0.000000
# 2 -0.007095 0.014961 -0.003205 0.000000 0.000000 0.000000
# 3 -0.001728 -0.003205 0.006335 0.000000 0.000000 0.000000
# 4 0.000000 0.000000 0.000000 -0.087350 0.000000 0.000000
# 5 0.000000 0.000000 0.000000 0.000000 0.108517 0.000000
# 6 0.000000 0.000000 0.000000 0.000000 0.000000 0.028392
#
#
# Mechanical properties :
#
#
# Convention : Reuss Voigt Hill
#
# Bulk Modulus (GPa) = 24.23846 49.94653 37.09249
# Shear Modulus (GPa) = 32.74865 21.16424 26.95645
#
# Velocity S-wave (km/s) = 3.60300 2.89647 3.26888
# Velocity P-wave (km/s) = 5.18816 5.56641 5.38061
#
# Compressibility (1/GPa) = 0.04125675
#
# Stress axis : x y z
#
# Youngs Moduli (GPa) = 22.71901 66.84258 157.84432
#
# Poissons Ratio (x) = 0.47424 0.27272
# Poissons Ratio (y) = 0.16119 0.50588
# Poissons Ratio (z) = 0.03925 0.21422
#
# Static dielectric constant tensor:
#      x y z
#    x 2.190330 0.000000 0.000000 
#    y 0.000000 2.010300 0.000000 
#    z 0.000000 0.000000 1.889430 
# 
# From -- ./inp_files/23268.got.cif
#   From: 2010.05.17/outbox.cif.g08.bks.cpg/sg57_12_cif.got.tgz:23268.got - 2010.06.03 13:58:18.
