data_PCOD9439212
_publ_section_title
;
Structure prediction by ZEFSAII (Michael W. Deem and Ramdas Pophale) SiO2 
 PCOD9439212
Probable space group: P B C M
;
_chemical_formula_sum "Si O2"
_cell_formula_units_Z 60
_cell_length_a 4.991238
_cell_length_b 18.011481
_cell_length_c 29.655798
_cell_angle_alpha 90.000000
_cell_angle_beta 90.000000
_cell_angle_gamma 90.000000
_cell_volume 2666.044034
_symmetry_space_group_name_H-M "P B C M"
_symmetry_group_IT_number 57
_symmetry_cell_setting 'orthorhombic'
loop_
_space_group_symop_operation_xyz
x,y,z
-x,-y,1/2+z
x,1/2-y,-z
-x,1/2+y,1/2-z
-x,-y,-z
x,y,1/2-z
-x,1/2+y,z
x,1/2-y,1/2+z
loop_
_atom_site_type_symbol
_atom_site_label
_atom_site_fract_x
_atom_site_fract_y
_atom_site_fract_z
Si Si1 0.655277 0.605370 0.021393
Si Si2 0.085912 0.752463 0.097604
Si Si3 0.579334 0.846540 0.380784
Si Si4 0.338356 0.750000 0.500000
Si Si5 0.941646 0.599819 0.113198
Si Si6 0.671309 0.965970 0.801992
Si Si7 0.741009 0.980400 0.059367
Si Si8 0.826751 0.564719 0.698668
O O1 0.438417 0.544669 0.037500
O O2 0.790242 0.626166 0.068116
O O3 0.516415 0.676360 0.000352
O O4 0.845580 0.567339 0.983593
O O5 0.288651 0.810686 0.120617
O O6 0.127740 0.671497 0.120197
O O7 0.787882 0.785020 0.101405
O O8 0.167367 0.749082 0.045330
O O9 0.575499 0.919645 0.412490
O O10 0.710731 0.874981 0.334775
O O11 0.068754 0.522737 0.094718
O O12 0.762755 0.585997 0.157048
O O13 0.710114 0.939493 0.750000
O O14 0.366059 0.992480 0.807089
O O15 0.869263 0.037202 0.807368
O O16 0.794797 0.589591 0.750000
#
# Coordination Sequence:
#
# PCOD9439212 Si02
#       8
#     8   8   8   4   8   8   8   8
#     4  11  25  43  65 100 135 181 233 282 344 399
#     4  12  29  42  67  94 141 184 226 267 357 396
#     4  12  25  45  67 101 133 180 223 285 331 414
#     4  12  24  48  62  94 140 186 228 282 342 418
#     4  12  25  42  68  98 139 183 229 287 344 418
#     4  10  22  41  72 105 134 171 225 287 343 402
#     4  11  24  40  67  97 132 176 232 286 329 399
#     4  10  21  42  72 104 133 171 223 285 345 397
#
# _framework density 22.505251999999999
#
# number of rings (size 3 to 8) (size 9 to 14) (size 15 to 20)
#    0.000    0.800    4.000    2.800    3.733    0.533 
#    0.000    1.333    0.000    0.000    0.000    0.000 
#    0.000    0.000    0.000    0.000    0.000    0.000 
#
# Total GULP energy -335610.457468 kJ/mol
# GULP energy per Si atom -5593.507624 kJ/mol
# Density = 2.245403 g / cm^3
# Si number density = 22.505252 Si / 1000 Ang^3
#
#
#
# Elastic Constant Matrix: (Units=GPa)
#
#
# Indices 1 2 3 4 5 6 
#
# 1 49.1239 9.5610 -7.0829 0.0000 0.0000 0.0000
# 2 9.5610 108.4930 32.3147 0.0000 0.0000 0.0000
# 3 -7.0829 32.3147 94.6365 0.0000 0.0000 0.0000
# 4 0.0000 0.0000 0.0000 26.3394 0.0000 0.0000
# 5 0.0000 0.0000 0.0000 0.0000 25.2031 0.0000
# 6 0.0000 0.0000 0.0000 0.0000 0.0000 28.7040
#
#
#
# Elastic Compliance Matrix: (Units=1/GPa)
#
#
# Indices 1 2 3 4 5 6 
#
# 1 0.021222 -0.002609 0.002479 0.000000 0.000000 0.000000
# 2 -0.002609 0.010581 -0.003808 0.000000 0.000000 0.000000
# 3 0.002479 -0.003808 0.012053 0.000000 0.000000 0.000000
# 4 0.000000 0.000000 0.000000 0.037966 0.000000 0.000000
# 5 0.000000 0.000000 0.000000 0.000000 0.039678 0.000000
# 6 0.000000 0.000000 0.000000 0.000000 0.000000 0.034838
#
#
# Mechanical properties :
#
#
# Convention : Reuss Voigt Hill
#
# Bulk Modulus (GPa) = 27.79314 35.75989 31.77652
# Shear Modulus (GPa) = 28.37571 30.54667 29.46119
#
# Velocity S-wave (km/s) = 3.55470 3.68817 3.62205
# Velocity P-wave (km/s) = 5.40595 5.83617 5.62517
#
# Compressibility (1/GPa) = 0.03598010
#
# Stress axis : x y z
#
# Youngs Moduli (GPa) = 47.12132 94.50554 82.96905
#
# Poissons Ratio (x) = 0.24652 -0.20568
# Poissons Ratio (y) = 0.12292 0.31598
# Poissons Ratio (z) = -0.11681 0.35991
#
# Static dielectric constant tensor:
#      x y z
#    x 1.863120 0.000000 0.000000 
#    y 0.000000 1.878350 0.000000 
#    z 0.000000 0.000000 1.896680 
# 
# From -- ./inp_files/29250.got.cif
#   From: 2010.05.17/outbox.cif.g08.bks.cpg/sg57_15_cif.got.tgz:29250.got - 2010.06.03 13:58:18.
