data_PCOD9439289
_publ_section_title
;
Structure prediction by ZEFSAII (Michael W. Deem and Ramdas Pophale) SiO2 
 PCOD9439289
Probable space group: P B C M
;
_chemical_formula_sum "Si O2"
_cell_formula_units_Z 48
_cell_length_a 12.118741
_cell_length_b 11.312167
_cell_length_c 17.631941
_cell_angle_alpha 90.000000
_cell_angle_beta 90.000000
_cell_angle_gamma 90.000000
_cell_volume 2417.149074
_symmetry_space_group_name_H-M "P B C M"
_symmetry_group_IT_number 57
_symmetry_cell_setting 'orthorhombic'
loop_
_space_group_symop_operation_xyz
x,y,z
-x,-y,1/2+z
x,1/2-y,-z
-x,1/2+y,1/2-z
-x,-y,-z
x,y,1/2-z
-x,1/2+y,z
x,1/2-y,1/2+z
loop_
_atom_site_type_symbol
_atom_site_label
_atom_site_fract_x
_atom_site_fract_y
_atom_site_fract_z
Si Si1 0.709366 0.432697 0.441890
Si Si2 0.750889 0.713231 0.838372
Si Si3 0.680893 0.176686 0.395134
Si Si4 0.107409 0.444152 0.839992
Si Si5 0.441159 0.161231 0.070067
Si Si6 0.142199 0.520731 0.337156
O O1 0.670756 0.317902 0.395082
O O2 0.725830 0.376725 0.524928
O O3 0.814969 0.482509 0.396941
O O4 0.621058 0.538883 0.449497
O O5 0.722066 0.696936 0.750000
O O6 0.847456 0.810441 0.843433
O O7 0.645082 0.765374 0.879918
O O8 0.795883 0.591571 0.873268
O O9 0.555773 0.131512 0.388387
O O10 0.773261 0.128994 0.339110
O O11 0.118974 0.479340 0.750000
O O12 0.980307 0.452183 0.865448
O O13 0.468090 0.250000 0.000000
O O14 0.123773 0.485496 0.250000
#
# Coordination Sequence:
#
# PCOD9439289 Si02
#       6
#     8   8   8   8   8   8
#     4  10  22  38  58  90 117 153 194 242 289 343
#     4   9  20  38  58  85 114 148 196 241 287 345
#     4  11  23  36  58  87 121 150 193 240 286 346
#     4   9  20  39  62  85 114 153 193 239 293 344
#     4  11  21  38  64  82 116 158 194 235 291 346
#     4  10  22  38  61  87 116 154 195 238 289 347
#
# _framework density 19.858104999999998
#
# number of rings (size 3 to 8) (size 9 to 14) (size 15 to 20)
#    0.000    2.000    1.667    1.500    4.667    2.000 
#    0.000    0.000    0.000    0.000    0.000    0.000 
#    0.000    0.000    0.000    0.000    0.000    0.000 
#
# Total GULP energy -267520.881109 kJ/mol
# GULP energy per Si atom -5573.351690 kJ/mol
# Density = 1.981291 g / cm^3
# Si number density = 19.858105 Si / 1000 Ang^3
#
#
#
# Elastic Constant Matrix: (Units=GPa)
#
#
# Indices 1 2 3 4 5 6 
#
# 1 135.3418 36.4409 25.2112 0.0000 0.0000 0.0000
# 2 36.4409 87.2144 11.1953 0.0000 0.0000 0.0000
# 3 25.2112 11.1953 10.4819 0.0000 0.0000 0.0000
# 4 0.0000 0.0000 0.0000 25.1545 0.0000 0.0000
# 5 0.0000 0.0000 0.0000 0.0000 57.8143 0.0000
# 6 0.0000 0.0000 0.0000 0.0000 0.0000 14.1985
#
#
#
# Elastic Compliance Matrix: (Units=1/GPa)
#
#
# Indices 1 2 3 4 5 6 
#
# 1 0.013605 -0.001720 -0.030886 0.000000 0.000000 0.000000
# 2 -0.001720 0.013505 -0.010287 0.000000 0.000000 0.000000
# 3 -0.030886 -0.010287 0.180678 0.000000 0.000000 0.000000
# 4 0.000000 0.000000 0.000000 0.039754 0.000000 0.000000
# 5 0.000000 0.000000 0.000000 0.000000 0.017297 0.000000
# 6 0.000000 0.000000 0.000000 0.000000 0.000000 0.070430
#
#
# Mechanical properties :
#
#
# Convention : Reuss Voigt Hill
#
# Bulk Modulus (GPa) = 8.19665 42.08143 25.13904
# Shear Modulus (GPa) = 10.82896 30.11283 20.47089
#
# Velocity S-wave (km/s) = 2.33774 3.89832 3.21418
# Velocity P-wave (km/s) = 3.37983 6.44202 5.14407
#
# Compressibility (1/GPa) = 0.12200100
#
# Stress axis : x y z
#
# Youngs Moduli (GPa) = 73.50089 74.04558 5.53470
#
# Poissons Ratio (x) = 0.12736 0.17095
# Poissons Ratio (y) = 0.12642 0.05694
# Poissons Ratio (z) = 2.27018 0.76174
#
# Static dielectric constant tensor:
#      x y z
#    x 1.683150 0.000000 0.000000 
#    y 0.000000 1.716600 0.000000 
#    z 0.000000 0.000000 1.739460 
# 
# From -- ./inp_files/21798.got.cif
#   From: 2010.05.17/outbox.cif.g08.bks.cpg/sg57_11_cif.got.tgz:21798.got - 2010.06.03 13:58:18.
