data_PCOD9439213
_publ_section_title
;
Structure prediction by ZEFSAII (Michael W. Deem and Ramdas Pophale) SiO2 
 PCOD9439213
Probable space group: P B C M
;
_chemical_formula_sum "Si O2"
_cell_formula_units_Z 36
_cell_length_a 5.738625
_cell_length_b 23.832034
_cell_length_c 12.777819
_cell_angle_alpha 90.000000
_cell_angle_beta 90.000000
_cell_angle_gamma 90.000000
_cell_volume 1747.534216
_symmetry_space_group_name_H-M "P B C M"
_symmetry_group_IT_number 57
_symmetry_cell_setting 'orthorhombic'
loop_
_space_group_symop_operation_xyz
x,y,z
-x,-y,1/2+z
x,1/2-y,-z
-x,1/2+y,1/2-z
-x,-y,-z
x,y,1/2-z
-x,1/2+y,z
x,1/2-y,1/2+z
loop_
_atom_site_type_symbol
_atom_site_label
_atom_site_fract_x
_atom_site_fract_y
_atom_site_fract_z
Si Si1 0.565557 0.750000 0.000000
Si Si2 0.999498 0.408364 0.250000
Si Si3 0.635884 0.923529 0.863751
Si Si4 0.732332 0.322491 0.635415
Si Si5 0.500382 0.526934 0.750000
Si Si6 0.888128 0.856258 0.469416
O O1 0.415294 0.769289 0.900901
O O2 0.707810 0.804884 0.034217
O O3 0.243640 0.445028 0.250000
O O4 0.020916 0.373242 0.356539
O O5 0.741376 0.437266 0.250000
O O6 0.767685 0.917110 0.750000
O O7 0.437182 0.876260 0.862076
O O8 0.781936 0.909419 0.966536
O O9 0.525107 0.984858 0.849776
O O10 0.837130 0.314375 0.750000
O O11 0.914391 0.333526 0.545481
#
# Coordination Sequence:
#
# PCOD9439213 Si02
#       6
#     4   4   8   8   4   8
#     4  10  24  44  64 104 128 178 234 292 368 404
#     4  12  30  44  71 104 158 175 236 286 376 408
#     4   8  20  41  71  97 135 172 250 277 338 418
#     4  10  21  42  72  96 131 180 235 295 341 426
#     4  10  26  48  67 110 136 203 224 302 348 418
#     4  11  24  44  68 103 137 189 227 300 349 436
#
# _framework density 20.600453999999999
#
# number of rings (size 3 to 8) (size 9 to 14) (size 15 to 20)
#    0.667    1.333    0.000    1.333   10.889    2.667 
#    6.000    0.000    0.000    0.000    0.000    0.000 
#    0.000    0.000    0.000    0.000    0.000    0.000 
#
# Total GULP energy -200596.288628 kJ/mol
# GULP energy per Si atom -5572.119129 kJ/mol
# Density = 2.055357 g / cm^3
# Si number density = 20.600454 Si / 1000 Ang^3
#
#
#
# Elastic Constant Matrix: (Units=GPa)
#
#
# Indices 1 2 3 4 5 6 
#
# 1 48.3534 19.4651 40.4225 0.0000 0.0000 0.0000
# 2 19.4651 63.8084 45.1013 0.0000 0.0000 0.0000
# 3 40.4225 45.1013 156.2428 0.0000 0.0000 0.0000
# 4 0.0000 0.0000 0.0000 36.8420 0.0000 0.0000
# 5 0.0000 0.0000 0.0000 0.0000 19.1763 0.0000
# 6 0.0000 0.0000 0.0000 0.0000 0.0000 -1.2303
#
#
#
# Elastic Compliance Matrix: (Units=1/GPa)
#
#
# Indices 1 2 3 4 5 6 
#
# 1 0.027249 -0.004183 -0.005842 0.000000 0.000000 0.000000
# 2 -0.004183 0.020331 -0.004787 0.000000 0.000000 0.000000
# 3 -0.005842 -0.004787 0.009294 0.000000 0.000000 0.000000
# 4 0.000000 0.000000 0.000000 0.027143 0.000000 0.000000
# 5 0.000000 0.000000 0.000000 0.000000 0.052148 0.000000
# 6 0.000000 0.000000 0.000000 0.000000 0.000000 -0.812793
#
#
# Mechanical properties :
#
#
# Convention : Reuss Voigt Hill
#
# Bulk Modulus (GPa) = 36.69729 53.15360 44.92544
# Shear Modulus (GPa) = -7.83795 21.85198 7.00701
#
# Velocity S-wave (km/s) = -1.95269 3.26045 1.84629
# Velocity P-wave (km/s) = 3.57330 6.32710 5.13813
#
# Compressibility (1/GPa) = 0.02724997
#
# Stress axis : x y z
#
# Youngs Moduli (GPa) = 36.69854 49.18532 107.60191
#
# Poissons Ratio (x) = 0.20574 0.62864
# Poissons Ratio (y) = 0.15351 0.51505
# Poissons Ratio (z) = 0.21440 0.23543
#
# Static dielectric constant tensor:
#      x y z
#    x 1.796060 0.000000 0.000000 
#    y 0.000000 1.731190 0.000000 
#    z 0.000000 0.000000 1.748230 
# 
# From -- ./inp_files/10861.got.cif
#   From: 2010.05.17/outbox.cif.g08.bks.cpg/sg57_6_cif.got.tgz:10861.got - 2010.06.03 13:58:18.
