data_PCOD9439620
_publ_section_title
;
Structure prediction by ZEFSAII (Michael W. Deem and Ramdas Pophale) SiO2 
 PCOD9439620
Probable space group: P B C M
;
_chemical_formula_sum "Si O2"
_cell_formula_units_Z 48
_cell_length_a 5.139552
_cell_length_b 17.893078
_cell_length_c 22.136145
_cell_angle_alpha 90.000000
_cell_angle_beta 90.000000
_cell_angle_gamma 90.000000
_cell_volume 2035.693128
_symmetry_space_group_name_H-M "P B C M"
_symmetry_group_IT_number 57
_symmetry_cell_setting 'orthorhombic'
loop_
_space_group_symop_operation_xyz
x,y,z
-x,-y,1/2+z
x,1/2-y,-z
-x,1/2+y,1/2-z
-x,-y,-z
x,y,1/2-z
-x,1/2+y,z
x,1/2-y,1/2+z
loop_
_atom_site_type_symbol
_atom_site_label
_atom_site_fract_x
_atom_site_fract_y
_atom_site_fract_z
Si Si1 0.634448 0.701485 0.184848
Si Si2 0.571553 0.071381 0.378057
Si Si3 0.958861 0.200815 0.421842
Si Si4 0.240992 0.818609 0.354784
Si Si5 0.807392 0.927455 0.507729
Si Si6 0.264829 0.414018 0.367525
O O1 0.754399 0.716561 0.250000
O O2 0.585984 0.613873 0.173834
O O3 0.363457 0.747788 0.181234
O O4 0.822298 0.720325 0.128696
O O5 0.770511 0.134023 0.400892
O O6 0.386812 0.053815 0.436295
O O7 0.727905 0.001297 0.353092
O O8 0.795604 0.277722 0.420687
O O9 0.095243 0.156582 0.475471
O O10 0.472299 0.876360 0.346345
O O11 0.982187 0.867332 0.344742
O O12 0.710551 0.914720 0.440262
O O13 0.000000 0.000000 0.500000
#
# Coordination Sequence:
#
# PCOD9439620 Si02
#       6
#     8   8   8   8   8   8
#     4  10  23  49  75  94 130 183 234 294 355 413
#     4  10  23  41  69 101 133 176 240 282 334 428
#     4  10  22  44  65  99 135 176 244 267 332 431
#     4  11  25  45  63 102 136 181 221 285 340 416
#     4  11  22  40  66 101 139 195 224 276 341 411
#     4  12  24  42  68  98 147 178 219 282 348 397
#
# _framework density 23.579191999999999
#
# number of rings (size 3 to 8) (size 9 to 14) (size 15 to 20)
#    0.000    1.333    3.333    1.500    4.667    3.333 
#    6.000    1.667    0.000    0.000    0.000    0.000 
#    0.000    0.000    0.000    0.000    0.000    0.000 
#
# Total GULP energy -267342.706947 kJ/mol
# GULP energy per Si atom -5569.639728 kJ/mol
# Density = 2.352553 g / cm^3
# Si number density = 23.579192 Si / 1000 Ang^3
#
#
#
# Elastic Constant Matrix: (Units=GPa)
#
#
# Indices 1 2 3 4 5 6 
#
# 1 126.5408 44.4085 10.8287 0.0000 0.0000 0.0000
# 2 44.4085 56.6705 4.3627 0.0000 0.0000 0.0000
# 3 10.8287 4.3627 64.4880 0.0000 0.0000 0.0000
# 4 0.0000 0.0000 0.0000 2.6697 0.0000 0.0000
# 5 0.0000 0.0000 0.0000 0.0000 14.6639 0.0000
# 6 0.0000 0.0000 0.0000 0.0000 0.0000 40.2081
#
#
#
# Elastic Compliance Matrix: (Units=1/GPa)
#
#
# Indices 1 2 3 4 5 6 
#
# 1 0.011003 -0.008524 -0.001271 0.000000 0.000000 0.000000
# 2 -0.008524 0.024342 -0.000215 0.000000 0.000000 0.000000
# 3 -0.001271 -0.000215 0.015735 0.000000 0.000000 0.000000
# 4 0.000000 0.000000 0.000000 0.374568 0.000000 0.000000
# 5 0.000000 0.000000 0.000000 0.000000 0.068195 0.000000
# 6 0.000000 0.000000 0.000000 0.000000 0.000000 0.024871
#
#
# Mechanical properties :
#
#
# Convention : Reuss Voigt Hill
#
# Bulk Modulus (GPa) = 32.19708 40.76657 36.48182
# Shear Modulus (GPa) = 9.10601 24.04830 16.57716
#
# Velocity S-wave (km/s) = 1.96730 3.19704 2.65437
# Velocity P-wave (km/s) = 4.34107 5.56371 4.98998
#
# Compressibility (1/GPa) = 0.03105872
#
# Stress axis : x y z
#
# Youngs Moduli (GPa) = 90.88525 41.08076 63.55362
#
# Poissons Ratio (x) = 0.35018 0.08077
# Poissons Ratio (y) = 0.77473 0.01369
# Poissons Ratio (z) = 0.11551 0.00885
#
# Static dielectric constant tensor:
#      x y z
#    x 2.019430 0.000000 0.000000 
#    y 0.000000 2.034240 0.000000 
#    z 0.000000 0.000000 2.059250 
# 
# From -- ./inp_files/26219.got.cif
#   From: 2010.05.17/outbox.cif.g08.bks.cpg/sg57_14_cif.got.tgz:26219.got - 2010.06.03 13:58:18.
