data_PCOD9439707
_publ_section_title
;
Structure prediction by ZEFSAII (Michael W. Deem and Ramdas Pophale) SiO2 
 PCOD9439707
Probable space group: P B C M
;
_chemical_formula_sum "Si O2"
_cell_formula_units_Z 48
_cell_length_a 16.882306
_cell_length_b 16.164332
_cell_length_c 8.720657
_cell_angle_alpha 90.000000
_cell_angle_beta 90.000000
_cell_angle_gamma 90.000000
_cell_volume 2379.790546
_symmetry_space_group_name_H-M "P B C M"
_symmetry_group_IT_number 57
_symmetry_cell_setting 'orthorhombic'
loop_
_space_group_symop_operation_xyz
x,y,z
-x,-y,1/2+z
x,1/2-y,-z
-x,1/2+y,1/2-z
-x,-y,-z
x,y,1/2-z
-x,1/2+y,z
x,1/2-y,1/2+z
loop_
_atom_site_type_symbol
_atom_site_label
_atom_site_fract_x
_atom_site_fract_y
_atom_site_fract_z
Si Si1 0.849360 0.435060 0.566877
Si Si2 0.411800 0.501101 0.065687
Si Si3 0.155742 0.113601 0.429518
Si Si4 0.991031 0.161453 0.568485
Si Si5 0.666676 0.663625 0.431196
Si Si6 0.691952 0.340038 0.566067
O O1 0.847483 0.449080 0.750000
O O2 0.830315 0.519177 0.478926
O O3 0.781901 0.367808 0.528039
O O4 0.935285 0.404916 0.514110
O O5 0.413134 0.501346 0.250000
O O6 0.364722 0.584183 0.015496
O O7 0.500000 0.500000 0.000000
O O8 0.368995 0.417805 0.009192
O O9 0.134253 0.119244 0.250000
O O10 0.082677 0.146402 0.528408
O O11 0.238488 0.159493 0.453611
O O12 0.968213 0.250000 0.500000
O O13 0.978834 0.158640 0.750000
O O14 0.636452 0.750000 0.500000
O O15 0.650468 0.660428 0.250000
O O16 0.673065 0.250000 0.500000
O O17 0.686506 0.335222 0.750000
#
# Coordination Sequence:
#
# PCOD9439707 Si02
#       6
#     8   8   8   8   8   8
#     4  11  22  40  63  90 125 168 214 266 323 378
#     4  11  24  45  69  98 133 170 213 266 326 389
#     4  11  23  40  63  92 125 168 217 266 323 382
#     4  12  25  40  58  86 124 167 216 269 321 380
#     4  11  24  42  68  99 131 172 218 268 326 388
#     4  10  23  41  66  96 129 169 213 262 320 381
#
# _framework density 20.169841000000002
#
# number of rings (size 3 to 8) (size 9 to 14) (size 15 to 20)
#    0.000    1.000    1.667    5.000    0.000    8.000 
#    0.000    1.667    0.000    0.000    0.000    0.000 
#    0.000    0.000    0.000    0.000    0.000    0.000 
#
# Total GULP energy -268518.244289 kJ/mol
# GULP energy per Si atom -5594.130089 kJ/mol
# Density = 2.012393 g / cm^3
# Si number density = 20.169841 Si / 1000 Ang^3
#
#
#
# Elastic Constant Matrix: (Units=GPa)
#
#
# Indices 1 2 3 4 5 6 
#
# 1 53.1292 2.5361 27.7730 0.0000 0.0000 0.0000
# 2 2.5361 116.8521 17.8349 0.0000 0.0000 0.0000
# 3 27.7730 17.8349 26.8007 0.0000 0.0000 0.0000
# 4 0.0000 0.0000 0.0000 36.7548 0.0000 0.0000
# 5 0.0000 0.0000 0.0000 0.0000 28.0982 0.0000
# 6 0.0000 0.0000 0.0000 0.0000 0.0000 10.4857
#
#
#
# Elastic Compliance Matrix: (Units=1/GPa)
#
#
# Indices 1 2 3 4 5 6 
#
# 1 0.045607 0.006927 -0.051871 0.000000 0.000000 0.000000
# 2 0.006927 0.010577 -0.014217 0.000000 0.000000 0.000000
# 3 -0.051871 -0.014217 0.100527 0.000000 0.000000 0.000000
# 4 0.000000 0.000000 0.000000 0.027207 0.000000 0.000000
# 5 0.000000 0.000000 0.000000 0.000000 0.035589 0.000000
# 6 0.000000 0.000000 0.000000 0.000000 0.000000 0.095368
#
#
# Mechanical properties :
#
#
# Convention : Reuss Voigt Hill
#
# Bulk Modulus (GPa) = 26.04972 32.56336 29.30654
# Shear Modulus (GPa) = 11.21090 24.97694 18.09392
#
# Velocity S-wave (km/s) = 2.36015 3.52281 2.99838
# Velocity P-wave (km/s) = 4.51335 5.72071 5.15252
#
# Compressibility (1/GPa) = 0.03838812
#
# Stress axis : x y z
#
# Youngs Moduli (GPa) = 21.92659 94.54075 9.94760
#
# Poissons Ratio (x) = -0.65490 0.51599
# Poissons Ratio (y) = -0.15189 0.14143
# Poissons Ratio (z) = 1.13736 1.34412
#
# Static dielectric constant tensor:
#      x y z
#    x 1.714640 0.000000 0.000000 
#    y 0.000000 1.683680 0.000000 
#    z 0.000000 0.000000 1.671130 
# 
# From -- ./inp_files/6568.got.cif
#   From: 2010.05.17/outbox.cif.g08.bks.cpg/sg57_4_cif.got.tgz:6568.got - 2010.06.03 13:58:18.
