data_PCOD9439865
_publ_section_title
;
Structure prediction by ZEFSAII (Michael W. Deem and Ramdas Pophale) SiO2 
 PCOD9439865
Probable space group: P B C M
;
_chemical_formula_sum "Si O2"
_cell_formula_units_Z 40
_cell_length_a 5.440881
_cell_length_b 9.064169
_cell_length_c 30.736414
_cell_angle_alpha 90.000000
_cell_angle_beta 90.000000
_cell_angle_gamma 90.000000
_cell_volume 1515.829724
_symmetry_space_group_name_H-M "P B C M"
_symmetry_group_IT_number 57
_symmetry_cell_setting 'orthorhombic'
loop_
_space_group_symop_operation_xyz
x,y,z
-x,-y,1/2+z
x,1/2-y,-z
-x,1/2+y,1/2-z
-x,-y,-z
x,y,1/2-z
-x,1/2+y,z
x,1/2-y,1/2+z
loop_
_atom_site_type_symbol
_atom_site_label
_atom_site_fract_x
_atom_site_fract_y
_atom_site_fract_z
Si Si1 0.679444 0.381185 0.824249
Si Si2 0.023830 0.784135 0.250000
Si Si3 0.332835 0.320553 0.603080
Si Si4 0.971637 0.951598 0.100793
Si Si5 0.339735 0.447740 0.750000
Si Si6 0.329236 0.614010 0.473163
O O1 0.848125 0.282239 0.793162
O O2 0.496447 0.290123 0.855116
O O3 0.836576 0.480285 0.857040
O O4 0.504643 0.472851 0.792027
O O5 0.748696 0.722679 0.250000
O O6 0.093393 0.955160 0.250000
O O7 0.490703 0.301760 0.560214
O O8 0.247912 0.491064 0.603771
O O9 0.091950 0.219631 0.601706
O O10 0.858165 0.020583 0.056546
O O11 0.211884 0.750000 0.500000
O O12 0.500000 0.500000 0.500000
#
# Coordination Sequence:
#
# PCOD9439865 Si02
#       6
#     8   4   8   8   4   8
#     4  10  24  43  66  92 131 170 214 263 315 376
#     4  11  24  42  67  97 129 169 213 265 316 380
#     4  11  25  42  66  96 128 169 214 262 321 380
#     4  11  25  42  66  95 129 169 213 263 319 381
#     4  11  24  42  67  97 129 167 215 263 318 380
#     4  11  24  45  66  94 131 169 214 265 319 376
#
# _framework density 26.388190000000002
#
# number of rings (size 3 to 8) (size 9 to 14) (size 15 to 20)
#    0.000    1.200    2.000    2.400    2.800   12.800 
#    0.000    0.000    0.000    0.000    0.000    0.000 
#    0.000    0.000    0.000    0.000    0.000    0.000 
#
# Total GULP energy -224402.034989 kJ/mol
# GULP energy per Si atom -5610.050875 kJ/mol
# Density = 2.632813 g / cm^3
# Si number density = 26.388190 Si / 1000 Ang^3
#
#
#
# Elastic Constant Matrix: (Units=GPa)
#
#
# Indices 1 2 3 4 5 6 
#
# 1 44.3343 5.9775 22.3688 0.0000 0.0000 0.0000
# 2 5.9775 103.7333 38.7768 0.0000 0.0000 0.0000
# 3 22.3688 38.7768 157.9824 0.0000 0.0000 0.0000
# 4 0.0000 0.0000 0.0000 18.2459 0.0000 0.0000
# 5 0.0000 0.0000 0.0000 0.0000 32.6780 0.0000
# 6 0.0000 0.0000 0.0000 0.0000 0.0000 41.7262
#
#
#
# Elastic Compliance Matrix: (Units=1/GPa)
#
#
# Indices 1 2 3 4 5 6 
#
# 1 0.024293 -0.000126 -0.003409 0.000000 0.000000 0.000000
# 2 -0.000126 0.010615 -0.002588 0.000000 0.000000 0.000000
# 3 -0.003409 -0.002588 0.007448 0.000000 0.000000 0.000000
# 4 0.000000 0.000000 0.000000 0.054807 0.000000 0.000000
# 5 0.000000 0.000000 0.000000 0.000000 0.030602 0.000000
# 6 0.000000 0.000000 0.000000 0.000000 0.000000 0.023966
#
#
# Mechanical properties :
#
#
# Convention : Reuss Voigt Hill
#
# Bulk Modulus (GPa) = 33.21043 48.92181 41.06612
# Shear Modulus (GPa) = 28.73397 34.45848 31.59622
#
# Velocity S-wave (km/s) = 3.30342 3.61755 3.46405
# Velocity P-wave (km/s) = 5.21179 6.00237 5.62099
#
# Compressibility (1/GPa) = 0.03011102
#
# Stress axis : x y z
#
# Youngs Moduli (GPa) = 41.16454 94.20975 134.27159
#
# Poissons Ratio (x) = 0.01183 0.45771
# Poissons Ratio (y) = 0.00517 0.34744
# Poissons Ratio (z) = 0.14032 0.24377
#
# Static dielectric constant tensor:
#      x y z
#    x 1.993910 0.000000 0.000000 
#    y 0.000000 2.041730 0.000000 
#    z 0.000000 0.000000 2.009400 
# 
# From -- ./inp_files/27809.got.cif
#   From: 2010.05.17/outbox.cif.g08.bks.cpg/sg57_14_cif.got.tgz:27809.got - 2010.06.03 13:58:18.
