data_PCOD9439646
_publ_section_title
;
Structure prediction by ZEFSAII (Michael W. Deem and Ramdas Pophale) SiO2 
 PCOD9439646
Probable space group: P B C M
;
_chemical_formula_sum "Si O2"
_cell_formula_units_Z 28
_cell_length_a 8.656324
_cell_length_b 11.431786
_cell_length_c 13.722385
_cell_angle_alpha 90.000000
_cell_angle_beta 90.000000
_cell_angle_gamma 90.000000
_cell_volume 1357.929394
_symmetry_space_group_name_H-M "P B C M"
_symmetry_group_IT_number 57
_symmetry_cell_setting 'orthorhombic'
loop_
_space_group_symop_operation_xyz
x,y,z
-x,-y,1/2+z
x,1/2-y,-z
-x,1/2+y,1/2-z
-x,-y,-z
x,y,1/2-z
-x,1/2+y,z
x,1/2-y,1/2+z
loop_
_atom_site_type_symbol
_atom_site_label
_atom_site_fract_x
_atom_site_fract_y
_atom_site_fract_z
Si Si1 0.420143 0.329827 0.750000
Si Si2 0.232509 0.106272 0.750000
Si Si3 0.118435 0.946829 0.922077
Si Si4 0.441927 0.874942 0.541619
Si Si5 0.930980 0.833650 0.750000
O O1 0.382931 0.189789 0.750000
O O2 0.510780 0.368004 0.845247
O O3 0.245432 0.381001 0.750000
O O4 0.089029 0.195541 0.750000
O O5 0.209498 0.036331 0.849907
O O6 0.257563 0.878347 0.972434
O O7 0.019075 0.872448 0.846012
O O8 0.000000 0.000000 0.000000
O O9 0.503344 0.750000 0.500000
O O10 0.500000 0.000000 0.500000
#
# Coordination Sequence:
#
# PCOD9439646 Si02
#       5
#     4   4   8   8   4
#     4  10  22  46  67  93 141 182 229 293 352 423
#     4   9  22  41  68  89 137 178 230 280 370 397
#     4  11  23  42  65 102 136 176 239 290 344 423
#     4  12  27  44  71 105 140 188 238 289 360 425
#     4   9  22  39  67  92 124 186 221 281 354 396
#
# _framework density 20.619629
#
# number of rings (size 3 to 8) (size 9 to 14) (size 15 to 20)
#    0.857    0.571    0.000    5.143    4.000    1.143 
#    0.000    0.000    0.000    0.000    0.000    0.000 
#    0.000    0.000    0.000    0.000    0.000    0.000 
#
# Total GULP energy -156090.392175 kJ/mol
# GULP energy per Si atom -5574.656863 kJ/mol
# Density = 2.057270 g / cm^3
# Si number density = 20.619629 Si / 1000 Ang^3
#
#
#
# Elastic Constant Matrix: (Units=GPa)
#
#
# Indices 1 2 3 4 5 6 
#
# 1 101.8085 27.0349 15.1536 0.0000 0.0000 0.0000
# 2 27.0349 132.0115 56.5936 0.0000 0.0000 0.0000
# 3 15.1536 56.5936 108.7659 0.0000 0.0000 0.0000
# 4 0.0000 0.0000 0.0000 -2.1789 0.0000 0.0000
# 5 0.0000 0.0000 0.0000 0.0000 62.7280 0.0000
# 6 0.0000 0.0000 0.0000 0.0000 0.0000 40.4480
#
#
#
# Elastic Compliance Matrix: (Units=1/GPa)
#
#
# Indices 1 2 3 4 5 6 
#
# 1 0.010403 -0.001942 -0.000439 0.000000 0.000000 0.000000
# 2 -0.001942 0.010113 -0.004991 0.000000 0.000000 0.000000
# 3 -0.000439 -0.004991 0.011852 0.000000 0.000000 0.000000
# 4 0.000000 0.000000 0.000000 -0.458955 0.000000 0.000000
# 5 0.000000 0.000000 0.000000 0.000000 0.015942 0.000000
# 6 0.000000 0.000000 0.000000 0.000000 0.000000 0.024723
#
#
# Mechanical properties :
#
#
# Convention : Reuss Voigt Hill
#
# Bulk Modulus (GPa) = 56.74238 60.01669 58.37954
# Shear Modulus (GPa) = -13.68730 36.45301 11.38285
#
# Velocity S-wave (km/s) = -2.57923 4.20918 2.35210
# Velocity P-wave (km/s) = 4.32533 7.26586 5.97918
#
# Compressibility (1/GPa) = 0.01762351
#
# Stress axis : x y z
#
# Youngs Moduli (GPa) = 96.12170 98.88611 84.37224
#
# Poissons Ratio (x) = 0.19208 0.03702
# Poissons Ratio (y) = 0.18671 0.42112
# Poissons Ratio (z) = 0.04217 0.49356
#
# Static dielectric constant tensor:
#      x y z
#    x 1.753680 0.000000 0.000000 
#    y 0.000000 1.812430 0.000000 
#    z 0.000000 0.000000 6.625640 
# 
# From -- ./inp_files/11273.got.cif
#   From: 2010.05.17/outbox.cif.g08.bks.cpg/sg57_6_cif.got.tgz:11273.got - 2010.06.03 13:58:18.
