data_PCOD9439443
_publ_section_title
;
Structure prediction by ZEFSAII (Michael W. Deem and Ramdas Pophale) SiO2 
 PCOD9439443
Probable space group: P B C M
;
_chemical_formula_sum "Si O2"
_cell_formula_units_Z 32
_cell_length_a 17.767341
_cell_length_b 5.449438
_cell_length_c 13.987879
_cell_angle_alpha 90.000000
_cell_angle_beta 90.000000
_cell_angle_gamma 90.000000
_cell_volume 1354.334745
_symmetry_space_group_name_H-M "P B C M"
_symmetry_group_IT_number 57
_symmetry_cell_setting 'orthorhombic'
loop_
_space_group_symop_operation_xyz
x,y,z
-x,-y,1/2+z
x,1/2-y,-z
-x,1/2+y,1/2-z
-x,-y,-z
x,y,1/2-z
-x,1/2+y,z
x,1/2-y,1/2+z
loop_
_atom_site_type_symbol
_atom_site_label
_atom_site_fract_x
_atom_site_fract_y
_atom_site_fract_z
Si Si1 0.952973 0.084479 0.250000
Si Si2 0.458952 0.891172 0.866922
Si Si3 0.154333 0.615903 0.644707
Si Si4 0.712849 0.047087 0.137723
Si Si5 0.180132 0.250000 0.000000
O O1 0.897827 0.144508 0.160687
O O2 0.009847 0.319107 0.250000
O O3 0.459300 0.888047 0.750000
O O4 0.492903 0.629045 0.896739
O O5 0.372344 0.925772 0.896078
O O6 0.149956 0.494258 0.750000
O O7 0.239963 0.700951 0.629684
O O8 0.132108 0.448415 0.557536
O O9 0.711966 0.979609 0.250000
O O10 0.763314 0.863413 0.077762
#
# Coordination Sequence:
#
# PCOD9439443 Si02
#       5
#     4   8   8   8   4
#     4  10  24  46  76 104 136 174 218 270 342 406
#     4   9  19  36  60  91 129 175 227 282 340 393
#     4   9  23  41  69  96 133 176 219 272 332 401
#     4  10  22  40  65  95 132 179 231 281 334 399
#     4  12  22  38  66 100 132 172 238 276 326 398
#
# _framework density 23.627837
#
# number of rings (size 3 to 8) (size 9 to 14) (size 15 to 20)
#    0.750    1.500    0.000    1.500    7.000    0.000 
#    0.000    2.500    0.000    0.000    0.000    0.000 
#    0.000    0.000    0.000    0.000    0.000    0.000 
#
# Total GULP energy -178788.393264 kJ/mol
# GULP energy per Si atom -5587.137290 kJ/mol
# Density = 2.357406 g / cm^3
# Si number density = 23.627837 Si / 1000 Ang^3
#
#
#
# Elastic Constant Matrix: (Units=GPa)
#
#
# Indices 1 2 3 4 5 6 
#
# 1 98.9210 38.2498 -6.2193 0.0000 0.0000 0.0000
# 2 38.2498 100.3410 26.4622 0.0000 0.0000 0.0000
# 3 -6.2193 26.4622 75.9726 0.0000 0.0000 0.0000
# 4 0.0000 0.0000 0.0000 39.8607 0.0000 0.0000
# 5 0.0000 0.0000 0.0000 0.0000 -2.1525 0.0000
# 6 0.0000 0.0000 0.0000 0.0000 0.0000 26.1873
#
#
#
# Elastic Compliance Matrix: (Units=1/GPa)
#
#
# Indices 1 2 3 4 5 6 
#
# 1 0.012424 -0.005511 0.002937 0.000000 0.000000 0.000000
# 2 -0.005511 0.013418 -0.005125 0.000000 0.000000 0.000000
# 3 0.002937 -0.005125 0.015188 0.000000 0.000000 0.000000
# 4 0.000000 0.000000 0.000000 0.025087 0.000000 0.000000
# 5 0.000000 0.000000 0.000000 0.000000 -0.464566 0.000000
# 6 0.000000 0.000000 0.000000 0.000000 0.000000 0.038186
#
#
# Mechanical properties :
#
#
# Convention : Reuss Voigt Hill
#
# Bulk Modulus (GPa) = 39.01237 43.57999 41.29618
# Shear Modulus (GPa) = -14.86685 27.22855 6.18085
#
# Velocity S-wave (km/s) = -2.51113 3.39837 1.61913
# Velocity P-wave (km/s) = 2.85296 5.82091 4.58379
#
# Compressibility (1/GPa) = 0.02563290
#
# Stress axis : x y z
#
# Youngs Moduli (GPa) = 80.48616 74.52564 65.84106
#
# Poissons Ratio (x) = 0.41068 -0.19334
# Poissons Ratio (y) = 0.44353 0.33743
# Poissons Ratio (z) = -0.23635 0.38193
#
# Static dielectric constant tensor:
#      x y z
#    x 1.859020 0.000000 0.000000 
#    y 0.000000 1.950880 0.000000 
#    z 0.000000 0.000000 1.940540 
# 
# From -- ./inp_files/18806.got.cif
#   From: 2010.05.17/outbox.cif.g08.bks.cpg/sg57_10_cif.got.tgz:18806.got - 2010.06.03 13:58:18.
