data_PCOD9439323
_publ_section_title
;
Structure prediction by ZEFSAII (Michael W. Deem and Ramdas Pophale) SiO2 
 PCOD9439323
Probable space group: P B C M
;
_chemical_formula_sum "Si O2"
_cell_formula_units_Z 48
_cell_length_a 5.408446
_cell_length_b 12.211623
_cell_length_c 31.515422
_cell_angle_alpha 90.000000
_cell_angle_beta 90.000000
_cell_angle_gamma 90.000000
_cell_volume 2081.464522
_symmetry_space_group_name_H-M "P B C M"
_symmetry_group_IT_number 57
_symmetry_cell_setting 'orthorhombic'
loop_
_space_group_symop_operation_xyz
x,y,z
-x,-y,1/2+z
x,1/2-y,-z
-x,1/2+y,1/2-z
-x,-y,-z
x,y,1/2-z
-x,1/2+y,z
x,1/2-y,1/2+z
loop_
_atom_site_type_symbol
_atom_site_label
_atom_site_fract_x
_atom_site_fract_y
_atom_site_fract_z
Si Si1 0.468578 0.672094 0.660837
Si Si2 0.696519 0.597830 0.494690
Si Si3 0.194188 0.468083 0.646556
Si Si4 0.909052 0.504567 0.929282
Si Si5 0.030898 0.275005 0.699508
Si Si6 0.498553 0.818472 0.915307
O O1 0.414172 0.543279 0.663460
O O2 0.728376 0.709947 0.681086
O O3 0.449523 0.709848 0.611433
O O4 0.232228 0.729060 0.683393
O O5 0.500000 0.500000 0.500000
O O6 0.804935 0.604077 0.542173
O O7 0.574505 0.688879 0.464379
O O8 0.904779 0.551025 0.462841
O O9 0.059232 0.399586 0.682607
O O10 0.297352 0.378139 0.613772
O O11 0.023756 0.540621 0.615395
O O12 0.720992 0.407781 0.916686
O O13 0.039514 0.270022 0.750000
#
# Coordination Sequence:
#
# PCOD9439323 Si02
#       6
#     8   8   8   8   8   8
#     4  11  24  41  67  96 127 169 215 259 323 392
#     4   8  15  27  54  85 121 165 204 254 317 355
#     4  10  22  38  64  92 124 168 214 264 322 384
#     4   9  15  31  57  85 119 165 207 256 313 369
#     4  11  25  44  64  94 128 162 210 270 331 395
#     4   9  18  35  57  90 125 165 209 257 310 372
#
# _framework density 23.060684999999999
#
# number of rings (size 3 to 8) (size 9 to 14) (size 15 to 20)
#    0.000    2.333    1.667    0.500    2.333    1.333 
#    0.000    0.000    0.000   46.000    0.000    0.000 
#    0.000    0.000    0.000    0.000    0.000    0.000 
#
# Total GULP energy -267727.671643 kJ/mol
# GULP energy per Si atom -5577.659826 kJ/mol
# Density = 2.300820 g / cm^3
# Si number density = 23.060685 Si / 1000 Ang^3
#
#
#
# Elastic Constant Matrix: (Units=GPa)
#
#
# Indices 1 2 3 4 5 6 
#
# 1 85.0090 0.2465 41.6999 0.0000 0.0000 0.0000
# 2 0.2465 49.6674 23.8931 0.0000 0.0000 0.0000
# 3 41.6999 23.8931 141.9312 0.0000 0.0000 0.0000
# 4 0.0000 0.0000 0.0000 18.7929 0.0000 0.0000
# 5 0.0000 0.0000 0.0000 0.0000 36.2290 0.0000
# 6 0.0000 0.0000 0.0000 0.0000 0.0000 19.0895
#
#
#
# Elastic Compliance Matrix: (Units=1/GPa)
#
#
# Indices 1 2 3 4 5 6 
#
# 1 0.013937 0.002068 -0.004443 0.000000 0.000000 0.000000
# 2 0.002068 0.022215 -0.004347 0.000000 0.000000 0.000000
# 3 -0.004443 -0.004347 0.009083 0.000000 0.000000 0.000000
# 4 0.000000 0.000000 0.000000 0.053212 0.000000 0.000000
# 5 0.000000 0.000000 0.000000 0.000000 0.027602 0.000000
# 6 0.000000 0.000000 0.000000 0.000000 0.000000 0.052385
#
#
# Mechanical properties :
#
#
# Convention : Reuss Voigt Hill
#
# Bulk Modulus (GPa) = 31.45592 45.36519 38.41056
# Shear Modulus (GPa) = 24.69447 28.87348 26.78398
#
# Velocity S-wave (km/s) = 3.27593 3.54229 3.41171
# Velocity P-wave (km/s) = 5.28952 6.03699 5.67558
#
# Compressibility (1/GPa) = 0.03179052
#
# Stress axis : x y z
#
# Youngs Moduli (GPa) = 71.75233 45.01458 110.09775
#
# Poissons Ratio (x) = -0.09310 0.48915
# Poissons Ratio (y) = -0.14839 0.47863
# Poissons Ratio (z) = 0.31878 0.19569
#
# Static dielectric constant tensor:
#      x y z
#    x 1.935880 0.000000 0.000000 
#    y 0.000000 1.914080 0.000000 
#    z 0.000000 0.000000 1.980320 
# 
# From -- ./inp_files/29109.got.cif
#   From: 2010.05.17/outbox.cif.g08.bks.cpg/sg57_15_cif.got.tgz:29109.got - 2010.06.03 13:58:18.
