data_PCOD9439582
_publ_section_title
;
Structure prediction by ZEFSAII (Michael W. Deem and Ramdas Pophale) SiO2 
 PCOD9439582
Probable space group: P B C M
;
_chemical_formula_sum "Si O2"
_cell_formula_units_Z 36
_cell_length_a 11.646241
_cell_length_b 14.341829
_cell_length_c 10.918891
_cell_angle_alpha 90.000000
_cell_angle_beta 90.000000
_cell_angle_gamma 90.000000
_cell_volume 1823.764860
_symmetry_space_group_name_H-M "P B C M"
_symmetry_group_IT_number 57
_symmetry_cell_setting 'orthorhombic'
loop_
_space_group_symop_operation_xyz
x,y,z
-x,-y,1/2+z
x,1/2-y,-z
-x,1/2+y,1/2-z
-x,-y,-z
x,y,1/2-z
-x,1/2+y,z
x,1/2-y,1/2+z
loop_
_atom_site_type_symbol
_atom_site_label
_atom_site_fract_x
_atom_site_fract_y
_atom_site_fract_z
Si Si1 0.240414 0.613056 0.750000
Si Si2 0.357515 0.028563 0.611784
Si Si3 0.099491 0.067523 0.250000
Si Si4 0.837402 0.646921 0.504348
Si Si5 0.579659 0.144174 0.962344
Si Si6 0.018895 0.380870 0.250000
O O1 0.210631 0.502133 0.750000
O O2 0.315001 0.640144 0.632612
O O3 0.112445 0.656137 0.750000
O O4 0.315305 0.034330 0.750000
O O5 0.259776 0.069872 0.524966
O O6 0.469596 0.093464 0.597247
O O7 0.388858 0.923527 0.575146
O O8 0.101489 0.125305 0.375328
O O9 0.996229 0.993373 0.250000
O O10 0.784355 0.750000 0.500000
O O11 0.918818 0.645338 0.623820
O O12 0.555915 0.250000 0.000000
#
# Coordination Sequence:
#
# PCOD9439582 Si02
#       6
#     4   8   4   8   8   4
#     4  10  22  43  64  90 131 166 213 266 325 371
#     4  11  23  41  66  96 130 169 213 268 322 385
#     4  10  23  41  63  91 136 173 200 280 318 369
#     4  12  23  42  66 101 130 171 220 267 325 384
#     4  11  24  43  65  95 128 170 215 262 325 388
#     4  10  23  42  67  91 129 173 223 266 323 378
#
# _framework density 19.739387000000001
#
# number of rings (size 3 to 8) (size 9 to 14) (size 15 to 20)
#    0.667    0.444    4.444    2.000    1.556    0.889 
#    0.000    2.222    0.000    0.000    0.000    0.000 
#    0.000    0.000    0.000    0.000    0.000    0.000 
#
# Total GULP energy -200885.397689 kJ/mol
# GULP energy per Si atom -5580.149936 kJ/mol
# Density = 1.969446 g / cm^3
# Si number density = 19.739387 Si / 1000 Ang^3
#
#
#
# Elastic Constant Matrix: (Units=GPa)
#
#
# Indices 1 2 3 4 5 6 
#
# 1 75.9744 4.2970 21.3738 0.0000 0.0000 0.0000
# 2 4.2970 132.3168 29.6656 0.0000 0.0000 0.0000
# 3 21.3738 29.6656 124.7647 0.0000 0.0000 0.0000
# 4 0.0000 0.0000 0.0000 -15.3447 0.0000 0.0000
# 5 0.0000 0.0000 0.0000 0.0000 7.3122 0.0000
# 6 0.0000 0.0000 0.0000 0.0000 0.0000 3.6524
#
#
#
# Elastic Compliance Matrix: (Units=1/GPa)
#
#
# Indices 1 2 3 4 5 6 
#
# 1 0.013830 0.000087 -0.002390 0.000000 0.000000 0.000000
# 2 0.000087 0.007984 -0.001913 0.000000 0.000000 0.000000
# 3 -0.002390 -0.001913 0.008879 0.000000 0.000000 0.000000
# 4 0.000000 0.000000 0.000000 -0.065169 0.000000 0.000000
# 5 0.000000 0.000000 0.000000 0.000000 0.136758 0.000000
# 6 0.000000 0.000000 0.000000 0.000000 0.000000 0.273791
#
#
# Mechanical properties :
#
#
# Convention : Reuss Voigt Hill
#
# Bulk Modulus (GPa) = 44.92308 49.30319 47.11313
# Shear Modulus (GPa) = 12.75753 17.63862 15.19808
#
# Velocity S-wave (km/s) = 2.54500 2.99252 2.77778
# Velocity P-wave (km/s) = 5.60745 6.08042 5.84872
#
# Compressibility (1/GPa) = 0.02226027
#
# Stress axis : x y z
#
# Youngs Moduli (GPa) = 72.30782 125.25464 112.62034
#
# Poissons Ratio (x) = -0.01086 0.26914
# Poissons Ratio (y) = -0.00627 0.21546
# Poissons Ratio (z) = 0.17280 0.23963
#
# Static dielectric constant tensor:
#      x y z
#    x 1.674500 0.000000 0.000000 
#    y 0.000000 1.680500 0.000000 
#    z 0.000000 0.000000 1.678640 
# 
# From -- ./inp_files/12572.got.cif
#   From: 2010.05.17/outbox.cif.g08.bks.cpg/sg57_7_cif.got.tgz:12572.got - 2010.06.03 13:58:18.
