data_PCOD9439591
_publ_section_title
;
Structure prediction by ZEFSAII (Michael W. Deem and Ramdas Pophale) SiO2 
 PCOD9439591
Probable space group: P B C M
;
_chemical_formula_sum "Si O2"
_cell_formula_units_Z 64
_cell_length_a 11.776287
_cell_length_b 11.186446
_cell_length_c 23.530079
_cell_angle_alpha 90.000000
_cell_angle_beta 90.000000
_cell_angle_gamma 90.000000
_cell_volume 3099.730218
_symmetry_space_group_name_H-M "P B C M"
_symmetry_group_IT_number 57
_symmetry_cell_setting 'orthorhombic'
loop_
_space_group_symop_operation_xyz
x,y,z
-x,-y,1/2+z
x,1/2-y,-z
-x,1/2+y,1/2-z
-x,-y,-z
x,y,1/2-z
-x,1/2+y,z
x,1/2-y,1/2+z
loop_
_atom_site_type_symbol
_atom_site_label
_atom_site_fract_x
_atom_site_fract_y
_atom_site_fract_z
Si Si1 0.843423 0.084793 0.185813
Si Si2 0.339522 0.438513 0.384085
Si Si3 0.450298 0.978013 0.184547
Si Si4 0.698473 0.715861 0.314871
Si Si5 0.774076 0.346327 0.158231
Si Si6 0.090737 0.083082 0.315823
Si Si7 0.901534 0.133410 0.541449
Si Si8 0.841914 0.885861 0.023806
O O1 0.851030 0.037568 0.250000
O O2 0.804763 0.221413 0.186122
O O3 0.967541 0.080081 0.157568
O O4 0.753979 0.009014 0.151840
O O5 0.459036 0.496626 0.366058
O O6 0.356422 0.310227 0.355516
O O7 0.274613 0.419549 0.443273
O O8 0.494880 0.956905 0.250000
O O9 0.357687 0.877196 0.168361
O O10 0.376546 0.097990 0.187816
O O11 0.711386 0.759880 0.250000
O O12 0.820965 0.678471 0.339886
O O13 0.848209 0.455510 0.183046
O O14 0.816987 0.341300 0.093480
O O15 0.075128 0.118399 0.250000
O O16 0.893048 0.250000 0.500000
O O17 0.036154 0.124004 0.556968
O O18 0.866244 0.002294 0.516504
O O19 0.826968 0.750000 0.000000
#
# Coordination Sequence:
#
# PCOD9439591 Si02
#       8
#     8   8   8   8   8   8   8   8
#     4  11  23  35  58  96 130 161 208 267 319 398
#     4  12  24  40  64  92 125 171 222 260 322 386
#     4  10  23  42  63  91 128 173 216 260 316 390
#     4   9  20  38  60  87 126 167 208 256 317 393
#     4  11  22  39  65  87 125 172 214 256 331 391
#     4   9  20  35  55  88 126 160 200 255 323 392
#     4  10  22  43  66  94 131 168 215 282 343 395
#     4  10  24  42  67  98 129 165 223 285 336 389
#
# _framework density 20.646958000000001
#
# number of rings (size 3 to 8) (size 9 to 14) (size 15 to 20)
#    0.000    1.750    0.000    4.500    8.750    1.000 
#    0.000    1.250    0.000    0.000    0.000    0.000 
#    0.000    0.000    0.000    0.000    0.000    0.000 
#
# Total GULP energy -356708.418016 kJ/mol
# GULP energy per Si atom -5573.569031 kJ/mol
# Density = 2.059996 g / cm^3
# Si number density = 20.646958 Si / 1000 Ang^3
#
#
#
# Elastic Constant Matrix: (Units=GPa)
#
#
# Indices 1 2 3 4 5 6 
#
# 1 100.4734 -0.0573 23.4909 0.0000 0.0000 0.0000
# 2 -0.0573 51.9410 11.9057 0.0000 0.0000 0.0000
# 3 23.4909 11.9057 52.6022 0.0000 0.0000 0.0000
# 4 0.0000 0.0000 0.0000 29.0015 0.0000 0.0000
# 5 0.0000 0.0000 0.0000 0.0000 30.2254 0.0000
# 6 0.0000 0.0000 0.0000 0.0000 0.0000 16.0705
#
#
#
# Elastic Compliance Matrix: (Units=1/GPa)
#
#
# Indices 1 2 3 4 5 6 
#
# 1 0.011186 0.001221 -0.005272 0.000000 0.000000 0.000000
# 2 0.001221 0.020439 -0.005171 0.000000 0.000000 0.000000
# 3 -0.005272 -0.005171 0.022535 0.000000 0.000000 0.000000
# 4 0.000000 0.000000 0.000000 0.034481 0.000000 0.000000
# 5 0.000000 0.000000 0.000000 0.000000 0.033085 0.000000
# 6 0.000000 0.000000 0.000000 0.000000 0.000000 0.062226
#
#
# Mechanical properties :
#
#
# Convention : Reuss Voigt Hill
#
# Bulk Modulus (GPa) = 27.99856 30.63279 29.31568
# Shear Modulus (GPa) = 23.33154 26.37131 24.85142
#
# Velocity S-wave (km/s) = 3.36523 3.57774 3.47311
# Velocity P-wave (km/s) = 5.35628 5.65116 5.50570
#
# Compressibility (1/GPa) = 0.03571612
#
# Stress axis : x y z
#
# Youngs Moduli (GPa) = 89.39644 48.92543 44.37482
#
# Poissons Ratio (x) = -0.05972 0.23393
# Poissons Ratio (y) = -0.10913 0.22947
# Poissons Ratio (z) = 0.47128 0.25301
#
# Static dielectric constant tensor:
#      x y z
#    x 1.797800 0.000000 0.000000 
#    y 0.000000 1.744820 0.000000 
#    z 0.000000 0.000000 1.784260 
# 
# From -- ./inp_files/27287.got.cif
#   From: 2010.05.17/outbox.cif.g08.bks.cpg/sg57_14_cif.got.tgz:27287.got - 2010.06.03 13:58:18.
