data_PCOD9439739
_publ_section_title
;
Structure prediction by ZEFSAII (Michael W. Deem and Ramdas Pophale) SiO2 
 PCOD9439739
Probable space group: P B C M
;
_chemical_formula_sum "Si O2"
_cell_formula_units_Z 40
_cell_length_a 7.469866
_cell_length_b 11.966320
_cell_length_c 20.910690
_cell_angle_alpha 90.000000
_cell_angle_beta 90.000000
_cell_angle_gamma 90.000000
_cell_volume 1869.139809
_symmetry_space_group_name_H-M "P B C M"
_symmetry_group_IT_number 57
_symmetry_cell_setting 'orthorhombic'
loop_
_space_group_symop_operation_xyz
x,y,z
-x,-y,1/2+z
x,1/2-y,-z
-x,1/2+y,1/2-z
-x,-y,-z
x,y,1/2-z
-x,1/2+y,z
x,1/2-y,1/2+z
loop_
_atom_site_type_symbol
_atom_site_label
_atom_site_fract_x
_atom_site_fract_y
_atom_site_fract_z
Si Si1 0.217422 0.516444 0.131978
Si Si2 0.156693 0.114579 0.177153
Si Si3 0.104504 0.294158 0.069065
Si Si4 0.437254 0.587053 0.820496
Si Si5 0.318448 0.753714 0.572031
O O1 0.160995 0.420266 0.082512
O O2 0.364395 0.462501 0.177549
O O3 0.308740 0.619826 0.096156
O O4 0.040094 0.561462 0.166668
O O5 0.173392 0.156928 0.250000
O O6 0.173875 0.212276 0.125053
O O7 0.299829 0.015417 0.168419
O O8 0.888164 0.287973 0.070546
O O9 0.162353 0.250000 0.000000
O O10 0.396971 0.635225 0.750000
O O11 0.416584 0.676579 0.876626
O O12 0.390454 0.750000 0.500000
#
# Coordination Sequence:
#
# PCOD9439739 Si02
#       5
#     8   8   8   8   8
#     4  11  24  43  67  96 131 178 220 272 332 391
#     4  10  23  43  65  93 130 174 221 275 330 386
#     4  10  23  42  70  98 133 177 222 272 326 397
#     4  11  25  43  65  96 132 172 224 276 327 392
#     4  10  24  43  69 100 134 176 221 275 328 396
#
# _framework density 21.400219
#
# number of rings (size 3 to 8) (size 9 to 14) (size 15 to 20)
#    0.000    1.600    2.000    0.600    5.600    9.600 
#    0.000    0.000    0.000    0.000    0.000    0.000 
#    0.000    0.000    0.000    0.000    0.000    0.000 
#
# Total GULP energy -223803.874231 kJ/mol
# GULP energy per Si atom -5595.096856 kJ/mol
# Density = 2.135151 g / cm^3
# Si number density = 21.400219 Si / 1000 Ang^3
#
#
#
# Elastic Constant Matrix: (Units=GPa)
#
#
# Indices 1 2 3 4 5 6 
#
# 1 65.5510 28.5378 35.9538 0.0000 0.0000 0.0000
# 2 28.5378 99.8671 55.8587 0.0000 0.0000 0.0000
# 3 35.9538 55.8587 135.7701 0.0000 0.0000 0.0000
# 4 0.0000 0.0000 0.0000 2.2246 0.0000 0.0000
# 5 0.0000 0.0000 0.0000 0.0000 -41.2983 0.0000
# 6 0.0000 0.0000 0.0000 0.0000 0.0000 48.6713
#
#
#
# Elastic Compliance Matrix: (Units=1/GPa)
#
#
# Indices 1 2 3 4 5 6 
#
# 1 0.018666 -0.003337 -0.003570 0.000000 0.000000 0.000000
# 2 -0.003337 0.013603 -0.004713 0.000000 0.000000 0.000000
# 3 -0.003570 -0.004713 0.010250 0.000000 0.000000 0.000000
# 4 0.000000 0.000000 0.000000 0.449522 0.000000 0.000000
# 5 0.000000 0.000000 0.000000 0.000000 -0.024214 0.000000
# 6 0.000000 0.000000 0.000000 0.000000 0.000000 0.020546
#
#
# Mechanical properties :
#
#
# Convention : Reuss Voigt Hill
#
# Bulk Modulus (GPa) = 51.87041 60.20987 56.04014
# Shear Modulus (GPa) = 9.65179 13.97538 11.81358
#
# Velocity S-wave (km/s) = 2.12601 2.55825 2.35208
# Velocity P-wave (km/s) = 5.50613 6.07639 5.79827
#
# Compressibility (1/GPa) = 0.01927882
#
# Stress axis : x y z
#
# Youngs Moduli (GPa) = 53.57252 73.51355 97.56328
#
# Poissons Ratio (x) = 0.24533 0.34831
# Poissons Ratio (y) = 0.17878 0.45980
# Poissons Ratio (z) = 0.19126 0.34646
#
# Static dielectric constant tensor:
#      x y z
#    x 1.786060 0.000000 0.000000 
#    y 0.000000 1.726800 0.000000 
#    z 0.000000 0.000000 1.748140 
# 
# From -- ./inp_files/24123.got.cif
#   From: 2010.05.17/outbox.cif.g08.bks.cpg/sg57_13_cif.got.tgz:24123.got - 2010.06.03 13:58:18.
