data_PCOD9439009
_publ_section_title
;
Structure prediction by ZEFSAII (Michael W. Deem and Ramdas Pophale) SiO2 
 PCOD9439009
Probable space group: P B C M
;
_chemical_formula_sum "Si O2"
_cell_formula_units_Z 40
_cell_length_a 6.162133
_cell_length_b 14.453381
_cell_length_c 20.947171
_cell_angle_alpha 90.000000
_cell_angle_beta 90.000000
_cell_angle_gamma 90.000000
_cell_volume 1865.631633
_symmetry_space_group_name_H-M "P B C M"
_symmetry_group_IT_number 57
_symmetry_cell_setting 'orthorhombic'
loop_
_space_group_symop_operation_xyz
x,y,z
-x,-y,1/2+z
x,1/2-y,-z
-x,1/2+y,1/2-z
-x,-y,-z
x,y,1/2-z
-x,1/2+y,z
x,1/2-y,1/2+z
loop_
_atom_site_type_symbol
_atom_site_label
_atom_site_fract_x
_atom_site_fract_y
_atom_site_fract_z
Si Si1 0.390694 0.733217 0.180031
Si Si2 0.672360 0.714836 0.564712
Si Si3 0.657439 0.509941 0.560674
Si Si4 0.985401 0.366007 0.610669
Si Si5 0.360533 0.039121 0.178507
O O1 0.385514 0.777366 0.250000
O O2 0.501794 0.787668 0.122539
O O3 0.538645 0.641697 0.184343
O O4 0.157416 0.695432 0.158912
O O5 0.558643 0.750000 0.500000
O O6 0.763275 0.611468 0.556947
O O7 0.853065 0.793304 0.577508
O O8 0.500000 0.500000 0.500000
O O9 0.512446 0.506304 0.625090
O O10 0.824959 0.424894 0.565672
O O11 0.123516 0.442535 0.649408
O O12 0.357685 0.998930 0.250000
#
# Coordination Sequence:
#
# PCOD9439009 Si02
#       5
#     8   8   8   8   8
#     4   9  19  38  62  88 122 160 200 251 305 360
#     4  11  24  40  61  90 123 163 208 255 309 369
#     4  11  24  42  62  90 128 165 205 258 315 371
#     4  10  21  39  65  92 122 162 209 255 307 370
#     4   9  19  37  61  89 122 160 202 251 307 364
#
# _framework density 21.440460000000002
#
# number of rings (size 3 to 8) (size 9 to 14) (size 15 to 20)
#    0.000    2.000    0.000    4.200    0.000    9.600 
#    0.000    0.000    0.000    0.000    0.000    0.000 
#    0.000    0.000    0.000    0.000    0.000    0.000 
#
# Total GULP energy -223204.323146 kJ/mol
# GULP energy per Si atom -5580.108079 kJ/mol
# Density = 2.139166 g / cm^3
# Si number density = 21.440460 Si / 1000 Ang^3
#
#
#
# Elastic Constant Matrix: (Units=GPa)
#
#
# Indices 1 2 3 4 5 6 
#
# 1 70.1823 17.0045 27.3247 0.0000 0.0000 0.0000
# 2 17.0045 106.8609 40.3476 0.0000 0.0000 0.0000
# 3 27.3247 40.3476 128.8721 0.0000 0.0000 0.0000
# 4 0.0000 0.0000 0.0000 19.5917 0.0000 0.0000
# 5 0.0000 0.0000 0.0000 0.0000 0.0183 0.0000
# 6 0.0000 0.0000 0.0000 0.0000 0.0000 22.1160
#
#
#
# Elastic Compliance Matrix: (Units=1/GPa)
#
#
# Indices 1 2 3 4 5 6 
#
# 1 0.015716 -0.001409 -0.002891 0.000000 0.000000 0.000000
# 2 -0.001409 0.010739 -0.003063 0.000000 0.000000 0.000000
# 3 -0.002891 -0.003063 0.009332 0.000000 0.000000 0.000000
# 4 0.000000 0.000000 0.000000 0.051042 0.000000 0.000000
# 5 0.000000 0.000000 0.000000 0.000000 54.546113 0.000000
# 6 0.000000 0.000000 0.000000 0.000000 0.000000 0.045216
#
#
# Mechanical properties :
#
#
# Convention : Reuss Voigt Hill
#
# Bulk Modulus (GPa) = 47.48555 52.80766 50.14660
# Shear Modulus (GPa) = 0.09141 23.09445 11.59293
#
# Velocity S-wave (km/s) = 0.20670 3.28555 2.32783
# Velocity P-wave (km/s) = 4.71728 6.25112 5.53756
#
# Compressibility (1/GPa) = 0.02105904
#
# Stress axis : x y z
#
# Youngs Moduli (GPa) = 63.63101 93.11996 107.16179
#
# Poissons Ratio (x) = 0.13123 0.30980
# Poissons Ratio (y) = 0.08967 0.32827
# Poissons Ratio (z) = 0.18396 0.28526
#
# Static dielectric constant tensor:
#      x y z
#    x 1.782150 0.000000 0.000000 
#    y 0.000000 1.799610 0.000000 
#    z 0.000000 0.000000 1.818510 
# 
# From -- ./inp_files/26101.got.cif
#   From: 2010.05.17/outbox.cif.g08.bks.cpg/sg57_14_cif.got.tgz:26101.got - 2010.06.03 13:58:18.
