data_PCOD9439778
_publ_section_title
;
Structure prediction by ZEFSAII (Michael W. Deem and Ramdas Pophale) SiO2 
 PCOD9439778
Probable space group: P B C M
;
_chemical_formula_sum "Si O2"
_cell_formula_units_Z 40
_cell_length_a 14.660830
_cell_length_b 5.448978
_cell_length_c 21.898449
_cell_angle_alpha 90.000000
_cell_angle_beta 90.000000
_cell_angle_gamma 90.000000
_cell_volume 1749.391325
_symmetry_space_group_name_H-M "P B C M"
_symmetry_group_IT_number 57
_symmetry_cell_setting 'orthorhombic'
loop_
_space_group_symop_operation_xyz
x,y,z
-x,-y,1/2+z
x,1/2-y,-z
-x,1/2+y,1/2-z
-x,-y,-z
x,y,1/2-z
-x,1/2+y,z
x,1/2-y,1/2+z
loop_
_atom_site_type_symbol
_atom_site_label
_atom_site_fract_x
_atom_site_fract_y
_atom_site_fract_z
Si Si1 0.148405 0.136614 0.144850
Si Si2 0.942672 0.366950 0.250000
Si Si3 0.556509 0.721776 0.250000
Si Si4 0.917456 0.928570 0.454805
Si Si5 0.702577 0.983449 0.184223
Si Si6 0.750179 0.272711 0.431046
O O1 0.115875 0.924756 0.189682
O O2 0.067396 0.264112 0.105614
O O3 0.200612 0.346679 0.181347
O O4 0.224216 0.032338 0.098461
O O5 0.986504 0.098745 0.250000
O O6 0.514328 0.451691 0.250000
O O7 0.623490 0.780331 0.193039
O O8 0.862054 0.750000 0.500000
O O9 0.850994 0.146142 0.436649
O O10 0.000000 0.000000 0.500000
O O11 0.698255 0.122872 0.250000
O O12 0.694926 0.133986 0.122086
O O13 0.712777 0.250000 0.500000
#
# Coordination Sequence:
#
# PCOD9439778 Si02
#       6
#     8   4   4   8   8   8
#     4  11  25  43  62  87 132 178 242 285 362 418
#     4  12  31  43  60  88 124 176 226 304 363 410
#     4  10  23  43  76 120 148 176 226 282 351 426
#     4  11  24  38  57  85 120 173 238 306 357 401
#     4   9  23  41  71 101 134 182 221 285 340 430
#     4  11  23  41  65  92 129 180 236 288 348 420
#
# _framework density 22.865095
#
# number of rings (size 3 to 8) (size 9 to 14) (size 15 to 20)
#    0.600    0.800    3.000    0.600   12.600    0.000 
#    0.000    0.000    0.000    1.200    0.000    0.000 
#    0.000    0.000    0.000    0.000    0.000    0.000 
#
# Total GULP energy -223090.279816 kJ/mol
# GULP energy per Si atom -5577.256995 kJ/mol
# Density = 2.281305 g / cm^3
# Si number density = 22.865095 Si / 1000 Ang^3
#
#
#
# Elastic Constant Matrix: (Units=GPa)
#
#
# Indices 1 2 3 4 5 6 
#
# 1 53.1222 12.7315 24.0906 0.0000 0.0000 0.0000
# 2 12.7315 60.3701 25.1412 0.0000 0.0000 0.0000
# 3 24.0906 25.1412 168.6795 0.0000 0.0000 0.0000
# 4 0.0000 0.0000 0.0000 35.4405 0.0000 0.0000
# 5 0.0000 0.0000 0.0000 0.0000 18.7238 0.0000
# 6 0.0000 0.0000 0.0000 0.0000 0.0000 33.4047
#
#
#
# Elastic Compliance Matrix: (Units=1/GPa)
#
#
# Indices 1 2 3 4 5 6 
#
# 1 0.020744 -0.003349 -0.002464 0.000000 0.000000 0.000000
# 2 -0.003349 0.018201 -0.002235 0.000000 0.000000 0.000000
# 3 -0.002464 -0.002235 0.006613 0.000000 0.000000 0.000000
# 4 0.000000 0.000000 0.000000 0.028216 0.000000 0.000000
# 5 0.000000 0.000000 0.000000 0.000000 0.053408 0.000000
# 6 0.000000 0.000000 0.000000 0.000000 0.000000 0.029936
#
#
# Mechanical properties :
#
#
# Convention : Reuss Voigt Hill
#
# Bulk Modulus (GPa) = 33.93855 45.12205 39.53030
# Shear Modulus (GPa) = 27.31722 32.19435 29.75579
#
# Velocity S-wave (km/s) = 3.46021 3.75642 3.61135
# Velocity P-wave (km/s) = 5.55331 6.21218 5.89196
#
# Compressibility (1/GPa) = 0.02946502
#
# Stress axis : x y z
#
# Youngs Moduli (GPa) = 48.20601 54.94106 151.21043
#
# Poissons Ratio (x) = 0.18399 0.37251
# Poissons Ratio (y) = 0.16143 0.33789
# Poissons Ratio (z) = 0.11876 0.12277
#
# Static dielectric constant tensor:
#      x y z
#    x 1.868940 0.000000 0.000000 
#    y 0.000000 2.020290 0.000000 
#    z 0.000000 0.000000 1.960040 
# 
# From -- ./inp_files/25534.got.cif
#   From: 2010.05.17/outbox.cif.g08.bks.cpg/sg57_13_cif.got.tgz:25534.got - 2010.06.03 13:58:18.
