data_PCOD9439196
_publ_section_title
;
Structure prediction by ZEFSAII (Michael W. Deem and Ramdas Pophale) SiO2 
 PCOD9439196
Probable space group: P B C M
;
_chemical_formula_sum "Si O2"
_cell_formula_units_Z 60
_cell_length_a 12.010058
_cell_length_b 7.810537
_cell_length_c 26.182342
_cell_angle_alpha 90.000000
_cell_angle_beta 90.000000
_cell_angle_gamma 90.000000
_cell_volume 2456.034654
_symmetry_space_group_name_H-M "P B C M"
_symmetry_group_IT_number 57
_symmetry_cell_setting 'orthorhombic'
loop_
_space_group_symop_operation_xyz
x,y,z
-x,-y,1/2+z
x,1/2-y,-z
-x,1/2+y,1/2-z
-x,-y,-z
x,y,1/2-z
-x,1/2+y,z
x,1/2-y,1/2+z
loop_
_atom_site_type_symbol
_atom_site_label
_atom_site_fract_x
_atom_site_fract_y
_atom_site_fract_z
Si Si1 0.331422 0.041438 0.460165
Si Si2 0.896328 0.078611 0.528667
Si Si3 0.649704 0.917938 0.427816
Si Si4 0.089071 0.675797 0.854464
Si Si5 0.841650 0.931421 0.155800
Si Si6 0.323654 0.096702 0.750000
Si Si7 0.673026 0.430557 0.349072
Si Si8 0.462755 0.591156 0.165892
O O1 0.364703 0.988971 0.517255
O O2 0.379060 0.222723 0.442148
O O3 0.198962 0.062896 0.468655
O O4 0.335220 0.918988 0.411002
O O5 0.856168 0.250000 0.500000
O O6 0.922693 0.135177 0.585695
O O7 0.000000 0.000000 0.500000
O O8 0.768365 0.908564 0.396822
O O9 0.568240 0.008638 0.388473
O O10 0.196112 0.563304 0.835714
O O11 0.962527 0.654316 0.837230
O O12 0.131661 0.866321 0.844494
O O13 0.768578 0.881723 0.204187
O O14 0.415419 0.037773 0.793085
O O15 0.609523 0.263058 0.328507
O O16 0.596951 0.588927 0.330567
#
# Coordination Sequence:
#
# PCOD9439196 Si02
#       8
#     8   8   8   8   8   4   8   8
#     4  10  23  37  64 100 141 186 232 271 344 418
#     4  11  23  34  57  97 140 189 231 265 331 410
#     4  10  21  42  65 100 145 187 230 282 339 418
#     4  11  23  42  68 101 140 182 221 288 341 419
#     4  11  24  44  72  99 144 181 230 293 355 417
#     4  10  24  50  74 100 130 188 228 296 370 414
#     4  11  24  44  69 104 135 181 232 286 344 419
#     4  11  24  47  75  95 139 177 237 303 350 412
#
# _framework density 24.429622999999999
#
# number of rings (size 3 to 8) (size 9 to 14) (size 15 to 20)
#    0.000    1.333    2.667    3.200    9.333    1.600 
#    0.000    0.000    0.000    3.200    0.000    0.000 
#    0.000    0.000    0.000    0.000    0.000    0.000 
#
# Total GULP energy -334212.508210 kJ/mol
# GULP energy per Si atom -5570.208470 kJ/mol
# Density = 2.437402 g / cm^3
# Si number density = 24.429623 Si / 1000 Ang^3
#
#
#
# Elastic Constant Matrix: (Units=GPa)
#
#
# Indices 1 2 3 4 5 6 
#
# 1 177.2847 24.0672 44.1175 0.0000 0.0000 0.0000
# 2 24.0672 60.7493 7.1107 0.0000 0.0000 0.0000
# 3 44.1175 7.1107 51.3901 0.0000 0.0000 0.0000
# 4 0.0000 0.0000 0.0000 -6.8815 0.0000 0.0000
# 5 0.0000 0.0000 0.0000 0.0000 9.1531 0.0000
# 6 0.0000 0.0000 0.0000 0.0000 0.0000 34.1432
#
#
#
# Elastic Compliance Matrix: (Units=1/GPa)
#
#
# Indices 1 2 3 4 5 6 
#
# 1 0.007462 -0.002243 -0.006096 0.000000 0.000000 0.000000
# 2 -0.002243 0.017406 -0.000483 0.000000 0.000000 0.000000
# 3 -0.006096 -0.000483 0.024759 0.000000 0.000000 0.000000
# 4 0.000000 0.000000 0.000000 -0.145317 0.000000 0.000000
# 5 0.000000 0.000000 0.000000 0.000000 0.109252 0.000000
# 6 0.000000 0.000000 0.000000 0.000000 0.000000 0.029288
#
#
# Mechanical properties :
#
#
# Convention : Reuss Voigt Hill
#
# Bulk Modulus (GPa) = 31.26559 48.89053 40.07806
# Shear Modulus (GPa) = 70.26881 21.55822 45.91351
#
# Velocity S-wave (km/s) = 5.36901 2.97385 4.33993
# Velocity P-wave (km/s) = 7.15968 5.64340 6.44627
#
# Compressibility (1/GPa) = 0.03198404
#
# Stress axis : x y z
#
# Youngs Moduli (GPa) = 134.01174 57.45097 40.38949
#
# Poissons Ratio (x) = 0.12885 0.24620
# Poissons Ratio (y) = 0.30055 0.01951
# Poissons Ratio (z) = 0.81690 0.02775
#
# Static dielectric constant tensor:
#      x y z
#    x 2.023700 0.000000 0.000000 
#    y 0.000000 2.044450 0.000000 
#    z 0.000000 0.000000 1.951860 
# 
# From -- ./inp_files/28625.got.cif
#   From: 2010.05.17/outbox.cif.g08.bks.cpg/sg57_15_cif.got.tgz:28625.got - 2010.06.03 13:58:18.
