data_PCOD9439346
_publ_section_title
;
Structure prediction by ZEFSAII (Michael W. Deem and Ramdas Pophale) SiO2 
 PCOD9439346
Probable space group: P B C M
;
_chemical_formula_sum "Si O2"
_cell_formula_units_Z 64
_cell_length_a 5.148227
_cell_length_b 27.952970
_cell_length_c 20.264172
_cell_angle_alpha 90.000000
_cell_angle_beta 90.000000
_cell_angle_gamma 90.000000
_cell_volume 2916.181224
_symmetry_space_group_name_H-M "P B C M"
_symmetry_group_IT_number 57
_symmetry_cell_setting 'orthorhombic'
loop_
_space_group_symop_operation_xyz
x,y,z
-x,-y,1/2+z
x,1/2-y,-z
-x,1/2+y,1/2-z
-x,-y,-z
x,y,1/2-z
-x,1/2+y,z
x,1/2-y,1/2+z
loop_
_atom_site_type_symbol
_atom_site_label
_atom_site_fract_x
_atom_site_fract_y
_atom_site_fract_z
Si Si1 0.240758 0.992857 0.587906
Si Si2 0.417000 0.202567 0.563785
Si Si3 0.242628 0.621452 0.618092
Si Si4 0.712302 0.284980 0.880214
Si Si5 0.727832 0.483472 0.328655
Si Si6 0.972856 0.789597 0.180202
Si Si7 0.079729 0.077600 0.001238
Si Si8 0.230018 0.333167 0.573713
O O1 0.143614 0.948855 0.543533
O O2 0.006860 0.003686 0.639645
O O3 0.247998 0.037310 0.536180
O O4 0.505215 0.989755 0.629063
O O5 0.520449 0.150884 0.586937
O O6 0.648483 0.240772 0.570024
O O7 0.214710 0.219202 0.618878
O O8 0.294627 0.196290 0.492764
O O9 0.314352 0.572954 0.655570
O O10 0.106165 0.659473 0.666331
O O11 0.056213 0.608052 0.556858
O O12 0.819691 0.253349 0.820507
O O13 0.943487 0.318969 0.903849
O O14 0.454240 0.317040 0.875844
O O15 0.716610 0.492025 0.250000
O O16 0.831644 0.790895 0.250000
O O17 0.233343 0.112132 0.050376
#
# Coordination Sequence:
#
# PCOD9439346 Si02
#       8
#     8   8   8   8   8   8   8   8
#     4  10  24  42  66  97 132 173 207 268 347 389
#     4  11  23  37  63  93 132 168 204 264 320 379
#     4  10  22  39  60 102 129 171 209 260 326 394
#     4  11  26  39  61  92 126 169 213 259 313 367
#     4  11  23  41  65  94 131 172 219 258 312 403
#     4  11  24  43  61  91 135 178 213 256 319 392
#     4  10  22  42  66  98 136 162 214 277 337 395
#     4  12  23  38  64  93 126 160 217 269 316 369
#
# _framework density 21.94651
#
# number of rings (size 3 to 8) (size 9 to 14) (size 15 to 20)
#    0.000    1.250    2.500    2.625    5.250   10.000 
#    0.000    0.000    0.000    4.500    0.000    0.000 
#    0.000    0.000    0.000    0.000    0.000    0.000 
#
# Total GULP energy -357786.941445 kJ/mol
# GULP energy per Si atom -5590.420960 kJ/mol
# Density = 2.189656 g / cm^3
# Si number density = 21.946510 Si / 1000 Ang^3
#
#
#
# Elastic Constant Matrix: (Units=GPa)
#
#
# Indices 1 2 3 4 5 6 
#
# 1 84.4221 18.0361 8.9432 0.0000 0.0000 0.0000
# 2 18.0361 68.7736 17.6543 0.0000 0.0000 0.0000
# 3 8.9432 17.6543 82.4332 0.0000 0.0000 0.0000
# 4 0.0000 0.0000 0.0000 6.9024 0.0000 0.0000
# 5 0.0000 0.0000 0.0000 0.0000 16.2284 0.0000
# 6 0.0000 0.0000 0.0000 0.0000 0.0000 25.6513
#
#
#
# Elastic Compliance Matrix: (Units=1/GPa)
#
#
# Indices 1 2 3 4 5 6 
#
# 1 0.012586 -0.003122 -0.000697 0.000000 0.000000 0.000000
# 2 -0.003122 0.016161 -0.003122 0.000000 0.000000 0.000000
# 3 -0.000697 -0.003122 0.012875 0.000000 0.000000 0.000000
# 4 0.000000 0.000000 0.000000 0.144876 0.000000 0.000000
# 5 0.000000 0.000000 0.000000 0.000000 0.061620 0.000000
# 6 0.000000 0.000000 0.000000 0.000000 0.000000 0.038984
#
#
# Mechanical properties :
#
#
# Convention : Reuss Voigt Hill
#
# Bulk Modulus (GPa) = 36.04914 36.09956 36.07435
# Shear Modulus (GPa) = 16.11697 22.48944 19.30321
#
# Velocity S-wave (km/s) = 2.71288 3.20463 2.96895
# Velocity P-wave (km/s) = 5.12587 5.49340 5.31281
#
# Compressibility (1/GPa) = 0.02773991
#
# Stress axis : x y z
#
# Youngs Moduli (GPa) = 79.45323 61.87850 77.66786
#
# Poissons Ratio (x) = 0.19318 0.05412
# Poissons Ratio (y) = 0.24804 0.24251
# Poissons Ratio (z) = 0.05537 0.19321
#
# Static dielectric constant tensor:
#      x y z
#    x 1.853440 0.000000 0.000000 
#    y 0.000000 1.843560 0.000000 
#    z 0.000000 0.000000 1.788580 
# 
# From -- ./inp_files/23865.got.cif
#   From: 2010.05.17/outbox.cif.g08.bks.cpg/sg57_12_cif.got.tgz:23865.got - 2010.06.03 13:58:18.
