data_PCOD9439787
_publ_section_title
;
Structure prediction by ZEFSAII (Michael W. Deem and Ramdas Pophale) SiO2 
 PCOD9439787
Probable space group: P B C M
;
_chemical_formula_sum "Si O2"
_cell_formula_units_Z 48
_cell_length_a 11.854975
_cell_length_b 12.050236
_cell_length_c 16.494181
_cell_angle_alpha 90.000000
_cell_angle_beta 90.000000
_cell_angle_gamma 90.000000
_cell_volume 2356.280293
_symmetry_space_group_name_H-M "P B C M"
_symmetry_group_IT_number 57
_symmetry_cell_setting 'orthorhombic'
loop_
_space_group_symop_operation_xyz
x,y,z
-x,-y,1/2+z
x,1/2-y,-z
-x,1/2+y,1/2-z
-x,-y,-z
x,y,1/2-z
-x,1/2+y,z
x,1/2-y,1/2+z
loop_
_atom_site_type_symbol
_atom_site_label
_atom_site_fract_x
_atom_site_fract_y
_atom_site_fract_z
Si Si1 0.667137 0.205131 0.343159
Si Si2 0.421934 0.118329 0.153678
Si Si3 0.266331 0.935390 0.085016
Si Si4 0.176062 0.521079 0.095385
Si Si5 0.934646 0.570248 0.155944
Si Si6 0.780548 0.765717 0.097204
O O1 0.654675 0.243327 0.250000
O O2 0.547144 0.154957 0.369943
O O3 0.705228 0.308863 0.396667
O O4 0.758619 0.108020 0.348656
O O5 0.420339 0.094668 0.250000
O O6 0.334259 0.217007 0.134569
O O7 0.373688 0.012372 0.105993
O O8 0.164593 0.981067 0.141004
O O9 0.223767 0.956577 0.994384
O O10 0.200818 0.393771 0.116886
O O11 0.043215 0.542901 0.102459
O O12 0.966734 0.570871 0.250000
O O13 0.880215 0.687754 0.130879
O O14 0.776551 0.750000 0.000000
#
# Coordination Sequence:
#
# PCOD9439787 Si02
#       6
#     8   8   8   8   8   8
#     4  11  26  43  67 101 137 177 225 277 331 395
#     4  10  23  44  69  96 131 181 226 270 332 399
#     4  11  23  46  69  97 136 178 222 278 337 399
#     4  12  26  43  68 103 133 171 227 278 332 399
#     4  11  25  44  69  97 133 181 223 274 341 401
#     4  11  23  43  70  97 133 172 221 276 336 398
#
# _framework density 20.371092000000001
#
# number of rings (size 3 to 8) (size 9 to 14) (size 15 to 20)
#    0.000    1.000    3.333    4.500    4.667    4.667 
#    0.000    0.000    0.000    0.000    0.000    0.000 
#    0.000    0.000    0.000    0.000    0.000    0.000 
#
# Total GULP energy -268553.214214 kJ/mol
# GULP energy per Si atom -5594.858629 kJ/mol
# Density = 2.032473 g / cm^3
# Si number density = 20.371092 Si / 1000 Ang^3
#
#
#
# Elastic Constant Matrix: (Units=GPa)
#
#
# Indices 1 2 3 4 5 6 
#
# 1 96.6352 61.2679 2.0736 0.0000 0.0000 0.0000
# 2 61.2679 130.9559 9.8057 0.0000 0.0000 0.0000
# 3 2.0736 9.8057 74.4238 0.0000 0.0000 0.0000
# 4 0.0000 0.0000 0.0000 40.8702 0.0000 0.0000
# 5 0.0000 0.0000 0.0000 0.0000 26.1567 0.0000
# 6 0.0000 0.0000 0.0000 0.0000 0.0000 6.5026
#
#
#
# Elastic Compliance Matrix: (Units=1/GPa)
#
#
# Indices 1 2 3 4 5 6 
#
# 1 0.014731 -0.006929 0.000503 0.000000 0.000000 0.000000
# 2 -0.006929 0.010972 -0.001253 0.000000 0.000000 0.000000
# 3 0.000503 -0.001253 0.013588 0.000000 0.000000 0.000000
# 4 0.000000 0.000000 0.000000 0.024468 0.000000 0.000000
# 5 0.000000 0.000000 0.000000 0.000000 0.038231 0.000000
# 6 0.000000 0.000000 0.000000 0.000000 0.000000 0.153784
#
#
# Mechanical properties :
#
#
# Convention : Reuss Voigt Hill
#
# Bulk Modulus (GPa) = 41.78606 49.81214 45.79910
# Shear Modulus (GPa) = 17.91413 29.96374 23.93894
#
# Velocity S-wave (km/s) = 2.96867 3.83939 3.43175
# Velocity P-wave (km/s) = 5.68398 6.64530 6.18335
#
# Compressibility (1/GPa) = 0.02393143
#
# Stress axis : x y z
#
# Youngs Moduli (GPa) = 67.88513 91.14194 73.59655
#
# Poissons Ratio (x) = 0.63156 -0.03699
# Poissons Ratio (y) = 0.47041 0.09218
# Poissons Ratio (z) = -0.03412 0.11416
#
# Static dielectric constant tensor:
#      x y z
#    x 1.693210 0.000000 0.000000 
#    y 0.000000 1.691510 0.000000 
#    z 0.000000 0.000000 1.744240 
# 
# From -- ./inp_files/21827.got.cif
#   From: 2010.05.17/outbox.cif.g08.bks.cpg/sg57_11_cif.got.tgz:21827.got - 2010.06.03 13:58:18.
