data_PCOD9439847
_publ_section_title
;
Structure prediction by ZEFSAII (Michael W. Deem and Ramdas Pophale) SiO2 
 PCOD9439847
Probable space group: P B C M
;
_chemical_formula_sum "Si O2"
_cell_formula_units_Z 64
_cell_length_a 14.618057
_cell_length_b 8.947618
_cell_length_c 24.328827
_cell_angle_alpha 90.000000
_cell_angle_beta 90.000000
_cell_angle_gamma 90.000000
_cell_volume 3182.132475
_symmetry_space_group_name_H-M "P B C M"
_symmetry_group_IT_number 57
_symmetry_cell_setting 'orthorhombic'
loop_
_space_group_symop_operation_xyz
x,y,z
-x,-y,1/2+z
x,1/2-y,-z
-x,1/2+y,1/2-z
-x,-y,-z
x,y,1/2-z
-x,1/2+y,z
x,1/2-y,1/2+z
loop_
_atom_site_type_symbol
_atom_site_label
_atom_site_fract_x
_atom_site_fract_y
_atom_site_fract_z
Si Si1 0.776976 0.925921 0.009703
Si Si2 0.584443 0.012089 0.644796
Si Si3 0.112030 0.482790 0.901453
Si Si4 0.594312 0.422440 0.016021
Si Si5 0.916591 0.629379 0.894021
Si Si6 0.599385 0.828341 0.183240
Si Si7 0.234066 0.650577 0.813848
Si Si8 0.782314 0.494248 0.684320
O O1 0.827966 0.992989 0.956596
O O2 0.680310 0.006058 0.015512
O O3 0.759730 0.750000 0.000000
O O4 0.846520 0.933667 0.060276
O O5 0.604904 0.049502 0.581244
O O6 0.485215 0.072585 0.662186
O O7 0.662045 0.095698 0.679818
O O8 0.591906 0.835957 0.657083
O O9 0.088911 0.308134 0.894194
O O10 0.171041 0.545983 0.851183
O O11 0.018221 0.573963 0.905638
O O12 0.589561 0.250000 0.000000
O O13 0.500000 0.500000 0.000000
O O14 0.875367 0.564875 0.837947
O O15 0.595869 0.817045 0.250000
O O16 0.694967 0.906544 0.166821
O O17 0.206937 0.642695 0.750000
O O18 0.226932 0.822081 0.833441
O O19 0.781323 0.494147 0.750000
#
# Coordination Sequence:
#
# PCOD9439847 Si02
#       8
#     8   8   8   8   8   8   8   8
#     4  10  24  44  68  96 131 170 218 270 326 392
#     4  12  24  41  66  94 133 173 222 268 328 395
#     4  11  23  44  64 102 127 170 218 272 331 388
#     4  12  27  43  65  98 135 177 217 269 327 389
#     4  11  24  40  71  91 132 169 215 272 326 397
#     4  11  23  40  65  96 132 172 219 270 324 391
#     4  11  23  42  66  94 132 170 217 273 328 394
#     4  10  24  42  64  97 131 171 217 268 329 391
#
# _framework density 20.112297999999999
#
# number of rings (size 3 to 8) (size 9 to 14) (size 15 to 20)
#    0.000    1.000    1.250    4.875    5.250    4.000 
#    0.000    0.000    0.000    0.000    0.000    0.000 
#    0.000    0.000    0.000    0.000    0.000    0.000 
#
# Total GULP energy -358151.271407 kJ/mol
# GULP energy per Si atom -5596.113616 kJ/mol
# Density = 2.006652 g / cm^3
# Si number density = 20.112298 Si / 1000 Ang^3
#
#
#
# Elastic Constant Matrix: (Units=GPa)
#
#
# Indices 1 2 3 4 5 6 
#
# 1 100.7639 34.1855 0.8295 0.0000 0.0000 0.0000
# 2 34.1855 88.1700 28.2828 0.0000 0.0000 0.0000
# 3 0.8295 28.2828 57.6448 0.0000 0.0000 0.0000
# 4 0.0000 0.0000 0.0000 30.1326 0.0000 0.0000
# 5 0.0000 0.0000 0.0000 0.0000 16.7248 0.0000
# 6 0.0000 0.0000 0.0000 0.0000 0.0000 42.9240
#
#
#
# Elastic Compliance Matrix: (Units=1/GPa)
#
#
# Indices 1 2 3 4 5 6 
#
# 1 0.011710 -0.005324 0.002444 0.000000 0.000000 0.000000
# 2 -0.005324 0.015881 -0.007715 0.000000 0.000000 0.000000
# 3 0.002444 -0.007715 0.021098 0.000000 0.000000 0.000000
# 4 0.000000 0.000000 0.000000 0.033187 0.000000 0.000000
# 5 0.000000 0.000000 0.000000 0.000000 0.059791 0.000000
# 6 0.000000 0.000000 0.000000 0.000000 0.000000 0.023297
#
#
# Mechanical properties :
#
#
# Convention : Reuss Voigt Hill
#
# Bulk Modulus (GPa) = 36.36658 41.46381 38.91519
# Shear Modulus (GPa) = 25.59882 30.17502 27.88692
#
# Velocity S-wave (km/s) = 3.57149 3.87761 3.72769
# Velocity P-wave (km/s) = 5.92693 6.38034 6.15781
#
# Compressibility (1/GPa) = 0.02749777
#
# Stress axis : x y z
#
# Youngs Moduli (GPa) = 85.39409 62.96867 47.39829
#
# Poissons Ratio (x) = 0.33526 -0.11583
# Poissons Ratio (y) = 0.45466 0.36569
# Poissons Ratio (z) = -0.20869 0.48581
#
# Static dielectric constant tensor:
#      x y z
#    x 1.667280 0.000000 0.000000 
#    y 0.000000 1.679780 0.000000 
#    z 0.000000 0.000000 1.732260 
# 
# From -- ./inp_files/27510.got.cif
#   From: 2010.05.17/outbox.cif.g08.bks.cpg/sg57_14_cif.got.tgz:27510.got - 2010.06.03 13:58:18.
