data_PCOD9439681
_publ_section_title
;
Structure prediction by ZEFSAII (Michael W. Deem and Ramdas Pophale) SiO2 
 PCOD9439681
Probable space group: P B C M
;
_chemical_formula_sum "Si O2"
_cell_formula_units_Z 60
_cell_length_a 11.789529
_cell_length_b 8.309229
_cell_length_c 27.707207
_cell_angle_alpha 90.000000
_cell_angle_beta 90.000000
_cell_angle_gamma 90.000000
_cell_volume 2714.250538
_symmetry_space_group_name_H-M "P B C M"
_symmetry_group_IT_number 57
_symmetry_cell_setting 'orthorhombic'
loop_
_space_group_symop_operation_xyz
x,y,z
-x,-y,1/2+z
x,1/2-y,-z
-x,1/2+y,1/2-z
-x,-y,-z
x,y,1/2-z
-x,1/2+y,z
x,1/2-y,1/2+z
loop_
_atom_site_type_symbol
_atom_site_label
_atom_site_fract_x
_atom_site_fract_y
_atom_site_fract_z
Si Si1 0.435081 0.046607 0.636681
Si Si2 0.486574 0.196639 0.068886
Si Si3 0.025423 0.385229 0.307355
Si Si4 0.246076 0.094564 0.466853
Si Si5 0.843355 0.909433 0.641548
Si Si6 0.696243 0.250000 0.500000
Si Si7 0.651373 0.424016 0.194936
Si Si8 0.755944 0.429771 0.696184
O O1 0.437186 0.132182 0.584765
O O2 0.523609 0.098385 0.677250
O O3 0.484699 0.876142 0.620555
O O4 0.310825 0.033274 0.657229
O O5 0.383061 0.108763 0.042554
O O6 0.605899 0.214475 0.042524
O O7 0.997768 0.355424 0.250000
O O8 0.096864 0.241652 0.332085
O O9 0.111478 0.537939 0.307674
O O10 0.921053 0.440344 0.340583
O O11 0.216829 0.250000 0.500000
O O12 0.178372 0.104557 0.415901
O O13 0.234276 0.913946 0.488961
O O14 0.719764 0.948228 0.663167
O O15 0.654855 0.476788 0.250000
O O16 0.715542 0.252973 0.190994
O O17 0.722017 0.483096 0.750000
#
# Coordination Sequence:
#
# PCOD9439681 Si02
#       8
#     8   8   8   8   8   4   8   8
#     4  12  22  37  60  98 141 181 228 276 348 427
#     4  12  21  39  64  96 137 185 236 285 342 428
#     4  11  24  45  75 103 135 182 237 294 356 437
#     4  12  26  47  73 109 143 187 246 306 369 433
#     4  12  25  48  71 104 135 179 240 302 362 437
#     4  12  24  44  72 102 148 190 234 300 364 430
#     4  11  22  38  61  94 141 185 228 286 352 430
#     4  10  23  40  61  96 140 187 230 279 344 420
#
# _framework density 22.105550000000001
#
# number of rings (size 3 to 8) (size 9 to 14) (size 15 to 20)
#    0.000    0.533    4.667    4.400    0.000    1.067 
#    2.400    0.667    0.000    0.000    0.000    0.000 
#    0.000    0.000    0.000    0.000    0.000    0.000 
#
# Total GULP energy -334998.450577 kJ/mol
# GULP energy per Si atom -5583.307510 kJ/mol
# Density = 2.205524 g / cm^3
# Si number density = 22.105550 Si / 1000 Ang^3
#
#
#
# Elastic Constant Matrix: (Units=GPa)
#
#
# Indices 1 2 3 4 5 6 
#
# 1 66.6656 15.4878 36.9190 0.0000 0.0000 0.0000
# 2 15.4878 74.5044 56.5799 0.0000 0.0000 0.0000
# 3 36.9190 56.5799 138.7515 0.0000 0.0000 0.0000
# 4 0.0000 0.0000 0.0000 37.2599 0.0000 0.0000
# 5 0.0000 0.0000 0.0000 0.0000 33.1184 0.0000
# 6 0.0000 0.0000 0.0000 0.0000 0.0000 -11.9302
#
#
#
# Elastic Compliance Matrix: (Units=1/GPa)
#
#
# Indices 1 2 3 4 5 6 
#
# 1 0.017594 -0.000148 -0.004621 0.000000 0.000000 0.000000
# 2 -0.000148 0.019444 -0.007890 0.000000 0.000000 0.000000
# 3 -0.004621 -0.007890 0.011654 0.000000 0.000000 0.000000
# 4 0.000000 0.000000 0.000000 0.026838 0.000000 0.000000
# 5 0.000000 0.000000 0.000000 0.000000 0.030195 0.000000
# 6 0.000000 0.000000 0.000000 0.000000 0.000000 -0.083821
#
#
# Mechanical properties :
#
#
# Convention : Reuss Voigt Hill
#
# Bulk Modulus (GPa) = 42.78141 55.32164 49.05153
# Shear Modulus (GPa) = 90.88728 23.08527 56.98628
#
# Velocity S-wave (km/s) = 6.41907 3.23510 5.08283
# Velocity P-wave (km/s) = 8.62174 6.24780 7.52892
#
# Compressibility (1/GPa) = 0.02337464
#
# Stress axis : x y z
#
# Youngs Moduli (GPa) = 56.83852 51.42901 85.80847
#
# Poissons Ratio (x) = 0.00762 0.39652
# Poissons Ratio (y) = 0.00842 0.67699
# Poissons Ratio (z) = 0.26265 0.40575
#
# Static dielectric constant tensor:
#      x y z
#    x 1.786580 0.000000 0.000000 
#    y 0.000000 2.115580 0.000000 
#    z 0.000000 0.000000 1.922740 
# 
# From -- ./inp_files/28633.got.cif
#   From: 2010.05.17/outbox.cif.g08.bks.cpg/sg57_15_cif.got.tgz:28633.got - 2010.06.03 13:58:18.
