data_PCOD9439987
_publ_section_title
;
Structure prediction by ZEFSAII (Michael W. Deem and Ramdas Pophale) SiO2 
 PCOD9439987
Probable space group: P B C M
;
_chemical_formula_sum "Si O2"
_cell_formula_units_Z 40
_cell_length_a 11.393448
_cell_length_b 19.851252
_cell_length_c 10.296808
_cell_angle_alpha 90.000000
_cell_angle_beta 90.000000
_cell_angle_gamma 90.000000
_cell_volume 2328.872388
_symmetry_space_group_name_H-M "P B C M"
_symmetry_group_IT_number 57
_symmetry_cell_setting 'orthorhombic'
loop_
_space_group_symop_operation_xyz
x,y,z
-x,-y,1/2+z
x,1/2-y,-z
-x,1/2+y,1/2-z
-x,-y,-z
x,y,1/2-z
-x,1/2+y,z
x,1/2-y,1/2+z
loop_
_atom_site_type_symbol
_atom_site_label
_atom_site_fract_x
_atom_site_fract_y
_atom_site_fract_z
Si Si1 0.329995 0.444103 0.491965
Si Si2 0.905302 0.392879 0.250000
Si Si3 0.577005 0.407932 0.592118
Si Si4 0.082986 0.906308 0.750000
Si Si5 0.176773 0.046567 0.250000
Si Si6 0.200201 0.829949 0.509432
Si Si7 0.831455 0.936010 0.250000
O O1 0.449660 0.404750 0.525082
O O2 0.368994 0.519779 0.450698
O O3 0.253891 0.443473 0.622286
O O4 0.247478 0.420211 0.375191
O O5 0.865165 0.469864 0.250000
O O6 0.850677 0.359244 0.123441
O O7 0.046605 0.395527 0.250000
O O8 0.569312 0.405804 0.750000
O O9 0.666086 0.352198 0.538395
O O10 0.128768 0.865971 0.625273
O O11 0.942589 0.910845 0.750000
O O12 0.134708 0.983307 0.750000
O O13 0.189468 0.750000 0.500000
#
# Coordination Sequence:
#
# PCOD9439987 Si02
#       7
#     8   4   8   4   4   8   4
#     4  11  20  34  58  89 119 149 184 240 300 351
#     4  11  23  35  57  95 115 146 202 236 293 347
#     4  11  21  36  57  86 122 152 190 234 296 343
#     4  11  21  39  57  85 121 158 190 234 311 339
#     4  11  20  34  60  88 119 150 189 249 294 354
#     4  12  23  39  59  82 120 156 199 237 279 355
#     4  11  20  38  60  86 127 144 181 259 298 346
#
# _framework density 17.175694
#
# number of rings (size 3 to 8) (size 9 to 14) (size 15 to 20)
#    0.000    0.800    7.000    1.800    0.000    4.000 
#    0.000    0.000    0.000    7.200    0.000    0.000 
#    0.000    0.000    0.000    0.000    0.000    0.000 
#
# Total GULP energy -223341.249759 kJ/mol
# GULP energy per Si atom -5583.531244 kJ/mol
# Density = 1.713660 g / cm^3
# Si number density = 17.175694 Si / 1000 Ang^3
#
#
#
# Elastic Constant Matrix: (Units=GPa)
#
#
# Indices 1 2 3 4 5 6 
#
# 1 164.3348 40.7505 88.2442 0.0000 0.0000 0.0000
# 2 40.7505 70.5362 38.6526 0.0000 0.0000 0.0000
# 3 88.2442 38.6526 186.1263 0.0000 0.0000 0.0000
# 4 0.0000 0.0000 0.0000 -13.5860 0.0000 0.0000
# 5 0.0000 0.0000 0.0000 0.0000 49.8554 0.0000
# 6 0.0000 0.0000 0.0000 0.0000 0.0000 15.4867
#
#
#
# Elastic Compliance Matrix: (Units=1/GPa)
#
#
# Indices 1 2 3 4 5 6 
#
# 1 0.008737 -0.003134 -0.003491 0.000000 0.000000 0.000000
# 2 -0.003134 0.017122 -0.002070 0.000000 0.000000 0.000000
# 3 -0.003491 -0.002070 0.007458 0.000000 0.000000 0.000000
# 4 0.000000 0.000000 0.000000 -0.073605 0.000000 0.000000
# 5 0.000000 0.000000 0.000000 0.000000 0.020058 0.000000
# 6 0.000000 0.000000 0.000000 0.000000 0.000000 0.064571
#
#
# Mechanical properties :
#
#
# Convention : Reuss Voigt Hill
#
# Bulk Modulus (GPa) = 62.79033 84.03242 73.41137
# Shear Modulus (GPa) = 74.58096 27.24123 50.91109
#
# Velocity S-wave (km/s) = 6.59672 3.98682 5.45029
# Velocity P-wave (km/s) = 9.72930 8.38000 9.07975
#
# Compressibility (1/GPa) = 0.01592602
#
# Stress axis : x y z
#
# Youngs Moduli (GPa) = 114.45253 58.40406 134.08704
#
# Poissons Ratio (x) = 0.18306 0.46816
# Poissons Ratio (y) = 0.35875 0.27751
# Poissons Ratio (z) = 0.39961 0.12088
#
# Static dielectric constant tensor:
#      x y z
#    x 1.598180 0.000000 0.000000 
#    y 0.000000 1.550640 0.000000 
#    z 0.000000 0.000000 1.505630 
# 
# From -- ./inp_files/2743.got.cif
#   From: 2010.05.17/outbox.cif.g08.bks.cpg/sg57_2_cif.got.tgz:2743.got - 2010.06.03 13:58:18.
