data_PCOD9439704
_publ_section_title
;
Structure prediction by ZEFSAII (Michael W. Deem and Ramdas Pophale) SiO2 
 PCOD9439704
Probable space group: P B C M
;
_chemical_formula_sum "Si O2"
_cell_formula_units_Z 56
_cell_length_a 11.798489
_cell_length_b 12.634585
_cell_length_c 18.984007
_cell_angle_alpha 90.000000
_cell_angle_beta 90.000000
_cell_angle_gamma 90.000000
_cell_volume 2829.927170
_symmetry_space_group_name_H-M "P B C M"
_symmetry_group_IT_number 57
_symmetry_cell_setting 'orthorhombic'
loop_
_space_group_symop_operation_xyz
x,y,z
-x,-y,1/2+z
x,1/2-y,-z
-x,1/2+y,1/2-z
-x,-y,-z
x,y,1/2-z
-x,1/2+y,z
x,1/2-y,1/2+z
loop_
_atom_site_type_symbol
_atom_site_label
_atom_site_fract_x
_atom_site_fract_y
_atom_site_fract_z
Si Si1 0.030594 0.868463 0.830826
Si Si2 0.795608 0.275917 0.081727
Si Si3 0.986288 0.062433 0.927652
Si Si4 0.605810 0.322922 0.666665
Si Si5 0.655354 0.563552 0.671079
Si Si6 0.407049 0.252686 0.080530
Si Si7 0.163816 0.219048 0.877120
O O1 0.070271 0.871295 0.750000
O O2 0.913705 0.801616 0.835807
O O3 0.119093 0.807358 0.880852
O O4 0.010376 0.983179 0.863634
O O5 0.863117 0.386046 0.082357
O O6 0.681844 0.263530 0.126579
O O7 0.775218 0.250000 0.000000
O O8 0.078134 0.156988 0.928096
O O9 0.000000 0.000000 0.000000
O O10 0.599702 0.303511 0.750000
O O11 0.659950 0.439502 0.655764
O O12 0.483105 0.319904 0.630376
O O13 0.608397 0.576104 0.750000
O O14 0.584924 0.629173 0.613526
O O15 0.774948 0.625869 0.667601
O O16 0.272733 0.226806 0.086568
O O17 0.443320 0.250000 0.000000
#
# Coordination Sequence:
#
# PCOD9439704 Si02
#       7
#     8   8   8   8   8   8   8
#     4  11  23  39  63  95 127 166 216 263 319 388
#     4  11  23  40  63  90 130 168 212 265 323 380
#     4  11  23  39  65  94 132 171 208 265 325 384
#     4  11  23  42  64  91 127 168 221 268 320 384
#     4   9  20  39  63  88 121 168 207 256 320 380
#     4  10  23  41  65  93 124 164 212 266 319 385
#     4   9  23  40  63  91 128 166 209 260 320 386
#
# _framework density 19.788495000000001
#
# number of rings (size 3 to 8) (size 9 to 14) (size 15 to 20)
#    0.857    0.857    1.429    2.571    2.000    5.143 
#    2.571    0.000    0.000    0.000    0.000    0.000 
#    0.000    0.000    0.000    0.000    0.000    0.000 
#
# Total GULP energy -312244.429019 kJ/mol
# GULP energy per Si atom -5575.793375 kJ/mol
# Density = 1.974346 g / cm^3
# Si number density = 19.788495 Si / 1000 Ang^3
#
#
#
# Elastic Constant Matrix: (Units=GPa)
#
#
# Indices 1 2 3 4 5 6 
#
# 1 79.3782 22.5780 28.6504 0.0000 0.0000 0.0000
# 2 22.5780 59.2213 32.8550 0.0000 0.0000 0.0000
# 3 28.6504 32.8550 142.7166 0.0000 0.0000 0.0000
# 4 0.0000 0.0000 0.0000 31.6160 0.0000 0.0000
# 5 0.0000 0.0000 0.0000 0.0000 20.4072 0.0000
# 6 0.0000 0.0000 0.0000 0.0000 0.0000 26.9450
#
#
#
# Elastic Compliance Matrix: (Units=1/GPa)
#
#
# Indices 1 2 3 4 5 6 
#
# 1 0.014560 -0.004505 -0.001886 0.000000 0.000000 0.000000
# 2 -0.004505 0.020752 -0.003873 0.000000 0.000000 0.000000
# 3 -0.001886 -0.003873 0.008277 0.000000 0.000000 0.000000
# 4 0.000000 0.000000 0.000000 0.031630 0.000000 0.000000
# 5 0.000000 0.000000 0.000000 0.000000 0.049002 0.000000
# 6 0.000000 0.000000 0.000000 0.000000 0.000000 0.037113
#
#
# Mechanical properties :
#
#
# Convention : Reuss Voigt Hill
#
# Bulk Modulus (GPa) = 43.36182 49.94253 46.65218
# Shear Modulus (GPa) = 26.37859 28.94250 27.66054
#
# Velocity S-wave (km/s) = 3.65502 3.82853 3.74278
# Velocity P-wave (km/s) = 6.30654 6.69601 6.50419
#
# Compressibility (1/GPa) = 0.02306176
#
# Stress axis : x y z
#
# Youngs Moduli (GPa) = 68.68189 48.18843 120.81542
#
# Poissons Ratio (x) = 0.21707 0.22784
# Poissons Ratio (y) = 0.30939 0.46792
# Poissons Ratio (z) = 0.12953 0.18663
#
# Static dielectric constant tensor:
#      x y z
#    x 1.740350 0.000000 0.000000 
#    y 0.000000 1.685830 0.000000 
#    z 0.000000 0.000000 1.675470 
# 
# From -- ./inp_files/25058.got.cif
#   From: 2010.05.17/outbox.cif.g08.bks.cpg/sg57_13_cif.got.tgz:25058.got - 2010.06.03 13:58:18.
