data_PCOD9439384
_publ_section_title
;
Structure prediction by ZEFSAII (Michael W. Deem and Ramdas Pophale) SiO2 
 PCOD9439384
Probable space group: P B C M
;
_chemical_formula_sum "Si O2"
_cell_formula_units_Z 56
_cell_length_a 5.078939
_cell_length_b 27.663610
_cell_length_c 17.021912
_cell_angle_alpha 90.000000
_cell_angle_beta 90.000000
_cell_angle_gamma 90.000000
_cell_volume 2391.609066
_symmetry_space_group_name_H-M "P B C M"
_symmetry_group_IT_number 57
_symmetry_cell_setting 'orthorhombic'
loop_
_space_group_symop_operation_xyz
x,y,z
-x,-y,1/2+z
x,1/2-y,-z
-x,1/2+y,1/2-z
-x,-y,-z
x,y,1/2-z
-x,1/2+y,z
x,1/2-y,1/2+z
loop_
_atom_site_type_symbol
_atom_site_label
_atom_site_fract_x
_atom_site_fract_y
_atom_site_fract_z
Si Si1 0.376565 0.703519 0.558156
Si Si2 0.630986 0.490970 0.339452
Si Si3 0.118106 0.036040 0.933721
Si Si4 0.856927 0.715232 0.840022
Si Si5 0.382569 0.587868 0.334996
Si Si6 0.244274 0.172943 0.164784
Si Si7 0.933322 0.121522 0.029582
O O1 0.407850 0.750000 0.500000
O O2 0.647073 0.690749 0.602285
O O3 0.272747 0.656767 0.512060
O O4 0.145149 0.715540 0.621000
O O5 0.563021 0.477217 0.250000
O O6 0.408501 0.474451 0.401266
O O7 0.619690 0.549639 0.342846
O O8 0.911876 0.470457 0.362885
O O9 0.096966 0.089595 0.969254
O O10 0.000000 0.000000 0.000000
O O11 0.864898 0.697381 0.750000
O O12 0.743266 0.769869 0.837931
O O13 0.259400 0.576490 0.250000
O O14 0.487542 0.642586 0.334442
O O15 0.206142 0.584169 0.410888
O O16 0.116440 0.161086 0.250000
O O17 0.099566 0.154873 0.087847
#
# Coordination Sequence:
#
# PCOD9439384 Si02
#       7
#     8   8   8   8   8   8   8
#     4  12  25  44  69 102 136 173 226 277 338 397
#     4  11  25  47  69  97 138 185 226 277 339 405
#     4  12  25  44  70 102 139 176 228 280 340 400
#     4  11  25  47  69  95 136 182 223 275 336 402
#     4  10  22  39  66  99 134 172 218 280 351 412
#     4  10  22  40  66  99 133 173 219 278 351 415
#     4  12  25  39  69  98 138 171 227 279 344 393
#
# _framework density 23.415198
#
# number of rings (size 3 to 8) (size 9 to 14) (size 15 to 20)
#    0.000    0.857    2.857    3.857    4.000    0.000 
#    0.000    4.286    0.000    0.000    0.000    0.000 
#    0.000    0.000    0.000    0.000    0.000    0.000 
#
# Total GULP energy -313355.612910 kJ/mol
# GULP energy per Si atom -5595.635945 kJ/mol
# Density = 2.336190 g / cm^3
# Si number density = 23.415198 Si / 1000 Ang^3
#
#
#
# Elastic Constant Matrix: (Units=GPa)
#
#
# Indices 1 2 3 4 5 6 
#
# 1 61.8348 -7.5144 13.7629 0.0000 0.0000 0.0000
# 2 -7.5144 60.0163 21.2467 0.0000 0.0000 0.0000
# 3 13.7629 21.2467 114.9658 0.0000 0.0000 0.0000
# 4 0.0000 0.0000 0.0000 33.5486 0.0000 0.0000
# 5 0.0000 0.0000 0.0000 0.0000 49.9618 0.0000
# 6 0.0000 0.0000 0.0000 0.0000 0.0000 28.6299
#
#
#
# Elastic Compliance Matrix: (Units=1/GPa)
#
#
# Indices 1 2 3 4 5 6 
#
# 1 0.017128 0.003071 -0.002618 0.000000 0.000000 0.000000
# 2 0.003071 0.018379 -0.003764 0.000000 0.000000 0.000000
# 3 -0.002618 -0.003764 0.009707 0.000000 0.000000 0.000000
# 4 0.000000 0.000000 0.000000 0.029808 0.000000 0.000000
# 5 0.000000 0.000000 0.000000 0.000000 0.020015 0.000000
# 6 0.000000 0.000000 0.000000 0.000000 0.000000 0.034928
#
#
# Mechanical properties :
#
#
# Convention : Reuss Voigt Hill
#
# Bulk Modulus (GPa) = 25.91166 32.42303 29.16735
# Shear Modulus (GPa) = 33.45547 36.38283 34.91915
#
# Velocity S-wave (km/s) = 3.78404 3.94612 3.86593
# Velocity P-wave (km/s) = 5.49383 5.88554 5.69305
#
# Compressibility (1/GPa) = 0.03859267
#
# Stress axis : x y z
#
# Youngs Moduli (GPa) = 58.38366 54.40892 103.01484
#
# Poissons Ratio (x) = -0.16711 0.26970
# Poissons Ratio (y) = -0.17932 0.38778
# Poissons Ratio (z) = 0.15285 0.20481
#
# Static dielectric constant tensor:
#      x y z
#    x 1.892980 0.000000 0.000000 
#    y 0.000000 1.871270 0.000000 
#    z 0.000000 0.000000 1.916760 
# 
# From -- ./inp_files/15281.got.cif
#   From: 2010.05.17/outbox.cif.g08.bks.cpg/sg57_8_cif.got.tgz:15281.got - 2010.06.03 13:58:18.
