data_PCOD9439792
_publ_section_title
;
Structure prediction by ZEFSAII (Michael W. Deem and Ramdas Pophale) SiO2 
 PCOD9439792
Probable space group: P B C M
;
_chemical_formula_sum "Si O2"
_cell_formula_units_Z 32
_cell_length_a 5.216190
_cell_length_b 16.288437
_cell_length_c 14.823900
_cell_angle_alpha 90.000000
_cell_angle_beta 90.000000
_cell_angle_gamma 90.000000
_cell_volume 1259.491646
_symmetry_space_group_name_H-M "P B C M"
_symmetry_group_IT_number 57
_symmetry_cell_setting 'orthorhombic'
loop_
_space_group_symop_operation_xyz
x,y,z
-x,-y,1/2+z
x,1/2-y,-z
-x,1/2+y,1/2-z
-x,-y,-z
x,y,1/2-z
-x,1/2+y,z
x,1/2-y,1/2+z
loop_
_atom_site_type_symbol
_atom_site_label
_atom_site_fract_x
_atom_site_fract_y
_atom_site_fract_z
Si Si1 0.659303 0.038788 0.250000
Si Si2 0.838649 0.057523 0.750000
Si Si3 0.837933 0.716058 0.399285
Si Si4 0.670897 0.308051 0.386644
Si Si5 0.529054 0.085087 0.056430
O O1 0.688240 0.075414 0.148985
O O2 0.358231 0.017212 0.250000
O O3 0.864967 0.965178 0.250000
O O4 0.754745 0.110922 0.665189
O O5 0.861819 0.750000 0.500000
O O6 0.599181 0.767768 0.359069
O O7 0.743569 0.623159 0.411383
O O8 0.106428 0.744144 0.360039
O O9 0.638012 0.343847 0.489075
O O10 0.500000 0.000000 0.000000
#
# Coordination Sequence:
#
# PCOD9439792 Si02
#       5
#     4   4   8   8   8
#     4  12  28  46  70 116 144 192 252 306 376 436
#     4  12  26  44  72 108 150 192 248 298 372 440
#     4  10  23  44  71 107 139 190 245 292 368 435
#     4  11  24  46  72 104 146 193 240 299 363 435
#     4  11  25  49  78 107 154 193 246 313 370 442
#
# _framework density 25.407077000000001
#
# number of rings (size 3 to 8) (size 9 to 14) (size 15 to 20)
#    0.000    1.000    2.500    3.750    3.500    9.000 
#    0.000    0.000    0.000    6.000    0.000    0.000 
#    0.000    0.000    0.000    0.000    0.000    0.000 
#
# Total GULP energy -178695.041556 kJ/mol
# GULP energy per Si atom -5584.220049 kJ/mol
# Density = 2.534925 g / cm^3
# Si number density = 25.407077 Si / 1000 Ang^3
#
#
#
# Elastic Constant Matrix: (Units=GPa)
#
#
# Indices 1 2 3 4 5 6 
#
# 1 137.3856 48.9985 34.8512 0.0000 0.0000 0.0000
# 2 48.9985 145.8222 45.7843 0.0000 0.0000 0.0000
# 3 34.8512 45.7843 149.4746 0.0000 0.0000 0.0000
# 4 0.0000 0.0000 0.0000 12.9448 0.0000 0.0000
# 5 0.0000 0.0000 0.0000 0.0000 3.7383 0.0000
# 6 0.0000 0.0000 0.0000 0.0000 0.0000 50.5248
#
#
#
# Elastic Compliance Matrix: (Units=1/GPa)
#
#
# Indices 1 2 3 4 5 6 
#
# 1 0.008466 -0.002462 -0.001220 0.000000 0.000000 0.000000
# 2 -0.002462 0.008303 -0.001969 0.000000 0.000000 0.000000
# 3 -0.001220 -0.001969 0.007578 0.000000 0.000000 0.000000
# 4 0.000000 0.000000 0.000000 0.077251 0.000000 0.000000
# 5 0.000000 0.000000 0.000000 0.000000 0.267504 0.000000
# 6 0.000000 0.000000 0.000000 0.000000 0.000000 0.019792
#
#
# Mechanical properties :
#
#
# Convention : Reuss Voigt Hill
#
# Bulk Modulus (GPa) = 76.65675 76.88338 76.77006
# Shear Modulus (GPa) = 12.35957 33.64480 23.00219
#
# Velocity S-wave (km/s) = 2.20798 3.64294 3.01216
# Velocity P-wave (km/s) = 6.06112 6.92972 6.50992
#
# Compressibility (1/GPa) = 0.01304517
#
# Stress axis : x y z
#
# Youngs Moduli (GPa) = 118.11623 120.43602 131.96561
#
# Poissons Ratio (x) = 0.29648 0.16099
# Poissons Ratio (y) = 0.29077 0.25988
# Poissons Ratio (z) = 0.14409 0.23717
#
# Static dielectric constant tensor:
#      x y z
#    x 2.062040 0.000000 0.000000 
#    y 0.000000 2.035990 0.000000 
#    z 0.000000 0.000000 2.112410 
# 
# From -- ./inp_files/14747.got.cif
#   From: 2010.05.17/outbox.cif.g08.bks.cpg/sg57_8_cif.got.tgz:14747.got - 2010.06.03 13:58:18.
