data_PCOD9439548
_publ_section_title
;
Structure prediction by ZEFSAII (Michael W. Deem and Ramdas Pophale) SiO2 
 PCOD9439548
Probable space group: P B C M
;
_chemical_formula_sum "Si O2"
_cell_formula_units_Z 60
_cell_length_a 11.855757
_cell_length_b 11.158727
_cell_length_c 21.403937
_cell_angle_alpha 90.000000
_cell_angle_beta 90.000000
_cell_angle_gamma 90.000000
_cell_volume 2831.637179
_symmetry_space_group_name_H-M "P B C M"
_symmetry_group_IT_number 57
_symmetry_cell_setting 'orthorhombic'
loop_
_space_group_symop_operation_xyz
x,y,z
-x,-y,1/2+z
x,1/2-y,-z
-x,1/2+y,1/2-z
-x,-y,-z
x,y,1/2-z
-x,1/2+y,z
x,1/2-y,1/2+z
loop_
_atom_site_type_symbol
_atom_site_label
_atom_site_fract_x
_atom_site_fract_y
_atom_site_fract_z
Si Si1 0.650676 0.934555 0.319416
Si Si2 0.333832 0.718853 0.183514
Si Si3 0.737206 0.010845 0.521915
Si Si4 0.078310 0.798360 0.678610
Si Si5 0.955776 0.344291 0.442757
Si Si6 0.530632 0.361063 0.087892
Si Si7 0.659254 0.750000 0.000000
Si Si8 0.159281 0.481464 0.398848
O O1 0.649052 0.881705 0.250000
O O2 0.533616 0.926038 0.355646
O O3 0.759033 0.893211 0.360049
O O4 0.670992 0.076126 0.314188
O O5 0.384176 0.760736 0.250000
O O6 0.204049 0.757302 0.181727
O O7 0.397441 0.760621 0.122731
O O8 0.729964 0.865117 0.524271
O O9 0.756867 0.044863 0.448806
O O10 0.841276 0.076451 0.556755
O O11 0.618070 0.060633 0.547731
O O12 0.033744 0.799863 0.750000
O O13 0.022876 0.723583 0.623081
O O14 0.096091 0.930963 0.649411
O O15 0.949642 0.250000 0.500000
O O16 0.065690 0.427153 0.444672
O O17 0.428158 0.305598 0.049407
#
# Coordination Sequence:
#
# PCOD9439548 Si02
#       8
#     8   8   8   8   8   8   4   8
#     4  10  22  42  66  94 132 177 221 276 348 422
#     4   9  19  37  62  90 124 166 220 272 331 409
#     4  12  26  44  66 101 141 182 228 295 355 413
#     4  10  22  42  68  98 132 180 233 290 350 421
#     4  12  26  44  75 102 139 186 243 298 352 421
#     4  12  23  39  65  99 132 176 227 283 348 417
#     4  12  28  38  64 100 144 174 222 288 356 426
#     4  11  24  42  65 100 135 183 235 285 352 417
#
# _framework density 21.189156000000001
#
# number of rings (size 3 to 8) (size 9 to 14) (size 15 to 20)
#    0.000    1.067    4.000    3.200    5.600    1.067 
#    0.000    0.000    0.000    0.800    0.000    0.000 
#    0.000    0.000    0.000    0.000    0.000    0.000 
#
# Total GULP energy -334477.121068 kJ/mol
# GULP energy per Si atom -5574.618684 kJ/mol
# Density = 2.114093 g / cm^3
# Si number density = 21.189156 Si / 1000 Ang^3
#
#
#
# Elastic Constant Matrix: (Units=GPa)
#
#
# Indices 1 2 3 4 5 6 
#
# 1 90.3234 28.6731 41.9818 0.0000 0.0000 0.0000
# 2 28.6731 70.9564 31.9530 0.0000 0.0000 0.0000
# 3 41.9818 31.9530 115.0644 0.0000 0.0000 0.0000
# 4 0.0000 0.0000 0.0000 21.1914 0.0000 0.0000
# 5 0.0000 0.0000 0.0000 0.0000 -13.7253 0.0000
# 6 0.0000 0.0000 0.0000 0.0000 0.0000 25.4969
#
#
#
# Elastic Compliance Matrix: (Units=1/GPa)
#
#
# Indices 1 2 3 4 5 6 
#
# 1 0.014216 -0.003896 -0.004105 0.000000 0.000000 0.000000
# 2 -0.003896 0.017175 -0.003348 0.000000 0.000000 0.000000
# 3 -0.004105 -0.003348 0.011118 0.000000 0.000000 0.000000
# 4 0.000000 0.000000 0.000000 0.047189 0.000000 0.000000
# 5 0.000000 0.000000 0.000000 0.000000 -0.072858 0.000000
# 6 0.000000 0.000000 0.000000 0.000000 0.000000 0.039220
#
#
# Mechanical properties :
#
#
# Convention : Reuss Voigt Hill
#
# Bulk Modulus (GPa) = 50.47566 53.50667 51.99116
# Shear Modulus (GPa) = 58.57379 18.17503 38.37441
#
# Velocity S-wave (km/s) = 5.26339 2.93192 4.26025
# Velocity P-wave (km/s) = 7.79813 6.06368 6.98495
#
# Compressibility (1/GPa) = 0.01981153
#
# Stress axis : x y z
#
# Youngs Moduli (GPa) = 70.34289 58.22341 89.94282
#
# Poissons Ratio (x) = 0.22685 0.36920
# Poissons Ratio (y) = 0.27407 0.30113
# Poissons Ratio (z) = 0.28875 0.19493
#
# Static dielectric constant tensor:
#      x y z
#    x 1.808160 0.000000 0.000000 
#    y 0.000000 1.820230 0.000000 
#    z 0.000000 0.000000 1.851250 
# 
# From -- ./inp_files/25093.got.cif
#   From: 2010.05.17/outbox.cif.g08.bks.cpg/sg57_13_cif.got.tgz:25093.got - 2010.06.03 13:58:18.
