data_PCOD9439789
_publ_section_title
;
Structure prediction by ZEFSAII (Michael W. Deem and Ramdas Pophale) SiO2 
 PCOD9439789
Probable space group: P B C M
;
_chemical_formula_sum "Si O2"
_cell_formula_units_Z 64
_cell_length_a 15.120974
_cell_length_b 11.858151
_cell_length_c 17.683290
_cell_angle_alpha 90.000000
_cell_angle_beta 90.000000
_cell_angle_gamma 90.000000
_cell_volume 3170.734019
_symmetry_space_group_name_H-M "P B C M"
_symmetry_group_IT_number 57
_symmetry_cell_setting 'orthorhombic'
loop_
_space_group_symop_operation_xyz
x,y,z
-x,-y,1/2+z
x,1/2-y,-z
-x,1/2+y,1/2-z
-x,-y,-z
x,y,1/2-z
-x,1/2+y,z
x,1/2-y,1/2+z
loop_
_atom_site_type_symbol
_atom_site_label
_atom_site_fract_x
_atom_site_fract_y
_atom_site_fract_z
Si Si1 0.728600 0.071985 0.098902
Si Si2 0.342496 0.912227 0.069148
Si Si3 0.912432 0.292849 0.585623
Si Si4 0.416343 0.725331 0.165848
Si Si5 0.089356 0.348770 0.660555
Si Si6 0.756735 0.822670 0.159631
Si Si7 0.612710 0.869055 0.662905
Si Si8 0.169511 0.595462 0.663158
O O1 0.824310 0.132042 0.095391
O O2 0.663833 0.137096 0.156360
O O3 0.743398 0.941625 0.119315
O O4 0.677601 0.083472 0.019032
O O5 0.409297 0.818266 0.100086
O O6 0.250630 0.878602 0.108852
O O7 0.368546 0.031736 0.104483
O O8 0.917016 0.250000 0.500000
O O9 0.905305 0.183358 0.639519
O O10 0.001360 0.354356 0.611186
O O11 0.411026 0.778256 0.250000
O O12 0.510298 0.664074 0.160577
O O13 0.068046 0.336881 0.750000
O O14 0.154523 0.246333 0.638284
O O15 0.141335 0.466403 0.652594
O O16 0.760921 0.842528 0.250000
O O17 0.674678 0.738217 0.145958
O O18 0.634654 0.904314 0.750000
O O19 0.194217 0.612414 0.750000
#
# Coordination Sequence:
#
# PCOD9439789 Si02
#       8
#     8   8   8   8   8   8   8   8
#     4  12  26  43  63  96 139 171 214 270 333 394
#     4  12  23  44  67  94 133 173 216 268 326 385
#     4  12  25  43  64  94 135 170 211 268 324 390
#     4  11  24  42  69  98 126 171 219 270 324 382
#     4  10  24  43  67  97 127 167 222 268 320 387
#     4  10  23  45  66  93 131 172 218 273 324 388
#     4  10  23  44  70  97 127 171 226 269 318 386
#     4  11  22  42  69  92 121 172 222 265 314 380
#
# _framework density 20.184602000000002
#
# number of rings (size 3 to 8) (size 9 to 14) (size 15 to 20)
#    0.000    1.000    3.750    2.250    3.500    4.000 
#    2.250    0.000    0.000    0.000    0.000    0.000 
#    0.000    0.000    0.000    0.000    0.000    0.000 
#
# Total GULP energy -357855.150464 kJ/mol
# GULP energy per Si atom -5591.486726 kJ/mol
# Density = 2.013866 g / cm^3
# Si number density = 20.184602 Si / 1000 Ang^3
#
#
#
# Elastic Constant Matrix: (Units=GPa)
#
#
# Indices 1 2 3 4 5 6 
#
# 1 88.4199 11.5807 22.1276 0.0000 0.0000 0.0000
# 2 11.5807 95.9896 33.2565 0.0000 0.0000 0.0000
# 3 22.1276 33.2565 64.4915 0.0000 0.0000 0.0000
# 4 0.0000 0.0000 0.0000 0.4067 0.0000 0.0000
# 5 0.0000 0.0000 0.0000 0.0000 28.4538 0.0000
# 6 0.0000 0.0000 0.0000 0.0000 0.0000 23.2435
#
#
#
# Elastic Compliance Matrix: (Units=1/GPa)
#
#
# Indices 1 2 3 4 5 6 
#
# 1 0.012372 -0.000027 -0.004231 0.000000 0.000000 0.000000
# 2 -0.000027 0.012684 -0.006532 0.000000 0.000000 0.000000
# 3 -0.004231 -0.006532 0.020326 0.000000 0.000000 0.000000
# 4 0.000000 0.000000 0.000000 2.458700 0.000000 0.000000
# 5 0.000000 0.000000 0.000000 0.000000 0.035145 0.000000
# 6 0.000000 0.000000 0.000000 0.000000 0.000000 0.043023
#
#
# Mechanical properties :
#
#
# Convention : Reuss Voigt Hill
#
# Bulk Modulus (GPa) = 42.01177 42.53675 42.27426
# Shear Modulus (GPa) = 1.91442 22.54989 12.23215
#
# Velocity S-wave (km/s) = 0.97494 3.34605 2.46441
# Velocity P-wave (km/s) = 4.70386 6.00398 5.39324
#
# Compressibility (1/GPa) = 0.02380285
#
# Stress axis : x y z
#
# Youngs Moduli (GPa) = 80.82732 78.83976 49.19844
#
# Poissons Ratio (x) = 0.00210 0.20817
# Poissons Ratio (y) = 0.00216 0.32134
# Poissons Ratio (z) = 0.34200 0.51495
#
# Static dielectric constant tensor:
#      x y z
#    x 1.705520 0.000000 0.000000 
#    y 0.000000 1.700960 0.000000 
#    z 0.000000 0.000000 1.713410 
# 
# From -- ./inp_files/22638.got.cif
#   From: 2010.05.17/outbox.cif.g08.bks.cpg/sg57_12_cif.got.tgz:22638.got - 2010.06.03 13:58:18.
