data_PCOD9439256
_publ_section_title
;
Structure prediction by ZEFSAII (Michael W. Deem and Ramdas Pophale) SiO2 
 PCOD9439256
Probable space group: P B C M
;
_chemical_formula_sum "Si O2"
_cell_formula_units_Z 52
_cell_length_a 13.487470
_cell_length_b 9.019637
_cell_length_c 24.037300
_cell_angle_alpha 90.000000
_cell_angle_beta 90.000000
_cell_angle_gamma 90.000000
_cell_volume 2924.187625
_symmetry_space_group_name_H-M "P B C M"
_symmetry_group_IT_number 57
_symmetry_cell_setting 'orthorhombic'
loop_
_space_group_symop_operation_xyz
x,y,z
-x,-y,1/2+z
x,1/2-y,-z
-x,1/2+y,1/2-z
-x,-y,-z
x,y,1/2-z
-x,1/2+y,z
x,1/2-y,1/2+z
loop_
_atom_site_type_symbol
_atom_site_label
_atom_site_fract_x
_atom_site_fract_y
_atom_site_fract_z
Si Si1 0.004321 0.250000 0.500000
Si Si2 0.687020 0.887511 0.961274
Si Si3 0.416028 0.684095 0.939199
Si Si4 0.447361 0.176143 0.750000
Si Si5 0.716140 0.105911 0.129356
Si Si6 0.615439 0.706110 0.629209
Si Si7 0.355345 0.651718 0.250000
Si Si8 0.137350 0.009124 0.542988
O O1 0.934976 0.123657 0.474535
O O2 0.075773 0.337884 0.457325
O O3 0.697808 0.805800 0.901761
O O4 0.605671 0.011740 0.949227
O O5 0.655287 0.750000 0.000000
O O6 0.777427 0.963350 0.995401
O O7 0.322924 0.759278 0.908143
O O8 0.510416 0.720656 0.901601
O O9 0.425826 0.750000 0.000000
O O10 0.400004 0.240902 0.806220
O O11 0.563814 0.216339 0.750000
O O12 0.420746 0.000928 0.750000
O O13 0.710077 0.149959 0.193970
O O14 0.814251 0.040593 0.100875
O O15 0.642259 0.966413 0.123283
#
# Coordination Sequence:
#
# PCOD9439256 Si02
#       8
#     4   8   8   4   8   8   4   8
#     4  10  22  36  64  82 114 134 174 230 314 370
#     4  12  22  36  54  81 119 148 188 238 286 346
#     4  12  22  31  51  80 114 156 193 228 275 325
#     4  10  22  36  52  74 112 158 218 228 270 306
#     4  11  21  38  55  80 117 150 198 233 279 337
#     4  11  22  35  51  76 114 164 198 237 266 321
#     4  10  22  38  56  78 112 166 196 246 264 320
#     4  11  20  39  56  88 110 144 176 234 298 368
#
# _framework density 17.782716000000001
#
# number of rings (size 3 to 8) (size 9 to 14) (size 15 to 20)
#    0.000    0.923    5.385    2.308    2.154    1.846 
#    0.000    0.000    0.000    0.923    0.000    4.308 
#    0.000    0.000    0.000    0.000    0.000    0.000 
#
# Total GULP energy -290032.736773 kJ/mol
# GULP energy per Si atom -5577.552630 kJ/mol
# Density = 1.774224 g / cm^3
# Si number density = 17.782716 Si / 1000 Ang^3
#
#
#
# Elastic Constant Matrix: (Units=GPa)
#
#
# Indices 1 2 3 4 5 6 
#
# 1 62.6842 31.3004 43.9660 0.0000 0.0000 0.0000
# 2 31.3004 79.7707 40.2075 0.0000 0.0000 0.0000
# 3 43.9660 40.2075 139.6299 0.0000 0.0000 0.0000
# 4 0.0000 0.0000 0.0000 14.3302 0.0000 0.0000
# 5 0.0000 0.0000 0.0000 0.0000 17.2554 0.0000
# 6 0.0000 0.0000 0.0000 0.0000 0.0000 29.9888
#
#
#
# Elastic Compliance Matrix: (Units=1/GPa)
#
#
# Indices 1 2 3 4 5 6 
#
# 1 0.022860 -0.006249 -0.005399 0.000000 0.000000 0.000000
# 2 -0.006249 0.016372 -0.002747 0.000000 0.000000 0.000000
# 3 -0.005399 -0.002747 0.009653 0.000000 0.000000 0.000000
# 4 0.000000 0.000000 0.000000 0.069783 0.000000 0.000000
# 5 0.000000 0.000000 0.000000 0.000000 0.057953 0.000000
# 6 0.000000 0.000000 0.000000 0.000000 0.000000 0.033346
#
#
# Mechanical properties :
#
#
# Convention : Reuss Voigt Hill
#
# Bulk Modulus (GPa) = 49.76040 57.00363 53.38201
# Shear Modulus (GPa) = 20.37050 23.42228 21.89639
#
# Velocity S-wave (km/s) = 3.38823 3.63318 3.51284
# Velocity P-wave (km/s) = 6.58407 7.05161 6.82185
#
# Compressibility (1/GPa) = 0.02009630
#
# Stress axis : x y z
#
# Youngs Moduli (GPa) = 43.74522 61.07856 103.59791
#
# Poissons Ratio (x) = 0.38165 0.55928
# Poissons Ratio (y) = 0.27334 0.28459
# Poissons Ratio (z) = 0.23616 0.16778
#
# Static dielectric constant tensor:
#      x y z
#    x 1.628010 0.000000 0.000000 
#    y 0.000000 1.654760 0.000000 
#    z 0.000000 0.000000 1.625070 
# 
# From -- ./inp_files/25350.got.cif
#   From: 2010.05.17/outbox.cif.g08.bks.cpg/sg57_13_cif.got.tgz:25350.got - 2010.06.03 13:58:18.
