data_PCOD9439519
_publ_section_title
;
Structure prediction by ZEFSAII (Michael W. Deem and Ramdas Pophale) SiO2 
 PCOD9439519
Probable space group: P B C M
;
_chemical_formula_sum "Si O2"
_cell_formula_units_Z 40
_cell_length_a 5.213317
_cell_length_b 15.324648
_cell_length_c 21.405512
_cell_angle_alpha 90.000000
_cell_angle_beta 90.000000
_cell_angle_gamma 90.000000
_cell_volume 1710.134472
_symmetry_space_group_name_H-M "P B C M"
_symmetry_group_IT_number 57
_symmetry_cell_setting 'orthorhombic'
loop_
_space_group_symop_operation_xyz
x,y,z
-x,-y,1/2+z
x,1/2-y,-z
-x,1/2+y,1/2-z
-x,-y,-z
x,y,1/2-z
-x,1/2+y,z
x,1/2-y,1/2+z
loop_
_atom_site_type_symbol
_atom_site_label
_atom_site_fract_x
_atom_site_fract_y
_atom_site_fract_z
Si Si1 0.937407 0.169623 0.917280
Si Si2 0.038521 0.362848 0.941057
Si Si3 0.519540 0.080850 0.373252
Si Si4 0.211547 0.426415 0.317729
Si Si5 0.544428 0.260470 0.317359
O O1 0.096769 0.260724 0.924757
O O2 0.696534 0.206646 0.878458
O O3 0.027191 0.087894 0.875992
O O4 0.932978 0.136715 0.988278
O O5 0.802269 0.397025 0.899885
O O6 0.298809 0.415000 0.925730
O O7 0.460617 0.161220 0.327126
O O8 0.559278 0.990871 0.336963
O O9 0.105336 0.453838 0.250000
O O10 0.315631 0.328384 0.312241
O O11 0.688580 0.266740 0.250000
#
# Coordination Sequence:
#
# PCOD9439519 Si02
#       5
#     8   8   8   8   8
#     4  10  22  41  67  95 130 174 220 267 330 391
#     4  10  24  42  70  93 135 171 218 268 329 393
#     4  11  24  44  65 100 128 176 216 271 329 389
#     4  11  24  41  66  95 130 171 223 271 322 393
#     4  10  22  43  66  93 133 175 218 273 332 389
#
# _framework density 23.389976000000001
#
# number of rings (size 3 to 8) (size 9 to 14) (size 15 to 20)
#    0.000    1.600    2.000    1.200    5.600    3.200 
#    0.000    2.000    0.000    0.000    0.000    0.000 
#    0.000    0.000    0.000    0.000    0.000    0.000 
#
# Total GULP energy -222991.207221 kJ/mol
# GULP energy per Si atom -5574.780181 kJ/mol
# Density = 2.333674 g / cm^3
# Si number density = 23.389976 Si / 1000 Ang^3
#
#
#
# Elastic Constant Matrix: (Units=GPa)
#
#
# Indices 1 2 3 4 5 6 
#
# 1 38.7585 6.6763 -1.7129 0.0000 0.0000 0.0000
# 2 6.6763 73.8686 25.8541 0.0000 0.0000 0.0000
# 3 -1.7129 25.8541 122.3947 0.0000 0.0000 0.0000
# 4 0.0000 0.0000 0.0000 9.8681 0.0000 0.0000
# 5 0.0000 0.0000 0.0000 0.0000 17.8800 0.0000
# 6 0.0000 0.0000 0.0000 0.0000 0.0000 31.4822
#
#
#
# Elastic Compliance Matrix: (Units=1/GPa)
#
#
# Indices 1 2 3 4 5 6 
#
# 1 0.026309 -0.002707 0.000940 0.000000 0.000000 0.000000
# 2 -0.002707 0.014897 -0.003185 0.000000 0.000000 0.000000
# 3 0.000940 -0.003185 0.008856 0.000000 0.000000 0.000000
# 4 0.000000 0.000000 0.000000 0.101337 0.000000 0.000000
# 5 0.000000 0.000000 0.000000 0.000000 0.055928 0.000000
# 6 0.000000 0.000000 0.000000 0.000000 0.000000 0.031764
#
#
# Mechanical properties :
#
#
# Convention : Reuss Voigt Hill
#
# Bulk Modulus (GPa) = 24.90124 32.96188 28.93156
# Shear Modulus (GPa) = 19.05631 25.45966 22.25799
#
# Velocity S-wave (km/s) = 2.85743 3.30280 3.08815
# Velocity P-wave (km/s) = 4.64282 5.35421 5.01115
#
# Compressibility (1/GPa) = 0.04015865
#
# Stress axis : x y z
#
# Youngs Moduli (GPa) = 38.01039 67.12841 112.91594
#
# Poissons Ratio (x) = 0.18170 -0.10614
# Poissons Ratio (y) = 0.10289 0.35959
# Poissons Ratio (z) = -0.03573 0.21378
#
# Static dielectric constant tensor:
#      x y z
#    x 1.908770 0.000000 0.000000 
#    y 0.000000 1.907930 0.000000 
#    z 0.000000 0.000000 2.011760 
# 
# From -- ./inp_files/23577.got.cif
#   From: 2010.05.17/outbox.cif.g08.bks.cpg/sg57_12_cif.got.tgz:23577.got - 2010.06.03 13:58:18.
