data_PCOD9439733
_publ_section_title
;
Structure prediction by ZEFSAII (Michael W. Deem and Ramdas Pophale) SiO2 
 PCOD9439733
Probable space group: P B C M
;
_chemical_formula_sum "Si O2"
_cell_formula_units_Z 40
_cell_length_a 19.087553
_cell_length_b 5.101661
_cell_length_c 17.861682
_cell_angle_alpha 90.000000
_cell_angle_beta 90.000000
_cell_angle_gamma 90.000000
_cell_volume 1739.338884
_symmetry_space_group_name_H-M "P B C M"
_symmetry_group_IT_number 57
_symmetry_cell_setting 'orthorhombic'
loop_
_space_group_symop_operation_xyz
x,y,z
-x,-y,1/2+z
x,1/2-y,-z
-x,1/2+y,1/2-z
-x,-y,-z
x,y,1/2-z
-x,1/2+y,z
x,1/2-y,1/2+z
loop_
_atom_site_type_symbol
_atom_site_label
_atom_site_fract_x
_atom_site_fract_y
_atom_site_fract_z
Si Si1 0.812723 0.797479 0.164447
Si Si2 0.540975 0.790674 0.340698
Si Si3 0.274215 0.996920 0.050340
Si Si4 0.327396 0.862048 0.664413
Si Si5 0.043938 0.235271 0.910622
O O1 0.814982 0.702527 0.250000
O O2 0.787339 0.582515 0.105420
O O3 0.889336 0.866485 0.135360
O O4 0.750640 0.013861 0.162046
O O5 0.538188 0.776006 0.250000
O O6 0.514940 0.509116 0.367116
O O7 0.616804 0.914635 0.356364
O O8 0.331324 0.873572 0.106129
O O9 0.292305 0.250000 0.000000
O O10 0.253108 0.750000 0.000000
O O11 0.341545 0.775253 0.750000
O O12 0.017907 0.528569 0.893789
O O13 0.059317 0.250000 0.000000
#
# Coordination Sequence:
#
# PCOD9439733 Si02
#       5
#     8   8   8   8   8
#     4  11  25  44  71 104 138 176 226 288 345 395
#     4   9  19  35  60  93 132 176 219 270 336 404
#     4  12  25  43  66  96 133 178 225 278 337 407
#     4  10  23  42  68 104 139 172 227 292 342 394
#     4  10  24  44  67  96 136 181 223 268 328 405
#
# _framework density 22.997243999999998
#
# number of rings (size 3 to 8) (size 9 to 14) (size 15 to 20)
#    0.000    1.600    2.000    1.200    5.600    1.600 
#    0.000    0.000    0.000    3.600    0.000    0.000 
#    0.000    0.000    0.000    0.000    0.000    0.000 
#
# Total GULP energy -223519.086307 kJ/mol
# GULP energy per Si atom -5587.977158 kJ/mol
# Density = 2.294490 g / cm^3
# Si number density = 22.997244 Si / 1000 Ang^3
#
#
#
# Elastic Constant Matrix: (Units=GPa)
#
#
# Indices 1 2 3 4 5 6 
#
# 1 107.6070 17.6641 38.9610 0.0000 0.0000 0.0000
# 2 17.6641 107.9140 41.2739 0.0000 0.0000 0.0000
# 3 38.9610 41.2739 107.5429 0.0000 0.0000 0.0000
# 4 0.0000 0.0000 0.0000 78.7146 0.0000 0.0000
# 5 0.0000 0.0000 0.0000 0.0000 -16.1345 0.0000
# 6 0.0000 0.0000 0.0000 0.0000 0.0000 8.0952
#
#
#
# Elastic Compliance Matrix: (Units=1/GPa)
#
#
# Indices 1 2 3 4 5 6 
#
# 1 0.010705 -0.000315 -0.003757 0.000000 0.000000 0.000000
# 2 -0.000315 0.010870 -0.004058 0.000000 0.000000 0.000000
# 3 -0.003757 -0.004058 0.012217 0.000000 0.000000 0.000000
# 4 0.000000 0.000000 0.000000 0.012704 0.000000 0.000000
# 5 0.000000 0.000000 0.000000 0.000000 -0.061979 0.000000
# 6 0.000000 0.000000 0.000000 0.000000 0.000000 0.123530
#
#
# Mechanical properties :
#
#
# Convention : Reuss Voigt Hill
#
# Bulk Modulus (GPa) = 57.03837 57.65132 57.34484
# Shear Modulus (GPa) = 38.41665 29.14606 33.78136
#
# Velocity S-wave (km/s) = 4.09160 3.56388 3.83682
# Velocity P-wave (km/s) = 6.86860 6.48523 6.67966
#
# Compressibility (1/GPa) = 0.01753206
#
# Stress axis : x y z
#
# Youngs Moduli (GPa) = 93.41230 91.99485 81.85231
#
# Poissons Ratio (x) = 0.02900 0.30755
# Poissons Ratio (y) = 0.02945 0.33213
# Poissons Ratio (z) = 0.35098 0.37328
#
# Static dielectric constant tensor:
#      x y z
#    x 1.901560 0.000000 0.000000 
#    y 0.000000 2.469990 0.000000 
#    z 0.000000 0.000000 2.005200 
# 
# From -- ./inp_files/22750.got.cif
#   From: 2010.05.17/outbox.cif.g08.bks.cpg/sg57_12_cif.got.tgz:22750.got - 2010.06.03 13:58:18.
