data_PCOD9439726
_publ_section_title
;
Structure prediction by ZEFSAII (Michael W. Deem and Ramdas Pophale) SiO2 
 PCOD9439726
Probable space group: P B C M
;
_chemical_formula_sum "Si O2"
_cell_formula_units_Z 48
_cell_length_a 14.787596
_cell_length_b 16.759765
_cell_length_c 10.301682
_cell_angle_alpha 90.000000
_cell_angle_beta 90.000000
_cell_angle_gamma 90.000000
_cell_volume 2553.134190
_symmetry_space_group_name_H-M "P B C M"
_symmetry_group_IT_number 57
_symmetry_cell_setting 'orthorhombic'
loop_
_space_group_symop_operation_xyz
x,y,z
-x,-y,1/2+z
x,1/2-y,-z
-x,1/2+y,1/2-z
-x,-y,-z
x,y,1/2-z
-x,1/2+y,z
x,1/2-y,1/2+z
loop_
_atom_site_type_symbol
_atom_site_label
_atom_site_fract_x
_atom_site_fract_y
_atom_site_fract_z
Si Si1 0.844170 0.828269 0.750000
Si Si2 0.421058 0.984954 0.101573
Si Si3 0.237741 0.431996 0.981985
Si Si4 0.800665 0.855560 0.250000
Si Si5 0.042951 0.619074 0.250000
Si Si6 0.863186 0.100972 0.518051
Si Si7 0.999544 0.430197 0.250000
Si Si8 0.320709 0.683298 0.897684
O O1 0.810401 0.876089 0.623599
O O2 0.805735 0.739508 0.750000
O O3 0.952877 0.828239 0.750000
O O4 0.450707 0.998379 0.250000
O O5 0.383374 0.894781 0.091300
O O6 0.500000 0.000000 0.000000
O O7 0.334829 0.040497 0.070692
O O8 0.244905 0.388649 0.119744
O O9 0.177449 0.511845 0.998631
O O10 0.902833 0.889872 0.250000
O O11 0.100259 0.631220 0.380410
O O12 0.011294 0.526072 0.250000
O O13 0.781152 0.154153 0.571178
O O14 0.942861 0.094959 0.623244
O O15 0.324668 0.712921 0.750000
O O16 0.347359 0.750000 0.000000
#
# Coordination Sequence:
#
# PCOD9439726 Si02
#       8
#     4   8   8   4   4   8   4   8
#     4  12  24  40  59  84 128 174 213 263 316 358
#     4  10  23  44  74 101 122 161 206 251 308 386
#     4  11  21  42  63  89 123 162 209 257 314 379
#     4  12  26  36  57  92 128 168 217 261 304 360
#     4  12  22  34  62  88 119 170 224 267 308 365
#     4  11  21  37  63  87 119 172 216 261 315 367
#     4  12  20  38  58  84 123 168 218 269 300 357
#     4  10  23  42  65  96 134 163 202 261 320 369
#
# _framework density 18.800421
#
# number of rings (size 3 to 8) (size 9 to 14) (size 15 to 20)
#    0.000    1.000    5.000    2.000    2.333    2.000 
#    0.000    1.667    0.000    0.000    0.000    0.000 
#    0.000    0.000    0.000    0.000    0.000    0.000 
#
# Total GULP energy -268508.739363 kJ/mol
# GULP energy per Si atom -5593.932070 kJ/mol
# Density = 1.875763 g / cm^3
# Si number density = 18.800421 Si / 1000 Ang^3
#
#
#
# Elastic Constant Matrix: (Units=GPa)
#
#
# Indices 1 2 3 4 5 6 
#
# 1 68.5755 6.7038 49.8129 0.0000 0.0000 0.0000
# 2 6.7038 64.4673 41.4732 0.0000 0.0000 0.0000
# 3 49.8129 41.4732 185.4584 0.0000 0.0000 0.0000
# 4 0.0000 0.0000 0.0000 20.0278 0.0000 0.0000
# 5 0.0000 0.0000 0.0000 0.0000 35.1511 0.0000
# 6 0.0000 0.0000 0.0000 0.0000 0.0000 7.4745
#
#
#
# Elastic Compliance Matrix: (Units=1/GPa)
#
#
# Indices 1 2 3 4 5 6 
#
# 1 0.018235 0.001465 -0.005226 0.000000 0.000000 0.000000
# 2 0.001465 0.018236 -0.004472 0.000000 0.000000 0.000000
# 3 -0.005226 -0.004472 0.007796 0.000000 0.000000 0.000000
# 4 0.000000 0.000000 0.000000 0.049931 0.000000 0.000000
# 5 0.000000 0.000000 0.000000 0.000000 0.028449 0.000000
# 6 0.000000 0.000000 0.000000 0.000000 0.000000 0.133789
#
#
# Mechanical properties :
#
#
# Convention : Reuss Voigt Hill
#
# Bulk Modulus (GPa) = 35.96709 57.16457 46.56583
# Shear Modulus (GPa) = 17.72008 27.23143 22.47576
#
# Velocity S-wave (km/s) = 3.07341 3.80998 3.46134
# Velocity P-wave (km/s) = 5.63622 7.05879 6.38724
#
# Compressibility (1/GPa) = 0.02780319
#
# Stress axis : x y z
#
# Youngs Moduli (GPa) = 54.83966 54.83642 128.27817
#
# Poissons Ratio (x) = -0.08036 0.67032
# Poissons Ratio (y) = -0.08037 0.57362
# Poissons Ratio (z) = 0.28657 0.24521
#
# Static dielectric constant tensor:
#      x y z
#    x 1.617430 0.000000 0.000000 
#    y 0.000000 1.637960 0.000000 
#    z 0.000000 0.000000 1.634210 
# 
# From -- ./inp_files/4777.got.cif
#   From: 2010.05.17/outbox.cif.g08.bks.cpg/sg57_3_cif.got.tgz:4777.got - 2010.06.03 13:58:18.
