data_PCOD9439535
_publ_section_title
;
Structure prediction by ZEFSAII (Michael W. Deem and Ramdas Pophale) SiO2 
 PCOD9439535
Probable space group: P B C M
;
_chemical_formula_sum "Si O2"
_cell_formula_units_Z 56
_cell_length_a 15.007117
_cell_length_b 10.999234
_cell_length_c 15.862722
_cell_angle_alpha 90.000000
_cell_angle_beta 90.000000
_cell_angle_gamma 90.000000
_cell_volume 2618.408626
_symmetry_space_group_name_H-M "P B C M"
_symmetry_group_IT_number 57
_symmetry_cell_setting 'orthorhombic'
loop_
_space_group_symop_operation_xyz
x,y,z
-x,-y,1/2+z
x,1/2-y,-z
-x,1/2+y,1/2-z
-x,-y,-z
x,y,1/2-z
-x,1/2+y,z
x,1/2-y,1/2+z
loop_
_atom_site_type_symbol
_atom_site_label
_atom_site_fract_x
_atom_site_fract_y
_atom_site_fract_z
Si Si1 0.930906 0.191669 0.844993
Si Si2 0.334897 0.244584 0.849946
Si Si3 0.477700 0.126030 0.049371
Si Si4 0.896868 0.503107 0.477184
Si Si5 0.374621 0.975910 0.845495
Si Si6 0.873439 0.718713 0.153103
Si Si7 0.171010 0.553681 0.344204
O O1 0.916626 0.141900 0.750000
O O2 0.037766 0.199488 0.859068
O O3 0.883661 0.114950 0.917955
O O4 0.891152 0.327322 0.845714
O O5 0.355254 0.262020 0.750000
O O6 0.381873 0.349981 0.905222
O O7 0.227701 0.234365 0.854443
O O8 0.369710 0.113122 0.883020
O O9 0.553262 0.115150 0.119982
O O10 0.495456 0.250000 0.000000
O O11 0.500000 0.000000 0.000000
O O12 0.879293 0.616178 0.417344
O O13 0.846921 0.507730 0.565830
O O14 0.000000 0.500000 0.500000
O O15 0.398415 0.001447 0.750000
O O16 0.275991 0.919992 0.847049
O O17 0.882656 0.673237 0.250000
O O18 0.155495 0.494897 0.250000
#
# Coordination Sequence:
#
# PCOD9439535 Si02
#       7
#     8   8   8   8   8   8   8
#     4  10  22  42  63  90 132 174 222 279 338 404
#     4  10  23  45  71 100 136 178 229 279 344 420
#     4  12  25  45  70 106 141 174 222 288 352 415
#     4  12  24  36  61  93 130 175 225 278 339 396
#     4  10  23  46  73  99 131 182 227 279 348 417
#     4  10  23  41  65  96 131 175 224 279 337 405
#     4  10  23  42  62  91 131 174 225 273 329 404
#
# _framework density 21.387036999999999
#
# number of rings (size 3 to 8) (size 9 to 14) (size 15 to 20)
#    0.000    1.429    2.857    1.286    4.000    1.714 
#    0.000    0.000    0.000    0.000    0.000    0.000 
#    0.000    0.000    0.000    0.000    0.000    0.000 
#
# Total GULP energy -312373.868441 kJ/mol
# GULP energy per Si atom -5578.104794 kJ/mol
# Density = 2.133836 g / cm^3
# Si number density = 21.387037 Si / 1000 Ang^3
#
#
#
# Elastic Constant Matrix: (Units=GPa)
#
#
# Indices 1 2 3 4 5 6 
#
# 1 76.2295 24.1859 31.6546 0.0000 0.0000 0.0000
# 2 24.1859 71.2836 49.7797 0.0000 0.0000 0.0000
# 3 31.6546 49.7797 133.4831 0.0000 0.0000 0.0000
# 4 0.0000 0.0000 0.0000 41.6067 0.0000 0.0000
# 5 0.0000 0.0000 0.0000 0.0000 24.2044 0.0000
# 6 0.0000 0.0000 0.0000 0.0000 0.0000 31.4511
#
#
#
# Elastic Compliance Matrix: (Units=1/GPa)
#
#
# Indices 1 2 3 4 5 6 
#
# 1 0.015194 -0.003568 -0.002272 0.000000 0.000000 0.000000
# 2 -0.003568 0.019806 -0.006540 0.000000 0.000000 0.000000
# 3 -0.002272 -0.006540 0.010469 0.000000 0.000000 0.000000
# 4 0.000000 0.000000 0.000000 0.024035 0.000000 0.000000
# 5 0.000000 0.000000 0.000000 0.000000 0.041315 0.000000
# 6 0.000000 0.000000 0.000000 0.000000 0.000000 0.031795
#
#
# Mechanical properties :
#
#
# Convention : Reuss Voigt Hill
#
# Bulk Modulus (GPa) = 48.29021 54.69295 51.49158
# Shear Modulus (GPa) = 28.68958 31.14418 29.91688
#
# Velocity S-wave (km/s) = 3.66655 3.82018 3.74415
# Velocity P-wave (km/s) = 6.36812 6.71467 6.54369
#
# Compressibility (1/GPa) = 0.02070813
#
# Stress axis : x y z
#
# Youngs Moduli (GPa) = 65.81519 50.48875 95.51555
#
# Poissons Ratio (x) = 0.18016 0.21705
# Poissons Ratio (y) = 0.23485 0.62469
# Poissons Ratio (z) = 0.14956 0.33021
#
# Static dielectric constant tensor:
#      x y z
#    x 1.782330 0.000000 0.000000 
#    y 0.000000 1.776350 0.000000 
#    z 0.000000 0.000000 1.831340 
# 
# From -- ./inp_files/18525.got.cif
#   From: 2010.05.17/outbox.cif.g08.bks.cpg/sg57_10_cif.got.tgz:18525.got - 2010.06.03 13:58:18.
