data_PCOD9439515
_publ_section_title
;
Structure prediction by ZEFSAII (Michael W. Deem and Ramdas Pophale) SiO2 
 PCOD9439515
Probable space group: P B C M
;
_chemical_formula_sum "Si O2"
_cell_formula_units_Z 60
_cell_length_a 5.184915
_cell_length_b 23.464625
_cell_length_c 23.054263
_cell_angle_alpha 90.000000
_cell_angle_beta 90.000000
_cell_angle_gamma 90.000000
_cell_volume 2804.829731
_symmetry_space_group_name_H-M "P B C M"
_symmetry_group_IT_number 57
_symmetry_cell_setting 'orthorhombic'
loop_
_space_group_symop_operation_xyz
x,y,z
-x,-y,1/2+z
x,1/2-y,-z
-x,1/2+y,1/2-z
-x,-y,-z
x,y,1/2-z
-x,1/2+y,z
x,1/2-y,1/2+z
loop_
_atom_site_type_symbol
_atom_site_label
_atom_site_fract_x
_atom_site_fract_y
_atom_site_fract_z
Si Si1 0.814562 0.310115 0.906208
Si Si2 0.221410 0.901410 0.089030
Si Si3 0.838527 0.970261 0.602393
Si Si4 0.184731 0.370601 0.684773
Si Si5 0.166947 0.250000 0.000000
Si Si6 0.504358 0.242503 0.184967
Si Si7 0.644055 0.078809 0.044703
Si Si8 0.287520 0.173557 0.895438
O O1 0.702007 0.258624 0.868517
O O2 0.614496 0.356620 0.930666
O O3 0.984489 0.343856 0.859880
O O4 0.986409 0.288559 0.959124
O O5 0.475871 0.869743 0.111368
O O6 0.974657 0.861346 0.096946
O O7 0.172656 0.963322 0.116263
O O8 0.270869 0.914343 0.021238
O O9 0.754835 0.931581 0.657208
O O10 0.623567 0.953889 0.554120
O O11 0.121182 0.952278 0.578794
O O12 0.082052 0.376008 0.750000
O O13 0.407554 0.322930 0.687100
O O14 0.321243 0.211084 0.954436
O O15 0.589973 0.257709 0.250000
O O16 0.286340 0.284502 0.160149
#
# Coordination Sequence:
#
# PCOD9439515 Si02
#       8
#     8   8   8   8   4   8   8   8
#     4  11  22  40  65  99 139 174 221 283 354 412
#     4  12  25  43  65  95 140 178 220 268 335 420
#     4  11  23  43  64  95 131 174 225 272 336 401
#     4  10  22  41  66  96 128 172 230 288 340 394
#     4  12  24  42  64 102 144 184 226 282 354 432
#     4  11  24  43  67  95 134 179 233 289 342 407
#     4  11  22  38  64  98 131 170 215 269 340 407
#     4  12  27  42  66  99 135 182 223 273 343 410
#
# _framework density 21.391672
#
# number of rings (size 3 to 8) (size 9 to 14) (size 15 to 20)
#    0.000    0.800    4.000    3.600    3.733    0.533 
#    0.000    1.333    0.000    0.000    0.000    0.000 
#    0.000    0.000    0.000    0.000    0.000    0.000 
#
# Total GULP energy -335466.631203 kJ/mol
# GULP energy per Si atom -5591.110520 kJ/mol
# Density = 2.134298 g / cm^3
# Si number density = 21.391672 Si / 1000 Ang^3
#
#
#
# Elastic Constant Matrix: (Units=GPa)
#
#
# Indices 1 2 3 4 5 6 
#
# 1 69.1945 19.0698 7.5738 0.0000 0.0000 0.0000
# 2 19.0698 115.3225 44.3188 0.0000 0.0000 0.0000
# 3 7.5738 44.3188 113.6518 0.0000 0.0000 0.0000
# 4 0.0000 0.0000 0.0000 21.2842 0.0000 0.0000
# 5 0.0000 0.0000 0.0000 0.0000 -34.1312 0.0000
# 6 0.0000 0.0000 0.0000 0.0000 0.0000 29.2235
#
#
#
# Elastic Compliance Matrix: (Units=1/GPa)
#
#
# Indices 1 2 3 4 5 6 
#
# 1 0.015142 -0.002489 -0.000038 0.000000 0.000000 0.000000
# 2 -0.002489 0.010609 -0.003971 0.000000 0.000000 0.000000
# 3 -0.000038 -0.003971 0.010350 0.000000 0.000000 0.000000
# 4 0.000000 0.000000 0.000000 0.046983 0.000000 0.000000
# 5 0.000000 0.000000 0.000000 0.000000 -0.029299 0.000000
# 6 0.000000 0.000000 0.000000 0.000000 0.000000 0.034219
#
#
# Mechanical properties :
#
#
# Convention : Reuss Voigt Hill
#
# Bulk Modulus (GPa) = 43.28306 48.89928 46.09117
# Shear Modulus (GPa) = 45.99671 18.42240 32.20955
#
# Velocity S-wave (km/s) = 4.64207 2.93780 3.88455
# Velocity P-wave (km/s) = 7.00067 5.86653 6.45854
#
# Compressibility (1/GPa) = 0.02310373
#
# Stress axis : x y z
#
# Youngs Moduli (GPa) = 66.04052 94.25896 96.61904
#
# Poissons Ratio (x) = 0.23463 0.00371
# Poissons Ratio (y) = 0.16439 0.38369
# Poissons Ratio (z) = 0.00254 0.37432
#
# Static dielectric constant tensor:
#      x y z
#    x 1.831500 0.000000 0.000000 
#    y 0.000000 1.825800 0.000000 
#    z 0.000000 0.000000 1.751910 
# 
# From -- ./inp_files/23814.got.cif
#   From: 2010.05.17/outbox.cif.g08.bks.cpg/sg57_12_cif.got.tgz:23814.got - 2010.06.03 13:58:18.
