data_PCOD9439037
_publ_section_title
;
Structure prediction by ZEFSAII (Michael W. Deem and Ramdas Pophale) SiO2 
 PCOD9439037
Probable space group: P B C M
;
_chemical_formula_sum "Si O2"
_cell_formula_units_Z 40
_cell_length_a 7.149302
_cell_length_b 8.350496
_cell_length_c 27.543593
_cell_angle_alpha 90.000000
_cell_angle_beta 90.000000
_cell_angle_gamma 90.000000
_cell_volume 1644.358500
_symmetry_space_group_name_H-M "P B C M"
_symmetry_group_IT_number 57
_symmetry_cell_setting 'orthorhombic'
loop_
_space_group_symop_operation_xyz
x,y,z
-x,-y,1/2+z
x,1/2-y,-z
-x,1/2+y,1/2-z
-x,-y,-z
x,y,1/2-z
-x,1/2+y,z
x,1/2-y,1/2+z
loop_
_atom_site_type_symbol
_atom_site_label
_atom_site_fract_x
_atom_site_fract_y
_atom_site_fract_z
Si Si1 0.274418 0.608971 0.897205
Si Si2 0.620868 0.611550 0.964710
Si Si3 0.385243 0.085517 0.195290
Si Si4 0.219470 0.056863 0.695005
Si Si5 0.063445 0.562244 0.403301
O O1 0.466184 0.657145 0.923820
O O2 0.321693 0.540686 0.844586
O O3 0.149048 0.465550 0.919894
O O4 0.134550 0.757573 0.899954
O O5 0.791332 0.525721 0.938436
O O6 0.686381 0.750000 0.000000
O O7 0.500000 0.500000 0.000000
O O8 0.332588 0.037405 0.250000
O O9 0.610410 0.071231 0.192947
O O10 0.305119 0.264263 0.187334
O O11 0.141487 0.052719 0.750000
O O12 0.085981 0.010508 0.651016
#
# Coordination Sequence:
#
# PCOD9439037 Si02
#       5
#     8   8   8   8   8
#     4  12  27  45  72 105 138 181 228 282 344 406
#     4  12  28  50  73  99 134 178 228 286 347 406
#     4  10  21  39  67 101 140 183 227 274 334 405
#     4  10  21  39  67 101 140 184 226 275 334 403
#     4  12  27  45  72 104 140 179 228 284 339 413
#
# _framework density 24.325595
#
# number of rings (size 3 to 8) (size 9 to 14) (size 15 to 20)
#    0.000    0.800    4.000    2.400    5.600    4.800 
#    0.000    0.000    0.000    0.000    0.000    0.000 
#    0.000    0.000    0.000    0.000    0.000    0.000 
#
# Total GULP energy -223986.108120 kJ/mol
# GULP energy per Si atom -5599.652703 kJ/mol
# Density = 2.427023 g / cm^3
# Si number density = 24.325595 Si / 1000 Ang^3
#
#
#
# Elastic Constant Matrix: (Units=GPa)
#
#
# Indices 1 2 3 4 5 6 
#
# 1 73.8906 -15.3445 24.5077 0.0000 0.0000 0.0000
# 2 -15.3445 60.6111 33.8846 0.0000 0.0000 0.0000
# 3 24.5077 33.8846 112.9185 0.0000 0.0000 0.0000
# 4 0.0000 0.0000 0.0000 29.3773 0.0000 0.0000
# 5 0.0000 0.0000 0.0000 0.0000 4.3201 0.0000
# 6 0.0000 0.0000 0.0000 0.0000 0.0000 38.5929
#
#
#
# Elastic Compliance Matrix: (Units=1/GPa)
#
#
# Indices 1 2 3 4 5 6 
#
# 1 0.017136 0.007711 -0.006033 0.000000 0.000000 0.000000
# 2 0.007711 0.023294 -0.008664 0.000000 0.000000 0.000000
# 3 -0.006033 -0.008664 0.012765 0.000000 0.000000 0.000000
# 4 0.000000 0.000000 0.000000 0.034040 0.000000 0.000000
# 5 0.000000 0.000000 0.000000 0.000000 0.231479 0.000000
# 6 0.000000 0.000000 0.000000 0.000000 0.000000 0.025911
#
#
# Mechanical properties :
#
#
# Convention : Reuss Voigt Hill
#
# Bulk Modulus (GPa) = 25.49489 37.05733 31.27611
# Shear Modulus (GPa) = 13.45275 28.08288 20.76781
#
# Velocity S-wave (km/s) = 2.35421 3.40142 2.92506
# Velocity P-wave (km/s) = 4.23003 5.54014 4.92881
#
# Compressibility (1/GPa) = 0.03922355
#
# Stress axis : x y z
#
# Youngs Moduli (GPa) = 58.35725 42.92914 78.33825
#
# Poissons Ratio (x) = -0.33102 0.47262
# Poissons Ratio (y) = -0.44999 0.67870
# Poissons Ratio (z) = 0.35207 0.37193
#
# Static dielectric constant tensor:
#      x y z
#    x 1.953100 0.000000 0.000000 
#    y 0.000000 1.963850 0.000000 
#    z 0.000000 0.000000 1.936690 
# 
# From -- ./inp_files/28240.got.cif
#   From: 2010.05.17/outbox.cif.g08.bks.cpg/sg57_15_cif.got.tgz:28240.got - 2010.06.03 13:58:18.
