data_PCOD9439523
_publ_section_title
;
Structure prediction by ZEFSAII (Michael W. Deem and Ramdas Pophale) SiO2 
 PCOD9439523
Probable space group: P B C M
;
_chemical_formula_sum "Si O2"
_cell_formula_units_Z 40
_cell_length_a 15.842468
_cell_length_b 8.370457
_cell_length_c 13.441294
_cell_angle_alpha 90.000000
_cell_angle_beta 90.000000
_cell_angle_gamma 90.000000
_cell_volume 1782.432486
_symmetry_space_group_name_H-M "P B C M"
_symmetry_group_IT_number 57
_symmetry_cell_setting 'orthorhombic'
loop_
_space_group_symop_operation_xyz
x,y,z
-x,-y,1/2+z
x,1/2-y,-z
-x,1/2+y,1/2-z
-x,-y,-z
x,y,1/2-z
-x,1/2+y,z
x,1/2-y,1/2+z
loop_
_atom_site_type_symbol
_atom_site_label
_atom_site_fract_x
_atom_site_fract_y
_atom_site_fract_z
Si Si1 0.216484 0.072868 0.529513
Si Si2 0.941335 0.462361 0.632351
Si Si3 0.390638 0.524679 0.423790
Si Si4 0.444017 0.621592 0.862403
Si Si5 0.119908 0.601291 0.867807
O O1 0.242108 0.250000 0.500000
O O2 0.128237 0.079308 0.587654
O O3 0.292273 0.001734 0.593879
O O4 0.196423 0.960268 0.434762
O O5 0.941461 0.485245 0.750000
O O6 0.908006 0.283644 0.612231
O O7 0.037519 0.496745 0.603214
O O8 0.455310 0.398811 0.377190
O O9 0.404541 0.526031 0.543983
O O10 0.418197 0.695873 0.381321
O O11 0.421073 0.572566 0.750000
O O12 0.136545 0.585280 0.750000
#
# Coordination Sequence:
#
# PCOD9439523 Si02
#       5
#     8   8   8   8   8
#     4  12  26  41  62  95 135 174 212 277 325 383
#     4  10  22  41  67  96 131 173 223 269 320 390
#     4  10  25  42  67 100 128 165 225 267 325 407
#     4  10  22  44  69  91 127 169 209 269 333 391
#     4  10  22  42  67  95 130 176 220 268 327 387
#
# _framework density 22.441244000000001
#
# number of rings (size 3 to 8) (size 9 to 14) (size 15 to 20)
#    0.000    1.600    0.000    3.000   11.200    4.800 
#    0.000    0.000    0.000    0.000    0.000    0.000 
#    0.000    0.000    0.000    0.000    0.000    0.000 
#
# Total GULP energy -223710.285784 kJ/mol
# GULP energy per Si atom -5592.757145 kJ/mol
# Density = 2.239017 g / cm^3
# Si number density = 22.441244 Si / 1000 Ang^3
#
#
#
# Elastic Constant Matrix: (Units=GPa)
#
#
# Indices 1 2 3 4 5 6 
#
# 1 78.5605 8.6332 -16.8591 0.0000 0.0000 0.0000
# 2 8.6332 66.9204 -19.8283 0.0000 0.0000 0.0000
# 3 -16.8591 -19.8283 69.7627 0.0000 0.0000 0.0000
# 4 0.0000 0.0000 0.0000 16.8644 0.0000 0.0000
# 5 0.0000 0.0000 0.0000 0.0000 11.3039 0.0000
# 6 0.0000 0.0000 0.0000 0.0000 0.0000 16.4317
#
#
#
# Elastic Compliance Matrix: (Units=1/GPa)
#
#
# Indices 1 2 3 4 5 6 
#
# 1 0.013469 -0.000844 0.003015 0.000000 0.000000 0.000000
# 2 -0.000844 0.016370 0.004449 0.000000 0.000000 0.000000
# 3 0.003015 0.004449 0.016327 0.000000 0.000000 0.000000
# 4 0.000000 0.000000 0.000000 0.059297 0.000000 0.000000
# 5 0.000000 0.000000 0.000000 0.000000 0.088465 0.000000
# 6 0.000000 0.000000 0.000000 0.000000 0.000000 0.060858
#
#
# Mechanical properties :
#
#
# Convention : Reuss Voigt Hill
#
# Bulk Modulus (GPa) = 16.83348 17.68170 17.25759
# Shear Modulus (GPa) = 19.13154 25.13985 22.13569
#
# Velocity S-wave (km/s) = 2.92296 3.35065 3.14408
# Velocity P-wave (km/s) = 4.34845 4.78177 4.57025
#
# Compressibility (1/GPa) = 0.05940541
#
# Stress axis : x y z
#
# Youngs Moduli (GPa) = 74.24547 61.08658 61.24687
#
# Poissons Ratio (x) = 0.05157 -0.18466
# Poissons Ratio (y) = 0.06268 -0.27247
# Poissons Ratio (z) = -0.22385 -0.27176
#
# Static dielectric constant tensor:
#      x y z
#    x 1.807790 0.000000 0.000000 
#    y 0.000000 1.817140 0.000000 
#    z 0.000000 0.000000 1.851770 
# 
# From -- ./inp_files/18192.got.cif
#   From: 2010.05.17/outbox.cif.g08.bks.cpg/sg57_10_cif.got.tgz:18192.got - 2010.06.03 13:58:18.
