data_PCOD9439937
_publ_section_title
;
Structure prediction by ZEFSAII (Michael W. Deem and Ramdas Pophale) SiO2 
 PCOD9439937
Probable space group: P B C M
;
_chemical_formula_sum "Si O2"
_cell_formula_units_Z 40
_cell_length_a 11.790767
_cell_length_b 8.296403
_cell_length_c 16.879604
_cell_angle_alpha 90.000000
_cell_angle_beta 90.000000
_cell_angle_gamma 90.000000
_cell_volume 1651.178978
_symmetry_space_group_name_H-M "P B C M"
_symmetry_group_IT_number 57
_symmetry_cell_setting 'orthorhombic'
loop_
_space_group_symop_operation_xyz
x,y,z
-x,-y,1/2+z
x,1/2-y,-z
-x,1/2+y,1/2-z
-x,-y,-z
x,y,1/2-z
-x,1/2+y,z
x,1/2-y,1/2+z
loop_
_atom_site_type_symbol
_atom_site_label
_atom_site_fract_x
_atom_site_fract_y
_atom_site_fract_z
Si Si1 0.915623 0.734944 0.657838
Si Si2 0.255487 0.418485 0.450553
Si Si3 0.476286 0.863623 0.577869
Si Si4 0.867424 0.416312 0.089970
Si Si5 0.363493 0.597249 0.660664
O O1 0.942919 0.711219 0.750000
O O2 0.808766 0.629295 0.629825
O O3 0.887539 0.919550 0.639175
O O4 0.021009 0.687026 0.602044
O O5 0.265751 0.250000 0.500000
O O6 0.373349 0.509837 0.434233
O O7 0.172084 0.532552 0.502406
O O8 0.479892 0.750000 0.500000
O O9 0.447937 0.745716 0.650028
O O10 0.588952 0.958669 0.602898
O O11 0.756574 0.339601 0.129483
O O12 0.355905 0.540060 0.750000
#
# Coordination Sequence:
#
# PCOD9439937 Si02
#       5
#     8   8   8   8   8
#     4  11  24  42  71 103 143 188 238 298 364 428
#     4  10  25  47  74 105 143 192 241 300 355 434
#     4  12  27  47  76 105 144 193 247 297 362 438
#     4  11  25  47  70 102 144 188 241 292 362 433
#     4  12  28  48  73 107 149 189 242 306 365 429
#
# _framework density 24.225114000000001
#
# number of rings (size 3 to 8) (size 9 to 14) (size 15 to 20)
#    0.000    0.800    2.000    3.600    8.400    1.600 
#    0.000    0.000    0.000    0.000    0.000    0.000 
#    0.000    0.000    0.000    0.000    0.000    0.000 
#
# Total GULP energy -224183.126814 kJ/mol
# GULP energy per Si atom -5604.578170 kJ/mol
# Density = 2.416998 g / cm^3
# Si number density = 24.225114 Si / 1000 Ang^3
#
#
#
# Elastic Constant Matrix: (Units=GPa)
#
#
# Indices 1 2 3 4 5 6 
#
# 1 85.7871 13.5797 8.0291 0.0000 0.0000 0.0000
# 2 13.5797 43.9382 13.8316 0.0000 0.0000 0.0000
# 3 8.0291 13.8316 83.7664 0.0000 0.0000 0.0000
# 4 0.0000 0.0000 0.0000 31.5904 0.0000 0.0000
# 5 0.0000 0.0000 0.0000 0.0000 20.8961 0.0000
# 6 0.0000 0.0000 0.0000 0.0000 0.0000 30.9490
#
#
#
# Elastic Compliance Matrix: (Units=1/GPa)
#
#
# Indices 1 2 3 4 5 6 
#
# 1 0.012283 -0.003613 -0.000581 0.000000 0.000000 0.000000
# 2 -0.003613 0.025070 -0.003793 0.000000 0.000000 0.000000
# 3 -0.000581 -0.003793 0.012620 0.000000 0.000000 0.000000
# 4 0.000000 0.000000 0.000000 0.031655 0.000000 0.000000
# 5 0.000000 0.000000 0.000000 0.000000 0.047856 0.000000
# 6 0.000000 0.000000 0.000000 0.000000 0.000000 0.032311
#
#
# Mechanical properties :
#
#
# Convention : Reuss Voigt Hill
#
# Bulk Modulus (GPa) = 29.41316 31.59695 30.50505
# Shear Modulus (GPa) = 26.44063 28.55719 27.49891
#
# Velocity S-wave (km/s) = 3.30730 3.43713 3.37284
# Velocity P-wave (km/s) = 5.17226 5.36872 5.27141
#
# Compressibility (1/GPa) = 0.03399839
#
# Stress axis : x y z
#
# Youngs Moduli (GPa) = 81.41262 39.88813 79.23952
#
# Poissons Ratio (x) = 0.14413 0.04601
# Poissons Ratio (y) = 0.29418 0.30058
# Poissons Ratio (z) = 0.04728 0.15131
#
# Static dielectric constant tensor:
#      x y z
#    x 1.902100 0.000000 0.000000 
#    y 0.000000 1.930310 0.000000 
#    z 0.000000 0.000000 1.890650 
# 
# From -- ./inp_files/24862.got.cif
#   From: 2010.05.17/outbox.cif.g08.bks.cpg/sg57_13_cif.got.tgz:24862.got - 2010.06.03 13:58:18.
