data_PCOD9439175
_publ_section_title
;
Structure prediction by ZEFSAII (Michael W. Deem and Ramdas Pophale) SiO2 
 PCOD9439175
Probable space group: P B C M
;
_chemical_formula_sum "Si O2"
_cell_formula_units_Z 48
_cell_length_a 13.078223
_cell_length_b 10.471977
_cell_length_c 17.408793
_cell_angle_alpha 90.000000
_cell_angle_beta 90.000000
_cell_angle_gamma 90.000000
_cell_volume 2384.218642
_symmetry_space_group_name_H-M "P B C M"
_symmetry_group_IT_number 57
_symmetry_cell_setting 'orthorhombic'
loop_
_space_group_symop_operation_xyz
x,y,z
-x,-y,1/2+z
x,1/2-y,-z
-x,1/2+y,1/2-z
-x,-y,-z
x,y,1/2-z
-x,1/2+y,z
x,1/2-y,1/2+z
loop_
_atom_site_type_symbol
_atom_site_label
_atom_site_fract_x
_atom_site_fract_y
_atom_site_fract_z
Si Si1 0.575397 0.270287 0.158906
Si Si2 0.079310 0.973353 0.069564
Si Si3 0.103485 0.017349 0.663720
Si Si4 0.813945 0.264537 0.160398
Si Si5 0.766057 0.887218 0.467296
Si Si6 0.551492 0.503454 0.917321
O O1 0.565620 0.255826 0.250000
O O2 0.695718 0.294146 0.142489
O O3 0.545471 0.136255 0.120082
O O4 0.506368 0.387378 0.130739
O O5 0.012570 0.020060 0.141785
O O6 0.113961 0.833633 0.098228
O O7 0.181224 0.039777 0.038573
O O8 0.000000 0.000000 0.000000
O O9 0.110054 0.066614 0.750000
O O10 0.167274 0.886670 0.657018
O O11 0.149692 0.114722 0.601245
O O12 0.834615 0.302825 0.250000
O O13 0.737341 0.750000 0.500000
O O14 0.668345 0.956533 0.432051
O O15 0.500000 0.500000 0.000000
#
# Coordination Sequence:
#
# PCOD9439175 Si02
#       6
#     8   8   8   8   8   8
#     4  11  24  43  71 100 135 179 231 288 347 411
#     4  10  23  37  62  94 130 170 221 269 330 392
#     4  10  22  41  66  92 125 172 225 276 332 396
#     4  10  21  41  66  95 126 171 225 277 334 398
#     4  11  24  41  61  94 134 172 217 270 339 400
#     4  12  24  43  67 100 136 179 227 281 346 414
#
# _framework density 20.132382
#
# number of rings (size 3 to 8) (size 9 to 14) (size 15 to 20)
#    0.000    1.333    1.667    3.500    4.667    2.667 
#    0.000    0.833    0.000    0.000    0.000    0.000 
#    0.000    0.000    0.000    0.000    0.000    0.000 
#
# Total GULP energy -267827.975936 kJ/mol
# GULP energy per Si atom -5579.749499 kJ/mol
# Density = 2.008656 g / cm^3
# Si number density = 20.132382 Si / 1000 Ang^3
#
#
#
# Elastic Constant Matrix: (Units=GPa)
#
#
# Indices 1 2 3 4 5 6 
#
# 1 82.8635 15.7318 34.5597 0.0000 0.0000 0.0000
# 2 15.7318 65.8148 34.1141 0.0000 0.0000 0.0000
# 3 34.5597 34.1141 98.0188 0.0000 0.0000 0.0000
# 4 0.0000 0.0000 0.0000 40.6714 0.0000 0.0000
# 5 0.0000 0.0000 0.0000 0.0000 23.5744 0.0000
# 6 0.0000 0.0000 0.0000 0.0000 0.0000 27.7599
#
#
#
# Elastic Compliance Matrix: (Units=1/GPa)
#
#
# Indices 1 2 3 4 5 6 
#
# 1 0.014200 -0.000975 -0.004667 0.000000 0.000000 0.000000
# 2 -0.000975 0.018605 -0.006132 0.000000 0.000000 0.000000
# 3 -0.004667 -0.006132 0.013982 0.000000 0.000000 0.000000
# 4 0.000000 0.000000 0.000000 0.024587 0.000000 0.000000
# 5 0.000000 0.000000 0.000000 0.000000 0.042419 0.000000
# 6 0.000000 0.000000 0.000000 0.000000 0.000000 0.036023
#
#
# Mechanical properties :
#
#
# Convention : Reuss Voigt Hill
#
# Bulk Modulus (GPa) = 43.03073 46.16761 44.59917
# Shear Modulus (GPa) = 27.60750 29.22059 28.41404
#
# Velocity S-wave (km/s) = 3.70712 3.81389 3.76088
# Velocity P-wave (km/s) = 6.30428 6.50969 6.40781
#
# Compressibility (1/GPa) = 0.02323921
#
# Stress axis : x y z
#
# Youngs Moduli (GPa) = 70.42407 53.74771 71.52190
#
# Poissons Ratio (x) = 0.05240 0.33381
# Poissons Ratio (y) = 0.06866 0.43854
# Poissons Ratio (z) = 0.32869 0.32956
#
# Static dielectric constant tensor:
#      x y z
#    x 1.748880 0.000000 0.000000 
#    y 0.000000 1.687560 0.000000 
#    z 0.000000 0.000000 1.717140 
# 
# From -- ./inp_files/22388.got.cif
#   From: 2010.05.17/outbox.cif.g08.bks.cpg/sg57_12_cif.got.tgz:22388.got - 2010.06.03 13:58:18.
