data_PCOD9439615
_publ_section_title
;
Structure prediction by ZEFSAII (Michael W. Deem and Ramdas Pophale) SiO2 
 PCOD9439615
Probable space group: P B C M
;
_chemical_formula_sum "Si O2"
_cell_formula_units_Z 56
_cell_length_a 5.678375
_cell_length_b 14.574080
_cell_length_c 29.512522
_cell_angle_alpha 90.000000
_cell_angle_beta 90.000000
_cell_angle_gamma 90.000000
_cell_volume 2442.370484
_symmetry_space_group_name_H-M "P B C M"
_symmetry_group_IT_number 57
_symmetry_cell_setting 'orthorhombic'
loop_
_space_group_symop_operation_xyz
x,y,z
-x,-y,1/2+z
x,1/2-y,-z
-x,1/2+y,1/2-z
-x,-y,-z
x,y,1/2-z
-x,1/2+y,z
x,1/2-y,1/2+z
loop_
_atom_site_type_symbol
_atom_site_label
_atom_site_fract_x
_atom_site_fract_y
_atom_site_fract_z
Si Si1 0.605842 0.804410 0.543044
Si Si2 0.877301 0.124220 0.153345
Si Si3 0.247927 0.913434 0.750000
Si Si4 0.257204 0.524685 0.750000
Si Si5 0.057687 0.299025 0.398049
Si Si6 0.917162 0.905225 0.020548
Si Si7 0.567218 0.009163 0.085556
Si Si8 0.824087 0.047755 0.652203
O O1 0.499188 0.750000 0.500000
O O2 0.848469 0.842720 0.521334
O O3 0.487514 0.899521 0.556465
O O4 0.690266 0.742875 0.585398
O O5 0.779804 0.141950 0.203364
O O6 0.922680 0.214434 0.124444
O O7 0.711565 0.054793 0.126317
O O8 0.108217 0.060001 0.157370
O O9 0.505488 0.961508 0.750000
O O10 0.012124 0.980321 0.750000
O O11 0.268370 0.576302 0.798340
O O12 0.032690 0.382853 0.362590
O O13 0.946363 0.341677 0.443961
O O14 0.702128 0.940058 0.052494
O O15 0.000000 0.000000 0.000000
O O16 0.356797 0.957067 0.110629
#
# Coordination Sequence:
#
# PCOD9439615 Si02
#       8
#     8   8   4   4   8   8   8   8
#     4  10  23  39  60  98 136 179 246 303 369 434
#     4  11  23  43  69 100 142 186 238 303 379 446
#     4  10  22  43  72 107 145 196 231 305 380 449
#     4  10  22  43  74 105 151 192 241 299 378 459
#     4  11  23  42  69  97 139 186 240 311 361 446
#     4  11  23  41  65  94 142 186 242 307 376 440
#     4  12  22  41  72  95 138 191 247 294 375 458
#     4  11  23  44  70 102 142 188 239 298 382 451
#
# _framework density 22.928543000000001
#
# number of rings (size 3 to 8) (size 9 to 14) (size 15 to 20)
#    0.000    1.143    4.286    2.143    0.000    4.000 
#    0.000    0.000    0.000    1.714    0.000    0.000 
#    0.000    0.000    0.000    0.000    0.000    0.000 
#
# Total GULP energy -312029.022918 kJ/mol
# GULP energy per Si atom -5571.946838 kJ/mol
# Density = 2.287636 g / cm^3
# Si number density = 22.928543 Si / 1000 Ang^3
#
#
#
# Elastic Constant Matrix: (Units=GPa)
#
#
# Indices 1 2 3 4 5 6 
#
# 1 49.3475 22.9880 29.0995 0.0000 0.0000 0.0000
# 2 22.9880 131.4573 39.3240 0.0000 0.0000 0.0000
# 3 29.0995 39.3240 113.1906 0.0000 0.0000 0.0000
# 4 0.0000 0.0000 0.0000 30.6547 0.0000 0.0000
# 5 0.0000 0.0000 0.0000 0.0000 37.4690 0.0000
# 6 0.0000 0.0000 0.0000 0.0000 0.0000 29.8791
#
#
#
# Elastic Compliance Matrix: (Units=1/GPa)
#
#
# Indices 1 2 3 4 5 6 
#
# 1 0.024717 -0.002702 -0.005415 0.000000 0.000000 0.000000
# 2 -0.002702 0.008785 -0.002357 0.000000 0.000000 0.000000
# 3 -0.005415 -0.002357 0.011046 0.000000 0.000000 0.000000
# 4 0.000000 0.000000 0.000000 0.032621 0.000000 0.000000
# 5 0.000000 0.000000 0.000000 0.000000 0.026689 0.000000
# 6 0.000000 0.000000 0.000000 0.000000 0.000000 0.033468
#
#
# Mechanical properties :
#
#
# Convention : Reuss Voigt Hill
#
# Bulk Modulus (GPa) = 42.37769 52.97984 47.67876
# Shear Modulus (GPa) = 30.09488 33.10616 31.60052
#
# Velocity S-wave (km/s) = 3.62684 3.80397 3.71646
# Velocity P-wave (km/s) = 6.00511 6.51539 6.26544
#
# Compressibility (1/GPa) = 0.02359732
#
# Stress axis : x y z
#
# Youngs Moduli (GPa) = 40.45850 113.83406 90.53189
#
# Poissons Ratio (x) = 0.30761 0.49027
# Poissons Ratio (y) = 0.10933 0.21340
# Poissons Ratio (z) = 0.21910 0.26833
#
# Static dielectric constant tensor:
#      x y z
#    x 2.013880 0.000000 0.000000 
#    y 0.000000 1.900840 0.000000 
#    z 0.000000 0.000000 1.891430 
# 
# From -- ./inp_files/29210.got.cif
#   From: 2010.05.17/outbox.cif.g08.bks.cpg/sg57_15_cif.got.tgz:29210.got - 2010.06.03 13:58:18.
