data_PCOD9439016
_publ_section_title
;
Structure prediction by ZEFSAII (Michael W. Deem and Ramdas Pophale) SiO2 
 PCOD9439016
Probable space group: P B C M
;
_chemical_formula_sum "Si O2"
_cell_formula_units_Z 48
_cell_length_a 5.478934
_cell_length_b 28.736185
_cell_length_c 13.370086
_cell_angle_alpha 90.000000
_cell_angle_beta 90.000000
_cell_angle_gamma 90.000000
_cell_volume 2105.035288
_symmetry_space_group_name_H-M "P B C M"
_symmetry_group_IT_number 57
_symmetry_cell_setting 'orthorhombic'
loop_
_space_group_symop_operation_xyz
x,y,z
-x,-y,1/2+z
x,1/2-y,-z
-x,1/2+y,1/2-z
-x,-y,-z
x,y,1/2-z
-x,1/2+y,z
x,1/2-y,1/2+z
loop_
_atom_site_type_symbol
_atom_site_label
_atom_site_fract_x
_atom_site_fract_y
_atom_site_fract_z
Si Si1 0.561895 0.650875 0.418861
Si Si2 0.792190 0.204275 0.955329
Si Si3 0.912024 0.610719 0.560131
Si Si4 0.364238 0.747938 0.750000
Si Si5 0.139811 0.195071 0.250000
Si Si6 0.288560 0.938941 0.939667
Si Si7 0.593478 0.962184 0.141568
O O1 0.383106 0.692214 0.450565
O O2 0.670665 0.636393 0.524417
O O3 0.782272 0.665256 0.347052
O O4 0.418117 0.604781 0.385278
O O5 0.672292 0.219167 0.851396
O O6 0.913075 0.154725 0.927578
O O7 0.936856 0.250000 0.000000
O O8 0.819823 0.573770 0.639607
O O9 0.022113 0.578977 0.470784
O O10 0.641247 0.766913 0.750000
O O11 0.134368 0.785235 0.750000
O O12 0.307173 0.985955 0.877975
O O13 0.419685 0.949817 0.047245
O O14 0.470509 0.959389 0.250000
#
# Coordination Sequence:
#
# PCOD9439016 Si02
#       7
#     8   8   8   4   4   8   8
#     4  10  23  42  67  92 134 174 228 286 353 416
#     4  11  23  43  66  92 133 180 225 284 351 417
#     4  10  22  41  63  93 131 174 219 288 344 419
#     4  12  28  44  70 101 137 185 236 291 352 423
#     4  12  26  46  70 107 135 181 242 297 346 425
#     4   9  21  42  63  92 133 171 223 279 355 414
#     4  10  21  39  65  94 130 173 221 283 345 431
#
# _framework density 22.802467
#
# number of rings (size 3 to 8) (size 9 to 14) (size 15 to 20)
#    0.000    1.667    1.667    1.500    7.000    1.333 
#   13.500    0.000    0.000    0.000    0.000    0.000 
#    0.000    0.000    0.000    0.000    0.000    0.000 
#
# Total GULP energy -267446.527137 kJ/mol
# GULP energy per Si atom -5571.802649 kJ/mol
# Density = 2.275057 g / cm^3
# Si number density = 22.802467 Si / 1000 Ang^3
#
#
#
# Elastic Constant Matrix: (Units=GPa)
#
#
# Indices 1 2 3 4 5 6 
#
# 1 47.1889 16.7631 8.4242 0.0000 0.0000 0.0000
# 2 16.7631 103.5067 45.3318 0.0000 0.0000 0.0000
# 3 8.4242 45.3318 74.7250 0.0000 0.0000 0.0000
# 4 0.0000 0.0000 0.0000 -14.5896 0.0000 0.0000
# 5 0.0000 0.0000 0.0000 0.0000 70.0327 0.0000
# 6 0.0000 0.0000 0.0000 0.0000 0.0000 17.1799
#
#
#
# Elastic Compliance Matrix: (Units=1/GPa)
#
#
# Indices 1 2 3 4 5 6 
#
# 1 0.022496 -0.003449 -0.000444 0.000000 0.000000 0.000000
# 2 -0.003449 0.013686 -0.007914 0.000000 0.000000 0.000000
# 3 -0.000444 -0.007914 0.018233 0.000000 0.000000 0.000000
# 4 0.000000 0.000000 0.000000 -0.068542 0.000000 0.000000
# 5 0.000000 0.000000 0.000000 0.000000 0.014279 0.000000
# 6 0.000000 0.000000 0.000000 0.000000 0.000000 0.058208
#
#
# Mechanical properties :
#
#
# Convention : Reuss Voigt Hill
#
# Bulk Modulus (GPa) = 32.46534 40.71766 36.59150
# Shear Modulus (GPa) = 54.20690 24.85135 39.52912
#
# Velocity S-wave (km/s) = 4.88098 3.30487 4.16810
# Velocity P-wave (km/s) = 6.78483 5.69723 6.26467
#
# Compressibility (1/GPa) = 0.03080208
#
# Stress axis : x y z
#
# Youngs Moduli (GPa) = 44.45275 73.06968 54.84509
#
# Poissons Ratio (x) = 0.25201 0.02434
# Poissons Ratio (y) = 0.15331 0.43402
# Poissons Ratio (z) = 0.01973 0.57824
#
# Static dielectric constant tensor:
#      x y z
#    x 1.916660 0.000000 0.000000 
#    y 0.000000 1.919880 0.000000 
#    z 0.000000 0.000000 1.859380 
# 
# From -- ./inp_files/15145.got.cif
#   From: 2010.05.17/outbox.cif.g08.bks.cpg/sg57_8_cif.got.tgz:15145.got - 2010.06.03 13:58:18.
