data_PCOD9439623
_publ_section_title
;
Structure prediction by ZEFSAII (Michael W. Deem and Ramdas Pophale) SiO2 
 PCOD9439623
Probable space group: P B C M
;
_chemical_formula_sum "Si O2"
_cell_formula_units_Z 24
_cell_length_a 4.808976
_cell_length_b 14.780849
_cell_length_c 10.690206
_cell_angle_alpha 90.000000
_cell_angle_beta 90.000000
_cell_angle_gamma 90.000000
_cell_volume 759.867840
_symmetry_space_group_name_H-M "P B C M"
_symmetry_group_IT_number 57
_symmetry_cell_setting 'orthorhombic'
loop_
_space_group_symop_operation_xyz
x,y,z
-x,-y,1/2+z
x,1/2-y,-z
-x,1/2+y,1/2-z
-x,-y,-z
x,y,1/2-z
-x,1/2+y,z
x,1/2-y,1/2+z
loop_
_atom_site_type_symbol
_atom_site_label
_atom_site_fract_x
_atom_site_fract_y
_atom_site_fract_z
Si Si1 0.008042 0.001959 0.250000
Si Si2 0.747464 0.302677 0.750000
Si Si3 0.592126 0.624205 0.750000
Si Si4 0.299934 0.750000 0.500000
Si Si5 0.293091 0.080532 0.495017
O O1 0.103134 0.059608 0.379052
O O2 0.699630 0.091116 0.250000
O O3 0.300163 0.928269 0.250000
O O4 0.476228 0.230792 0.750000
O O5 0.883084 0.264012 0.877601
O O6 0.806167 0.582599 0.856570
O O7 0.508047 0.833434 0.502127
O O8 0.500000 0.000000 0.500000
#
# Coordination Sequence:
#
# PCOD9439623 Si02
#       5
#     4   4   4   4   8
#     4  12  24  44  76 110 142 200 252 296 384 456
#     4  10  23  43  69 105 148 190 243 310 369 440
#     4  10  23  43  69 107 148 190 245 308 365 442
#     4  10  22  44  68 100 150 194 236 316 374 424
#     4  11  23  43  71 107 149 193 246 311 368 440
#
# _framework density 31.584440000000001
#
# number of rings (size 3 to 8) (size 9 to 14) (size 15 to 20)
#    0.000    1.333    0.000    5.000    0.000    1.333 
#    0.000   25.000    0.000    0.000    0.000    7.000 
#    0.000    0.000    0.000    0.000    0.000    0.000 
#
# Total GULP energy -133675.860844 kJ/mol
# GULP energy per Si atom -5569.827535 kJ/mol
# Density = 3.151255 g / cm^3
# Si number density = 31.584440 Si / 1000 Ang^3
#
#
#
# Elastic Constant Matrix: (Units=GPa)
#
#
# Indices 1 2 3 4 5 6 
#
# 1 181.0856 92.0462 47.1618 0.0000 0.0000 0.0000
# 2 92.0462 256.3370 78.5215 0.0000 0.0000 0.0000
# 3 47.1618 78.5215 207.0799 0.0000 0.0000 0.0000
# 4 0.0000 0.0000 0.0000 24.3648 0.0000 0.0000
# 5 0.0000 0.0000 0.0000 0.0000 -21.2247 0.0000
# 6 0.0000 0.0000 0.0000 0.0000 0.0000 69.3736
#
#
#
# Elastic Compliance Matrix: (Units=1/GPa)
#
#
# Indices 1 2 3 4 5 6 
#
# 1 0.006846 -0.002241 -0.000709 0.000000 0.000000 0.000000
# 2 -0.002241 0.005147 -0.001441 0.000000 0.000000 0.000000
# 3 -0.000709 -0.001441 0.005537 0.000000 0.000000 0.000000
# 4 0.000000 0.000000 0.000000 0.041043 0.000000 0.000000
# 5 0.000000 0.000000 0.000000 0.000000 -0.047115 0.000000
# 6 0.000000 0.000000 0.000000 0.000000 0.000000 0.014415
#
#
# Mechanical properties :
#
#
# Convention : Reuss Voigt Hill
#
# Bulk Modulus (GPa) = 114.32542 119.99572 117.16057
# Shear Modulus (GPa) = 133.07552 42.95427 88.01490
#
# Velocity S-wave (km/s) = 6.49806 3.69179 5.28460
# Velocity P-wave (km/s) = 9.62159 7.49980 8.62618
#
# Compressibility (1/GPa) = 0.00874696
#
# Stress axis : x y z
#
# Youngs Moduli (GPa) = 146.06803 194.27430 180.59717
#
# Poissons Ratio (x) = 0.43537 0.12812
# Poissons Ratio (y) = 0.32734 0.26032
# Poissons Ratio (z) = 0.10362 0.28003
#
# Static dielectric constant tensor:
#      x y z
#    x 3.285930 0.000000 0.000000 
#    y 0.000000 2.711850 0.000000 
#    z 0.000000 0.000000 4.546400 
# 
# From -- ./inp_files/10491.got.cif
#   From: 2010.05.17/outbox.cif.g08.bks.cpg/sg57_6_cif.got.tgz:10491.got - 2010.06.03 13:58:18.
