data_PCOD9439777
_publ_section_title
;
Structure prediction by ZEFSAII (Michael W. Deem and Ramdas Pophale) SiO2 
 PCOD9439777
Probable space group: P B C M
;
_chemical_formula_sum "Si O2"
_cell_formula_units_Z 32
_cell_length_a 5.856173
_cell_length_b 14.681598
_cell_length_c 16.862525
_cell_angle_alpha 90.000000
_cell_angle_beta 90.000000
_cell_angle_gamma 90.000000
_cell_volume 1449.805800
_symmetry_space_group_name_H-M "P B C M"
_symmetry_group_IT_number 57
_symmetry_cell_setting 'orthorhombic'
loop_
_space_group_symop_operation_xyz
x,y,z
-x,-y,1/2+z
x,1/2-y,-z
-x,1/2+y,1/2-z
-x,-y,-z
x,y,1/2-z
-x,1/2+y,z
x,1/2-y,1/2+z
loop_
_atom_site_type_symbol
_atom_site_label
_atom_site_fract_x
_atom_site_fract_y
_atom_site_fract_z
Si Si1 0.413443 0.998894 0.897776
Si Si2 0.749086 0.395975 0.750000
Si Si3 0.245360 0.201830 0.250000
Si Si4 0.182542 0.934317 0.457851
Si Si5 0.191350 0.304292 0.081504
O O1 0.275874 0.959445 0.825840
O O2 0.362987 0.929992 0.970153
O O3 0.685699 0.010245 0.889542
O O4 0.330645 0.101871 0.911543
O O5 0.505817 0.339571 0.750000
O O6 0.999686 0.351130 0.750000
O O7 0.229389 0.253388 0.164597
O O8 0.068568 0.842020 0.429391
O O9 0.000000 0.000000 0.500000
O O10 0.244667 0.250000 0.000000
#
# Coordination Sequence:
#
# PCOD9439777 Si02
#       5
#     8   4   4   8   8
#     4  10  23  43  73  99 137 192 245 291 361 437
#     4  12  29  47  72 102 148 192 248 296 351 442
#     4  12  31  47  70 112 150 188 242 304 367 418
#     4   9  21  40  70  99 133 183 242 284 360 430
#     4  11  25  44  72 104 148 185 235 305 370 424
#
# _framework density 22.071921
#
# number of rings (size 3 to 8) (size 9 to 14) (size 15 to 20)
#    0.000    1.500    0.000    2.250   21.000    2.000 
#    0.000    0.000    0.000    0.000    0.000    0.000 
#    0.000    0.000    0.000    0.000    0.000    0.000 
#
# Total GULP energy -178146.121712 kJ/mol
# GULP energy per Si atom -5567.066303 kJ/mol
# Density = 2.202168 g / cm^3
# Si number density = 22.071921 Si / 1000 Ang^3
#
#
#
# Elastic Constant Matrix: (Units=GPa)
#
#
# Indices 1 2 3 4 5 6 
#
# 1 111.4088 50.4960 30.2778 0.0000 0.0000 0.0000
# 2 50.4960 86.7992 64.0052 0.0000 0.0000 0.0000
# 3 30.2778 64.0052 138.9353 0.0000 0.0000 0.0000
# 4 0.0000 0.0000 0.0000 46.7261 0.0000 0.0000
# 5 0.0000 0.0000 0.0000 0.0000 -85.3214 0.0000
# 6 0.0000 0.0000 0.0000 0.0000 0.0000 60.4389
#
#
#
# Elastic Compliance Matrix: (Units=1/GPa)
#
#
# Indices 1 2 3 4 5 6 
#
# 1 0.012269 -0.007824 0.000931 0.000000 0.000000 0.000000
# 2 -0.007824 0.022437 -0.008631 0.000000 0.000000 0.000000
# 3 0.000931 -0.008631 0.010971 0.000000 0.000000 0.000000
# 4 0.000000 0.000000 0.000000 0.021401 0.000000 0.000000
# 5 0.000000 0.000000 0.000000 0.000000 -0.011720 0.000000
# 6 0.000000 0.000000 0.000000 0.000000 0.000000 0.016546
#
#
# Mechanical properties :
#
#
# Convention : Reuss Voigt Hill
#
# Bulk Modulus (GPa) = 68.36171 69.63346 68.99758
# Shear Modulus (GPa) = 46.36947 17.19300 31.78123
#
# Velocity S-wave (km/s) = 4.58846 2.79400 3.79871
# Velocity P-wave (km/s) = 7.68840 6.48271 7.11115
#
# Compressibility (1/GPa) = 0.01462807
#
# Stress axis : x y z
#
# Youngs Moduli (GPa) = 81.50472 44.56893 91.14820
#
# Poissons Ratio (x) = 0.34870 -0.08482
# Poissons Ratio (y) = 0.63768 0.78674
# Poissons Ratio (z) = -0.07584 0.38469
#
# Static dielectric constant tensor:
#      x y z
#    x 2.043690 0.000000 0.000000 
#    y 0.000000 1.484630 0.000000 
#    z 0.000000 0.000000 1.969670 
# 
# From -- ./inp_files/14787.got.cif
#   From: 2010.05.17/outbox.cif.g08.bks.cpg/sg57_8_cif.got.tgz:14787.got - 2010.06.03 13:58:18.
