data_PCOD9439521
_publ_section_title
;
Structure prediction by ZEFSAII (Michael W. Deem and Ramdas Pophale) SiO2 
 PCOD9439521
Probable space group: P B C M
;
_chemical_formula_sum "Si O2"
_cell_formula_units_Z 48
_cell_length_a 7.239767
_cell_length_b 10.749555
_cell_length_c 21.984544
_cell_angle_alpha 90.000000
_cell_angle_beta 90.000000
_cell_angle_gamma 90.000000
_cell_volume 1710.931166
_symmetry_space_group_name_H-M "P B C M"
_symmetry_group_IT_number 57
_symmetry_cell_setting 'orthorhombic'
loop_
_space_group_symop_operation_xyz
x,y,z
-x,-y,1/2+z
x,1/2-y,-z
-x,1/2+y,1/2-z
-x,-y,-z
x,y,1/2-z
-x,1/2+y,z
x,1/2-y,1/2+z
loop_
_atom_site_type_symbol
_atom_site_label
_atom_site_fract_x
_atom_site_fract_y
_atom_site_fract_z
Si Si1 0.706674 0.975378 0.911985
Si Si2 0.436053 0.663189 0.818656
Si Si3 0.383455 0.818735 0.562954
Si Si4 0.081659 0.156362 0.315167
Si Si5 0.846788 0.578567 0.836917
Si Si6 0.018628 0.667767 0.547891
O O1 0.691388 0.062474 0.852031
O O2 0.810839 0.862329 0.878799
O O3 0.830717 0.053961 0.959407
O O4 0.504417 0.943965 0.936127
O O5 0.384716 0.698253 0.750000
O O6 0.441361 0.768534 0.870028
O O7 0.640108 0.603668 0.817072
O O8 0.443098 0.750000 0.500000
O O9 0.165477 0.780730 0.564948
O O10 0.183334 0.135415 0.250000
O O11 0.920565 0.054767 0.317378
O O12 0.034308 0.302203 0.314343
O O13 0.877797 0.596957 0.908433
O O14 0.905566 0.750000 0.500000
#
# Coordination Sequence:
#
# PCOD9439521 Si02
#       6
#     8   8   8   8   8   8
#     4  10  22  41  67  96 128 180 225 288 350 411
#     4  11  23  40  66 100 135 177 231 283 346 417
#     4  10  22  42  69  97 132 176 232 288 353 410
#     4  11  22  42  64  93 137 177 224 278 343 412
#     4  11  24  41  64 100 134 181 225 280 347 412
#     4   9  22  42  62  91 133 173 228 281 341 409
#
# _framework density 28.054898999999999
#
# number of rings (size 3 to 8) (size 9 to 14) (size 15 to 20)
#    0.000    1.667    1.667    2.000    2.333    7.333 
#    0.000    3.333    0.000    0.000    0.000    0.000 
#    0.000    0.000    0.000    0.000    0.000    0.000 
#
# Total GULP energy -267791.718761 kJ/mol
# GULP energy per Si atom -5578.994141 kJ/mol
# Density = 2.799104 g / cm^3
# Si number density = 28.054899 Si / 1000 Ang^3
#
#
#
# Elastic Constant Matrix: (Units=GPa)
#
#
# Indices 1 2 3 4 5 6 
#
# 1 86.6347 10.5792 19.2231 0.0000 0.0000 0.0000
# 2 10.5792 102.4768 29.3976 0.0000 0.0000 0.0000
# 3 19.2231 29.3976 179.8452 0.0000 0.0000 0.0000
# 4 0.0000 0.0000 0.0000 -8.6818 0.0000 0.0000
# 5 0.0000 0.0000 0.0000 0.0000 10.3371 0.0000
# 6 0.0000 0.0000 0.0000 0.0000 0.0000 41.7441
#
#
#
# Elastic Compliance Matrix: (Units=1/GPa)
#
#
# Indices 1 2 3 4 5 6 
#
# 1 0.011903 -0.000906 -0.001124 0.000000 0.000000 0.000000
# 2 -0.000906 0.010307 -0.001588 0.000000 0.000000 0.000000
# 3 -0.001124 -0.001588 0.005940 0.000000 0.000000 0.000000
# 4 0.000000 0.000000 0.000000 -0.115184 0.000000 0.000000
# 5 0.000000 0.000000 0.000000 0.000000 0.096739 0.000000
# 6 0.000000 0.000000 0.000000 0.000000 0.000000 0.023955
#
#
# Mechanical properties :
#
#
# Convention : Reuss Voigt Hill
#
# Bulk Modulus (GPa) = 47.81604 54.15072 50.98338
# Shear Modulus (GPa) = 104.45238 29.33034 66.89136
#
# Velocity S-wave (km/s) = 6.10838 3.23687 4.88823
# Velocity P-wave (km/s) = 8.17499 5.77177 7.07615
#
# Compressibility (1/GPa) = 0.02091349
#
# Stress axis : x y z
#
# Youngs Moduli (GPa) = 84.01371 97.01756 168.34835
#
# Poissons Ratio (x) = 0.08793 0.18924
# Poissons Ratio (y) = 0.07614 0.26733
# Poissons Ratio (z) = 0.09444 0.15406
#
# Static dielectric constant tensor:
#      x y z
#    x 2.255610 0.000000 0.000000 
#    y 0.000000 2.298950 0.000000 
#    z 0.000000 0.000000 2.405390 
# 
# From -- ./inp_files/26667.got.cif
#   From: 2010.05.17/outbox.cif.g08.bks.cpg/sg57_14_cif.got.tgz:26667.got - 2010.06.03 13:58:18.
