data_PCOD9439862
_publ_section_title
;
Structure prediction by ZEFSAII (Michael W. Deem and Ramdas Pophale) SiO2 
 PCOD9439862
Probable space group: P B C M
;
_chemical_formula_sum "Si O2"
_cell_formula_units_Z 64
_cell_length_a 25.815018
_cell_length_b 8.373763
_cell_length_c 14.373231
_cell_angle_alpha 90.000000
_cell_angle_beta 90.000000
_cell_angle_gamma 90.000000
_cell_volume 3107.044709
_symmetry_space_group_name_H-M "P B C M"
_symmetry_group_IT_number 57
_symmetry_cell_setting 'orthorhombic'
loop_
_space_group_symop_operation_xyz
x,y,z
-x,-y,1/2+z
x,1/2-y,-z
-x,1/2+y,1/2-z
-x,-y,-z
x,y,1/2-z
-x,1/2+y,z
x,1/2-y,1/2+z
loop_
_atom_site_type_symbol
_atom_site_label
_atom_site_fract_x
_atom_site_fract_y
_atom_site_fract_z
Si Si1 0.159873 0.536030 0.442816
Si Si2 0.728045 0.566287 0.514289
Si Si3 0.441629 0.940905 0.005928
Si Si4 0.986108 0.529726 0.149252
Si Si5 0.121590 0.870728 0.359558
Si Si6 0.651593 0.426119 0.359811
Si Si7 0.072618 0.162449 0.596166
Si Si8 0.640095 0.041775 0.142889
O O1 0.221274 0.526955 0.451649
O O2 0.140623 0.697183 0.392551
O O3 0.142254 0.526277 0.552152
O O4 0.130058 0.399423 0.384005
O O5 0.742898 0.750000 0.500000
O O6 0.698423 0.494825 0.423358
O O7 0.686314 0.553621 0.596046
O O8 0.410809 0.998440 0.915279
O O9 0.443498 0.750000 0.000000
O O10 0.403126 0.980268 0.092742
O O11 0.500000 0.000000 0.000000
O O12 0.011481 0.509458 0.250000
O O13 0.940141 0.400847 0.138106
O O14 0.957801 0.699906 0.150502
O O15 0.034434 0.489524 0.084268
O O16 0.136570 0.901883 0.250000
O O17 0.654997 0.465988 0.250000
O O18 0.651806 0.232173 0.368069
O O19 0.076720 0.250000 0.500000
O O20 0.633910 0.006410 0.250000
#
# Coordination Sequence:
#
# PCOD9439862 Si02
#       8
#     8   8   8   8   8   8   8   8
#     4  11  25  42  65  89 123 158 199 251 308 364
#     4  11  24  40  60  89 124 159 201 260 316 367
#     4   9  18  33  56  90 130 167 207 256 306 361
#     4  11  24  41  65  92 122 157 197 244 300 371
#     4  10  24  43  63  91 119 151 198 244 295 362
#     4   9  20  40  65  88 119 168 217 258 307 368
#     4  12  23  40  64  89 119 157 195 239 304 371
#     4   9  20  40  63  88 120 165 215 257 305 364
#
# _framework density 20.598354
#
# number of rings (size 3 to 8) (size 9 to 14) (size 15 to 20)
#    0.000    1.750    1.250    3.000    5.250    6.000 
#    0.000    0.000    0.000    0.000    0.000    0.000 
#    0.000    0.000    0.000    0.000    0.000    0.000 
#
# Total GULP energy -356638.504688 kJ/mol
# GULP energy per Si atom -5572.476636 kJ/mol
# Density = 2.055147 g / cm^3
# Si number density = 20.598354 Si / 1000 Ang^3
#
#
#
# Elastic Constant Matrix: (Units=GPa)
#
#
# Indices 1 2 3 4 5 6 
#
# 1 129.9806 26.5997 24.1155 0.0000 0.0000 0.0000
# 2 26.5997 51.6508 25.2299 0.0000 0.0000 0.0000
# 3 24.1155 25.2299 59.3352 0.0000 0.0000 0.0000
# 4 0.0000 0.0000 0.0000 -122.3744 0.0000 0.0000
# 5 0.0000 0.0000 0.0000 0.0000 8.0414 0.0000
# 6 0.0000 0.0000 0.0000 0.0000 0.0000 26.9890
#
#
#
# Elastic Compliance Matrix: (Units=1/GPa)
#
#
# Indices 1 2 3 4 5 6 
#
# 1 0.008799 -0.003515 -0.002082 0.000000 0.000000 0.000000
# 2 -0.003515 0.025840 -0.009559 0.000000 0.000000 0.000000
# 3 -0.002082 -0.009559 0.021764 0.000000 0.000000 0.000000
# 4 0.000000 0.000000 0.000000 -0.008172 0.000000 0.000000
# 5 0.000000 0.000000 0.000000 0.000000 0.124357 0.000000
# 6 0.000000 0.000000 0.000000 0.000000 0.000000 0.037052
#
#
# Mechanical properties :
#
#
# Convention : Reuss Voigt Hill
#
# Bulk Modulus (GPa) = 38.32520 43.65075 40.98798
# Shear Modulus (GPa) = 20.10875 -6.46737 6.82069
#
# Velocity S-wave (km/s) = 3.12786 -1.77386 1.82167
# Velocity P-wave (km/s) = 5.62948 4.12819 4.93624
#
# Compressibility (1/GPa) = 0.02609249
#
# Stress axis : x y z
#
# Youngs Moduli (GPa) = 113.65054 38.69965 45.94728
#
# Poissons Ratio (x) = 0.13601 0.09565
# Poissons Ratio (y) = 0.39942 0.43921
# Poissons Ratio (z) = 0.23659 0.36993
#
# Static dielectric constant tensor:
#      x y z
#    x 1.705070 0.000000 0.000000 
#    y 0.000000 1.797830 0.000000 
#    z 0.000000 0.000000 1.777310 
# 
# From -- ./inp_files/19533.got.cif
#   From: 2010.05.17/outbox.cif.g08.bks.cpg/sg57_10_cif.got.tgz:19533.got - 2010.06.03 13:58:18.
