data_PCOD9439066
_publ_section_title
;
Structure prediction by ZEFSAII (Michael W. Deem and Ramdas Pophale) SiO2 
 PCOD9439066
Probable space group: P B C M
;
_chemical_formula_sum "Si O2"
_cell_formula_units_Z 56
_cell_length_a 11.834427
_cell_length_b 11.379186
_cell_length_c 21.289690
_cell_angle_alpha 90.000000
_cell_angle_beta 90.000000
_cell_angle_gamma 90.000000
_cell_volume 2867.000503
_symmetry_space_group_name_H-M "P B C M"
_symmetry_group_IT_number 57
_symmetry_cell_setting 'orthorhombic'
loop_
_space_group_symop_operation_xyz
x,y,z
-x,-y,1/2+z
x,1/2-y,-z
-x,1/2+y,1/2-z
-x,-y,-z
x,y,1/2-z
-x,1/2+y,z
x,1/2-y,1/2+z
loop_
_atom_site_type_symbol
_atom_site_label
_atom_site_fract_x
_atom_site_fract_y
_atom_site_fract_z
Si Si1 0.782727 0.949705 0.822515
Si Si2 0.604861 0.691057 0.098835
Si Si3 0.633989 0.324240 0.560080
Si Si4 0.948890 0.926069 0.057690
Si Si5 0.849181 0.302045 0.382292
Si Si6 0.963137 0.092864 0.320895
Si Si7 0.309150 0.093211 0.965614
O O1 0.761218 0.975480 0.750000
O O2 0.682769 0.873015 0.850905
O O3 0.902927 0.882835 0.827420
O O4 0.804841 0.072655 0.857881
O O5 0.471309 0.675941 0.107537
O O6 0.634647 0.827480 0.088402
O O7 0.640703 0.631500 0.032495
O O8 0.592997 0.250000 0.500000
O O9 0.746329 0.260445 0.583191
O O10 0.665428 0.456633 0.542946
O O11 0.825008 0.884550 0.037651
O O12 0.041724 0.827940 0.074417
O O13 0.935009 0.004795 0.121452
O O14 0.000000 0.000000 0.000000
O O15 0.893222 0.211981 0.329751
O O16 0.945895 0.044271 0.250000
#
# Coordination Sequence:
#
# PCOD9439066 Si02
#       7
#     8   8   8   8   8   8   8
#     4  10  22  42  66  91 126 174 219 266 319 383
#     4  11  24  40  64  89 127 167 219 262 319 387
#     4  12  23  40  64  97 129 169 210 267 329 396
#     4  11  22  38  61  97 135 162 209 272 329 389
#     4  11  23  38  67  97 131 167 215 266 335 394
#     4  10  21  40  62  93 130 171 215 265 332 403
#     4  11  22  41  64  94 127 164 207 265 329 385
#
# _framework density 19.532609000000001
#
# number of rings (size 3 to 8) (size 9 to 14) (size 15 to 20)
#    0.000    1.143    2.857    5.143    2.000    1.714 
#    0.000    2.143    0.000    0.000    0.000    0.000 
#    0.000    0.000    0.000    0.000    0.000    0.000 
#
# Total GULP energy -312901.651791 kJ/mol
# GULP energy per Si atom -5587.529496 kJ/mol
# Density = 1.948815 g / cm^3
# Si number density = 19.532609 Si / 1000 Ang^3
#
#
#
# Elastic Constant Matrix: (Units=GPa)
#
#
# Indices 1 2 3 4 5 6 
#
# 1 102.4405 31.9387 8.7305 0.0000 0.0000 0.0000
# 2 31.9387 81.8386 18.0399 0.0000 0.0000 0.0000
# 3 8.7305 18.0399 54.4561 0.0000 0.0000 0.0000
# 4 0.0000 0.0000 0.0000 23.3061 0.0000 0.0000
# 5 0.0000 0.0000 0.0000 0.0000 15.1681 0.0000
# 6 0.0000 0.0000 0.0000 0.0000 0.0000 19.0240
#
#
#
# Elastic Compliance Matrix: (Units=1/GPa)
#
#
# Indices 1 2 3 4 5 6 
#
# 1 0.011121 -0.004258 -0.000372 0.000000 0.000000 0.000000
# 2 -0.004258 0.014812 -0.004224 0.000000 0.000000 0.000000
# 3 -0.000372 -0.004224 0.019822 0.000000 0.000000 0.000000
# 4 0.000000 0.000000 0.000000 0.042907 0.000000 0.000000
# 5 0.000000 0.000000 0.000000 0.000000 0.065928 0.000000
# 6 0.000000 0.000000 0.000000 0.000000 0.000000 0.052565
#
#
# Mechanical properties :
#
#
# Convention : Reuss Voigt Hill
#
# Bulk Modulus (GPa) = 35.65525 39.57261 37.61393
# Shear Modulus (GPa) = 21.34800 23.50137 22.42469
#
# Velocity S-wave (km/s) = 3.30955 3.47246 3.39199
# Velocity P-wave (km/s) = 5.73568 6.03167 5.88554
#
# Compressibility (1/GPa) = 0.02804636
#
# Stress axis : x y z
#
# Youngs Moduli (GPa) = 89.91939 67.51233 50.44774
#
# Poissons Ratio (x) = 0.28747 0.01879
# Poissons Ratio (y) = 0.38288 0.21310
# Poissons Ratio (z) = 0.03348 0.28519
#
# Static dielectric constant tensor:
#      x y z
#    x 1.686290 0.000000 0.000000 
#    y 0.000000 1.699610 0.000000 
#    z 0.000000 0.000000 1.691440 
# 
# From -- ./inp_files/25038.got.cif
#   From: 2010.05.17/outbox.cif.g08.bks.cpg/sg57_13_cif.got.tgz:25038.got - 2010.06.03 13:58:18.
