data_PCOD9439088
_publ_section_title
;
Structure prediction by ZEFSAII (Michael W. Deem and Ramdas Pophale) SiO2 
 PCOD9439088
Probable space group: P B C M
;
_chemical_formula_sum "Si O2"
_cell_formula_units_Z 40
_cell_length_a 12.133864
_cell_length_b 10.317116
_cell_length_c 16.247388
_cell_angle_alpha 90.000000
_cell_angle_beta 90.000000
_cell_angle_gamma 90.000000
_cell_volume 2033.953352
_symmetry_space_group_name_H-M "P B C M"
_symmetry_group_IT_number 57
_symmetry_cell_setting 'orthorhombic'
loop_
_space_group_symop_operation_xyz
x,y,z
-x,-y,1/2+z
x,1/2-y,-z
-x,1/2+y,1/2-z
-x,-y,-z
x,y,1/2-z
-x,1/2+y,z
x,1/2-y,1/2+z
loop_
_atom_site_type_symbol
_atom_site_label
_atom_site_fract_x
_atom_site_fract_y
_atom_site_fract_z
Si Si1 0.000105 0.129812 0.445411
Si Si2 0.759042 0.614061 0.487553
Si Si3 0.424594 0.692533 0.342952
Si Si4 0.197052 0.958035 0.845792
Si Si5 0.564365 0.470101 0.417058
O O1 0.958033 0.250000 0.500000
O O2 0.919880 0.108520 0.368588
O O3 0.130905 0.149537 0.435725
O O4 0.000000 0.000000 0.500000
O O5 0.696359 0.750000 0.500000
O O6 0.785080 0.559777 0.579207
O O7 0.689268 0.510922 0.436568
O O8 0.434203 0.739352 0.250000
O O9 0.300710 0.638662 0.355171
O O10 0.507230 0.571828 0.355369
O O11 0.446059 0.819545 0.396524
O O12 0.197309 0.003566 0.750000
O O13 0.500000 0.500000 0.500000
#
# Coordination Sequence:
#
# PCOD9439088 Si02
#       5
#     8   8   8   8   8
#     4   9  20  37  63  87 121 161 206 255 303 369
#     4  10  21  40  63  96 124 165 213 257 309 374
#     4  11  25  42  61  92 128 163 204 263 317 367
#     4  10  22  40  64  91 125 164 209 264 321 368
#     4  12  23  39  67  92 122 167 213 253 309 382
#
# _framework density 19.666132999999999
#
# number of rings (size 3 to 8) (size 9 to 14) (size 15 to 20)
#    0.000    1.600    2.000    2.400    5.600    0.000 
#    0.000   12.000    0.000    0.000    0.000    0.000 
#    0.000    0.000    0.000    0.000    0.000    0.000 
#
# Total GULP energy -222889.861342 kJ/mol
# GULP energy per Si atom -5572.246534 kJ/mol
# Density = 1.962137 g / cm^3
# Si number density = 19.666133 Si / 1000 Ang^3
#
#
#
# Elastic Constant Matrix: (Units=GPa)
#
#
# Indices 1 2 3 4 5 6 
#
# 1 82.3866 16.2328 44.5102 0.0000 0.0000 0.0000
# 2 16.2328 97.0453 32.1489 0.0000 0.0000 0.0000
# 3 44.5102 32.1489 87.9512 0.0000 0.0000 0.0000
# 4 0.0000 0.0000 0.0000 30.9550 0.0000 0.0000
# 5 0.0000 0.0000 0.0000 0.0000 18.9990 0.0000
# 6 0.0000 0.0000 0.0000 0.0000 0.0000 22.5003
#
#
#
# Elastic Compliance Matrix: (Units=1/GPa)
#
#
# Indices 1 2 3 4 5 6 
#
# 1 0.016705 0.000007 -0.008457 0.000000 0.000000 0.000000
# 2 0.000007 0.011724 -0.004289 0.000000 0.000000 0.000000
# 3 -0.008457 -0.004289 0.017218 0.000000 0.000000 0.000000
# 4 0.000000 0.000000 0.000000 0.032305 0.000000 0.000000
# 5 0.000000 0.000000 0.000000 0.000000 0.052634 0.000000
# 6 0.000000 0.000000 0.000000 0.000000 0.000000 0.044444
#
#
# Mechanical properties :
#
#
# Convention : Reuss Voigt Hill
#
# Bulk Modulus (GPa) = 49.57985 50.35189 49.96587
# Shear Modulus (GPa) = 24.12763 26.12360 25.12562
#
# Velocity S-wave (km/s) = 3.50646 3.64861 3.57824
# Velocity P-wave (km/s) = 6.45439 6.58853 6.52181
#
# Compressibility (1/GPa) = 0.02016948
#
# Stress axis : x y z
#
# Youngs Moduli (GPa) = 59.86097 85.29386 58.08001
#
# Poissons Ratio (x) = -0.00062 0.49118
# Poissons Ratio (y) = -0.00043 0.24912
# Poissons Ratio (z) = 0.50624 0.36584
#
# Static dielectric constant tensor:
#      x y z
#    x 1.826920 0.000000 0.000000 
#    y 0.000000 1.708870 0.000000 
#    z 0.000000 0.000000 1.460610 
# 
# From -- ./inp_files/17410.got.cif
#   From: 2010.05.17/outbox.cif.g08.bks.cpg/sg57_9_cif.got.tgz:17410.got - 2010.06.03 13:58:18.
