data_PCOD9439692
_publ_section_title
;
Structure prediction by ZEFSAII (Michael W. Deem and Ramdas Pophale) SiO2 
 PCOD9439692
Probable space group: P B C M
;
_chemical_formula_sum "Si O2"
_cell_formula_units_Z 48
_cell_length_a 15.280155
_cell_length_b 8.413133
_cell_length_c 17.072550
_cell_angle_alpha 90.000000
_cell_angle_beta 90.000000
_cell_angle_gamma 90.000000
_cell_volume 2194.744188
_symmetry_space_group_name_H-M "P B C M"
_symmetry_group_IT_number 57
_symmetry_cell_setting 'orthorhombic'
loop_
_space_group_symop_operation_xyz
x,y,z
-x,-y,1/2+z
x,1/2-y,-z
-x,1/2+y,1/2-z
-x,-y,-z
x,y,1/2-z
-x,1/2+y,z
x,1/2-y,1/2+z
loop_
_atom_site_type_symbol
_atom_site_label
_atom_site_fract_x
_atom_site_fract_y
_atom_site_fract_z
Si Si1 0.548915 0.136108 0.657598
Si Si2 0.879662 0.315015 0.412847
Si Si3 0.942214 0.821061 0.588063
Si Si4 0.606183 0.811389 0.587867
Si Si5 0.771718 0.819183 0.156883
Si Si6 0.285048 0.667057 0.343272
O O1 0.560973 0.097544 0.750000
O O2 0.451399 0.196875 0.643234
O O3 0.618892 0.272225 0.634121
O O4 0.570061 0.985748 0.604338
O O5 0.862487 0.250000 0.500000
O O6 0.914207 0.495249 0.413900
O O7 0.789882 0.291338 0.366901
O O8 0.959773 0.207591 0.380554
O O9 0.942173 0.750000 0.500000
O O10 0.870572 0.723499 0.636165
O O11 0.595765 0.750000 0.500000
O O12 0.706663 0.801442 0.613733
O O13 0.758832 0.809729 0.250000
O O14 0.743930 0.994145 0.126702
O O15 0.286305 0.654592 0.250000
#
# Coordination Sequence:
#
# PCOD9439692 Si02
#       6
#     8   8   8   8   8   8
#     4  11  23  42  65  90 124 167 210 257 312 376
#     4  11  22  38  62  88 121 160 201 252 310 370
#     4  11  22  39  61  89 122 159 204 253 308 369
#     4  12  25  41  63  94 126 161 206 260 315 372
#     4  11  23  41  63  89 122 163 207 256 310 369
#     4  10  23  41  62  88 120 158 204 252 304 366
#
# _framework density 21.870429000000001
#
# number of rings (size 3 to 8) (size 9 to 14) (size 15 to 20)
#    0.000    1.000    0.000    8.500    0.000    6.000 
#    0.000    0.000    0.000    0.000    0.000    0.000 
#    0.000    0.000    0.000    0.000    0.000    0.000 
#
# Total GULP energy -268632.158465 kJ/mol
# GULP energy per Si atom -5596.503301 kJ/mol
# Density = 2.182065 g / cm^3
# Si number density = 21.870429 Si / 1000 Ang^3
#
#
#
# Elastic Constant Matrix: (Units=GPa)
#
#
# Indices 1 2 3 4 5 6 
#
# 1 74.6938 -20.8073 5.8689 0.0000 0.0000 0.0000
# 2 -20.8073 66.0058 10.9457 0.0000 0.0000 0.0000
# 3 5.8689 10.9457 44.0225 0.0000 0.0000 0.0000
# 4 0.0000 0.0000 0.0000 26.2118 0.0000 0.0000
# 5 0.0000 0.0000 0.0000 0.0000 24.6624 0.0000
# 6 0.0000 0.0000 0.0000 0.0000 0.0000 34.4937
#
#
#
# Elastic Compliance Matrix: (Units=1/GPa)
#
#
# Indices 1 2 3 4 5 6 
#
# 1 0.015134 0.005325 -0.003342 0.000000 0.000000 0.000000
# 2 0.005325 0.017675 -0.005105 0.000000 0.000000 0.000000
# 3 -0.003342 -0.005105 0.024430 0.000000 0.000000 0.000000
# 4 0.000000 0.000000 0.000000 0.038151 0.000000 0.000000
# 5 0.000000 0.000000 0.000000 0.000000 0.040548 0.000000
# 6 0.000000 0.000000 0.000000 0.000000 0.000000 0.028991
#
#
# Mechanical properties :
#
#
# Convention : Reuss Voigt Hill
#
# Bulk Modulus (GPa) = 19.60908 19.63741 19.62324
# Shear Modulus (GPa) = 26.57168 29.65456 28.11312
#
# Velocity S-wave (km/s) = 3.48941 3.68628 3.58919
# Velocity P-wave (km/s) = 5.02196 5.20737 5.11550
#
# Compressibility (1/GPa) = 0.05099679
#
# Stress axis : x y z
#
# Youngs Moduli (GPa) = 66.07691 56.57628 40.93267
#
# Poissons Ratio (x) = -0.30126 0.13678
# Poissons Ratio (y) = -0.35185 0.20895
# Poissons Ratio (z) = 0.22080 0.28880
#
# Static dielectric constant tensor:
#      x y z
#    x 1.767030 0.000000 0.000000 
#    y 0.000000 1.848430 0.000000 
#    z 0.000000 0.000000 1.770310 
# 
# From -- ./inp_files/22441.got.cif
#   From: 2010.05.17/outbox.cif.g08.bks.cpg/sg57_12_cif.got.tgz:22441.got - 2010.06.03 13:58:18.
