data_PCOD9439483
_publ_section_title
;
Structure prediction by ZEFSAII (Michael W. Deem and Ramdas Pophale) SiO2 
 PCOD9439483
Probable space group: P B C M
;
_chemical_formula_sum "Si O2"
_cell_formula_units_Z 40
_cell_length_a 10.195827
_cell_length_b 23.041255
_cell_length_c 8.774365
_cell_angle_alpha 90.000000
_cell_angle_beta 90.000000
_cell_angle_gamma 90.000000
_cell_volume 2061.314625
_symmetry_space_group_name_H-M "P B C M"
_symmetry_group_IT_number 57
_symmetry_cell_setting 'orthorhombic'
loop_
_space_group_symop_operation_xyz
x,y,z
-x,-y,1/2+z
x,1/2-y,-z
-x,1/2+y,1/2-z
-x,-y,-z
x,y,1/2-z
-x,1/2+y,z
x,1/2-y,1/2+z
loop_
_atom_site_type_symbol
_atom_site_label
_atom_site_fract_x
_atom_site_fract_y
_atom_site_fract_z
Si Si1 0.224306 0.139590 0.433113
Si Si2 0.857620 0.516445 0.932264
Si Si3 0.034082 0.690443 0.930612
Si Si4 0.509848 0.186350 0.433520
Si Si5 0.245865 0.606996 0.067612
O O1 0.216169 0.139949 0.250000
O O2 0.196918 0.074897 0.493515
O O3 0.109204 0.179078 0.500885
O O4 0.366427 0.163467 0.480048
O O5 0.870116 0.524284 0.750000
O O6 0.762840 0.461511 0.962016
O O7 0.000000 0.500000 0.000000
O O8 0.027905 0.694277 0.750000
O O9 0.088646 0.750000 0.000000
O O10 0.126447 0.638064 0.982627
O O11 0.535823 0.250000 0.500000
O O12 0.511060 0.190535 0.250000
O O13 0.621208 0.139849 0.477429
O O14 0.227281 0.614786 0.250000
#
# Coordination Sequence:
#
# PCOD9439483 Si02
#       5
#     8   8   8   8   8
#     4  11  23  40  62  89 124 162 205 255 306 363
#     4  11  22  38  63  92 126 162 206 256 308 365
#     4  12  24  38  60  89 120 158 207 255 308 367
#     4  10  23  42  63  89 123 163 204 253 310 367
#     4  10  22  41  63  89 123 161 203 254 309 365
#
# _framework density 19.405093000000001
#
# number of rings (size 3 to 8) (size 9 to 14) (size 15 to 20)
#    0.000    1.200    2.000    4.200    0.000    7.200 
#    0.000    0.000    0.000    0.000    0.000    0.000 
#    0.000    0.000    0.000    0.000    0.000    0.000 
#
# Total GULP energy -223700.251172 kJ/mol
# GULP energy per Si atom -5592.506279 kJ/mol
# Density = 1.936093 g / cm^3
# Si number density = 19.405093 Si / 1000 Ang^3
#
#
#
# Elastic Constant Matrix: (Units=GPa)
#
#
# Indices 1 2 3 4 5 6 
#
# 1 71.0209 -2.5674 10.4329 0.0000 0.0000 0.0000
# 2 -2.5674 92.0107 22.6184 0.0000 0.0000 0.0000
# 3 10.4329 22.6184 51.5589 0.0000 0.0000 0.0000
# 4 0.0000 0.0000 0.0000 32.8704 0.0000 0.0000
# 5 0.0000 0.0000 0.0000 0.0000 -0.1233 0.0000
# 6 0.0000 0.0000 0.0000 0.0000 0.0000 37.3908
#
#
#
# Elastic Compliance Matrix: (Units=1/GPa)
#
#
# Indices 1 2 3 4 5 6 
#
# 1 0.014644 0.001274 -0.003522 0.000000 0.000000 0.000000
# 2 0.001274 0.012293 -0.005651 0.000000 0.000000 0.000000
# 3 -0.003522 -0.005651 0.022587 0.000000 0.000000 0.000000
# 4 0.000000 0.000000 0.000000 0.030423 0.000000 0.000000
# 5 0.000000 0.000000 0.000000 0.000000 -8.109663 0.000000
# 6 0.000000 0.000000 0.000000 0.000000 0.000000 0.026745
#
#
# Mechanical properties :
#
#
# Convention : Reuss Voigt Hill
#
# Bulk Modulus (GPa) = 29.65006 30.61759 30.13383
# Shear Modulus (GPa) = -0.62689 26.30135 12.83723
#
# Velocity S-wave (km/s) = -0.56899 3.68555 2.57483
# Velocity P-wave (km/s) = 3.85759 5.82438 4.93986
#
# Compressibility (1/GPa) = 0.03372675
#
# Stress axis : x y z
#
# Youngs Moduli (GPa) = 68.28808 81.34754 44.27339
#
# Poissons Ratio (x) = -0.10367 0.15594
# Poissons Ratio (y) = -0.08703 0.25018
# Poissons Ratio (z) = 0.24053 0.45967
#
# Static dielectric constant tensor:
#      x y z
#    x 1.666030 0.000000 0.000000 
#    y 0.000000 1.695000 0.000000 
#    z 0.000000 0.000000 1.648730 
# 
# From -- ./inp_files/1509.got.cif
#   From: 2010.05.17/outbox.cif.g08.bks.cpg/sg57_1_cif.got.tgz:1509.got - 2010.06.03 13:58:18.
