data_PCOD9439282
_publ_section_title
;
Structure prediction by ZEFSAII (Michael W. Deem and Ramdas Pophale) SiO2 
 PCOD9439282
Probable space group: P B C M
;
_chemical_formula_sum "Si O2"
_cell_formula_units_Z 40
_cell_length_a 13.037747
_cell_length_b 20.395219
_cell_length_c 9.045760
_cell_angle_alpha 90.000000
_cell_angle_beta 90.000000
_cell_angle_gamma 90.000000
_cell_volume 2405.337285
_symmetry_space_group_name_H-M "P B C M"
_symmetry_group_IT_number 57
_symmetry_cell_setting 'orthorhombic'
loop_
_space_group_symop_operation_xyz
x,y,z
-x,-y,1/2+z
x,1/2-y,-z
-x,1/2+y,1/2-z
-x,-y,-z
x,y,1/2-z
-x,1/2+y,z
x,1/2-y,1/2+z
loop_
_atom_site_type_symbol
_atom_site_label
_atom_site_fract_x
_atom_site_fract_y
_atom_site_fract_z
Si Si1 0.544942 0.434237 0.072992
Si Si2 0.815632 0.898432 0.426816
Si Si3 0.983825 0.071188 0.073356
Si Si4 0.758205 0.050643 0.425983
Si Si5 0.613767 0.820040 0.072157
O O1 0.542248 0.441154 0.250000
O O2 0.472672 0.373198 0.031443
O O3 0.500000 0.500000 0.000000
O O4 0.660525 0.425684 0.015957
O O5 0.831136 0.894913 0.250000
O O6 0.923436 0.886543 0.507875
O O7 0.724601 0.849778 0.470577
O O8 0.777801 0.973135 0.457890
O O9 0.993383 0.065809 0.250000
O O10 0.865180 0.087742 0.040804
O O11 0.000000 0.000000 0.000000
O O12 0.738289 0.055477 0.250000
O O13 0.613050 0.814225 0.250000
O O14 0.596298 0.750000 0.000000
#
# Coordination Sequence:
#
# PCOD9439282 Si02
#       5
#     8   8   8   8   8
#     4  11  21  34  53  77 106 137 176 220 264 316
#     4   9  17  32  50  71 105 135 165 213 259 305
#     4   9  17  28  45  72 104 133 165 205 251 304
#     4   9  17  31  49  74 107 135 165 214 262 302
#     4  10  22  38  53  75 106 139 175 220 266 316
#
# _framework density 16.629684000000001
#
# number of rings (size 3 to 8) (size 9 to 14) (size 15 to 20)
#    0.000    2.400    2.000    2.400    0.000    6.400 
#    0.000    0.000    0.000    1.200    0.000    0.000 
#    0.000    0.000    0.000    0.000    0.000    0.000 
#
# Total GULP energy -222962.370214 kJ/mol
# GULP energy per Si atom -5574.059255 kJ/mol
# Density = 1.659183 g / cm^3
# Si number density = 16.629684 Si / 1000 Ang^3
#
#
#
# Elastic Constant Matrix: (Units=GPa)
#
#
# Indices 1 2 3 4 5 6 
#
# 1 174.8530 68.4746 67.3934 0.0000 0.0000 0.0000
# 2 68.4746 87.3651 37.5741 0.0000 0.0000 0.0000
# 3 67.3934 37.5741 43.8389 0.0000 0.0000 0.0000
# 4 0.0000 0.0000 0.0000 22.5603 0.0000 0.0000
# 5 0.0000 0.0000 0.0000 0.0000 36.1787 0.0000
# 6 0.0000 0.0000 0.0000 0.0000 0.0000 18.0774
#
#
#
# Elastic Compliance Matrix: (Units=1/GPa)
#
#
# Indices 1 2 3 4 5 6 
#
# 1 0.014457 -0.002808 -0.019819 0.000000 0.000000 0.000000
# 2 -0.002808 0.018674 -0.011689 0.000000 0.000000 0.000000
# 3 -0.019819 -0.011689 0.063297 0.000000 0.000000 0.000000
# 4 0.000000 0.000000 0.000000 0.044326 0.000000 0.000000
# 5 0.000000 0.000000 0.000000 0.000000 0.027641 0.000000
# 6 0.000000 0.000000 0.000000 0.000000 0.000000 0.055318
#
#
# Mechanical properties :
#
#
# Convention : Reuss Voigt Hill
#
# Bulk Modulus (GPa) = 35.97514 72.54902 54.26208
# Shear Modulus (GPa) = 16.57770 24.20427 20.39099
#
# Velocity S-wave (km/s) = 3.16076 3.81922 3.50548
# Velocity P-wave (km/s) = 5.91613 7.94793 7.00607
#
# Compressibility (1/GPa) = 0.02779697
#
# Stress axis : x y z
#
# Youngs Moduli (GPa) = 69.16912 53.55006 15.79849
#
# Poissons Ratio (x) = 0.15035 0.31311
# Poissons Ratio (y) = 0.19420 0.18467
# Poissons Ratio (z) = 1.37085 0.62597
#
# Static dielectric constant tensor:
#      x y z
#    x 1.599130 0.000000 0.000000 
#    y 0.000000 1.534680 0.000000 
#    z 0.000000 0.000000 1.553430 
# 
# From -- ./inp_files/2871.got.cif
#   From: 2010.05.17/outbox.cif.g08.bks.cpg/sg57_2_cif.got.tgz:2871.got - 2010.06.03 13:58:18.
