data_PCOD9439992
_publ_section_title
;
Structure prediction by ZEFSAII (Michael W. Deem and Ramdas Pophale) SiO2 
 PCOD9439992
Probable space group: P B C M
;
_chemical_formula_sum "Si O2"
_cell_formula_units_Z 64
_cell_length_a 8.108736
_cell_length_b 12.237004
_cell_length_c 29.737095
_cell_angle_alpha 90.000000
_cell_angle_beta 90.000000
_cell_angle_gamma 90.000000
_cell_volume 2950.711868
_symmetry_space_group_name_H-M "P B C M"
_symmetry_group_IT_number 57
_symmetry_cell_setting 'orthorhombic'
loop_
_space_group_symop_operation_xyz
x,y,z
-x,-y,1/2+z
x,1/2-y,-z
-x,1/2+y,1/2-z
-x,-y,-z
x,y,1/2-z
-x,1/2+y,z
x,1/2-y,1/2+z
loop_
_atom_site_type_symbol
_atom_site_label
_atom_site_fract_x
_atom_site_fract_y
_atom_site_fract_z
Si Si1 0.806964 0.627004 0.925139
Si Si2 0.479454 0.628899 0.699366
Si Si3 0.633242 0.177652 0.134683
Si Si4 0.822140 0.494798 0.340526
Si Si5 0.309863 0.147294 0.405941
Si Si6 0.187747 0.484568 0.328230
Si Si7 0.693640 0.498034 0.009407
Si Si8 0.171191 0.828123 0.073926
O O1 0.678170 0.725382 0.918513
O O2 0.813999 0.562331 0.878832
O O3 0.978731 0.688798 0.933773
O O4 0.778408 0.542006 0.964728
O O5 0.453404 0.668782 0.750000
O O6 0.449804 0.725859 0.663739
O O7 0.338650 0.538078 0.688146
O O8 0.664891 0.581145 0.695679
O O9 0.486694 0.107509 0.112698
O O10 0.749139 0.108154 0.167135
O O11 0.736221 0.224037 0.092998
O O12 0.809633 0.613773 0.364622
O O13 0.817771 0.413269 0.383813
O O14 0.995459 0.479957 0.314596
O O15 0.266081 0.083607 0.450920
O O16 0.749759 0.382996 0.030097
O O17 0.500000 0.500000 0.000000
#
# Coordination Sequence:
#
# PCOD9439992 Si02
#       8
#     8   8   8   8   8   8   8   8
#     4  11  21  37  58  87 124 166 213 262 305 358
#     4  11  24  43  66  94 124 154 199 260 315 380
#     4  11  21  40  66  90 125 166 209 253 317 381
#     4   9  21  40  65  91 125 164 203 252 310 376
#     4  11  20  37  61  90 123 166 211 255 307 368
#     4  11  22  41  67  92 123 167 207 249 314 380
#     4  11  22  35  55  86 125 165 216 263 306 355
#     4   9  21  37  57  84 122 167 212 257 307 365
#
# _framework density 21.689682000000001
#
# number of rings (size 3 to 8) (size 9 to 14) (size 15 to 20)
#    0.000    1.500    2.500    3.000    1.750    1.000 
#    0.000    5.625    0.000    0.000    0.000    0.000 
#    0.000    0.000    0.000    0.000    0.000    0.000 
#
# Total GULP energy -357350.952749 kJ/mol
# GULP energy per Si atom -5583.608637 kJ/mol
# Density = 2.164032 g / cm^3
# Si number density = 21.689682 Si / 1000 Ang^3
#
#
#
# Elastic Constant Matrix: (Units=GPa)
#
#
# Indices 1 2 3 4 5 6 
#
# 1 94.9777 -10.6792 11.6377 0.0000 0.0000 0.0000
# 2 -10.6792 38.8265 -5.2774 0.0000 0.0000 0.0000
# 3 11.6377 -5.2774 68.3960 0.0000 0.0000 0.0000
# 4 0.0000 0.0000 0.0000 11.1345 0.0000 0.0000
# 5 0.0000 0.0000 0.0000 0.0000 8.9240 0.0000
# 6 0.0000 0.0000 0.0000 0.0000 0.0000 25.8359
#
#
#
# Elastic Compliance Matrix: (Units=1/GPa)
#
#
# Indices 1 2 3 4 5 6 
#
# 1 0.011049 0.002813 -0.001663 0.000000 0.000000 0.000000
# 2 0.002813 0.026745 0.001585 0.000000 0.000000 0.000000
# 3 -0.001663 0.001585 0.015026 0.000000 0.000000 0.000000
# 4 0.000000 0.000000 0.000000 0.089811 0.000000 0.000000
# 5 0.000000 0.000000 0.000000 0.000000 0.112057 0.000000
# 6 0.000000 0.000000 0.000000 0.000000 0.000000 0.038706
#
#
# Mechanical properties :
#
#
# Convention : Reuss Voigt Hill
#
# Bulk Modulus (GPa) = 17.15571 21.50691 19.33131
# Shear Modulus (GPa) = 16.26793 22.94684 19.60739
#
# Velocity S-wave (km/s) = 2.74164 3.25616 3.00991
# Velocity P-wave (km/s) = 4.23662 4.90653 4.58383
#
# Compressibility (1/GPa) = 0.05828963
#
# Stress axis : x y z
#
# Youngs Moduli (GPa) = 90.50736 37.39050 66.55134
#
# Poissons Ratio (x) = -0.10518 0.11067
# Poissons Ratio (y) = -0.25459 -0.10548
# Poissons Ratio (z) = 0.15051 -0.05926
#
# Static dielectric constant tensor:
#      x y z
#    x 1.824760 0.000000 0.000000 
#    y 0.000000 1.862880 0.000000 
#    z 0.000000 0.000000 1.762930 
# 
# From -- ./inp_files/29605.got.cif
#   From: 2010.05.17/outbox.cif.g08.bks.cpg/sg57_15_cif.got.tgz:29605.got - 2010.06.03 13:58:18.
