data_PCOD9439173
_publ_section_title
;
Structure prediction by ZEFSAII (Michael W. Deem and Ramdas Pophale) SiO2 
 PCOD9439173
Probable space group: P B C M
;
_chemical_formula_sum "Si O2"
_cell_formula_units_Z 48
_cell_length_a 8.796895
_cell_length_b 17.885664
_cell_length_c 14.134258
_cell_angle_alpha 90.000000
_cell_angle_beta 90.000000
_cell_angle_gamma 90.000000
_cell_volume 2223.860242
_symmetry_space_group_name_H-M "P B C M"
_symmetry_group_IT_number 57
_symmetry_cell_setting 'orthorhombic'
loop_
_space_group_symop_operation_xyz
x,y,z
-x,-y,1/2+z
x,1/2-y,-z
-x,1/2+y,1/2-z
-x,-y,-z
x,y,1/2-z
-x,1/2+y,z
x,1/2-y,1/2+z
loop_
_atom_site_type_symbol
_atom_site_label
_atom_site_fract_x
_atom_site_fract_y
_atom_site_fract_z
Si Si1 0.809047 0.465364 0.638838
Si Si2 0.845992 0.305336 0.636039
Si Si3 0.851577 0.830982 0.521207
Si Si4 0.034115 0.580485 0.638137
Si Si5 0.594988 0.571578 0.966688
Si Si6 0.340272 0.657486 0.637592
O O1 0.806438 0.455755 0.750000
O O2 0.772139 0.383414 0.600469
O O3 0.975643 0.497319 0.613254
O O4 0.699008 0.532101 0.612278
O O5 0.852159 0.301469 0.750000
O O6 0.748071 0.233242 0.607887
O O7 0.017488 0.313451 0.597754
O O8 0.781548 0.750000 0.500000
O O9 0.944696 0.862948 0.430326
O O10 0.714706 0.889337 0.538106
O O11 0.000673 0.594646 0.750000
O O12 0.212468 0.592987 0.626626
O O13 0.485919 0.633667 0.921614
O O14 0.500000 0.500000 0.000000
O O15 0.376616 0.663635 0.750000
#
# Coordination Sequence:
#
# PCOD9439173 Si02
#       6
#     8   8   8   8   8   8
#     4   9  20  39  62  88 123 162 210 264 316 381
#     4  10  22  40  68  99 125 167 223 274 320 378
#     4  11  23  40  63  92 126 166 212 268 321 383
#     4   9  19  37  65  93 120 163 212 262 321 390
#     4  11  26  39  58  92 131 170 209 258 333 401
#     4  10  21  41  66  92 127 170 213 264 329 393
#
# _framework density 21.584091000000001
#
# number of rings (size 3 to 8) (size 9 to 14) (size 15 to 20)
#    0.000    2.000    1.667    0.500    4.667    3.333 
#    0.000    0.833    0.000    0.000    0.000    0.000 
#    0.000    0.000    0.000    0.000    0.000    0.000 
#
# Total GULP energy -267734.501563 kJ/mol
# GULP energy per Si atom -5577.802116 kJ/mol
# Density = 2.153496 g / cm^3
# Si number density = 21.584091 Si / 1000 Ang^3
#
#
#
# Elastic Constant Matrix: (Units=GPa)
#
#
# Indices 1 2 3 4 5 6 
#
# 1 107.5684 63.3348 28.1413 0.0000 0.0000 0.0000
# 2 63.3348 132.2114 11.3993 0.0000 0.0000 0.0000
# 3 28.1413 11.3993 69.6579 0.0000 0.0000 0.0000
# 4 0.0000 0.0000 0.0000 21.3465 0.0000 0.0000
# 5 0.0000 0.0000 0.0000 0.0000 27.6554 0.0000
# 6 0.0000 0.0000 0.0000 0.0000 0.0000 44.3954
#
#
#
# Elastic Compliance Matrix: (Units=1/GPa)
#
#
# Indices 1 2 3 4 5 6 
#
# 1 0.014339 -0.006461 -0.004736 0.000000 0.000000 0.000000
# 2 -0.006461 0.010583 0.000878 0.000000 0.000000 0.000000
# 3 -0.004736 0.000878 0.016125 0.000000 0.000000 0.000000
# 4 0.000000 0.000000 0.000000 0.046846 0.000000 0.000000
# 5 0.000000 0.000000 0.000000 0.000000 0.036159 0.000000
# 6 0.000000 0.000000 0.000000 0.000000 0.000000 0.022525
#
#
# Mechanical properties :
#
#
# Convention : Reuss Voigt Hill
#
# Bulk Modulus (GPa) = 48.99298 57.24317 53.11808
# Shear Modulus (GPa) = 28.73264 32.45030 30.59147
#
# Velocity S-wave (km/s) = 3.65251 3.88162 3.76881
# Velocity P-wave (km/s) = 6.36677 6.83139 6.60317
#
# Compressibility (1/GPa) = 0.02041109
#
# Stress axis : x y z
#
# Youngs Moduli (GPa) = 69.73790 94.49168 62.01414
#
# Poissons Ratio (x) = 0.61050 0.29368
# Poissons Ratio (y) = 0.45057 -0.05447
# Poissons Ratio (z) = 0.33026 -0.08299
#
# Static dielectric constant tensor:
#      x y z
#    x 1.885940 0.000000 0.000000 
#    y 0.000000 1.962150 0.000000 
#    z 0.000000 0.000000 1.798970 
# 
# From -- ./inp_files/16542.got.cif
#   From: 2010.05.17/outbox.cif.g08.bks.cpg/sg57_9_cif.got.tgz:16542.got - 2010.06.03 13:58:18.
