data_PCOD9439979
_publ_section_title
;
Structure prediction by ZEFSAII (Michael W. Deem and Ramdas Pophale) SiO2 
 PCOD9439979
Probable space group: P B C M
;
_chemical_formula_sum "Si O2"
_cell_formula_units_Z 48
_cell_length_a 15.292065
_cell_length_b 21.034183
_cell_length_c 8.509686
_cell_angle_alpha 90.000000
_cell_angle_beta 90.000000
_cell_angle_gamma 90.000000
_cell_volume 2737.192357
_symmetry_space_group_name_H-M "P B C M"
_symmetry_group_IT_number 57
_symmetry_cell_setting 'orthorhombic'
loop_
_space_group_symop_operation_xyz
x,y,z
-x,-y,1/2+z
x,1/2-y,-z
-x,1/2+y,1/2-z
-x,-y,-z
x,y,1/2-z
-x,1/2+y,z
x,1/2-y,1/2+z
loop_
_atom_site_type_symbol
_atom_site_label
_atom_site_fract_x
_atom_site_fract_y
_atom_site_fract_z
Si Si1 0.200799 0.155838 0.566909
Si Si2 0.230063 0.480362 0.936150
Si Si3 0.928779 0.050897 0.438657
Si Si4 0.580206 0.958067 0.061907
Si Si5 0.388491 0.318085 0.934952
Si Si6 0.012501 0.314153 0.562529
O O1 0.217540 0.168116 0.750000
O O2 0.284112 0.179543 0.469021
O O3 0.108293 0.182438 0.514404
O O4 0.196415 0.080833 0.531924
O O5 0.224120 0.467928 0.750000
O O6 0.164674 0.536124 0.984165
O O7 0.330836 0.485892 0.985795
O O8 0.922976 0.045265 0.250000
O O9 0.962089 0.121355 0.478072
O O10 0.000000 0.000000 0.500000
O O11 0.586162 0.961299 0.250000
O O12 0.575606 0.883270 0.012917
O O13 0.500000 0.000000 0.000000
O O14 0.404013 0.321470 0.750000
O O15 0.420768 0.250000 0.000000
O O16 0.968648 0.250000 0.500000
O O17 0.022279 0.311648 0.750000
#
# Coordination Sequence:
#
# PCOD9439979 Si02
#       6
#     8   8   8   8   8   8
#     4  11  20  32  51  76 109 146 184 225 275 332
#     4  11  21  35  56  83 112 145 186 231 279 332
#     4  11  22  36  56  80 109 147 190 232 275 330
#     4  11  22  39  61  87 116 148 187 232 286 340
#     4  11  21  35  54  80 114 149 185 226 278 338
#     4  11  23  36  51  74 107 146 189 233 281 331
#
# _framework density 17.536218000000002
#
# number of rings (size 3 to 8) (size 9 to 14) (size 15 to 20)
#    0.000    1.000    1.667    9.500    0.000    2.000 
#    0.000    0.000    0.000    1.000    0.000    4.667 
#    0.000    0.000    0.000    0.000    0.000    0.000 
#
# Total GULP energy -268202.686657 kJ/mol
# GULP energy per Si atom -5587.555972 kJ/mol
# Density = 1.749631 g / cm^3
# Si number density = 17.536218 Si / 1000 Ang^3
#
#
#
# Elastic Constant Matrix: (Units=GPa)
#
#
# Indices 1 2 3 4 5 6 
#
# 1 79.7471 54.1363 17.0371 0.0000 0.0000 0.0000
# 2 54.1363 117.3858 21.4420 0.0000 0.0000 0.0000
# 3 17.0371 21.4420 68.5627 0.0000 0.0000 0.0000
# 4 0.0000 0.0000 0.0000 30.1328 0.0000 0.0000
# 5 0.0000 0.0000 0.0000 0.0000 26.4464 0.0000
# 6 0.0000 0.0000 0.0000 0.0000 0.0000 17.4000
#
#
#
# Elastic Compliance Matrix: (Units=1/GPa)
#
#
# Indices 1 2 3 4 5 6 
#
# 1 0.018522 -0.008168 -0.002048 0.000000 0.000000 0.000000
# 2 -0.008168 0.012637 -0.001922 0.000000 0.000000 0.000000
# 3 -0.002048 -0.001922 0.015695 0.000000 0.000000 0.000000
# 4 0.000000 0.000000 0.000000 0.033186 0.000000 0.000000
# 5 0.000000 0.000000 0.000000 0.000000 0.037812 0.000000
# 6 0.000000 0.000000 0.000000 0.000000 0.000000 0.057471
#
#
# Mechanical properties :
#
#
# Convention : Reuss Voigt Hill
#
# Bulk Modulus (GPa) = 44.29200 50.10293 47.19746
# Shear Modulus (GPa) = 24.13981 26.33454 25.23717
#
# Velocity S-wave (km/s) = 3.71424 3.87941 3.79772
# Velocity P-wave (km/s) = 6.61108 6.97851 6.79728
#
# Compressibility (1/GPa) = 0.02257744
#
# Stress axis : x y z
#
# Youngs Moduli (GPa) = 53.98993 79.13293 63.71321
#
# Poissons Ratio (x) = 0.64635 0.13049
# Poissons Ratio (y) = 0.44098 0.12248
# Poissons Ratio (z) = 0.11058 0.15212
#
# Static dielectric constant tensor:
#      x y z
#    x 1.579950 0.000000 0.000000 
#    y 0.000000 1.654760 0.000000 
#    z 0.000000 0.000000 1.590000 
# 
# From -- ./inp_files/4873.got.cif
#   From: 2010.05.17/outbox.cif.g08.bks.cpg/sg57_3_cif.got.tgz:4873.got - 2010.06.03 13:58:18.
