data_PCOD9439621
_publ_section_title
;
Structure prediction by ZEFSAII (Michael W. Deem and Ramdas Pophale) SiO2 
 PCOD9439621
Probable space group: P B C M
;
_chemical_formula_sum "Si O2"
_cell_formula_units_Z 48
_cell_length_a 9.542497
_cell_length_b 14.082398
_cell_length_c 15.849772
_cell_angle_alpha 90.000000
_cell_angle_beta 90.000000
_cell_angle_gamma 90.000000
_cell_volume 2129.912026
_symmetry_space_group_name_H-M "P B C M"
_symmetry_group_IT_number 57
_symmetry_cell_setting 'orthorhombic'
loop_
_space_group_symop_operation_xyz
x,y,z
-x,-y,1/2+z
x,1/2-y,-z
-x,1/2+y,1/2-z
-x,-y,-z
x,y,1/2-z
-x,1/2+y,z
x,1/2-y,1/2+z
loop_
_atom_site_type_symbol
_atom_site_label
_atom_site_fract_x
_atom_site_fract_y
_atom_site_fract_z
Si Si1 0.341144 0.898989 0.613455
Si Si2 0.361446 0.334527 0.931328
Si Si3 0.674446 0.264397 0.250000
Si Si4 0.202056 0.464018 0.250000
Si Si5 0.649775 0.733338 0.750000
Si Si6 0.138774 0.553488 0.750000
Si Si7 0.877192 0.965655 0.586229
Si Si8 0.908969 0.141808 0.016274
O O1 0.501972 0.898688 0.586661
O O2 0.316465 0.804312 0.669400
O O3 0.275273 0.983286 0.669492
O O4 0.252054 0.881183 0.529943
O O5 0.328403 0.289972 0.838351
O O6 0.236020 0.402655 0.963541
O O7 0.384976 0.250000 0.000000
O O8 0.513853 0.301170 0.250000
O O9 0.797259 0.341441 0.250000
O O10 0.249723 0.355977 0.250000
O O11 0.031139 0.461045 0.250000
O O12 0.197033 0.498876 0.830237
O O13 0.004624 0.892380 0.597490
O O14 0.947725 0.064005 0.553713
O O15 0.937018 0.250000 0.000000
#
# Coordination Sequence:
#
# PCOD9439621 Si02
#       8
#     8   8   4   4   4   4   8   8
#     4  10  22  44  66  97 136 177 229 281 345 421
#     4  11  25  45  71 104 142 185 235 287 355 416
#     4   9  22  40  68  96 128 178 229 278 348 417
#     4  11  24  42  68  98 138 180 232 291 350 408
#     4  10  25  44  68 103 141 183 233 294 346 409
#     4  12  23  42  64  97 127 183 232 275 356 412
#     4  11  26  41  66 100 136 179 236 284 350 412
#     4  11  23  43  65  96 140 177 223 290 343 418
#
# _framework density 22.536141000000001
#
# number of rings (size 3 to 8) (size 9 to 14) (size 15 to 20)
#    0.000    1.333    1.667    3.000    4.667    4.667 
#    0.000    0.000    0.000    0.000    0.000    0.000 
#    0.000    0.000    0.000    0.000    0.000    0.000 
#
# Total GULP energy -267636.682688 kJ/mol
# GULP energy per Si atom -5575.764223 kJ/mol
# Density = 2.248485 g / cm^3
# Si number density = 22.536141 Si / 1000 Ang^3
#
#
#
# Elastic Constant Matrix: (Units=GPa)
#
#
# Indices 1 2 3 4 5 6 
#
# 1 106.0966 52.1202 -8.6381 0.0000 0.0000 0.0000
# 2 52.1202 109.5185 18.0664 0.0000 0.0000 0.0000
# 3 -8.6381 18.0664 49.8607 0.0000 0.0000 0.0000
# 4 0.0000 0.0000 0.0000 12.8471 0.0000 0.0000
# 5 0.0000 0.0000 0.0000 0.0000 22.7647 0.0000
# 6 0.0000 0.0000 0.0000 0.0000 0.0000 41.3285
#
#
#
# Elastic Compliance Matrix: (Units=1/GPa)
#
#
# Indices 1 2 3 4 5 6 
#
# 1 0.013341 -0.007158 0.004905 0.000000 0.000000 0.000000
# 2 -0.007158 0.013552 -0.006151 0.000000 0.000000 0.000000
# 3 0.004905 -0.006151 0.023134 0.000000 0.000000 0.000000
# 4 0.000000 0.000000 0.000000 0.077838 0.000000 0.000000
# 5 0.000000 0.000000 0.000000 0.000000 0.043928 0.000000
# 6 0.000000 0.000000 0.000000 0.000000 0.000000 0.024196
#
#
# Mechanical properties :
#
#
# Convention : Reuss Voigt Hill
#
# Bulk Modulus (GPa) = 30.10242 43.17475 36.63859
# Shear Modulus (GPa) = 22.33428 28.98322 25.65875
#
# Velocity S-wave (km/s) = 3.15150 3.59008 3.37792
# Velocity P-wave (km/s) = 5.16033 6.03196 5.61309
#
# Compressibility (1/GPa) = 0.03321992
#
# Stress axis : x y z
#
# Youngs Moduli (GPa) = 74.95554 73.78910 43.22601
#
# Poissons Ratio (x) = 0.52820 -0.21202
# Poissons Ratio (y) = 0.53655 0.26587
# Poissons Ratio (z) = -0.36766 0.45385
#
# Static dielectric constant tensor:
#      x y z
#    x 1.897440 0.000000 0.000000 
#    y 0.000000 1.798840 0.000000 
#    z 0.000000 0.000000 1.332810 
# 
# From -- ./inp_files/21040.got.cif
#   From: 2010.05.17/outbox.cif.g08.bks.cpg/sg57_11_cif.got.tgz:21040.got - 2010.06.03 13:58:18.
