data_PCOD9439915
_publ_section_title
;
Structure prediction by ZEFSAII (Michael W. Deem and Ramdas Pophale) SiO2 
 PCOD9439915
Probable space group: P B C M
;
_chemical_formula_sum "Si O2"
_cell_formula_units_Z 20
_cell_length_a 8.574958
_cell_length_b 5.347599
_cell_length_c 14.926026
_cell_angle_alpha 90.000000
_cell_angle_beta 90.000000
_cell_angle_gamma 90.000000
_cell_volume 684.439442
_symmetry_space_group_name_H-M "P B C M"
_symmetry_group_IT_number 57
_symmetry_cell_setting 'orthorhombic'
loop_
_space_group_symop_operation_xyz
x,y,z
-x,-y,1/2+z
x,1/2-y,-z
-x,1/2+y,1/2-z
-x,-y,-z
x,y,1/2-z
-x,1/2+y,z
x,1/2-y,1/2+z
loop_
_atom_site_type_symbol
_atom_site_label
_atom_site_fract_x
_atom_site_fract_y
_atom_site_fract_z
Si Si1 0.165226 0.030816 0.445846
Si Si2 0.597874 0.276809 0.643731
Si Si3 0.084649 0.280943 0.750000
O O1 0.251001 0.250000 0.500000
O O2 0.249027 0.773547 0.415248
O O3 0.156531 0.154672 0.345868
O O4 0.000000 0.000000 0.500000
O O5 0.631482 0.272919 0.750000
O O6 0.491864 0.032634 0.625553
O O7 0.948616 0.488688 0.750000
#
# Coordination Sequence:
#
# PCOD9439915 Si02
#       3
#     8   8   4
#     4  12  26  46  80 121 157 206 272 332 402 472
#     4  10  24  48  77 110 159 215 261 322 400 480
#     4  12  26  48  72 112 160 204 256 332 396 470
#
# _framework density 29.220993
#
# number of rings (size 3 to 8) (size 9 to 14) (size 15 to 20)
#    0.000    0.800    6.000    0.000    0.000    8.000 
#    0.000    0.000    0.000    0.000    0.000    0.000 
#    0.000    0.000    0.000    0.000    0.000    0.000 
#
# Total GULP energy -112036.378356 kJ/mol
# GULP energy per Si atom -5601.818918 kJ/mol
# Density = 2.915448 g / cm^3
# Si number density = 29.220993 Si / 1000 Ang^3
#
#
#
# Elastic Constant Matrix: (Units=GPa)
#
#
# Indices 1 2 3 4 5 6 
#
# 1 144.1067 63.5707 55.2138 0.0000 0.0000 0.0000
# 2 63.5707 159.7553 -8.3953 0.0000 0.0000 0.0000
# 3 55.2138 -8.3953 189.3257 0.0000 0.0000 0.0000
# 4 0.0000 0.0000 0.0000 46.4002 0.0000 0.0000
# 5 0.0000 0.0000 0.0000 0.0000 57.4292 0.0000
# 6 0.0000 0.0000 0.0000 0.0000 0.0000 64.3081
#
#
#
# Elastic Compliance Matrix: (Units=1/GPa)
#
#
# Indices 1 2 3 4 5 6 
#
# 1 0.009935 -0.004115 -0.003080 0.000000 0.000000 0.000000
# 2 -0.004115 0.007979 0.001554 0.000000 0.000000 0.000000
# 3 -0.003080 0.001554 0.006249 0.000000 0.000000 0.000000
# 4 0.000000 0.000000 0.000000 0.021552 0.000000 0.000000
# 5 0.000000 0.000000 0.000000 0.000000 0.017413 0.000000
# 6 0.000000 0.000000 0.000000 0.000000 0.000000 0.015550
#
#
# Mechanical properties :
#
#
# Convention : Reuss Voigt Hill
#
# Bulk Modulus (GPa) = 77.63704 79.32958 78.48331
# Shear Modulus (GPa) = 53.04920 59.14740 56.09830
#
# Velocity S-wave (km/s) = 4.26543 4.50393 4.38630
# Velocity P-wave (km/s) = 7.13338 7.36575 7.25049
#
# Compressibility (1/GPa) = 0.01288045
#
# Stress axis : x y z
#
# Youngs Moduli (GPa) = 100.65826 125.33329 160.02650
#
# Poissons Ratio (x) = 0.51576 0.49284
# Poissons Ratio (y) = 0.41422 -0.24866
# Poissons Ratio (z) = 0.31000 -0.19475
#
# Static dielectric constant tensor:
#      x y z
#    x 2.456130 0.000000 0.000000 
#    y 0.000000 2.384450 0.000000 
#    z 0.000000 0.000000 2.642810 
# 
# From -- ./inp_files/17070.got.cif
#   From: 2010.05.17/outbox.cif.g08.bks.cpg/sg57_9_cif.got.tgz:17070.got - 2010.06.03 13:58:18.
