data_PCOD9439848
_publ_section_title
;
Structure prediction by ZEFSAII (Michael W. Deem and Ramdas Pophale) SiO2 
 PCOD9439848
Probable space group: P B C M
;
_chemical_formula_sum "Si O2"
_cell_formula_units_Z 36
_cell_length_a 19.570249
_cell_length_b 8.668536
_cell_length_c 9.940998
_cell_angle_alpha 90.000000
_cell_angle_beta 90.000000
_cell_angle_gamma 90.000000
_cell_volume 1686.444661
_symmetry_space_group_name_H-M "P B C M"
_symmetry_group_IT_number 57
_symmetry_cell_setting 'orthorhombic'
loop_
_space_group_symop_operation_xyz
x,y,z
-x,-y,1/2+z
x,1/2-y,-z
-x,1/2+y,1/2-z
-x,-y,-z
x,y,1/2-z
-x,1/2+y,z
x,1/2-y,1/2+z
loop_
_atom_site_type_symbol
_atom_site_label
_atom_site_fract_x
_atom_site_fract_y
_atom_site_fract_z
Si Si1 0.900306 0.983124 0.103640
Si Si2 0.204071 0.597065 0.906078
Si Si3 0.992695 0.250000 0.500000
Si Si4 0.448931 0.416650 0.750000
Si Si5 0.595405 0.939268 0.250000
Si Si6 0.357714 0.567018 0.523575
O O1 0.866555 0.978559 0.250000
O O2 0.957027 0.851741 0.089892
O O3 0.846933 0.980114 0.980945
O O4 0.943873 0.139322 0.085019
O O5 0.185471 0.624117 0.750000
O O6 0.282814 0.545894 0.913157
O O7 0.200686 0.750000 0.000000
O O8 0.430832 0.236138 0.750000
O O9 0.529248 0.449295 0.750000
O O10 0.414913 0.497823 0.620955
O O11 0.637868 0.979690 0.382306
O O12 0.368383 0.750000 0.500000
#
# Coordination Sequence:
#
# PCOD9439848 Si02
#       6
#     8   8   4   4   4   8
#     4  11  23  42  69 100 135 183 229 287 345 412
#     4  11  24  42  68  99 136 181 232 283 343 414
#     4  10  24  42  66 100 140 172 232 286 348 406
#     4  12  24  48  68 108 140 181 228 285 345 413
#     4  12  26  42  76 102 140 181 228 287 347 407
#     4  11  24  44  69 100 140 184 232 286 340 415
#
# _framework density 21.346682000000001
#
# number of rings (size 3 to 8) (size 9 to 14) (size 15 to 20)
#    0.000    0.889    2.222    4.667    6.222    4.444 
#    4.000    0.000    0.000    0.000    0.000    0.000 
#    0.000    0.000    0.000    0.000    0.000    0.000 
#
# Total GULP energy -201391.344444 kJ/mol
# GULP energy per Si atom -5594.204012 kJ/mol
# Density = 2.129810 g / cm^3
# Si number density = 21.346682 Si / 1000 Ang^3
#
#
#
# Elastic Constant Matrix: (Units=GPa)
#
#
# Indices 1 2 3 4 5 6 
#
# 1 66.2026 6.5653 24.5615 0.0000 0.0000 0.0000
# 2 6.5653 89.2434 15.0529 0.0000 0.0000 0.0000
# 3 24.5615 15.0529 177.1238 0.0000 0.0000 0.0000
# 4 0.0000 0.0000 0.0000 10.4290 0.0000 0.0000
# 5 0.0000 0.0000 0.0000 0.0000 24.4873 0.0000
# 6 0.0000 0.0000 0.0000 0.0000 0.0000 20.8861
#
#
#
# Elastic Compliance Matrix: (Units=1/GPa)
#
#
# Indices 1 2 3 4 5 6 
#
# 1 0.015982 -0.000814 -0.002147 0.000000 0.000000 0.000000
# 2 -0.000814 0.011410 -0.000857 0.000000 0.000000 0.000000
# 3 -0.002147 -0.000857 0.006016 0.000000 0.000000 0.000000
# 4 0.000000 0.000000 0.000000 0.095886 0.000000 0.000000
# 5 0.000000 0.000000 0.000000 0.000000 0.040837 0.000000
# 6 0.000000 0.000000 0.000000 0.000000 0.000000 0.047879
#
#
# Mechanical properties :
#
#
# Convention : Reuss Voigt Hill
#
# Bulk Modulus (GPa) = 38.79980 47.21435 43.00707
# Shear Modulus (GPa) = 21.34588 30.25315 25.79952
#
# Velocity S-wave (km/s) = 3.16565 3.76870 3.48026
# Velocity P-wave (km/s) = 5.61937 6.41119 6.02829
#
# Compressibility (1/GPa) = 0.02577333
#
# Stress axis : x y z
#
# Youngs Moduli (GPa) = 62.56872 87.64479 166.21438
#
# Poissons Ratio (x) = 0.07131 0.35688
# Poissons Ratio (y) = 0.05091 0.14242
# Poissons Ratio (z) = 0.13434 0.07510
#
# Static dielectric constant tensor:
#      x y z
#    x 1.742280 0.000000 0.000000 
#    y 0.000000 1.779990 0.000000 
#    z 0.000000 0.000000 1.788300 
# 
# From -- ./inp_files/7665.got.cif
#   From: 2010.05.17/outbox.cif.g08.bks.cpg/sg57_4_cif.got.tgz:7665.got - 2010.06.03 13:58:18.
