data_PCOD9439214
_publ_section_title
;
Structure prediction by ZEFSAII (Michael W. Deem and Ramdas Pophale) SiO2 
 PCOD9439214
Probable space group: P B C M
;
_chemical_formula_sum "Si O2"
_cell_formula_units_Z 48
_cell_length_a 26.917901
_cell_length_b 5.292493
_cell_length_c 14.518260
_cell_angle_alpha 90.000000
_cell_angle_beta 90.000000
_cell_angle_gamma 90.000000
_cell_volume 2068.312009
_symmetry_space_group_name_H-M "P B C M"
_symmetry_group_IT_number 57
_symmetry_cell_setting 'orthorhombic'
loop_
_space_group_symop_operation_xyz
x,y,z
-x,-y,1/2+z
x,1/2-y,-z
-x,1/2+y,1/2-z
-x,-y,-z
x,y,1/2-z
-x,1/2+y,z
x,1/2-y,1/2+z
loop_
_atom_site_type_symbol
_atom_site_label
_atom_site_fract_x
_atom_site_fract_y
_atom_site_fract_z
Si Si1 0.388120 0.567514 0.750000
Si Si2 0.676904 0.937732 0.250000
Si Si3 0.470869 0.766451 0.389926
Si Si4 0.195880 0.250000 0.500000
Si Si5 0.905649 0.250000 0.500000
Si Si6 0.828082 0.060317 0.852810
Si Si7 0.734383 0.356564 0.585160
Si Si8 0.032376 0.470449 0.354271
O O1 0.362087 0.293351 0.750000
O O2 0.422724 0.630190 0.662264
O O3 0.346970 0.783845 0.750000
O O4 0.708556 0.950329 0.344080
O O5 0.464322 0.750000 0.500000
O O6 0.487915 0.481370 0.365038
O O7 0.170837 0.288389 0.597721
O O8 0.229244 0.488239 0.480644
O O9 0.867916 0.189739 0.582350
O O10 0.937837 0.463296 0.551988
O O11 0.844972 0.050949 0.750000
O O12 0.772090 0.179205 0.856069
O O13 0.699917 0.250000 0.500000
O O14 0.055757 0.498633 0.250000
O O15 0.010112 0.188898 0.356513
#
# Coordination Sequence:
#
# PCOD9439214 Si02
#       8
#     4   4   8   4   4   8   8   8
#     4  12  26  43  66 110 140 182 244 291 344 426
#     4  12  28  43  70  98 142 194 234 295 352 416
#     4  10  21  42  73 101 140 183 223 288 360 416
#     4  10  22  42  67  92 120 182 234 289 348 418
#     4  12  22  42  63 104 128 170 228 295 344 410
#     4  11  23  41  66  95 136 168 233 299 351 418
#     4  10  23  44  65  91 129 186 239 285 358 414
#     4  10  23  44  69  96 137 182 220 270 349 432
#
# _framework density 23.207329000000001
#
# number of rings (size 3 to 8) (size 9 to 14) (size 15 to 20)
#    0.000    1.333    3.333    2.500    5.833    2.000 
#    0.000    1.667    0.000    0.000    0.000    0.000 
#    0.000    0.000    0.000    0.000    0.000    0.000 
#
# Total GULP energy -267244.765555 kJ/mol
# GULP energy per Si atom -5567.599282 kJ/mol
# Density = 2.315451 g / cm^3
# Si number density = 23.207329 Si / 1000 Ang^3
#
#
#
# Elastic Constant Matrix: (Units=GPa)
#
#
# Indices 1 2 3 4 5 6 
#
# 1 46.3180 5.1073 40.6768 0.0000 0.0000 0.0000
# 2 5.1073 60.0155 27.4604 0.0000 0.0000 0.0000
# 3 40.6768 27.4604 211.9471 0.0000 0.0000 0.0000
# 4 0.0000 0.0000 0.0000 25.0204 0.0000 0.0000
# 5 0.0000 0.0000 0.0000 0.0000 9.0571 0.0000
# 6 0.0000 0.0000 0.0000 0.0000 0.0000 169.8901
#
#
#
# Elastic Compliance Matrix: (Units=1/GPa)
#
#
# Indices 1 2 3 4 5 6 
#
# 1 0.025967 0.000075 -0.004993 0.000000 0.000000 0.000000
# 2 0.000075 0.017713 -0.002309 0.000000 0.000000 0.000000
# 3 -0.004993 -0.002309 0.005976 0.000000 0.000000 0.000000
# 4 0.000000 0.000000 0.000000 0.039967 0.000000 0.000000
# 5 0.000000 0.000000 0.000000 0.000000 0.110410 0.000000
# 6 0.000000 0.000000 0.000000 0.000000 0.000000 0.005886
#
#
# Mechanical properties :
#
#
# Convention : Reuss Voigt Hill
#
# Bulk Modulus (GPa) = 28.40926 51.64107 40.02516
# Shear Modulus (GPa) = 21.54177 57.12925 39.33551
#
# Velocity S-wave (km/s) = 3.04999 4.96692 4.12146
# Velocity P-wave (km/s) = 4.96703 7.42928 6.31924
#
# Compressibility (1/GPa) = 0.03519980
#
# Stress axis : x y z
#
# Youngs Moduli (GPa) = 38.51086 56.45693 167.34575
#
# Poissons Ratio (x) = -0.00423 0.83560
# Poissons Ratio (y) = -0.00288 0.38645
# Poissons Ratio (z) = 0.19229 0.13037
#
# Static dielectric constant tensor:
#      x y z
#    x 1.996610 0.000000 0.000000 
#    y 0.000000 2.064580 0.000000 
#    z 0.000000 0.000000 -8.814920 
# 
# From -- ./inp_files/19616.got.cif
#   From: 2010.05.17/outbox.cif.g08.bks.cpg/sg57_10_cif.got.tgz:19616.got - 2010.06.03 13:58:18.
