data_PCOD9439254
_publ_section_title
;
Structure prediction by ZEFSAII (Michael W. Deem and Ramdas Pophale) SiO2 
 PCOD9439254
Probable space group: P B C M
;
_chemical_formula_sum "Si O2"
_cell_formula_units_Z 52
_cell_length_a 13.516972
_cell_length_b 7.362053
_cell_length_c 21.089899
_cell_angle_alpha 90.000000
_cell_angle_beta 90.000000
_cell_angle_gamma 90.000000
_cell_volume 2098.712039
_symmetry_space_group_name_H-M "P B C M"
_symmetry_group_IT_number 57
_symmetry_cell_setting 'orthorhombic'
loop_
_space_group_symop_operation_xyz
x,y,z
-x,-y,1/2+z
x,1/2-y,-z
-x,1/2+y,1/2-z
-x,-y,-z
x,y,1/2-z
-x,1/2+y,z
x,1/2-y,1/2+z
loop_
_atom_site_type_symbol
_atom_site_label
_atom_site_fract_x
_atom_site_fract_y
_atom_site_fract_z
Si Si1 0.851139 0.940351 0.889118
Si Si2 0.079096 0.847544 0.750000
Si Si3 0.077131 0.641220 0.112261
Si Si4 0.582031 0.221392 0.250000
Si Si5 0.408983 0.335284 0.068719
Si Si6 0.147309 0.070062 0.250000
Si Si7 0.560232 0.516071 0.348143
Si Si8 0.230949 0.960244 0.983754
O O1 0.879284 0.155386 0.888281
O O2 0.810008 0.889075 0.819529
O O3 0.784273 0.924899 0.951726
O O4 0.959394 0.850266 0.896108
O O5 0.103002 0.936652 0.817655
O O6 0.125171 0.646818 0.750000
O O7 0.960501 0.834785 0.750000
O O8 0.129836 0.534073 0.056276
O O9 0.615685 0.367390 0.305934
O O10 0.530008 0.088866 0.195778
O O11 0.387175 0.192830 0.124876
O O12 0.510831 0.425703 0.090760
O O13 0.319427 0.473019 0.059895
O O14 0.423138 0.250000 0.000000
O O15 0.249570 0.750000 0.000000
#
# Coordination Sequence:
#
# PCOD9439254 Si02
#       8
#     8   4   8   4   8   4   8   8
#     4   9  17  31  53  76 107 149 199 249 301 359
#     4   8  14  26  45  72 100 134 188 242 288 352
#     4   9  17  31  51  76 107 150 197 246 305 359
#     4   8  16  36  67  96 118 144 197 244 290 369
#     4  11  23  38  60  89 122 158 200 248 300 363
#     4   8  14  26  48  72  96 138 191 242 290 339
#     4   9  19  38  65  93 118 152 195 245 302 364
#     4  10  22  36  50  78 120 159 202 256 304 358
#
# _framework density 24.777100000000001
#
# number of rings (size 3 to 8) (size 9 to 14) (size 15 to 20)
#    0.000    2.769    0.000    0.923    0.000    4.308 
#    0.000    4.615    0.000   11.077    0.000    0.000 
#    0.000    0.000    0.000    0.000    0.000    6.462 
#
# Total GULP energy -289622.254156 kJ/mol
# GULP energy per Si atom -5569.658734 kJ/mol
# Density = 2.472071 g / cm^3
# Si number density = 24.777100 Si / 1000 Ang^3
#
#
#
# Elastic Constant Matrix: (Units=GPa)
#
#
# Indices 1 2 3 4 5 6 
#
# 1 52.8912 12.0527 23.8793 0.0000 0.0000 0.0000
# 2 12.0527 43.7799 25.1215 0.0000 0.0000 0.0000
# 3 23.8793 25.1215 99.1959 0.0000 0.0000 0.0000
# 4 0.0000 0.0000 0.0000 30.0772 0.0000 0.0000
# 5 0.0000 0.0000 0.0000 0.0000 11.8084 0.0000
# 6 0.0000 0.0000 0.0000 0.0000 0.0000 23.7312
#
#
#
# Elastic Compliance Matrix: (Units=1/GPa)
#
#
# Indices 1 2 3 4 5 6 
#
# 1 0.021655 -0.003475 -0.004333 0.000000 0.000000 0.000000
# 2 -0.003475 0.027283 -0.006073 0.000000 0.000000 0.000000
# 3 -0.004333 -0.006073 0.012662 0.000000 0.000000 0.000000
# 4 0.000000 0.000000 0.000000 0.033248 0.000000 0.000000
# 5 0.000000 0.000000 0.000000 0.000000 0.084686 0.000000
# 6 0.000000 0.000000 0.000000 0.000000 0.000000 0.042139
#
#
# Mechanical properties :
#
#
# Convention : Reuss Voigt Hill
#
# Bulk Modulus (GPa) = 29.55271 35.33044 32.44157
# Shear Modulus (GPa) = 19.17813 22.11090 20.64451
#
# Velocity S-wave (km/s) = 2.78515 2.99053 2.88967
# Velocity P-wave (km/s) = 4.72187 5.12003 4.92497
#
# Compressibility (1/GPa) = 0.03383785
#
# Stress axis : x y z
#
# Youngs Moduli (GPa) = 46.17896 36.65283 78.97612
#
# Poissons Ratio (x) = 0.12738 0.34219
# Poissons Ratio (y) = 0.16049 0.47961
# Poissons Ratio (z) = 0.20008 0.22259
#
# Static dielectric constant tensor:
#      x y z
#    x 1.963750 0.000000 0.000000 
#    y 0.000000 2.014090 0.000000 
#    z 0.000000 0.000000 1.966050 
# 
# From -- ./inp_files/25349.got.cif
#   From: 2010.05.17/outbox.cif.g08.bks.cpg/sg57_13_cif.got.tgz:25349.got - 2010.06.03 13:58:18.
