data_PCOD9439693
_publ_section_title
;
Structure prediction by ZEFSAII (Michael W. Deem and Ramdas Pophale) SiO2 
 PCOD9439693
Probable space group: P B C M
;
_chemical_formula_sum "Si O2"
_cell_formula_units_Z 40
_cell_length_a 5.606493
_cell_length_b 13.680374
_cell_length_c 22.551191
_cell_angle_alpha 90.000000
_cell_angle_beta 90.000000
_cell_angle_gamma 90.000000
_cell_volume 1729.652019
_symmetry_space_group_name_H-M "P B C M"
_symmetry_group_IT_number 57
_symmetry_cell_setting 'orthorhombic'
loop_
_space_group_symop_operation_xyz
x,y,z
-x,-y,1/2+z
x,1/2-y,-z
-x,1/2+y,1/2-z
-x,-y,-z
x,y,1/2-z
-x,1/2+y,z
x,1/2-y,1/2+z
loop_
_atom_site_type_symbol
_atom_site_label
_atom_site_fract_x
_atom_site_fract_y
_atom_site_fract_z
Si Si1 0.177711 0.434151 0.637446
Si Si2 0.572518 0.858720 0.518321
Si Si3 0.110161 0.222591 0.818860
Si Si4 0.187769 0.984023 0.947819
Si Si5 0.611889 0.132337 0.821570
O O1 0.281933 0.390624 0.576332
O O2 0.130528 0.339956 0.677112
O O3 0.346889 0.518335 0.662864
O O4 0.932281 0.484678 0.615957
O O5 0.624451 0.750000 0.500000
O O6 0.622496 0.931509 0.463123
O O7 0.304130 0.879338 0.539034
O O8 0.102578 0.192453 0.750000
O O9 0.360626 0.178395 0.842930
O O10 0.853237 0.187703 0.844413
O O11 0.000000 0.000000 0.000000
O O12 0.608923 0.142185 0.750000
#
# Coordination Sequence:
#
# PCOD9439693 Si02
#       5
#     8   8   8   8   8
#     4  11  24  39  69  95 129 176 225 272 334 403
#     4  10  23  41  62  90 130 174 221 284 333 402
#     4  10  24  44  68 102 137 176 220 271 337 402
#     4   9  22  42  58  91 126 169 223 274 337 391
#     4  10  24  44  67  99 140 173 218 279 330 398
#
# _framework density 23.126042000000002
#
# number of rings (size 3 to 8) (size 9 to 14) (size 15 to 20)
#    0.000    2.000    0.000    0.600    8.400    6.400 
#    0.000    6.000    0.000    0.000    0.000    0.000 
#    0.000    0.000    0.000    0.000    0.000    0.000 
#
# Total GULP energy -223278.414672 kJ/mol
# GULP energy per Si atom -5581.960367 kJ/mol
# Density = 2.307341 g / cm^3
# Si number density = 23.126042 Si / 1000 Ang^3
#
#
#
# Elastic Constant Matrix: (Units=GPa)
#
#
# Indices 1 2 3 4 5 6 
#
# 1 125.2934 34.5134 21.7078 0.0000 0.0000 0.0000
# 2 34.5134 103.0839 -1.6099 0.0000 0.0000 0.0000
# 3 21.7078 -1.6099 27.1578 0.0000 0.0000 0.0000
# 4 0.0000 0.0000 0.0000 42.4817 0.0000 0.0000
# 5 0.0000 0.0000 0.0000 0.0000 20.3929 0.0000
# 6 0.0000 0.0000 0.0000 0.0000 0.0000 28.1736
#
#
#
# Elastic Compliance Matrix: (Units=1/GPa)
#
#
# Indices 1 2 3 4 5 6 
#
# 1 0.010472 -0.003640 -0.008586 0.000000 0.000000 0.000000
# 2 -0.003640 0.010975 0.003560 0.000000 0.000000 0.000000
# 3 -0.008586 0.003560 0.043896 0.000000 0.000000 0.000000
# 4 0.000000 0.000000 0.000000 0.023540 0.000000 0.000000
# 5 0.000000 0.000000 0.000000 0.000000 0.049037 0.000000
# 6 0.000000 0.000000 0.000000 0.000000 0.000000 0.035494
#
#
# Mechanical properties :
#
#
# Convention : Reuss Voigt Hill
#
# Bulk Modulus (GPa) = 20.82858 40.52863 30.67861
# Shear Modulus (GPa) = 24.18403 31.60456 27.89430
#
# Velocity S-wave (km/s) = 3.23731 3.70080 3.47679
# Velocity P-wave (km/s) = 4.79580 5.98534 5.42328
#
# Compressibility (1/GPa) = 0.04801095
#
# Stress axis : x y z
#
# Youngs Moduli (GPa) = 95.49727 91.11489 22.78122
#
# Poissons Ratio (x) = 0.33166 0.19560
# Poissons Ratio (y) = 0.34761 -0.08110
# Poissons Ratio (z) = 0.81993 -0.32438
#
# Static dielectric constant tensor:
#      x y z
#    x 1.997660 0.000000 0.000000 
#    y 0.000000 1.871560 0.000000 
#    z 0.000000 0.000000 1.862880 
# 
# From -- ./inp_files/26104.got.cif
#   From: 2010.05.17/outbox.cif.g08.bks.cpg/sg57_14_cif.got.tgz:26104.got - 2010.06.03 13:58:18.
