data_PCOD9439478
_publ_section_title
;
Structure prediction by ZEFSAII (Michael W. Deem and Ramdas Pophale) SiO2 
 PCOD9439478
Probable space group: P B C M
;
_chemical_formula_sum "Si O2"
_cell_formula_units_Z 40
_cell_length_a 9.968026
_cell_length_b 9.078340
_cell_length_c 18.129277
_cell_angle_alpha 90.000000
_cell_angle_beta 90.000000
_cell_angle_gamma 90.000000
_cell_volume 1640.575005
_symmetry_space_group_name_H-M "P B C M"
_symmetry_group_IT_number 57
_symmetry_cell_setting 'orthorhombic'
loop_
_space_group_symop_operation_xyz
x,y,z
-x,-y,1/2+z
x,1/2-y,-z
-x,1/2+y,1/2-z
-x,-y,-z
x,y,1/2-z
-x,1/2+y,z
x,1/2-y,1/2+z
loop_
_atom_site_type_symbol
_atom_site_label
_atom_site_fract_x
_atom_site_fract_y
_atom_site_fract_z
Si Si1 0.199030 0.533122 0.894655
Si Si2 0.802575 0.414070 0.750000
Si Si3 0.648866 0.733780 0.163431
Si Si4 0.360644 0.681060 0.391653
Si Si5 0.288063 0.100993 0.966259
Si Si6 0.036463 0.886270 0.250000
O O1 0.313325 0.434176 0.855407
O O2 0.257115 0.692433 0.914594
O O3 0.093636 0.549744 0.828081
O O4 0.177481 0.449551 0.973180
O O5 0.707112 0.388286 0.819266
O O6 0.915494 0.283255 0.750000
O O7 0.884170 0.564369 0.750000
O O8 0.650034 0.758791 0.250000
O O9 0.498718 0.755235 0.133246
O O10 0.748866 0.832346 0.113477
O O11 0.372513 0.545843 0.448812
O O12 0.353547 0.250000 0.000000
#
# Coordination Sequence:
#
# PCOD9439478 Si02
#       6
#     8   4   8   8   8   4
#     4  10  22  41  62  91 130 175 210 272 326 389
#     4  10  24  41  66 100 120 177 221 282 331 390
#     4  11  22  37  62  97 137 170 209 263 319 396
#     4  11  22  39  65  94 134 171 220 261 328 403
#     4  10  24  38  59  97 133 171 213 258 323 383
#     4  10  22  43  66  88 130 167 229 278 333 380
#
# _framework density 24.381698
#
# number of rings (size 3 to 8) (size 9 to 14) (size 15 to 20)
#    0.000    1.600    2.000    1.800    1.400   13.600 
#    0.000    1.000    0.000    2.400    0.000    0.000 
#    0.000    0.000    0.000    0.000    0.000    0.000 
#
# Total GULP energy -223060.791911 kJ/mol
# GULP energy per Si atom -5576.519798 kJ/mol
# Density = 2.432620 g / cm^3
# Si number density = 24.381698 Si / 1000 Ang^3
#
#
#
# Elastic Constant Matrix: (Units=GPa)
#
#
# Indices 1 2 3 4 5 6 
#
# 1 54.8797 11.7836 33.0959 0.0000 0.0000 0.0000
# 2 11.7836 89.4055 65.7370 0.0000 0.0000 0.0000
# 3 33.0959 65.7370 197.3029 0.0000 0.0000 0.0000
# 4 0.0000 0.0000 0.0000 47.1106 0.0000 0.0000
# 5 0.0000 0.0000 0.0000 0.0000 13.3039 0.0000
# 6 0.0000 0.0000 0.0000 0.0000 0.0000 30.4044
#
#
#
# Elastic Compliance Matrix: (Units=1/GPa)
#
#
# Indices 1 2 3 4 5 6 
#
# 1 0.020276 -0.000227 -0.003325 0.000000 0.000000 0.000000
# 2 -0.000227 0.014817 -0.004898 0.000000 0.000000 0.000000
# 3 -0.003325 -0.004898 0.007258 0.000000 0.000000 0.000000
# 4 0.000000 0.000000 0.000000 0.021227 0.000000 0.000000
# 5 0.000000 0.000000 0.000000 0.000000 0.075166 0.000000
# 6 0.000000 0.000000 0.000000 0.000000 0.000000 0.032890
#
#
# Mechanical properties :
#
#
# Convention : Reuss Voigt Hill
#
# Bulk Modulus (GPa) = 39.29509 62.53568 50.91539
# Shear Modulus (GPa) = 25.37831 33.56187 29.47009
#
# Velocity S-wave (km/s) = 3.22976 3.71417 3.48040
# Velocity P-wave (km/s) = 5.48271 6.64061 6.08925
#
# Compressibility (1/GPa) = 0.02544847
#
# Stress axis : x y z
#
# Youngs Moduli (GPa) = 49.31962 67.49172 137.77496
#
# Poissons Ratio (x) = 0.01534 0.45815
# Poissons Ratio (y) = 0.01121 0.67488
# Poissons Ratio (z) = 0.16401 0.33060
#
# Static dielectric constant tensor:
#      x y z
#    x 1.878440 0.000000 0.000000 
#    y 0.000000 1.984260 0.000000 
#    z 0.000000 0.000000 2.026250 
# 
# From -- ./inp_files/21634.got.cif
#   From: 2010.05.17/outbox.cif.g08.bks.cpg/sg57_11_cif.got.tgz:21634.got - 2010.06.03 13:58:18.
