data_PCOD9439083
_publ_section_title
;
Structure prediction by ZEFSAII (Michael W. Deem and Ramdas Pophale) SiO2 
 PCOD9439083
Probable space group: P B C M
;
_chemical_formula_sum "Si O2"
_cell_formula_units_Z 56
_cell_length_a 13.293985
_cell_length_b 11.606026
_cell_length_c 14.821978
_cell_angle_alpha 90.000000
_cell_angle_beta 90.000000
_cell_angle_gamma 90.000000
_cell_volume 2286.887959
_symmetry_space_group_name_H-M "P B C M"
_symmetry_group_IT_number 57
_symmetry_cell_setting 'orthorhombic'
loop_
_space_group_symop_operation_xyz
x,y,z
-x,-y,1/2+z
x,1/2-y,-z
-x,1/2+y,1/2-z
-x,-y,-z
x,y,1/2-z
-x,1/2+y,z
x,1/2-y,1/2+z
loop_
_atom_site_type_symbol
_atom_site_label
_atom_site_fract_x
_atom_site_fract_y
_atom_site_fract_z
Si Si1 0.441619 0.259407 0.607850
Si Si2 0.956691 0.857944 0.858432
Si Si3 0.214196 0.178800 0.644451
Si Si4 0.292890 0.977093 0.533729
Si Si5 0.821729 0.186830 0.146581
Si Si6 0.519805 0.986359 0.149703
Si Si7 0.798295 0.457785 0.349994
O O1 0.449568 0.250000 0.500000
O O2 0.324974 0.235023 0.634562
O O3 0.465585 0.389107 0.640953
O O4 0.510558 0.150916 0.644044
O O5 0.967479 0.843993 0.750000
O O6 0.875131 0.762617 0.886081
O O7 0.069304 0.847498 0.892744
O O8 0.901937 0.978570 0.873830
O O9 0.198717 0.150975 0.750000
O O10 0.218288 0.067433 0.581756
O O11 0.262650 0.857454 0.578980
O O12 0.401948 0.007860 0.568022
O O13 0.280783 0.982264 0.427767
O O14 0.808048 0.142431 0.250000
O O15 0.817785 0.323342 0.152295
O O16 0.568014 0.991851 0.250000
O O17 0.766360 0.498230 0.250000
#
# Coordination Sequence:
#
# PCOD9439083 Si02
#       7
#     8   8   8   8   8   8   8
#     4  11  24  43  71 104 139 178 225 285 342 420
#     4   9  21  39  63  91 129 174 216 265 325 388
#     4  10  22  42  68  98 130 171 218 269 332 396
#     4  11  23  40  68  97 128 174 220 272 328 404
#     4  10  21  40  63  93 134 172 217 275 330 391
#     4  11  24  47  74 104 138 179 228 283 353 418
#     4  10  23  42  60  92 133 172 222 276 329 390
#
# _framework density 24.487425999999999
#
# number of rings (size 3 to 8) (size 9 to 14) (size 15 to 20)
#    0.000    1.714    0.000    4.286    6.000    1.714 
#    5.143    0.000    0.000    0.857    0.000    0.000 
#    0.000    0.000    0.000    0.000    0.000    0.000 
#
# Total GULP energy -313125.731088 kJ/mol
# GULP energy per Si atom -5591.530912 kJ/mol
# Density = 2.443169 g / cm^3
# Si number density = 24.487426 Si / 1000 Ang^3
#
#
#
# Elastic Constant Matrix: (Units=GPa)
#
#
# Indices 1 2 3 4 5 6 
#
# 1 33.7778 30.2069 23.4483 0.0000 0.0000 0.0000
# 2 30.2069 134.9200 28.0585 0.0000 0.0000 0.0000
# 3 23.4483 28.0585 142.0474 0.0000 0.0000 0.0000
# 4 0.0000 0.0000 0.0000 -25.4474 0.0000 0.0000
# 5 0.0000 0.0000 0.0000 0.0000 22.3297 0.0000
# 6 0.0000 0.0000 0.0000 0.0000 0.0000 20.6261
#
#
#
# Elastic Compliance Matrix: (Units=1/GPa)
#
#
# Indices 1 2 3 4 5 6 
#
# 1 0.040239 -0.007954 -0.005071 0.000000 0.000000 0.000000
# 2 -0.007954 0.009302 -0.000524 0.000000 0.000000 0.000000
# 3 -0.005071 -0.000524 0.007981 0.000000 0.000000 0.000000
# 4 0.000000 0.000000 0.000000 -0.039297 0.000000 0.000000
# 5 0.000000 0.000000 0.000000 0.000000 0.044783 0.000000
# 6 0.000000 0.000000 0.000000 0.000000 0.000000 0.048482
#
#
# Mechanical properties :
#
#
# Convention : Reuss Voigt Hill
#
# Bulk Modulus (GPa) = 32.87138 52.68587 42.77862
# Shear Modulus (GPa) = 33.61778 18.77044 26.19411
#
# Velocity S-wave (km/s) = 3.70923 2.77164 3.27417
# Velocity P-wave (km/s) = 5.63892 5.63958 5.63925
#
# Compressibility (1/GPa) = 0.03042160
#
# Stress axis : x y z
#
# Youngs Moduli (GPa) = 24.85144 107.50691 125.30401
#
# Poissons Ratio (x) = 0.85515 0.63544
# Poissons Ratio (y) = 0.19768 0.06570
# Poissons Ratio (z) = 0.12603 0.05637
#
# Static dielectric constant tensor:
#      x y z
#    x 1.965160 0.000000 0.000000 
#    y 0.000000 2.011440 0.000000 
#    z 0.000000 0.000000 1.930690 
# 
# From -- ./inp_files/18499.got.cif
#   From: 2010.05.17/outbox.cif.g08.bks.cpg/sg57_10_cif.got.tgz:18499.got - 2010.06.03 13:58:18.
