data_PCOD9439170
_publ_section_title
;
Structure prediction by ZEFSAII (Michael W. Deem and Ramdas Pophale) SiO2 
 PCOD9439170
Probable space group: P B C M
;
_chemical_formula_sum "Si O2"
_cell_formula_units_Z 64
_cell_length_a 20.131343
_cell_length_b 8.448654
_cell_length_c 17.545064
_cell_angle_alpha 90.000000
_cell_angle_beta 90.000000
_cell_angle_gamma 90.000000
_cell_volume 2984.112761
_symmetry_space_group_name_H-M "P B C M"
_symmetry_group_IT_number 57
_symmetry_cell_setting 'orthorhombic'
loop_
_space_group_symop_operation_xyz
x,y,z
-x,-y,1/2+z
x,1/2-y,-z
-x,1/2+y,1/2-z
-x,-y,-z
x,y,1/2-z
-x,1/2+y,z
x,1/2-y,1/2+z
loop_
_atom_site_type_symbol
_atom_site_label
_atom_site_fract_x
_atom_site_fract_y
_atom_site_fract_z
Si Si1 0.692929 0.222571 0.337262
Si Si2 0.938079 0.893937 0.338017
Si Si3 0.827304 0.871820 0.058768
Si Si4 0.083684 0.484379 0.838411
Si Si5 0.799366 0.113545 0.556082
Si Si6 0.574515 0.706825 0.588389
Si Si7 0.549836 0.373583 0.839742
Si Si8 0.288561 0.339344 0.161587
O O1 0.707582 0.269681 0.250000
O O2 0.738616 0.317774 0.395336
O O3 0.613882 0.239578 0.350939
O O4 0.706390 0.032322 0.342190
O O5 0.927068 0.943901 0.250000
O O6 0.883436 0.965058 0.394911
O O7 0.926277 0.705121 0.342804
O O8 0.012867 0.938017 0.358835
O O9 0.779648 0.793517 0.121007
O O10 0.860191 0.750000 0.000000
O O11 0.781104 0.976271 0.003858
O O12 0.097433 0.523969 0.750000
O O13 0.142403 0.549371 0.890331
O O14 0.824998 0.250000 0.500000
O O15 0.568427 0.750000 0.500000
O O16 0.519429 0.796731 0.638029
O O17 0.560917 0.522935 0.605909
O O18 0.648695 0.735174 0.619170
O O19 0.551535 0.421326 0.750000
O O20 0.288813 0.295372 0.250000
#
# Coordination Sequence:
#
# PCOD9439170 Si02
#       8
#     8   8   8   8   8   8   8   8
#     4   9  20  40  64  89 122 166 213 256 305 372
#     4  10  23  43  65  91 123 165 209 253 310 377
#     4  12  24  42  61  92 130 161 202 261 321 373
#     4  10  23  43  65  90 124 164 210 257 306 375
#     4  12  24  40  62  93 124 163 207 259 314 371
#     4  11  22  40  64  97 131 168 215 272 324 375
#     4  10  21  41  66  93 130 173 216 262 319 388
#     4  10  21  41  66  88 123 170 213 257 313 385
#
# _framework density 21.446909999999999
#
# number of rings (size 3 to 8) (size 9 to 14) (size 15 to 20)
#    0.000    1.500    2.500    3.375    1.750    1.500 
#    4.500    0.000    0.000    0.000    0.000    0.000 
#    0.000    0.000    0.000    0.000    0.000    0.000 
#
# Total GULP energy -357672.472419 kJ/mol
# GULP energy per Si atom -5588.632382 kJ/mol
# Density = 2.139810 g / cm^3
# Si number density = 21.446910 Si / 1000 Ang^3
#
#
#
# Elastic Constant Matrix: (Units=GPa)
#
#
# Indices 1 2 3 4 5 6 
#
# 1 117.5185 18.4540 76.6796 0.0000 0.0000 0.0000
# 2 18.4540 30.5133 33.1227 0.0000 0.0000 0.0000
# 3 76.6796 33.1227 130.3953 0.0000 0.0000 0.0000
# 4 0.0000 0.0000 0.0000 29.7815 0.0000 0.0000
# 5 0.0000 0.0000 0.0000 0.0000 21.4020 0.0000
# 6 0.0000 0.0000 0.0000 0.0000 0.0000 31.4502
#
#
#
# Elastic Compliance Matrix: (Units=1/GPa)
#
#
# Indices 1 2 3 4 5 6 
#
# 1 0.013816 0.000640 -0.008287 0.000000 0.000000 0.000000
# 2 0.000640 0.045280 -0.011878 0.000000 0.000000 0.000000
# 3 -0.008287 -0.011878 0.015560 0.000000 0.000000 0.000000
# 4 0.000000 0.000000 0.000000 0.033578 0.000000 0.000000
# 5 0.000000 0.000000 0.000000 0.000000 0.046725 0.000000
# 6 0.000000 0.000000 0.000000 0.000000 0.000000 0.031796
#
#
# Mechanical properties :
#
#
# Convention : Reuss Voigt Hill
#
# Bulk Modulus (GPa) = 28.08627 59.43776 43.76202
# Shear Modulus (GPa) = 21.03731 26.53812 23.78772
#
# Velocity S-wave (km/s) = 3.13533 3.52147 3.33399
# Velocity P-wave (km/s) = 5.12164 6.65645 5.93884
#
# Compressibility (1/GPa) = 0.03560458
#
# Stress axis : x y z
#
# Youngs Moduli (GPa) = 72.37922 22.08504 64.26887
#
# Poissons Ratio (x) = -0.01414 0.53261
# Poissons Ratio (y) = -0.04633 0.76340
# Poissons Ratio (z) = 0.59982 0.26233
#
# Static dielectric constant tensor:
#      x y z
#    x 1.755950 0.000000 0.000000 
#    y 0.000000 1.835440 0.000000 
#    z 0.000000 0.000000 1.757850 
# 
# From -- ./inp_files/23021.got.cif
#   From: 2010.05.17/outbox.cif.g08.bks.cpg/sg57_12_cif.got.tgz:23021.got - 2010.06.03 13:58:18.
