data_PCOD9439732
_publ_section_title
;
Structure prediction by ZEFSAII (Michael W. Deem and Ramdas Pophale) SiO2 
 PCOD9439732
Probable space group: P B C M
;
_chemical_formula_sum "Si O2"
_cell_formula_units_Z 56
_cell_length_a 5.129280
_cell_length_b 29.920685
_cell_length_c 15.862269
_cell_angle_alpha 90.000000
_cell_angle_beta 90.000000
_cell_angle_gamma 90.000000
_cell_volume 2434.407346
_symmetry_space_group_name_H-M "P B C M"
_symmetry_group_IT_number 57
_symmetry_cell_setting 'orthorhombic'
loop_
_space_group_symop_operation_xyz
x,y,z
-x,-y,1/2+z
x,1/2-y,-z
-x,1/2+y,1/2-z
-x,-y,-z
x,y,1/2-z
-x,1/2+y,z
x,1/2-y,1/2+z
loop_
_atom_site_type_symbol
_atom_site_label
_atom_site_fract_x
_atom_site_fract_y
_atom_site_fract_z
Si Si1 0.713918 0.057418 0.844629
Si Si2 0.461405 0.367649 0.653447
Si Si3 0.797858 0.228482 0.914839
Si Si4 0.710753 0.769230 0.657041
Si Si5 0.864910 0.566023 0.438533
Si Si6 0.784183 0.130148 0.980468
Si Si7 0.235610 0.008800 0.904768
O O1 0.706537 0.076004 0.750000
O O2 0.658371 0.093876 0.917135
O O3 0.494883 0.019490 0.854573
O O4 0.995473 0.035902 0.862788
O O5 0.569057 0.367823 0.750000
O O6 0.284216 0.322815 0.646358
O O7 0.299195 0.412845 0.636256
O O8 0.651410 0.363692 0.572240
O O9 0.507805 0.247021 0.901332
O O10 0.797434 0.175916 0.929902
O O11 0.007643 0.246803 0.849278
O O12 0.905480 0.250000 0.000000
O O13 0.603603 0.760983 0.750000
O O14 0.739928 0.529067 0.500357
O O15 0.937956 0.608264 0.496918
O O16 0.131825 0.541733 0.409720
#
# Coordination Sequence:
#
# PCOD9439732 Si02
#       7
#     8   8   8   8   8   8   8
#     4  11  24  43  67 100 139 183 229 283 338 404
#     4  11  24  43  67 100 139 179 227 288 348 408
#     4  12  24  43  72  97 134 183 230 273 349 421
#     4  11  26  45  67 100 138 178 230 291 343 411
#     4  10  23  42  67  98 133 180 229 281 345 406
#     4  11  25  43  70 101 139 179 228 284 347 409
#     4  10  23  42  70  95 137 179 230 281 340 406
#
# _framework density 23.003546
#
# number of rings (size 3 to 8) (size 9 to 14) (size 15 to 20)
#    0.000    1.143    2.857    2.143    4.000    4.571 
#    0.000    0.000    0.000    0.000    0.000    0.000 
#    0.000    0.000    0.000    0.000    0.000    0.000 
#
# Total GULP energy -312975.537499 kJ/mol
# GULP energy per Si atom -5588.848884 kJ/mol
# Density = 2.295119 g / cm^3
# Si number density = 23.003546 Si / 1000 Ang^3
#
#
#
# Elastic Constant Matrix: (Units=GPa)
#
#
# Indices 1 2 3 4 5 6 
#
# 1 92.0026 29.5026 27.1586 0.0000 0.0000 0.0000
# 2 29.5026 100.5625 16.6982 0.0000 0.0000 0.0000
# 3 27.1586 16.6982 123.0405 0.0000 0.0000 0.0000
# 4 0.0000 0.0000 0.0000 24.9288 0.0000 0.0000
# 5 0.0000 0.0000 0.0000 0.0000 24.0665 0.0000
# 6 0.0000 0.0000 0.0000 0.0000 0.0000 25.8342
#
#
#
# Elastic Compliance Matrix: (Units=1/GPa)
#
#
# Indices 1 2 3 4 5 6 
#
# 1 0.012622 -0.003315 -0.002336 0.000000 0.000000 0.000000
# 2 -0.003315 0.011044 -0.000767 0.000000 0.000000 0.000000
# 3 -0.002336 -0.000767 0.008747 0.000000 0.000000 0.000000
# 4 0.000000 0.000000 0.000000 0.040114 0.000000 0.000000
# 5 0.000000 0.000000 0.000000 0.000000 0.041552 0.000000
# 6 0.000000 0.000000 0.000000 0.000000 0.000000 0.038708
#
#
# Mechanical properties :
#
#
# Convention : Reuss Voigt Hill
#
# Bulk Modulus (GPa) = 51.08156 51.36937 51.22547
# Shear Modulus (GPa) = 29.04456 31.11565 30.08010
#
# Velocity S-wave (km/s) = 3.55718 3.68182 3.62004
# Velocity P-wave (km/s) = 6.25504 6.36034 6.30791
#
# Compressibility (1/GPa) = 0.01957654
#
# Stress axis : x y z
#
# Youngs Moduli (GPa) = 79.22731 90.54698 114.32280
#
# Poissons Ratio (x) = 0.30017 0.26707
# Poissons Ratio (y) = 0.26264 0.08770
# Poissons Ratio (z) = 0.18508 0.06946
#
# Static dielectric constant tensor:
#      x y z
#    x 1.881400 0.000000 0.000000 
#    y 0.000000 1.938150 0.000000 
#    z 0.000000 0.000000 1.833790 
# 
# From -- ./inp_files/15241.got.cif
#   From: 2010.05.17/outbox.cif.g08.bks.cpg/sg57_8_cif.got.tgz:15241.got - 2010.06.03 13:58:18.
