data_PCOD9439786
_publ_section_title
;
Structure prediction by ZEFSAII (Michael W. Deem and Ramdas Pophale) SiO2 
 PCOD9439786
Probable space group: P B C M
;
_chemical_formula_sum "Si O2"
_cell_formula_units_Z 48
_cell_length_a 14.221041
_cell_length_b 17.308380
_cell_length_c 10.247964
_cell_angle_alpha 90.000000
_cell_angle_beta 90.000000
_cell_angle_gamma 90.000000
_cell_volume 2522.466464
_symmetry_space_group_name_H-M "P B C M"
_symmetry_group_IT_number 57
_symmetry_cell_setting 'orthorhombic'
loop_
_space_group_symop_operation_xyz
x,y,z
-x,-y,1/2+z
x,1/2-y,-z
-x,1/2+y,1/2-z
-x,-y,-z
x,y,1/2-z
-x,1/2+y,z
x,1/2-y,1/2+z
loop_
_atom_site_type_symbol
_atom_site_label
_atom_site_fract_x
_atom_site_fract_y
_atom_site_fract_z
Si Si1 0.104704 0.091651 0.986473
Si Si2 0.291749 0.673788 0.091602
Si Si3 0.792950 0.826626 0.250000
Si Si4 0.905106 0.413456 0.595947
Si Si5 0.580923 0.844270 0.750000
Si Si6 0.573693 0.840041 0.250000
Si Si7 0.795172 0.859387 0.750000
Si Si8 0.475001 0.910015 0.996872
O O1 0.153327 0.142800 0.876612
O O2 0.113283 0.002460 0.943042
O O3 0.156440 0.106904 0.122226
O O4 0.995116 0.111224 0.010831
O O5 0.307917 0.686695 0.250000
O O6 0.187437 0.638174 0.077481
O O7 0.367193 0.612457 0.034118
O O8 0.300998 0.750000 0.000000
O O9 0.685563 0.858971 0.250000
O O10 0.797457 0.733945 0.250000
O O11 0.929760 0.411053 0.750000
O O12 0.575993 0.752199 0.750000
O O13 0.685382 0.877258 0.750000
O O14 0.529899 0.873332 0.877177
O O15 0.517466 0.871655 0.373866
O O16 0.500000 0.000000 0.000000
#
# Coordination Sequence:
#
# PCOD9439786 Si02
#       8
#     8   8   4   8   4   4   4   8
#     4  11  22  43  67  97 133 173 220 276 330 394
#     4  11  26  48  70  99 137 179 225 279 337 400
#     4  11  24  40  69  97 129 175 215 270 339 391
#     4  10  23  44  69  95 131 181 217 271 338 390
#     4  11  23  45  63  95 134 171 216 272 335 392
#     4  11  25  43  69  93 138 177 212 268 343 396
#     4  11  24  38  65  99 131 167 217 274 327 397
#     4  12  26  42  68 100 128 179 224 275 327 393
#
# _framework density 19.028993
#
# number of rings (size 3 to 8) (size 9 to 14) (size 15 to 20)
#    0.000    1.000    2.500    3.500    5.833    4.000 
#    3.000    0.000    0.000    0.000    0.000    0.000 
#    0.000    0.000    0.000    0.000    0.000    0.000 
#
# Total GULP energy -268210.910549 kJ/mol
# GULP energy per Si atom -5587.727303 kJ/mol
# Density = 1.898568 g / cm^3
# Si number density = 19.028993 Si / 1000 Ang^3
#
#
#
# Elastic Constant Matrix: (Units=GPa)
#
#
# Indices 1 2 3 4 5 6 
#
# 1 117.4186 33.7095 54.4100 0.0000 0.0000 0.0000
# 2 33.7095 59.2031 29.6609 0.0000 0.0000 0.0000
# 3 54.4100 29.6609 146.7487 0.0000 0.0000 0.0000
# 4 0.0000 0.0000 0.0000 38.9043 0.0000 0.0000
# 5 0.0000 0.0000 0.0000 0.0000 33.6412 0.0000
# 6 0.0000 0.0000 0.0000 0.0000 0.0000 -35.6620
#
#
#
# Elastic Compliance Matrix: (Units=1/GPa)
#
#
# Indices 1 2 3 4 5 6 
#
# 1 0.011422 -0.004876 -0.003249 0.000000 0.000000 0.000000
# 2 -0.004876 0.020875 -0.002412 0.000000 0.000000 0.000000
# 3 -0.003249 -0.002412 0.008507 0.000000 0.000000 0.000000
# 4 0.000000 0.000000 0.000000 0.025704 0.000000 0.000000
# 5 0.000000 0.000000 0.000000 0.000000 0.029725 0.000000
# 6 0.000000 0.000000 0.000000 0.000000 0.000000 -0.028041
#
#
# Mechanical properties :
#
#
# Convention : Reuss Voigt Hill
#
# Bulk Modulus (GPa) = 50.68262 62.10348 56.39305
# Shear Modulus (GPa) = 52.16886 21.08272 36.62579
#
# Velocity S-wave (km/s) = 5.24166 3.33216 4.39194
# Velocity P-wave (km/s) = 7.95773 6.89286 7.44436
#
# Compressibility (1/GPa) = 0.01973063
#
# Stress axis : x y z
#
# Youngs Moduli (GPa) = 87.55025 47.90341 117.55552
#
# Poissons Ratio (x) = 0.23356 0.38199
# Poissons Ratio (y) = 0.42686 0.28350
# Poissons Ratio (z) = 0.28449 0.11553
#
# Static dielectric constant tensor:
#      x y z
#    x 1.667290 0.000000 0.000000 
#    y 0.000000 1.626420 0.000000 
#    z 0.000000 0.000000 1.616120 
# 
# From -- ./inp_files/4782.got.cif
#   From: 2010.05.17/outbox.cif.g08.bks.cpg/sg57_3_cif.got.tgz:4782.got - 2010.06.03 13:58:18.
