data_PCOD9439295
_publ_section_title
;
Structure prediction by ZEFSAII (Michael W. Deem and Ramdas Pophale) SiO2 
 PCOD9439295
Probable space group: P B C M
;
_chemical_formula_sum "Si O2"
_cell_formula_units_Z 40
_cell_length_a 13.218726
_cell_length_b 7.838713
_cell_length_c 16.078065
_cell_angle_alpha 90.000000
_cell_angle_beta 90.000000
_cell_angle_gamma 90.000000
_cell_volume 1665.973713
_symmetry_space_group_name_H-M "P B C M"
_symmetry_group_IT_number 57
_symmetry_cell_setting 'orthorhombic'
loop_
_space_group_symop_operation_xyz
x,y,z
-x,-y,1/2+z
x,1/2-y,-z
-x,1/2+y,1/2-z
-x,-y,-z
x,y,1/2-z
-x,1/2+y,z
x,1/2-y,1/2+z
loop_
_atom_site_type_symbol
_atom_site_label
_atom_site_fract_x
_atom_site_fract_y
_atom_site_fract_z
Si Si1 0.234554 0.840642 0.911053
Si Si2 0.866054 0.665050 0.089448
Si Si3 0.662225 0.200250 0.750000
Si Si4 0.650055 0.795162 0.410161
Si Si5 0.963879 0.985716 0.154244
Si Si6 0.545600 0.659933 0.250000
O O1 0.273010 0.729559 0.833153
O O2 0.120320 0.900446 0.891880
O O3 0.301561 0.015785 0.912039
O O4 0.243590 0.750000 0.000000
O O5 0.746516 0.668004 0.100491
O O6 0.930072 0.496962 0.105547
O O7 0.916755 0.798322 0.151754
O O8 0.884204 0.750000 0.000000
O O9 0.575075 0.345166 0.750000
O O10 0.603678 0.020258 0.750000
O O11 0.603406 0.750000 0.500000
O O12 0.578289 0.760885 0.333027
O O13 0.974585 0.034185 0.250000
#
# Coordination Sequence:
#
# PCOD9439295 Si02
#       6
#     8   8   4   8   8   4
#     4  11  23  43  68  94 135 169 215 268 321 383
#     4  10  22  38  59  88 128 172 216 260 313 373
#     4  12  26  46  67 104 121 172 209 264 330 388
#     4  10  23  43  66  97 129 172 216 266 321 382
#     4  11  22  37  60  92 131 171 217 262 316 371
#     4  12  26  44  73  92 135 160 213 266 326 386
#
# _framework density 24.009981
#
# number of rings (size 3 to 8) (size 9 to 14) (size 15 to 20)
#    0.000    1.200    1.000    4.800    5.600    5.600 
#    0.000    4.000    0.000    0.000    0.000    0.000 
#    0.000    0.000    0.000    0.000    0.000    0.000 
#
# Total GULP energy -224052.820895 kJ/mol
# GULP energy per Si atom -5601.320522 kJ/mol
# Density = 2.395533 g / cm^3
# Si number density = 24.009981 Si / 1000 Ang^3
#
#
#
# Elastic Constant Matrix: (Units=GPa)
#
#
# Indices 1 2 3 4 5 6 
#
# 1 52.7957 -4.2623 45.0569 0.0000 0.0000 0.0000
# 2 -4.2623 78.7640 16.5440 0.0000 0.0000 0.0000
# 3 45.0569 16.5440 175.4234 0.0000 0.0000 0.0000
# 4 0.0000 0.0000 0.0000 36.3756 0.0000 0.0000
# 5 0.0000 0.0000 0.0000 0.0000 16.5095 0.0000
# 6 0.0000 0.0000 0.0000 0.0000 0.0000 33.8003
#
#
#
# Elastic Compliance Matrix: (Units=1/GPa)
#
#
# Indices 1 2 3 4 5 6 
#
# 1 0.024823 0.002737 -0.006634 0.000000 0.000000 0.000000
# 2 0.002737 0.013254 -0.001953 0.000000 0.000000 0.000000
# 3 -0.006634 -0.001953 0.007589 0.000000 0.000000 0.000000
# 4 0.000000 0.000000 0.000000 0.027491 0.000000 0.000000
# 5 0.000000 0.000000 0.000000 0.000000 0.060571 0.000000
# 6 0.000000 0.000000 0.000000 0.000000 0.000000 0.029586
#
#
# Mechanical properties :
#
#
# Convention : Reuss Voigt Hill
#
# Bulk Modulus (GPa) = 29.44106 46.85114 38.14610
# Shear Modulus (GPa) = 26.83319 33.98004 30.40661
#
# Velocity S-wave (km/s) = 3.34666 3.76606 3.56253
# Velocity P-wave (km/s) = 5.21748 6.20213 5.73099
#
# Compressibility (1/GPa) = 0.03396617
#
# Stress axis : x y z
#
# Youngs Moduli (GPa) = 40.28467 75.44634 131.77734
#
# Poissons Ratio (x) = -0.20648 0.87420
# Poissons Ratio (y) = -0.11025 0.25735
# Poissons Ratio (z) = 0.26724 0.14734
#
# Static dielectric constant tensor:
#      x y z
#    x 1.869140 0.000000 0.000000 
#    y 0.000000 2.060340 0.000000 
#    z 0.000000 0.000000 1.877950 
# 
# From -- ./inp_files/18265.got.cif
#   From: 2010.05.17/outbox.cif.g08.bks.cpg/sg57_10_cif.got.tgz:18265.got - 2010.06.03 13:58:18.
