data_PCOD9439536
_publ_section_title
;
Structure prediction by ZEFSAII (Michael W. Deem and Ramdas Pophale) SiO2 
 PCOD9439536
Probable space group: P B C M
;
_chemical_formula_sum "Si O2"
_cell_formula_units_Z 24
_cell_length_a 18.269737
_cell_length_b 4.959805
_cell_length_c 10.853585
_cell_angle_alpha 90.000000
_cell_angle_beta 90.000000
_cell_angle_gamma 90.000000
_cell_volume 983.490365
_symmetry_space_group_name_H-M "P B C M"
_symmetry_group_IT_number 57
_symmetry_cell_setting 'orthorhombic'
loop_
_space_group_symop_operation_xyz
x,y,z
-x,-y,1/2+z
x,1/2-y,-z
-x,1/2+y,1/2-z
-x,-y,-z
x,y,1/2-z
-x,1/2+y,z
x,1/2-y,1/2+z
loop_
_atom_site_type_symbol
_atom_site_label
_atom_site_fract_x
_atom_site_fract_y
_atom_site_fract_z
Si Si1 0.328509 0.946206 0.384384
Si Si2 0.947922 0.771598 0.250000
Si Si3 0.839544 0.444078 0.113775
Si Si4 0.445669 0.250000 0.000000
O O1 0.342282 0.750000 0.500000
O O2 0.335515 0.813895 0.250000
O O3 0.244396 0.039430 0.397249
O O4 0.387598 0.184043 0.392514
O O5 0.896162 0.687245 0.135582
O O6 0.014912 0.559120 0.250000
O O7 0.841500 0.301779 0.250000
O O8 0.856384 0.250000 0.000000
O O9 0.500000 0.500000 0.000000
#
# Coordination Sequence:
#
# PCOD9439536 Si02
#       4
#     8   4   8   4
#     4  10  22  46  75 109 147 195 249 301 368 446
#     4  10  22  42  64 102 142 184 236 298 358 420
#     4   8  18  40  64 100 134 188 236 289 353 432
#     4  12  26  48  68 108 144 186 232 300 364 430
#
# _framework density 24.402882000000002
#
# number of rings (size 3 to 8) (size 9 to 14) (size 15 to 20)
#    1.000    1.333    1.667    0.000    0.000    4.000 
#   12.000    0.000    0.000    0.000    0.000    0.000 
#    0.000    0.000    0.000    0.000    0.000    0.000 
#
# Total GULP energy -133907.719394 kJ/mol
# GULP energy per Si atom -5579.488308 kJ/mol
# Density = 2.434734 g / cm^3
# Si number density = 24.402882 Si / 1000 Ang^3
#
#
#
# Elastic Constant Matrix: (Units=GPa)
#
#
# Indices 1 2 3 4 5 6 
#
# 1 191.6228 62.3886 20.4074 0.0000 0.0000 0.0000
# 2 62.3886 98.7526 43.7761 0.0000 0.0000 0.0000
# 3 20.4074 43.7761 191.0880 0.0000 0.0000 0.0000
# 4 0.0000 0.0000 0.0000 30.0381 0.0000 0.0000
# 5 0.0000 0.0000 0.0000 0.0000 35.4577 0.0000
# 6 0.0000 0.0000 0.0000 0.0000 0.0000 25.1845
#
#
#
# Elastic Compliance Matrix: (Units=1/GPa)
#
#
# Indices 1 2 3 4 5 6 
#
# 1 0.006583 -0.004282 0.000278 0.000000 0.000000 0.000000
# 2 -0.004282 0.014056 -0.002763 0.000000 0.000000 0.000000
# 3 0.000278 -0.002763 0.005836 0.000000 0.000000 0.000000
# 4 0.000000 0.000000 0.000000 0.033291 0.000000 0.000000
# 5 0.000000 0.000000 0.000000 0.000000 0.028203 0.000000
# 6 0.000000 0.000000 0.000000 0.000000 0.000000 0.039707
#
#
# Mechanical properties :
#
#
# Convention : Reuss Voigt Hill
#
# Bulk Modulus (GPa) = 77.26901 81.62305 79.44603
# Shear Modulus (GPa) = 34.35837 41.79549 38.07693
#
# Velocity S-wave (km/s) = 3.75635 4.14300 3.95441
# Velocity P-wave (km/s) = 7.10959 7.51044 7.31276
#
# Compressibility (1/GPa) = 0.01294180
#
# Stress axis : x y z
#
# Youngs Moduli (GPa) = 151.90167 71.14169 171.33726
#
# Poissons Ratio (x) = 0.30465 -0.04763
# Poissons Ratio (y) = 0.65048 0.47338
# Poissons Ratio (z) = -0.04222 0.19655
#
# Static dielectric constant tensor:
#      x y z
#    x 1.934530 0.000000 0.000000 
#    y 0.000000 2.580950 0.000000 
#    z 0.000000 0.000000 2.005770 
# 
# From -- ./inp_files/14002.got.cif
#   From: 2010.05.17/outbox.cif.g08.bks.cpg/sg57_8_cif.got.tgz:14002.got - 2010.06.03 13:58:18.
