data_PCOD9439652
_publ_section_title
;
Structure prediction by ZEFSAII (Michael W. Deem and Ramdas Pophale) SiO2 
 PCOD9439652
Probable space group: P B C M
;
_chemical_formula_sum "Si O2"
_cell_formula_units_Z 40
_cell_length_a 11.488718
_cell_length_b 17.383045
_cell_length_c 9.864514
_cell_angle_alpha 90.000000
_cell_angle_beta 90.000000
_cell_angle_gamma 90.000000
_cell_volume 1970.031260
_symmetry_space_group_name_H-M "P B C M"
_symmetry_group_IT_number 57
_symmetry_cell_setting 'orthorhombic'
loop_
_space_group_symop_operation_xyz
x,y,z
-x,-y,1/2+z
x,1/2-y,-z
-x,1/2+y,1/2-z
-x,-y,-z
x,y,1/2-z
-x,1/2+y,z
x,1/2-y,1/2+z
loop_
_atom_site_type_symbol
_atom_site_label
_atom_site_fract_x
_atom_site_fract_y
_atom_site_fract_z
Si Si1 0.114887 0.135919 0.593850
Si Si2 0.684355 0.750000 0.000000
Si Si3 0.100873 0.817656 0.906835
Si Si4 0.428248 0.976460 0.750000
Si Si5 0.772130 0.475157 0.956674
Si Si6 0.688084 0.499669 0.250000
Si Si7 0.587592 0.661968 0.250000
O O1 0.079084 0.149026 0.750000
O O2 0.230831 0.185249 0.563586
O O3 0.018785 0.161295 0.484981
O O4 0.143287 0.045995 0.575999
O O5 0.607762 0.711920 0.117147
O O6 0.082441 0.795161 0.750000
O O7 0.177484 0.894526 0.908324
O O8 0.153707 0.750000 0.000000
O O9 0.348845 0.992384 0.620247
O O10 0.550608 0.021159 0.750000
O O11 0.469304 0.887272 0.750000
O O12 0.749722 0.471767 0.115813
O O13 0.684327 0.593203 0.250000
#
# Coordination Sequence:
#
# PCOD9439652 Si02
#       7
#     8   4   8   4   8   4   4
#     4  12  24  41  72 101 138 179 230 282 346 416
#     4  12  22  42  64 108 138 180 222 292 344 404
#     4  12  28  46  69 100 144 183 230 288 351 423
#     4  10  22  49  66 101 132 181 224 294 338 406
#     4  12  24  46  72 101 139 180 233 284 352 411
#     4  10  24  38  73 100 132 179 230 290 339 402
#     4  10  24  41  69 101 142 174 234 288 343 402
#
# _framework density 20.304245999999999
#
# number of rings (size 3 to 8) (size 9 to 14) (size 15 to 20)
#    0.600    0.000    6.000    1.800    5.600    0.000 
#    1.800    1.000    0.000    0.000    0.000    0.000 
#    0.000    0.000    0.000    0.000    0.000    0.000 
#
# Total GULP energy -223568.063302 kJ/mol
# GULP energy per Si atom -5589.201583 kJ/mol
# Density = 2.025803 g / cm^3
# Si number density = 20.304246 Si / 1000 Ang^3
#
#
#
# Elastic Constant Matrix: (Units=GPa)
#
#
# Indices 1 2 3 4 5 6 
#
# 1 19.3627 7.2598 18.9554 0.0000 0.0000 0.0000
# 2 7.2598 100.3188 24.3099 0.0000 0.0000 0.0000
# 3 18.9554 24.3099 193.2311 0.0000 0.0000 0.0000
# 4 0.0000 0.0000 0.0000 55.4544 0.0000 0.0000
# 5 0.0000 0.0000 0.0000 0.0000 21.2444 0.0000
# 6 0.0000 0.0000 0.0000 0.0000 0.0000 39.2321
#
#
#
# Elastic Compliance Matrix: (Units=1/GPa)
#
#
# Indices 1 2 3 4 5 6 
#
# 1 0.057941 -0.002904 -0.005318 0.000000 0.000000 0.000000
# 2 -0.002904 0.010427 -0.001027 0.000000 0.000000 0.000000
# 3 -0.005318 -0.001027 0.005826 0.000000 0.000000 0.000000
# 4 0.000000 0.000000 0.000000 0.018033 0.000000 0.000000
# 5 0.000000 0.000000 0.000000 0.000000 0.047071 0.000000
# 6 0.000000 0.000000 0.000000 0.000000 0.000000 0.025489
#
#
# Mechanical properties :
#
#
# Convention : Reuss Voigt Hill
#
# Bulk Modulus (GPa) = 17.95485 45.99588 31.97537
# Shear Modulus (GPa) = 24.77059 40.67870 32.72465
#
# Velocity S-wave (km/s) = 3.49660 4.48086 4.01897
# Velocity P-wave (km/s) = 5.01634 7.03372 6.10889
#
# Compressibility (1/GPa) = 0.05569526
#
# Stress axis : x y z
#
# Youngs Moduli (GPa) = 17.25886 95.90265 171.64215
#
# Poissons Ratio (x) = 0.27852 0.91288
# Poissons Ratio (y) = 0.05012 0.17626
# Poissons Ratio (z) = 0.09179 0.09849
#
# Static dielectric constant tensor:
#      x y z
#    x 1.699510 0.000000 0.000000 
#    y 0.000000 1.728640 0.000000 
#    z 0.000000 0.000000 1.719660 
# 
# From -- ./inp_files/2768.got.cif
#   From: 2010.05.17/outbox.cif.g08.bks.cpg/sg57_2_cif.got.tgz:2768.got - 2010.06.03 13:58:18.
