data_PCOD9439678
_publ_section_title
;
Structure prediction by ZEFSAII (Michael W. Deem and Ramdas Pophale) SiO2 
 PCOD9439678
Probable space group: P B C M
;
_chemical_formula_sum "Si O2"
_cell_formula_units_Z 32
_cell_length_a 21.092500
_cell_length_b 9.123769
_cell_length_c 8.590950
_cell_angle_alpha 90.000000
_cell_angle_beta 90.000000
_cell_angle_gamma 90.000000
_cell_volume 1653.269030
_symmetry_space_group_name_H-M "P B C M"
_symmetry_group_IT_number 57
_symmetry_cell_setting 'orthorhombic'
loop_
_space_group_symop_operation_xyz
x,y,z
-x,-y,1/2+z
x,1/2-y,-z
-x,1/2+y,1/2-z
-x,-y,-z
x,y,1/2-z
-x,1/2+y,z
x,1/2-y,1/2+z
loop_
_atom_site_type_symbol
_atom_site_label
_atom_site_fract_x
_atom_site_fract_y
_atom_site_fract_z
Si Si1 0.811670 0.085349 0.437578
Si Si2 0.316059 0.415199 0.062403
Si Si3 0.061198 0.085025 0.937286
Si Si4 0.561346 0.084809 0.563625
O O1 0.810971 0.250000 0.500000
O O2 0.812064 0.090922 0.250000
O O3 0.748654 0.997525 0.485206
O O4 0.875000 0.999802 0.487545
O O5 0.319676 0.413782 0.250000
O O6 0.315891 0.250000 0.000000
O O7 0.376056 0.501829 0.995357
O O8 0.059299 0.087603 0.750000
O O9 0.061826 0.250000 0.000000
O O10 0.000000 0.000000 0.000000
O O11 0.561300 0.250000 0.500000
O O12 0.560009 0.086490 0.750000
O O13 0.500000 0.000000 0.500000
#
# Coordination Sequence:
#
# PCOD9439678 Si02
#       4
#     8   8   8   8
#     4  10  23  40  61  88 121 158 201 248 301 358
#     4  11  23  41  63  91 123 160 202 249 301 358
#     4  11  23  40  61  89 121 159 202 250 302 359
#     4  12  25  43  65  92 124 161 202 249 300 357
#
# _framework density 19.355591
#
# number of rings (size 3 to 8) (size 9 to 14) (size 15 to 20)
#    0.000    1.000    0.000    6.750    0.000    8.000 
#    0.000    0.000    0.000    0.000    0.000    0.000 
#    0.000    0.000    0.000    0.000    0.000    0.000 
#
# Total GULP energy -179127.889595 kJ/mol
# GULP energy per Si atom -5597.746550 kJ/mol
# Density = 1.931154 g / cm^3
# Si number density = 19.355591 Si / 1000 Ang^3
#
#
#
# Elastic Constant Matrix: (Units=GPa)
#
#
# Indices 1 2 3 4 5 6 
#
# 1 244.9663 148.6150 74.3236 0.0000 0.0000 0.0000
# 2 148.6150 245.4729 68.7091 0.0000 0.0000 0.0000
# 3 74.3236 68.7091 102.4049 0.0000 0.0000 0.0000
# 4 0.0000 0.0000 0.0000 44.7611 0.0000 0.0000
# 5 0.0000 0.0000 0.0000 0.0000 32.6616 0.0000
# 6 0.0000 0.0000 0.0000 0.0000 0.0000 47.4634
#
#
#
# Elastic Compliance Matrix: (Units=1/GPa)
#
#
# Indices 1 2 3 4 5 6 
#
# 1 0.007037 -0.003485 -0.002769 0.000000 0.000000 0.000000
# 2 -0.003485 0.006742 -0.001994 0.000000 0.000000 0.000000
# 3 -0.002769 -0.001994 0.013113 0.000000 0.000000 0.000000
# 4 0.000000 0.000000 0.000000 0.022341 0.000000 0.000000
# 5 0.000000 0.000000 0.000000 0.000000 0.030617 0.000000
# 6 0.000000 0.000000 0.000000 0.000000 0.000000 0.021069
#
#
# Mechanical properties :
#
#
# Convention : Reuss Voigt Hill
#
# Bulk Modulus (GPa) = 96.19736 130.68217 113.43976
# Shear Modulus (GPa) = 41.36387 45.05697 43.21042
#
# Velocity S-wave (km/s) = 4.62784 4.83002 4.73001
# Velocity P-wave (km/s) = 8.85233 9.93823 9.41096
#
# Compressibility (1/GPa) = 0.01039530
#
# Stress axis : x y z
#
# Youngs Moduli (GPa) = 142.11494 148.32602 76.26306
#
# Poissons Ratio (x) = 0.51694 0.21114
# Poissons Ratio (y) = 0.49529 0.15207
# Poissons Ratio (z) = 0.39346 0.29577
#
# Static dielectric constant tensor:
#      x y z
#    x 1.652020 0.000000 0.000000 
#    y 0.000000 1.625190 0.000000 
#    z 0.000000 0.000000 1.656490 
# 
# From -- ./inp_files/7532.got.cif
#   From: 2010.05.17/outbox.cif.g08.bks.cpg/sg57_4_cif.got.tgz:7532.got - 2010.06.03 13:58:18.
