data_PCOD9439557
_publ_section_title
;
Structure prediction by ZEFSAII (Michael W. Deem and Ramdas Pophale) SiO2 
 PCOD9439557
Probable space group: P B C M
;
_chemical_formula_sum "Si O2"
_cell_formula_units_Z 64
_cell_length_a 12.607505
_cell_length_b 9.501278
_cell_length_c 24.797664
_cell_angle_alpha 90.000000
_cell_angle_beta 90.000000
_cell_angle_gamma 90.000000
_cell_volume 2970.447942
_symmetry_space_group_name_H-M "P B C M"
_symmetry_group_IT_number 57
_symmetry_cell_setting 'orthorhombic'
loop_
_space_group_symop_operation_xyz
x,y,z
-x,-y,1/2+z
x,1/2-y,-z
-x,1/2+y,1/2-z
-x,-y,-z
x,y,1/2-z
-x,1/2+y,z
x,1/2-y,1/2+z
loop_
_atom_site_type_symbol
_atom_site_label
_atom_site_fract_x
_atom_site_fract_y
_atom_site_fract_z
Si Si1 0.060556 0.848014 0.614358
Si Si2 0.391666 0.244440 0.562777
Si Si3 0.367756 0.928146 0.306913
Si Si4 0.874944 0.740705 0.314699
Si Si5 0.761667 0.979249 0.895321
Si Si6 0.957076 0.081348 0.948503
Si Si7 0.732695 0.986504 0.368424
Si Si8 0.528416 0.162511 0.159270
O O1 0.030447 0.745354 0.564087
O O2 0.184107 0.888877 0.617054
O O3 0.011054 0.999306 0.601139
O O4 0.001963 0.275932 0.664455
O O5 0.418997 0.250000 0.500000
O O6 0.317282 0.377524 0.574091
O O7 0.492148 0.274567 0.601319
O O8 0.322712 0.109539 0.584238
O O9 0.309754 0.935906 0.250000
O O10 0.295001 0.906212 0.358567
O O11 0.431446 0.071491 0.317750
O O12 0.448060 0.799563 0.306440
O O13 0.870365 0.726112 0.250000
O O14 0.820021 0.617689 0.350353
O O15 0.804865 0.878071 0.332596
O O16 0.834864 0.047982 0.939885
O O17 0.000000 0.000000 0.000000
O O18 0.631105 0.061973 0.341749
#
# Coordination Sequence:
#
# PCOD9439557 Si02
#       8
#     8   8   8   8   8   8   8   8
#     4  11  23  43  64  99 135 173 233 290 336 426
#     4  10  23  43  69  99 143 184 227 296 355 413
#     4  11  22  41  66  98 138 182 231 292 350 415
#     4  10  22  42  67  96 137 183 225 289 356 406
#     4   9  22  40  64  95 135 175 236 282 343 426
#     4  11  23  41  65  95 135 177 227 288 344 408
#     4  11  23  44  70  98 141 183 236 286 349 430
#     4  11  23  44  66 103 140 180 238 292 345 429
#
# _framework density 21.545570999999999
#
# number of rings (size 3 to 8) (size 9 to 14) (size 15 to 20)
#    0.000    1.500    2.500    1.875    1.750    2.000 
#    0.000    3.125    0.000    0.000    0.000    0.000 
#    0.000    0.000    0.000    0.000    0.000    0.000 
#
# Total GULP energy -356514.556192 kJ/mol
# GULP energy per Si atom -5570.539940 kJ/mol
# Density = 2.149653 g / cm^3
# Si number density = 21.545571 Si / 1000 Ang^3
#
#
#
# Elastic Constant Matrix: (Units=GPa)
#
#
# Indices 1 2 3 4 5 6 
#
# 1 75.2632 15.2055 20.4902 0.0000 0.0000 0.0000
# 2 15.2055 100.3212 26.5734 0.0000 0.0000 0.0000
# 3 20.4902 26.5734 116.0709 0.0000 0.0000 0.0000
# 4 0.0000 0.0000 0.0000 -3.2734 0.0000 0.0000
# 5 0.0000 0.0000 0.0000 0.0000 19.3151 0.0000
# 6 0.0000 0.0000 0.0000 0.0000 0.0000 35.1176
#
#
#
# Elastic Compliance Matrix: (Units=1/GPa)
#
#
# Indices 1 2 3 4 5 6 
#
# 1 0.014190 -0.001583 -0.002142 0.000000 0.000000 0.000000
# 2 -0.001583 0.010788 -0.002190 0.000000 0.000000 0.000000
# 3 -0.002142 -0.002190 0.009495 0.000000 0.000000 0.000000
# 4 0.000000 0.000000 0.000000 -0.305492 0.000000 0.000000
# 5 0.000000 0.000000 0.000000 0.000000 0.051773 0.000000
# 6 0.000000 0.000000 0.000000 0.000000 0.000000 0.028476
#
#
# Mechanical properties :
#
#
# Convention : Reuss Voigt Hill
#
# Bulk Modulus (GPa) = 44.16776 46.24372 45.20574
# Shear Modulus (GPa) = -29.17302 25.52427 -1.82438
#
# Velocity S-wave (km/s) = -3.68369 3.44563 -0.92119
# Velocity P-wave (km/s) = 1.56572 6.11062 4.46044
#
# Compressibility (1/GPa) = 0.02264095
#
# Stress axis : x y z
#
# Youngs Moduli (GPa) = 70.47286 92.69439 105.31742
#
# Poissons Ratio (x) = 0.14676 0.22564
# Poissons Ratio (y) = 0.11157 0.23068
# Poissons Ratio (z) = 0.15099 0.20303
#
# Static dielectric constant tensor:
#      x y z
#    x 1.864070 0.000000 0.000000 
#    y 0.000000 1.804790 0.000000 
#    z 0.000000 0.000000 1.803360 
# 
# From -- ./inp_files/27455.got.cif
#   From: 2010.05.17/outbox.cif.g08.bks.cpg/sg57_14_cif.got.tgz:27455.got - 2010.06.03 13:58:18.
