data_PCOD9439956
_publ_section_title
;
Structure prediction by ZEFSAII (Michael W. Deem and Ramdas Pophale) SiO2 
 PCOD9439956
Probable space group: P B C M
;
_chemical_formula_sum "Si O2"
_cell_formula_units_Z 24
_cell_length_a 8.834553
_cell_length_b 10.282910
_cell_length_c 12.366838
_cell_angle_alpha 90.000000
_cell_angle_beta 90.000000
_cell_angle_gamma 90.000000
_cell_volume 1123.464327
_symmetry_space_group_name_H-M "P B C M"
_symmetry_group_IT_number 57
_symmetry_cell_setting 'orthorhombic'
loop_
_space_group_symop_operation_xyz
x,y,z
-x,-y,1/2+z
x,1/2-y,-z
-x,1/2+y,1/2-z
-x,-y,-z
x,y,1/2-z
-x,1/2+y,z
x,1/2-y,1/2+z
loop_
_atom_site_type_symbol
_atom_site_label
_atom_site_fract_x
_atom_site_fract_y
_atom_site_fract_z
Si Si1 0.373612 0.599888 0.373098
Si Si2 0.160742 0.746824 0.250000
Si Si3 0.286845 0.388440 0.543042
Si Si4 0.092073 0.032194 0.250000
O O1 0.390974 0.546724 0.250000
O O2 0.273208 0.729168 0.352644
O O3 0.292135 0.496301 0.449252
O O4 0.539239 0.628651 0.418225
O O5 0.055564 0.620673 0.250000
O O6 0.067595 0.877792 0.250000
O O7 0.230542 0.250000 0.500000
O O8 0.188651 0.434005 0.643990
#
# Coordination Sequence:
#
# PCOD9439956 Si02
#       4
#     8   4   8   4
#     4   9  23  44  69 102 134 179 227 288 341 405
#     4  10  27  46  72  96 148 178 237 278 346 414
#     4  11  25  41  76 100 140 175 235 288 350 408
#     4  12  27  48  68 104 138 190 229 284 346 414
#
# _framework density 21.362493000000001
#
# number of rings (size 3 to 8) (size 9 to 14) (size 15 to 20)
#    1.000    0.667    1.667    0.000   16.333    1.333 
#    0.000    0.000    0.000    0.000    0.000    0.000 
#    0.000    0.000    0.000    0.000    0.000    0.000 
#
# Total GULP energy -134085.588085 kJ/mol
# GULP energy per Si atom -5586.899504 kJ/mol
# Density = 2.131387 g / cm^3
# Si number density = 21.362493 Si / 1000 Ang^3
#
#
#
# Elastic Constant Matrix: (Units=GPa)
#
#
# Indices 1 2 3 4 5 6 
#
# 1 39.9576 19.8221 -4.1122 0.0000 0.0000 0.0000
# 2 19.8221 97.0065 23.8026 0.0000 0.0000 0.0000
# 3 -4.1122 23.8026 119.6193 0.0000 0.0000 0.0000
# 4 0.0000 0.0000 0.0000 18.1283 0.0000 0.0000
# 5 0.0000 0.0000 0.0000 0.0000 -84.5258 0.0000
# 6 0.0000 0.0000 0.0000 0.0000 0.0000 15.0435
#
#
#
# Elastic Compliance Matrix: (Units=1/GPa)
#
#
# Indices 1 2 3 4 5 6 
#
# 1 0.028410 -0.006355 0.002241 0.000000 0.000000 0.000000
# 2 -0.006355 0.012259 -0.002658 0.000000 0.000000 0.000000
# 3 0.002241 -0.002658 0.008966 0.000000 0.000000 0.000000
# 4 0.000000 0.000000 0.000000 0.055162 0.000000 0.000000
# 5 0.000000 0.000000 0.000000 0.000000 -0.011831 0.000000
# 6 0.000000 0.000000 0.000000 0.000000 0.000000 0.066474
#
#
# Mechanical properties :
#
#
# Convention : Reuss Voigt Hill
#
# Bulk Modulus (GPa) = 27.70744 37.28980 32.49862
# Shear Modulus (GPa) = 27.02486 4.20059 15.61272
#
# Velocity S-wave (km/s) = 3.56063 1.40378 2.70635
# Velocity P-wave (km/s) = 5.46831 4.48566 5.00117
#
# Compressibility (1/GPa) = 0.03609139
#
# Stress axis : x y z
#
# Youngs Moduli (GPa) = 35.19905 81.57031 111.53503
#
# Poissons Ratio (x) = 0.51839 -0.24998
# Poissons Ratio (y) = 0.22370 0.29645
# Poissons Ratio (z) = -0.07889 0.21681
#
# Static dielectric constant tensor:
#      x y z
#    x 1.767150 0.000000 0.000000 
#    y 0.000000 1.770600 0.000000 
#    z 0.000000 0.000000 1.764200 
# 
# From -- ./inp_files/11166.got.cif
#   From: 2010.05.17/outbox.cif.g08.bks.cpg/sg57_6_cif.got.tgz:11166.got - 2010.06.03 13:58:18.
