data_PCOD9439215
_publ_section_title
;
Structure prediction by ZEFSAII (Michael W. Deem and Ramdas Pophale) SiO2 
 PCOD9439215
Probable space group: P B C M
;
_chemical_formula_sum "Si O2"
_cell_formula_units_Z 32
_cell_length_a 16.765268
_cell_length_b 5.464159
_cell_length_c 15.674723
_cell_angle_alpha 90.000000
_cell_angle_beta 90.000000
_cell_angle_gamma 90.000000
_cell_volume 1435.931436
_symmetry_space_group_name_H-M "P B C M"
_symmetry_group_IT_number 57
_symmetry_cell_setting 'orthorhombic'
loop_
_space_group_symop_operation_xyz
x,y,z
-x,-y,1/2+z
x,1/2-y,-z
-x,1/2+y,1/2-z
-x,-y,-z
x,y,1/2-z
-x,1/2+y,z
x,1/2-y,1/2+z
loop_
_atom_site_type_symbol
_atom_site_label
_atom_site_fract_x
_atom_site_fract_y
_atom_site_fract_z
Si Si1 0.825460 0.852476 0.098288
Si Si2 0.756753 0.250000 0.000000
Si Si3 0.547007 0.750000 0.000000
Si Si4 0.050430 0.291176 0.250000
Si Si5 0.553507 0.352229 0.250000
Si Si6 0.666270 0.910002 0.881855
O O1 0.896196 0.810248 0.164035
O O2 0.746363 0.735052 0.142992
O O3 0.807904 0.137172 0.076974
O O4 0.838788 0.750000 0.000000
O O5 0.699323 0.455269 0.035102
O O6 0.598749 0.730095 0.914198
O O7 0.500000 0.500000 0.000000
O O8 0.993527 0.529465 0.250000
O O9 0.506867 0.091819 0.250000
O O10 0.617269 0.396033 0.173537
#
# Coordination Sequence:
#
# PCOD9439215 Si02
#       6
#     8   4   4   4   4   8
#     4  10  24  47  78 109 144 196 250 301 364 453
#     4  10  21  42  78  99 132 184 256 298 355 424
#     4  12  23  36  62  95 136 176 226 292 347 398
#     4  12  31  51  76 118 156 190 236 304 385 450
#     4  12  29  43  60  96 144 190 238 308 375 422
#     4  11  23  43  67  99 134 189 245 292 356 432
#
# _framework density 22.285187000000001
#
# number of rings (size 3 to 8) (size 9 to 14) (size 15 to 20)
#    0.000    1.000    3.750    3.000   10.500    2.000 
#    0.000    0.000    0.000    0.000    0.000    0.000 
#    0.000    0.000    0.000    0.000    0.000    0.000 
#
# Total GULP energy -178331.951716 kJ/mol
# GULP energy per Si atom -5572.873491 kJ/mol
# Density = 2.223446 g / cm^3
# Si number density = 22.285187 Si / 1000 Ang^3
#
#
#
# Elastic Constant Matrix: (Units=GPa)
#
#
# Indices 1 2 3 4 5 6 
#
# 1 113.0521 41.8025 41.8219 0.0000 0.0000 0.0000
# 2 41.8025 101.6482 7.7686 0.0000 0.0000 0.0000
# 3 41.8219 7.7686 88.9393 0.0000 0.0000 0.0000
# 4 0.0000 0.0000 0.0000 21.2019 0.0000 0.0000
# 5 0.0000 0.0000 0.0000 0.0000 49.8859 0.0000
# 6 0.0000 0.0000 0.0000 0.0000 0.0000 30.0386
#
#
#
# Elastic Compliance Matrix: (Units=1/GPa)
#
#
# Indices 1 2 3 4 5 6 
#
# 1 0.012663 -0.004784 -0.005536 0.000000 0.000000 0.000000
# 2 -0.004784 0.011712 0.001227 0.000000 0.000000 0.000000
# 3 -0.005536 0.001227 0.013740 0.000000 0.000000 0.000000
# 4 0.000000 0.000000 0.000000 0.047166 0.000000 0.000000
# 5 0.000000 0.000000 0.000000 0.000000 0.020046 0.000000
# 6 0.000000 0.000000 0.000000 0.000000 0.000000 0.033290
#
#
# Mechanical properties :
#
#
# Convention : Reuss Voigt Hill
#
# Bulk Modulus (GPa) = 50.18543 54.04726 52.11634
# Shear Modulus (GPa) = 30.59110 34.37506 32.48308
#
# Velocity S-wave (km/s) = 3.70903 3.93174 3.82201
# Velocity P-wave (km/s) = 6.39618 6.70199 6.55087
#
# Compressibility (1/GPa) = 0.01992610
#
# Stress axis : x y z
#
# Youngs Moduli (GPa) = 78.97217 85.38508 72.78087
#
# Poissons Ratio (x) = 0.40851 0.40295
# Poissons Ratio (y) = 0.37783 -0.08929
# Poissons Ratio (z) = 0.43723 -0.10475
#
# Static dielectric constant tensor:
#      x y z
#    x 1.857720 0.000000 0.000000 
#    y 0.000000 1.952420 0.000000 
#    z 0.000000 0.000000 1.877980 
# 
# From -- ./inp_files/22258.got.cif
#   From: 2010.05.17/outbox.cif.g08.bks.cpg/sg57_12_cif.got.tgz:22258.got - 2010.06.03 13:58:18.
