data_PCOD9439773
_publ_section_title
;
Structure prediction by ZEFSAII (Michael W. Deem and Ramdas Pophale) SiO2 
 PCOD9439773
Probable space group: P B C M
;
_chemical_formula_sum "Si O2"
_cell_formula_units_Z 60
_cell_length_a 5.000918
_cell_length_b 30.051157
_cell_length_c 17.933639
_cell_angle_alpha 90.000000
_cell_angle_beta 90.000000
_cell_angle_gamma 90.000000
_cell_volume 2695.127740
_symmetry_space_group_name_H-M "P B C M"
_symmetry_group_IT_number 57
_symmetry_cell_setting 'orthorhombic'
loop_
_space_group_symop_operation_xyz
x,y,z
-x,-y,1/2+z
x,1/2-y,-z
-x,1/2+y,1/2-z
-x,-y,-z
x,y,1/2-z
-x,1/2+y,z
x,1/2-y,1/2+z
loop_
_atom_site_type_symbol
_atom_site_label
_atom_site_fract_x
_atom_site_fract_y
_atom_site_fract_z
Si Si1 0.342866 0.320438 0.662405
Si Si2 0.632191 0.005510 0.750000
Si Si3 0.298695 0.921628 0.119300
Si Si4 0.358911 0.229974 0.583356
Si Si5 0.860262 0.170065 0.917014
Si Si6 0.440444 0.543924 0.102798
Si Si7 0.793584 0.953615 0.462001
Si Si8 0.156939 0.637847 0.088364
O O1 0.316306 0.327513 0.750000
O O2 0.288069 0.269687 0.639148
O O3 0.640166 0.331010 0.634161
O O4 0.138941 0.352371 0.618155
O O5 0.707237 0.043085 0.685561
O O6 0.540438 0.970568 0.816132
O O7 0.207007 0.871685 0.135507
O O8 0.595363 0.921712 0.085041
O O9 0.092754 0.940404 0.057395
O O10 0.335333 0.250000 0.500000
O O11 0.653396 0.210227 0.593869
O O12 0.154122 0.189465 0.591307
O O13 0.826564 0.151730 0.001695
O O14 0.270457 0.502373 0.070390
O O15 0.264917 0.588331 0.102536
O O16 0.689092 0.549324 0.045950
#
# Coordination Sequence:
#
# PCOD9439773 Si02
#       8
#     8   4   8   8   8   8   8   8
#     4  12  28  46  68  99 147 181 219 287 356 421
#     4  10  26  46  66  98 148 182 234 280 356 404
#     4  11  24  46  68 102 134 185 227 298 334 414
#     4  12  23  45  72 103 133 178 228 282 349 415
#     4  12  23  42  75 103 133 174 239 293 334 411
#     4  10  24  43  68 103 134 190 228 291 346 421
#     4  10  23  43  70  92 137 178 236 278 347 404
#     4  12  24  43  71 103 137 177 235 287 341 417
#
# _framework density 22.262395999999999
#
# number of rings (size 3 to 8) (size 9 to 14) (size 15 to 20)
#    0.000    0.800    4.000    2.400    3.733    9.067 
#    2.400    0.000    0.000    0.000    0.000    0.000 
#    0.000    0.000    0.000    0.000    0.000    0.000 
#
# Total GULP energy -335055.968726 kJ/mol
# GULP energy per Si atom -5584.266145 kJ/mol
# Density = 2.221173 g / cm^3
# Si number density = 22.262396 Si / 1000 Ang^3
#
#
#
# Elastic Constant Matrix: (Units=GPa)
#
#
# Indices 1 2 3 4 5 6 
#
# 1 48.2514 -10.7003 2.6938 0.0000 0.0000 0.0000
# 2 -10.7003 91.4931 24.2421 0.0000 0.0000 0.0000
# 3 2.6938 24.2421 99.8526 0.0000 0.0000 0.0000
# 4 0.0000 0.0000 0.0000 26.3756 0.0000 0.0000
# 5 0.0000 0.0000 0.0000 0.0000 -7.7507 0.0000
# 6 0.0000 0.0000 0.0000 0.0000 0.0000 32.9467
#
#
#
# Elastic Compliance Matrix: (Units=1/GPa)
#
#
# Indices 1 2 3 4 5 6 
#
# 1 0.021426 0.002842 -0.001268 0.000000 0.000000 0.000000
# 2 0.002842 0.012058 -0.003004 0.000000 0.000000 0.000000
# 3 -0.001268 -0.003004 0.010778 0.000000 0.000000 0.000000
# 4 0.000000 0.000000 0.000000 0.037914 0.000000 0.000000
# 5 0.000000 0.000000 0.000000 0.000000 -0.129021 0.000000
# 6 0.000000 0.000000 0.000000 0.000000 0.000000 0.030352
#
#
# Mechanical properties :
#
#
# Convention : Reuss Voigt Hill
#
# Bulk Modulus (GPa) = 24.15369 30.22981 27.19175
# Shear Modulus (GPa) = 29668.58584 25.20510 14846.89547
#
# Velocity S-wave (km/s) = 115.56688 3.36844 81.75283
# Velocity P-wave (km/s) = 133.48587 5.36068 94.46484
#
# Compressibility (1/GPa) = 0.04140153
#
# Stress axis : x y z
#
# Youngs Moduli (GPa) = 46.67283 82.93179 92.77904
#
# Poissons Ratio (x) = -0.23567 0.11764
# Poissons Ratio (y) = -0.13263 0.27872
# Poissons Ratio (z) = 0.05918 0.24914
#
# Static dielectric constant tensor:
#      x y z
#    x 1.809580 0.000000 0.000000 
#    y 0.000000 1.844200 0.000000 
#    z 0.000000 0.000000 1.768630 
# 
# From -- ./inp_files/20276.got.cif
#   From: 2010.05.17/outbox.cif.g08.bks.cpg/sg57_11_cif.got.tgz:20276.got - 2010.06.03 13:58:18.
