data_PCOD9439457
_publ_section_title
;
Structure prediction by ZEFSAII (Michael W. Deem and Ramdas Pophale) SiO2 
 PCOD9439457
Probable space group: P B C M
;
_chemical_formula_sum "Si O2"
_cell_formula_units_Z 32
_cell_length_a 12.662828
_cell_length_b 12.820021
_cell_length_c 10.023245
_cell_angle_alpha 90.000000
_cell_angle_beta 90.000000
_cell_angle_gamma 90.000000
_cell_volume 1627.150749
_symmetry_space_group_name_H-M "P B C M"
_symmetry_group_IT_number 57
_symmetry_cell_setting 'orthorhombic'
loop_
_space_group_symop_operation_xyz
x,y,z
-x,-y,1/2+z
x,1/2-y,-z
-x,1/2+y,1/2-z
-x,-y,-z
x,y,1/2-z
-x,1/2+y,z
x,1/2-y,1/2+z
loop_
_atom_site_type_symbol
_atom_site_label
_atom_site_fract_x
_atom_site_fract_y
_atom_site_fract_z
Si Si1 0.810995 0.570285 0.250000
Si Si2 0.901236 0.712737 0.750000
Si Si3 0.851004 0.172003 0.750000
Si Si4 0.413031 0.546237 0.099880
Si Si5 0.731882 0.639133 0.532783
Si Si6 0.285919 0.750000 0.000000
O O1 0.897204 0.661687 0.250000
O O2 0.842945 0.452075 0.250000
O O3 0.751656 0.591679 0.387432
O O4 0.835002 0.670378 0.621449
O O5 0.023870 0.689111 0.750000
O O6 0.789834 0.217826 0.622280
O O7 0.453648 0.567468 0.250000
O O8 0.330347 0.450773 0.107457
O O9 0.357502 0.650630 0.042777
O O10 0.500000 0.500000 0.000000
O O11 0.676139 0.750000 0.500000
#
# Coordination Sequence:
#
# PCOD9439457 Si02
#       6
#     4   4   4   8   8   4
#     4  10  22  40  66  95 139 181 229 284 351 410
#     4  10  24  42  68 107 140 192 241 286 355 423
#     4  12  26  44  72 100 149 187 234 298 356 423
#     4  12  28  48  74 101 142 189 238 298 361 424
#     4  10  22  44  67  99 139 177 240 291 345 425
#     4  12  28  50  68 108 144 182 238 294 360 432
#
# _framework density 19.66628
#
# number of rings (size 3 to 8) (size 9 to 14) (size 15 to 20)
#    0.000    1.000    5.000    0.000   10.500    3.000 
#    0.000    0.000    0.000    0.000    0.000    0.000 
#    0.000    0.000    0.000    0.000    0.000    0.000 
#
# Total GULP energy -178484.088499 kJ/mol
# GULP energy per Si atom -5577.627766 kJ/mol
# Density = 1.962152 g / cm^3
# Si number density = 19.666280 Si / 1000 Ang^3
#
#
#
# Elastic Constant Matrix: (Units=GPa)
#
#
# Indices 1 2 3 4 5 6 
#
# 1 94.0420 76.2991 61.7256 0.0000 0.0000 0.0000
# 2 76.2991 175.7098 56.7691 0.0000 0.0000 0.0000
# 3 61.7256 56.7691 185.2225 0.0000 0.0000 0.0000
# 4 0.0000 0.0000 0.0000 -8.7342 0.0000 0.0000
# 5 0.0000 0.0000 0.0000 0.0000 34.7951 0.0000
# 6 0.0000 0.0000 0.0000 0.0000 0.0000 -166.2626
#
#
#
# Elastic Compliance Matrix: (Units=1/GPa)
#
#
# Indices 1 2 3 4 5 6 
#
# 1 0.018985 -0.006881 -0.004218 0.000000 0.000000 0.000000
# 2 -0.006881 0.008811 -0.000407 0.000000 0.000000 0.000000
# 3 -0.004218 -0.000407 0.006929 0.000000 0.000000 0.000000
# 4 0.000000 0.000000 0.000000 -0.114493 0.000000 0.000000
# 5 0.000000 0.000000 0.000000 0.000000 0.028740 0.000000
# 6 0.000000 0.000000 0.000000 0.000000 0.000000 -0.006015
#
#
# Mechanical properties :
#
#
# Convention : Reuss Voigt Hill
#
# Bulk Modulus (GPa) = 85.37795 93.84020 89.60908
# Shear Modulus (GPa) = -165.96666 -10.69498 -88.33082
#
# Velocity S-wave (km/s) = -9.19645 -2.33453 -6.70913
# Velocity P-wave (km/s) = 8.32218 6.36814 3.78850
#
# Compressibility (1/GPa) = 0.01171263
#
# Stress axis : x y z
#
# Youngs Moduli (GPa) = 52.67389 113.49684 144.31498
#
# Poissons Ratio (x) = 0.78099 0.60867
# Poissons Ratio (y) = 0.36246 0.05878
# Poissons Ratio (z) = 0.22216 0.04623
#
# Static dielectric constant tensor:
#      x y z
#    x 1.700730 0.000000 0.000000 
#    y 0.000000 1.719530 0.000000 
#    z 0.000000 0.000000 1.720660 
# 
# From -- ./inp_files/4154.got.cif
#   From: 2010.05.17/outbox.cif.g08.bks.cpg/sg57_3_cif.got.tgz:4154.got - 2010.06.03 13:58:18.
