data_PCOD9439700
_publ_section_title
;
Structure prediction by ZEFSAII (Michael W. Deem and Ramdas Pophale) SiO2 
 PCOD9439700
Probable space group: P B C M
;
_chemical_formula_sum "Si O2"
_cell_formula_units_Z 32
_cell_length_a 8.051057
_cell_length_b 11.968980
_cell_length_c 15.554458
_cell_angle_alpha 90.000000
_cell_angle_beta 90.000000
_cell_angle_gamma 90.000000
_cell_volume 1498.873306
_symmetry_space_group_name_H-M "P B C M"
_symmetry_group_IT_number 57
_symmetry_cell_setting 'orthorhombic'
loop_
_space_group_symop_operation_xyz
x,y,z
-x,-y,1/2+z
x,1/2-y,-z
-x,1/2+y,1/2-z
-x,-y,-z
x,y,1/2-z
-x,1/2+y,z
x,1/2-y,1/2+z
loop_
_atom_site_type_symbol
_atom_site_label
_atom_site_fract_x
_atom_site_fract_y
_atom_site_fract_z
Si Si1 0.003609 0.059081 0.250000
Si Si2 0.708785 0.250000 0.500000
Si Si3 0.550150 0.898289 0.895377
Si Si4 0.649310 0.990373 0.250000
Si Si5 0.135686 0.536083 0.930059
Si Si6 0.733539 0.761731 0.750000
O O1 0.088797 0.179977 0.250000
O O2 0.068035 0.995249 0.164648
O O3 0.806451 0.072027 0.250000
O O4 0.588010 0.167498 0.447851
O O5 0.819461 0.333602 0.442372
O O6 0.637378 0.808948 0.832701
O O7 0.462294 0.987926 0.833126
O O8 0.697060 0.962389 0.944492
O O9 0.729731 0.869564 0.250000
O O10 0.000000 0.500000 0.000000
#
# Coordination Sequence:
#
# PCOD9439700 Si02
#       6
#     4   4   8   4   8   4
#     4  10  24  42  64  98 134 170 224 276 327 393
#     4  12  24  40  66  94 134 180 216 272 330 384
#     4  10  23  41  64  95 126 168 224 270 324 397
#     4  11  21  41  68  94 126 171 221 270 326 397
#     4  11  25  44  66  99 135 173 223 274 331 401
#     4   9  21  41  64  88 126 169 211 276 335 376
#
# _framework density 21.349368999999999
#
# number of rings (size 3 to 8) (size 9 to 14) (size 15 to 20)
#    0.000    1.500    0.000    4.500    0.000   11.000 
#    0.000    0.000    0.000    0.000    0.000    0.000 
#    0.000    0.000    0.000    0.000    0.000    0.000 
#
# Total GULP energy -179013.008747 kJ/mol
# GULP energy per Si atom -5594.156523 kJ/mol
# Density = 2.130078 g / cm^3
# Si number density = 21.349369 Si / 1000 Ang^3
#
#
#
# Elastic Constant Matrix: (Units=GPa)
#
#
# Indices 1 2 3 4 5 6 
#
# 1 134.5189 46.3032 48.3878 0.0000 0.0000 0.0000
# 2 46.3032 97.8607 54.1647 0.0000 0.0000 0.0000
# 3 48.3878 54.1647 106.6438 0.0000 0.0000 0.0000
# 4 0.0000 0.0000 0.0000 -14.1549 0.0000 0.0000
# 5 0.0000 0.0000 0.0000 0.0000 36.2572 0.0000
# 6 0.0000 0.0000 0.0000 0.0000 0.0000 25.7644
#
#
#
# Elastic Compliance Matrix: (Units=1/GPa)
#
#
# Indices 1 2 3 4 5 6 
#
# 1 0.009447 -0.002918 -0.002805 0.000000 0.000000 0.000000
# 2 -0.002918 0.015116 -0.006353 0.000000 0.000000 0.000000
# 3 -0.002805 -0.006353 0.013876 0.000000 0.000000 0.000000
# 4 0.000000 0.000000 0.000000 -0.070647 0.000000 0.000000
# 5 0.000000 0.000000 0.000000 0.000000 0.027581 0.000000
# 6 0.000000 0.000000 0.000000 0.000000 0.000000 0.038813
#
#
# Mechanical properties :
#
#
# Convention : Reuss Voigt Hill
#
# Bulk Modulus (GPa) = 69.98945 70.74832 70.36888
# Shear Modulus (GPa) = 79.23936 22.25119 50.74528
#
# Velocity S-wave (km/s) = 6.09886 3.23188 4.88063
# Velocity P-wave (km/s) = 9.08014 6.86564 8.04941
#
# Compressibility (1/GPa) = 0.01428787
#
# Stress axis : x y z
#
# Youngs Moduli (GPa) = 105.85369 66.15658 72.06435
#
# Poissons Ratio (x) = 0.19302 0.20211
# Poissons Ratio (y) = 0.30884 0.45786
# Poissons Ratio (z) = 0.29687 0.42032
#
# Static dielectric constant tensor:
#      x y z
#    x 1.766030 0.000000 0.000000 
#    y 0.000000 1.735910 0.000000 
#    z 0.000000 0.000000 1.779850 
# 
# From -- ./inp_files/15628.got.cif
#   From: 2010.05.17/outbox.cif.g08.bks.cpg/sg57_8_cif.got.tgz:15628.got - 2010.06.03 13:58:18.
