data_PCOD9439049
_publ_section_title
;
Structure prediction by ZEFSAII (Michael W. Deem and Ramdas Pophale) SiO2 
 PCOD9439049
Probable space group: P B C M
;
_chemical_formula_sum "Si O2"
_cell_formula_units_Z 60
_cell_length_a 11.019946
_cell_length_b 8.518388
_cell_length_c 29.392135
_cell_angle_alpha 90.000000
_cell_angle_beta 90.000000
_cell_angle_gamma 90.000000
_cell_volume 2759.103663
_symmetry_space_group_name_H-M "P B C M"
_symmetry_group_IT_number 57
_symmetry_cell_setting 'orthorhombic'
loop_
_space_group_symop_operation_xyz
x,y,z
-x,-y,1/2+z
x,1/2-y,-z
-x,1/2+y,1/2-z
-x,-y,-z
x,y,1/2-z
-x,1/2+y,z
x,1/2-y,1/2+z
loop_
_atom_site_type_symbol
_atom_site_label
_atom_site_fract_x
_atom_site_fract_y
_atom_site_fract_z
Si Si1 0.642525 0.557401 0.099490
Si Si2 0.802540 0.728131 0.750000
Si Si3 0.638954 0.439767 0.001467
Si Si4 0.143795 0.397013 0.658259
Si Si5 0.318259 0.473695 0.326208
Si Si6 0.822289 0.479576 0.578748
Si Si7 0.539545 0.259817 0.148301
Si Si8 0.042786 0.811859 0.108515
O O1 0.745947 0.651763 0.125450
O O2 0.617865 0.396903 0.126534
O O3 0.519741 0.657781 0.107013
O O4 0.681637 0.511868 0.049394
O O5 0.824032 0.860354 0.790376
O O6 0.774424 0.593785 0.789626
O O7 0.726092 0.502248 0.961575
O O8 0.639702 0.250000 0.000000
O O9 0.500000 0.500000 0.000000
O O10 0.115978 0.571141 0.640894
O O11 0.027123 0.300570 0.643290
O O12 0.249661 0.497263 0.373994
O O13 0.385762 0.641400 0.319985
O O14 0.428981 0.347951 0.326828
O O15 0.873465 0.301055 0.578323
O O16 0.940953 0.591958 0.580159
#
# Coordination Sequence:
#
# PCOD9439049 Si02
#       8
#     8   4   8   8   8   8   8   8
#     4  11  21  42  65  97 135 182 220 281 333 417
#     4  12  24  42  68  94 132 174 236 288 346 428
#     4  12  25  41  69 107 142 183 239 283 346 429
#     4  11  23  44  66  94 130 171 228 290 348 406
#     4  11  22  42  64  98 137 177 226 291 344 426
#     4  11  23  46  70 102 141 185 238 294 355 425
#     4  10  21  39  69  93 139 183 218 272 358 404
#     4  10  23  45  72  93 136 184 226 296 366 403
#
# _framework density 21.746192000000001
#
# number of rings (size 3 to 8) (size 9 to 14) (size 15 to 20)
#    0.000    1.067    2.667    4.800    0.000    2.133 
#    0.000   10.000    0.000    0.000    0.000    0.000 
#    0.000    0.000    0.000    0.000    0.000    0.000 
#
# Total GULP energy -334213.681216 kJ/mol
# GULP energy per Si atom -5570.228020 kJ/mol
# Density = 2.169670 g / cm^3
# Si number density = 21.746192 Si / 1000 Ang^3
#
#
#
# Elastic Constant Matrix: (Units=GPa)
#
#
# Indices 1 2 3 4 5 6 
#
# 1 75.9994 17.2343 11.0520 0.0000 0.0000 0.0000
# 2 17.2343 85.0975 -17.6840 0.0000 0.0000 0.0000
# 3 11.0520 -17.6840 75.5633 0.0000 0.0000 0.0000
# 4 0.0000 0.0000 0.0000 23.4468 0.0000 0.0000
# 5 0.0000 0.0000 0.0000 0.0000 -10.4143 0.0000
# 6 0.0000 0.0000 0.0000 0.0000 0.0000 39.8388
#
#
#
# Elastic Compliance Matrix: (Units=1/GPa)
#
#
# Indices 1 2 3 4 5 6 
#
# 1 0.014382 -0.003521 -0.002928 0.000000 0.000000 0.000000
# 2 -0.003521 0.013214 0.003607 0.000000 0.000000 0.000000
# 3 -0.002928 0.003607 0.014506 0.000000 0.000000 0.000000
# 4 0.000000 0.000000 0.000000 0.042650 0.000000 0.000000
# 5 0.000000 0.000000 0.000000 0.000000 -0.096021 0.000000
# 6 0.000000 0.000000 0.000000 0.000000 0.000000 0.025101
#
#
# Mechanical properties :
#
#
# Convention : Reuss Voigt Hill
#
# Bulk Modulus (GPa) = 27.45741 28.65165 28.05453
# Shear Modulus (GPa) = 157.95438 25.64478 91.79958
#
# Velocity S-wave (km/s) = 8.53189 3.43779 6.50429
# Velocity P-wave (km/s) = 10.47431 5.38163 8.32686
#
# Compressibility (1/GPa) = 0.03642004
#
# Stress axis : x y z
#
# Youngs Moduli (GPa) = 69.53027 75.67734 68.93519
#
# Poissons Ratio (x) = 0.26647 0.20182
# Poissons Ratio (y) = 0.24482 -0.24868
# Poissons Ratio (z) = 0.20356 -0.27300
#
# Static dielectric constant tensor:
#      x y z
#    x 1.898740 0.000000 0.000000 
#    y 0.000000 1.848610 0.000000 
#    z 0.000000 0.000000 1.759650 
# 
# From -- ./inp_files/28619.got.cif
#   From: 2010.05.17/outbox.cif.g08.bks.cpg/sg57_15_cif.got.tgz:28619.got - 2010.06.03 13:58:18.
