data_PCOD9439629
_publ_section_title
;
Structure prediction by ZEFSAII (Michael W. Deem and Ramdas Pophale) SiO2 
 PCOD9439629
Probable space group: P B C M
;
_chemical_formula_sum "Si O2"
_cell_formula_units_Z 48
_cell_length_a 11.057267
_cell_length_b 9.151760
_cell_length_c 21.245043
_cell_angle_alpha 90.000000
_cell_angle_beta 90.000000
_cell_angle_gamma 90.000000
_cell_volume 2149.859278
_symmetry_space_group_name_H-M "P B C M"
_symmetry_group_IT_number 57
_symmetry_cell_setting 'orthorhombic'
loop_
_space_group_symop_operation_xyz
x,y,z
-x,-y,1/2+z
x,1/2-y,-z
-x,1/2+y,1/2-z
-x,-y,-z
x,y,1/2-z
-x,1/2+y,z
x,1/2-y,1/2+z
loop_
_atom_site_type_symbol
_atom_site_label
_atom_site_fract_x
_atom_site_fract_y
_atom_site_fract_z
Si Si1 0.352529 0.531617 0.750000
Si Si2 0.408594 0.892745 0.960667
Si Si3 0.607723 0.376362 0.750000
Si Si4 0.022365 0.298811 0.174315
Si Si5 0.743777 0.964999 0.362849
Si Si6 0.648963 0.814036 0.928448
Si Si7 0.169949 0.488979 0.635749
O O1 0.471853 0.435041 0.750000
O O2 0.386369 0.702045 0.750000
O O3 0.268439 0.497200 0.690700
O O4 0.290042 0.953659 0.927772
O O5 0.511259 0.849345 0.910123
O O6 0.379616 0.750000 0.000000
O O7 0.500000 0.000000 0.000000
O O8 0.678782 0.444264 0.690853
O O9 0.002045 0.291728 0.250000
O O10 0.122536 0.422814 0.158747
O O11 0.077724 0.145436 0.150316
O O12 0.903349 0.359302 0.139040
O O13 0.687022 0.807275 0.378311
O O14 0.746680 0.944222 0.923573
O O15 0.652164 0.750000 0.000000
#
# Coordination Sequence:
#
# PCOD9439629 Si02
#       7
#     4   8   4   8   8   8   8
#     4  12  28  45  67 100 144 181 224 290 360 423
#     4  11  21  41  70  96 133 188 234 285 353 423
#     4  12  30  41  67 106 144 175 234 292 358 423
#     4  11  22  43  69  95 137 181 232 279 350 410
#     4  11  24  42  66 101 137 181 229 295 344 421
#     4  10  22  44  69  97 142 183 233 291 354 414
#     4  11  25  44  73  98 137 184 230 287 347 410
#
# _framework density 22.327044000000001
#
# number of rings (size 3 to 8) (size 9 to 14) (size 15 to 20)
#    0.000    1.000    5.833    1.000    9.333    1.333 
#    0.000    4.167    0.000    0.000    0.000    0.000 
#    0.000    0.000    0.000    0.000    0.000    0.000 
#
# Total GULP energy -267954.252315 kJ/mol
# GULP energy per Si atom -5582.380257 kJ/mol
# Density = 2.227623 g / cm^3
# Si number density = 22.327044 Si / 1000 Ang^3
#
#
#
# Elastic Constant Matrix: (Units=GPa)
#
#
# Indices 1 2 3 4 5 6 
#
# 1 45.3642 16.7963 -11.0105 0.0000 0.0000 0.0000
# 2 16.7963 95.9761 13.7622 0.0000 0.0000 0.0000
# 3 -11.0105 13.7622 58.4463 0.0000 0.0000 0.0000
# 4 0.0000 0.0000 0.0000 22.6608 0.0000 0.0000
# 5 0.0000 0.0000 0.0000 0.0000 20.5649 0.0000
# 6 0.0000 0.0000 0.0000 0.0000 0.0000 45.2514
#
#
#
# Elastic Compliance Matrix: (Units=1/GPa)
#
#
# Indices 1 2 3 4 5 6 
#
# 1 0.025487 -0.005329 0.006056 0.000000 0.000000 0.000000
# 2 -0.005329 0.011897 -0.003805 0.000000 0.000000 0.000000
# 3 0.006056 -0.003805 0.019147 0.000000 0.000000 0.000000
# 4 0.000000 0.000000 0.000000 0.044129 0.000000 0.000000
# 5 0.000000 0.000000 0.000000 0.000000 0.048626 0.000000
# 6 0.000000 0.000000 0.000000 0.000000 0.000000 0.022099
#
#
# Mechanical properties :
#
#
# Convention : Reuss Voigt Hill
#
# Bulk Modulus (GPa) = 19.85115 26.54251 23.19683
# Shear Modulus (GPa) = 25.72908 29.71132 27.72020
#
# Velocity S-wave (km/s) = 3.39834 3.65188 3.52739
# Velocity P-wave (km/s) = 4.93039 5.44936 5.19635
#
# Compressibility (1/GPa) = 0.05037490
#
# Stress axis : x y z
#
# Youngs Moduli (GPa) = 39.23617 84.05155 52.22851
#
# Poissons Ratio (x) = 0.44788 -0.31630
# Poissons Ratio (y) = 0.20908 0.19875
# Poissons Ratio (z) = -0.23762 0.31984
#
# Static dielectric constant tensor:
#      x y z
#    x 1.869010 0.000000 0.000000 
#    y 0.000000 2.035560 0.000000 
#    z 0.000000 0.000000 -9.463880 
# 
# From -- ./inp_files/27131.got.cif
#   From: 2010.05.17/outbox.cif.g08.bks.cpg/sg57_14_cif.got.tgz:27131.got - 2010.06.03 13:58:18.
