data_PCOD9439076
_publ_section_title
;
Structure prediction by ZEFSAII (Michael W. Deem and Ramdas Pophale) SiO2 
 PCOD9439076
Probable space group: P B C M
;
_chemical_formula_sum "Si O2"
_cell_formula_units_Z 56
_cell_length_a 19.666909
_cell_length_b 8.728422
_cell_length_c 15.584753
_cell_angle_alpha 90.000000
_cell_angle_beta 90.000000
_cell_angle_gamma 90.000000
_cell_volume 2675.295550
_symmetry_space_group_name_H-M "P B C M"
_symmetry_group_IT_number 57
_symmetry_cell_setting 'orthorhombic'
loop_
_space_group_symop_operation_xyz
x,y,z
-x,-y,1/2+z
x,1/2-y,-z
-x,1/2+y,1/2-z
-x,-y,-z
x,y,1/2-z
-x,1/2+y,z
x,1/2-y,1/2+z
loop_
_atom_site_type_symbol
_atom_site_label
_atom_site_fract_x
_atom_site_fract_y
_atom_site_fract_z
Si Si1 0.183851 0.115364 0.149778
Si Si2 0.165606 0.018246 0.846679
Si Si3 0.456729 0.187028 0.095160
Si Si4 0.668187 0.002119 0.650260
Si Si5 0.708428 0.324537 0.908837
Si Si6 0.075439 0.066052 0.006051
Si Si7 0.589640 0.009767 0.153747
O O1 0.174705 0.070781 0.250000
O O2 0.184373 0.300808 0.146524
O O3 0.258548 0.061904 0.120503
O O4 0.124460 0.046254 0.089510
O O5 0.139349 0.993404 0.750000
O O6 0.228468 0.906022 0.863888
O O7 0.113261 0.996590 0.923570
O O8 0.395661 0.064866 0.099621
O O9 0.524129 0.111762 0.132982
O O10 0.432501 0.334599 0.147196
O O11 0.469942 0.250000 0.000000
O O12 0.659412 0.957982 0.750000
O O13 0.675367 0.183983 0.642756
O O14 0.649151 0.450615 0.912748
O O15 0.726914 0.250000 0.000000
O O16 0.070458 0.250000 0.000000
O O17 0.000000 0.000000 0.000000
O O18 0.615011 0.039163 0.250000
#
# Coordination Sequence:
#
# PCOD9439076 Si02
#       7
#     8   8   8   8   8   8   8
#     4   9  20  39  63  89 122 163 209 254 304 365
#     4  10  21  40  63  89 122 165 209 252 305 372
#     4  12  25  42  62  88 120 158 206 258 317 380
#     4  11  22  38  60  89 120 155 198 250 305 365
#     4  12  24  39  61  91 124 159 204 258 315 372
#     4  10  22  39  61  90 124 161 202 249 303 362
#     4  12  24  41  62  86 119 163 207 257 317 382
#
# _framework density 20.932267
#
# number of rings (size 3 to 8) (size 9 to 14) (size 15 to 20)
#    0.000    1.143    0.000    6.857    0.000    5.143 
#    0.000    0.000    0.000    0.000    0.000    0.000 
#    0.000    0.000    0.000    0.000    0.000    0.000 
#
# Total GULP energy -313080.065509 kJ/mol
# GULP energy per Si atom -5590.715456 kJ/mol
# Density = 2.088462 g / cm^3
# Si number density = 20.932267 Si / 1000 Ang^3
#
#
#
# Elastic Constant Matrix: (Units=GPa)
#
#
# Indices 1 2 3 4 5 6 
#
# 1 55.5953 12.9662 9.8272 0.0000 0.0000 0.0000
# 2 12.9662 55.1466 14.2678 0.0000 0.0000 0.0000
# 3 9.8272 14.2678 92.9076 0.0000 0.0000 0.0000
# 4 0.0000 0.0000 0.0000 22.8130 0.0000 0.0000
# 5 0.0000 0.0000 0.0000 0.0000 30.9020 0.0000
# 6 0.0000 0.0000 0.0000 0.0000 0.0000 44.8224
#
#
#
# Elastic Compliance Matrix: (Units=1/GPa)
#
#
# Indices 1 2 3 4 5 6 
#
# 1 0.019202 -0.004154 -0.001393 0.000000 0.000000 0.000000
# 2 -0.004154 0.019783 -0.002599 0.000000 0.000000 0.000000
# 3 -0.001393 -0.002599 0.011310 0.000000 0.000000 0.000000
# 4 0.000000 0.000000 0.000000 0.043835 0.000000 0.000000
# 5 0.000000 0.000000 0.000000 0.000000 0.032360 0.000000
# 6 0.000000 0.000000 0.000000 0.000000 0.000000 0.022310
#
#
# Mechanical properties :
#
#
# Convention : Reuss Voigt Hill
#
# Bulk Modulus (GPa) = 29.40966 30.86354 30.13660
# Shear Modulus (GPa) = 28.34042 30.81337 29.57690
#
# Velocity S-wave (km/s) = 3.68354 3.84089 3.76304
# Velocity P-wave (km/s) = 5.67201 5.86911 5.77140
#
# Compressibility (1/GPa) = 0.03400243
#
# Stress axis : x y z
#
# Youngs Moduli (GPa) = 52.07705 50.54943 88.41895
#
# Poissons Ratio (x) = 0.21001 0.12318
# Poissons Ratio (y) = 0.21635 0.22976
# Poissons Ratio (z) = 0.07255 0.13136
#
# Static dielectric constant tensor:
#      x y z
#    x 1.714710 0.000000 0.000000 
#    y 0.000000 1.758710 0.000000 
#    z 0.000000 0.000000 1.791460 
# 
# From -- ./inp_files/19325.got.cif
#   From: 2010.05.17/outbox.cif.g08.bks.cpg/sg57_10_cif.got.tgz:19325.got - 2010.06.03 13:58:18.
