data_PCOD9439793
_publ_section_title
;
Structure prediction by ZEFSAII (Michael W. Deem and Ramdas Pophale) SiO2 
 PCOD9439793
Probable space group: P B C M
;
_chemical_formula_sum "Si O2"
_cell_formula_units_Z 32
_cell_length_a 7.258147
_cell_length_b 7.689508
_cell_length_c 22.029345
_cell_angle_alpha 90.000000
_cell_angle_beta 90.000000
_cell_angle_gamma 90.000000
_cell_volume 1229.492538
_symmetry_space_group_name_H-M "P B C M"
_symmetry_group_IT_number 57
_symmetry_cell_setting 'orthorhombic'
loop_
_space_group_symop_operation_xyz
x,y,z
-x,-y,1/2+z
x,1/2-y,-z
-x,1/2+y,1/2-z
-x,-y,-z
x,y,1/2-z
-x,1/2+y,z
x,1/2-y,1/2+z
loop_
_atom_site_type_symbol
_atom_site_label
_atom_site_fract_x
_atom_site_fract_y
_atom_site_fract_z
Si Si1 0.704872 0.906924 0.750000
Si Si2 0.091513 0.465467 0.250000
Si Si3 0.453282 0.514427 0.877817
Si Si4 0.845789 0.093511 0.539387
Si Si5 0.783123 0.154546 0.129682
O O1 0.796799 0.714986 0.750000
O O2 0.590943 0.940562 0.689226
O O3 0.870989 0.047337 0.750000
O O4 0.138480 0.577695 0.309342
O O5 0.304084 0.468090 0.930011
O O6 0.665150 0.503791 0.898497
O O7 0.390686 0.714392 0.868379
O O8 0.756303 0.250000 0.500000
O O9 0.923071 0.216949 0.594774
O O10 0.000000 0.000000 0.500000
#
# Coordination Sequence:
#
# PCOD9439793 Si02
#       5
#     4   4   8   8   8
#     4  12  25  40  71 108 150 189 239 307 383 466
#     4  12  25  40  71 110 146 187 239 299 381 454
#     4  10  23  44  72 103 146 186 244 305 384 432
#     4  10  26  47  72 100 142 197 254 302 363 433
#     4  10  23  44  73 103 145 183 247 300 383 433
#
# _framework density 26.026997000000001
#
# number of rings (size 3 to 8) (size 9 to 14) (size 15 to 20)
#    1.500    0.000    0.000    4.500    3.500    1.000 
#    4.500    0.000    0.000    0.000    0.000    0.000 
#    0.000    0.000    0.000    0.000    0.000    0.000 
#
# Total GULP energy -178253.184183 kJ/mol
# GULP energy per Si atom -5570.412006 kJ/mol
# Density = 2.596776 g / cm^3
# Si number density = 26.026997 Si / 1000 Ang^3
#
#
#
# Elastic Constant Matrix: (Units=GPa)
#
#
# Indices 1 2 3 4 5 6 
#
# 1 106.5822 8.8778 52.0725 0.0000 0.0000 0.0000
# 2 8.8778 52.0049 31.0933 0.0000 0.0000 0.0000
# 3 52.0725 31.0933 133.6372 0.0000 0.0000 0.0000
# 4 0.0000 0.0000 0.0000 20.5416 0.0000 0.0000
# 5 0.0000 0.0000 0.0000 0.0000 204.0142 0.0000
# 6 0.0000 0.0000 0.0000 0.0000 0.0000 33.9253
#
#
#
# Elastic Compliance Matrix: (Units=1/GPa)
#
#
# Indices 1 2 3 4 5 6 
#
# 1 0.011620 0.000840 -0.004723 0.000000 0.000000 0.000000
# 2 0.000840 0.022397 -0.005539 0.000000 0.000000 0.000000
# 3 -0.004723 -0.005539 0.010612 0.000000 0.000000 0.000000
# 4 0.000000 0.000000 0.000000 0.048682 0.000000 0.000000
# 5 0.000000 0.000000 0.000000 0.000000 0.004902 0.000000
# 6 0.000000 0.000000 0.000000 0.000000 0.000000 0.029477
#
#
# Mechanical properties :
#
#
# Convention : Reuss Voigt Hill
#
# Bulk Modulus (GPa) = 38.78061 52.92348 45.85204
# Shear Modulus (GPa) = 32.23157 65.04159 48.63658
#
# Velocity S-wave (km/s) = 3.52289 5.00443 4.32753
# Velocity P-wave (km/s) = 5.61072 7.33284 6.52881
#
# Compressibility (1/GPa) = 0.02578608
#
# Stress axis : x y z
#
# Youngs Moduli (GPa) = 86.05766 44.64897 94.23217
#
# Poissons Ratio (x) = -0.03752 0.44509
# Poissons Ratio (y) = -0.07232 0.52191
# Poissons Ratio (z) = 0.40648 0.24729
#
# Static dielectric constant tensor:
#      x y z
#    x 2.284380 0.000000 0.000000 
#    y 0.000000 2.177210 0.000000 
#    z 0.000000 0.000000 2.311810 
# 
# From -- ./inp_files/26480.got.cif
#   From: 2010.05.17/outbox.cif.g08.bks.cpg/sg57_14_cif.got.tgz:26480.got - 2010.06.03 13:58:18.
