data_PCOD9439119
_publ_section_title
;
Structure prediction by ZEFSAII (Michael W. Deem and Ramdas Pophale) SiO2 
 PCOD9439119
Probable space group: P B C M
;
_chemical_formula_sum "Si O2"
_cell_formula_units_Z 48
_cell_length_a 15.323498
_cell_length_b 19.317040
_cell_length_c 8.771304
_cell_angle_alpha 90.000000
_cell_angle_beta 90.000000
_cell_angle_gamma 90.000000
_cell_volume 2596.346541
_symmetry_space_group_name_H-M "P B C M"
_symmetry_group_IT_number 57
_symmetry_cell_setting 'orthorhombic'
loop_
_space_group_symop_operation_xyz
x,y,z
-x,-y,1/2+z
x,1/2-y,-z
-x,1/2+y,1/2-z
-x,-y,-z
x,y,1/2-z
-x,1/2+y,z
x,1/2-y,1/2+z
loop_
_atom_site_type_symbol
_atom_site_label
_atom_site_fract_x
_atom_site_fract_y
_atom_site_fract_z
Si Si1 0.877687 0.673443 0.568518
Si Si2 0.786747 0.423147 0.067583
Si Si3 0.622361 0.173300 0.932971
Si Si4 0.024862 0.574833 0.068409
Si Si5 0.727459 0.919422 0.567683
Si Si6 0.524812 0.925191 0.932933
O O1 0.875637 0.750000 0.500000
O O2 0.885069 0.676165 0.750000
O O3 0.790865 0.632039 0.520136
O O4 0.958624 0.630770 0.499653
O O5 0.802514 0.419065 0.250000
O O6 0.709666 0.370054 0.028384
O O7 0.754686 0.501284 0.034468
O O8 0.876208 0.409294 0.980199
O O9 0.615591 0.175634 0.750000
O O10 0.626282 0.250000 0.000000
O O11 0.540340 0.131500 0.999536
O O12 0.016001 0.572402 0.250000
O O13 0.000000 0.500000 0.000000
O O14 0.738594 0.909104 0.750000
O O15 0.625825 0.909948 0.529989
O O16 0.516912 0.927614 0.750000
O O17 0.500000 0.000000 0.000000
#
# Coordination Sequence:
#
# PCOD9439119 Si02
#       6
#     8   8   8   8   8   8
#     4  12  26  44  66  94 128 167 207 260 319 376
#     4  10  21  40  65  92 127 166 211 260 312 371
#     4  11  24  43  64  93 130 169 209 262 318 373
#     4  12  24  40  65  96 128 166 212 259 311 373
#     4  10  21  40  65  93 126 165 209 260 312 371
#     4  11  22  39  65  95 127 167 212 261 313 373
#
# _framework density 18.487517
#
# number of rings (size 3 to 8) (size 9 to 14) (size 15 to 20)
#    0.000    1.000    3.333    4.000    0.000    4.000 
#    0.000    1.667    0.000    0.000    0.000    0.000 
#    0.000    0.000    0.000    0.000    0.000    0.000 
#
# Total GULP energy -268529.829098 kJ/mol
# GULP energy per Si atom -5594.371440 kJ/mol
# Density = 1.844544 g / cm^3
# Si number density = 18.487517 Si / 1000 Ang^3
#
#
#
# Elastic Constant Matrix: (Units=GPa)
#
#
# Indices 1 2 3 4 5 6 
#
# 1 189.1861 102.7753 106.8778 0.0000 0.0000 0.0000
# 2 102.7753 181.8519 90.6985 0.0000 0.0000 0.0000
# 3 106.8778 90.6985 124.7119 0.0000 0.0000 0.0000
# 4 0.0000 0.0000 0.0000 35.3523 0.0000 0.0000
# 5 0.0000 0.0000 0.0000 0.0000 37.3755 0.0000
# 6 0.0000 0.0000 0.0000 0.0000 0.0000 32.7138
#
#
#
# Elastic Compliance Matrix: (Units=1/GPa)
#
#
# Indices 1 2 3 4 5 6 
#
# 1 0.010848 -0.002345 -0.007592 0.000000 0.000000 0.000000
# 2 -0.002345 0.009136 -0.004635 0.000000 0.000000 0.000000
# 3 -0.007592 -0.004635 0.017895 0.000000 0.000000 0.000000
# 4 0.000000 0.000000 0.000000 0.028287 0.000000 0.000000
# 5 0.000000 0.000000 0.000000 0.000000 0.026756 0.000000
# 6 0.000000 0.000000 0.000000 0.000000 0.000000 0.030568
#
#
# Mechanical properties :
#
#
# Convention : Reuss Voigt Hill
#
# Bulk Modulus (GPa) = 114.45591 121.82813 118.14202
# Shear Modulus (GPa) = 32.14513 34.11487 33.13000
#
# Velocity S-wave (km/s) = 4.17435 4.30035 4.23782
# Velocity P-wave (km/s) = 9.23460 9.52354 9.38019
#
# Compressibility (1/GPa) = 0.00873699
#
# Stress axis : x y z
#
# Youngs Moduli (GPa) = 92.17883 109.46189 55.88042
#
# Poissons Ratio (x) = 0.25665 0.42424
# Poissons Ratio (y) = 0.21613 0.25899
# Poissons Ratio (z) = 0.69982 0.50732
#
# Static dielectric constant tensor:
#      x y z
#    x 1.618600 0.000000 0.000000 
#    y 0.000000 1.598310 0.000000 
#    z 0.000000 0.000000 1.621090 
# 
# From -- ./inp_files/4703.got.cif
#   From: 2010.05.17/outbox.cif.g08.bks.cpg/sg57_3_cif.got.tgz:4703.got - 2010.06.03 13:58:18.
