data_PCOD9439617
_publ_section_title
;
Structure prediction by ZEFSAII (Michael W. Deem and Ramdas Pophale) SiO2 
 PCOD9439617
Probable space group: P B C M
;
_chemical_formula_sum "Si O2"
_cell_formula_units_Z 48
_cell_length_a 5.920473
_cell_length_b 15.159059
_cell_length_c 25.502338
_cell_angle_alpha 90.000000
_cell_angle_beta 90.000000
_cell_angle_gamma 90.000000
_cell_volume 2288.804220
_symmetry_space_group_name_H-M "P B C M"
_symmetry_group_IT_number 57
_symmetry_cell_setting 'orthorhombic'
loop_
_space_group_symop_operation_xyz
x,y,z
-x,-y,1/2+z
x,1/2-y,-z
-x,1/2+y,1/2-z
-x,-y,-z
x,y,1/2-z
-x,1/2+y,z
x,1/2-y,1/2+z
loop_
_atom_site_type_symbol
_atom_site_label
_atom_site_fract_x
_atom_site_fract_y
_atom_site_fract_z
Si Si1 0.269916 0.319004 0.750000
Si Si2 0.458034 0.279823 0.556013
Si Si3 0.765276 0.274769 0.250000
Si Si4 0.994535 0.053135 0.914065
Si Si5 0.191421 0.784156 0.133917
Si Si6 0.291230 0.554174 0.019990
Si Si7 0.863791 0.622762 0.362228
O O1 0.525806 0.279830 0.750000
O O2 0.247519 0.368826 0.805232
O O3 0.029590 0.262303 0.750000
O O4 0.354830 0.250000 0.500000
O O5 0.594684 0.213965 0.594417
O O6 0.647771 0.348311 0.536951
O O7 0.282404 0.331953 0.591879
O O8 0.751633 0.317420 0.307665
O O9 0.995137 0.149091 0.889077
O O10 0.881841 0.979599 0.877247
O O11 0.875901 0.060737 0.970797
O O12 0.219711 0.002792 0.929856
O O13 0.090448 0.684666 0.138929
O O14 0.500000 0.500000 0.000000
#
# Coordination Sequence:
#
# PCOD9439617 Si02
#       7
#     4   8   4   8   8   8   8
#     4  10  22  43  74  95 131 179 230 285 348 403
#     4  12  23  37  65  94 129 175 222 271 347 419
#     4  10  22  45  70  99 133 177 226 295 342 405
#     4  11  24  39  63  94 134 174 225 277 341 413
#     4  11  24  42  65  94 132 174 229 282 345 414
#     4  11  23  39  57  92 135 172 216 278 339 405
#     4  11  24  42  65  94 129 177 224 286 345 412
#
# _framework density 20.971651000000001
#
# number of rings (size 3 to 8) (size 9 to 14) (size 15 to 20)
#    0.000    1.000    6.667    0.000    2.333    1.333 
#    0.000    0.000    0.000    2.000    0.000    0.000 
#    0.000    0.000    0.000    0.000    0.000    0.000 
#
# Total GULP energy -267240.631853 kJ/mol
# GULP energy per Si atom -5567.513164 kJ/mol
# Density = 2.092392 g / cm^3
# Si number density = 20.971651 Si / 1000 Ang^3
#
#
#
# Elastic Constant Matrix: (Units=GPa)
#
#
# Indices 1 2 3 4 5 6 
#
# 1 28.9299 -10.2769 1.0563 0.0000 0.0000 0.0000
# 2 -10.2769 54.5479 10.3015 0.0000 0.0000 0.0000
# 3 1.0563 10.3015 145.8134 0.0000 0.0000 0.0000
# 4 0.0000 0.0000 0.0000 28.2640 0.0000 0.0000
# 5 0.0000 0.0000 0.0000 0.0000 29.0915 0.0000
# 6 0.0000 0.0000 0.0000 0.0000 0.0000 25.3903
#
#
#
# Elastic Compliance Matrix: (Units=1/GPa)
#
#
# Indices 1 2 3 4 5 6 
#
# 1 0.037132 0.007142 -0.000774 0.000000 0.000000 0.000000
# 2 0.007142 0.019954 -0.001461 0.000000 0.000000 0.000000
# 3 -0.000774 -0.001461 0.006967 0.000000 0.000000 0.000000
# 4 0.000000 0.000000 0.000000 0.035381 0.000000 0.000000
# 5 0.000000 0.000000 0.000000 0.000000 0.034374 0.000000
# 6 0.000000 0.000000 0.000000 0.000000 0.000000 0.039385
#
#
# Mechanical properties :
#
#
# Convention : Reuss Voigt Hill
#
# Bulk Modulus (GPa) = 13.53802 25.71697 19.62750
# Shear Modulus (GPa) = 26.59557 31.76318 29.17938
#
# Velocity S-wave (km/s) = 3.56500 3.89598 3.73416
# Velocity P-wave (km/s) = 4.83891 5.70329 5.28879
#
# Compressibility (1/GPa) = 0.07386604
#
# Stress axis : x y z
#
# Youngs Moduli (GPa) = 26.93124 50.11525 143.53517
#
# Poissons Ratio (x) = -0.35791 0.11103
# Poissons Ratio (y) = -0.19234 0.20977
# Poissons Ratio (z) = 0.02083 0.07324
#
# Static dielectric constant tensor:
#      x y z
#    x 1.851710 0.000000 0.000000 
#    y 0.000000 1.582040 0.000000 
#    z 0.000000 0.000000 1.735950 
# 
# From -- ./inp_files/26254.got.cif
#   From: 2010.05.17/outbox.cif.g08.bks.cpg/sg57_14_cif.got.tgz:26254.got - 2010.06.03 13:58:18.
