data_PCOD9439481
_publ_section_title
;
Structure prediction by ZEFSAII (Michael W. Deem and Ramdas Pophale) SiO2 
 PCOD9439481
Probable space group: P B C M
;
_chemical_formula_sum "Si O2"
_cell_formula_units_Z 64
_cell_length_a 12.277999
_cell_length_b 8.844186
_cell_length_c 28.118201
_cell_angle_alpha 90.000000
_cell_angle_beta 90.000000
_cell_angle_gamma 90.000000
_cell_volume 3053.324710
_symmetry_space_group_name_H-M "P B C M"
_symmetry_group_IT_number 57
_symmetry_cell_setting 'orthorhombic'
loop_
_space_group_symop_operation_xyz
x,y,z
-x,-y,1/2+z
x,1/2-y,-z
-x,1/2+y,1/2-z
-x,-y,-z
x,y,1/2-z
-x,1/2+y,z
x,1/2-y,1/2+z
loop_
_atom_site_type_symbol
_atom_site_label
_atom_site_fract_x
_atom_site_fract_y
_atom_site_fract_z
Si Si1 0.057740 0.967813 0.394272
Si Si2 0.257540 0.215375 0.804369
Si Si3 0.400920 0.011832 0.631868
Si Si4 0.359251 0.033937 0.134054
Si Si5 0.885720 0.724414 0.553234
Si Si6 0.633138 0.747944 0.553272
Si Si7 0.075278 0.971935 0.804937
Si Si8 0.231655 0.763092 0.866082
O O1 0.144622 0.831449 0.397105
O O2 0.949004 0.907161 0.419629
O O3 0.097718 0.118874 0.419229
O O4 0.025980 0.008241 0.340117
O O5 0.275956 0.257665 0.750000
O O6 0.345210 0.094883 0.823715
O O7 0.277039 0.354651 0.838998
O O8 0.142667 0.129384 0.807844
O O9 0.423896 0.134719 0.590458
O O10 0.515216 0.943447 0.648116
O O11 0.310201 0.893464 0.613661
O O12 0.360190 0.088571 0.078939
O O13 0.317560 0.868067 0.146750
O O14 0.928465 0.750000 0.500000
O O15 0.757737 0.690833 0.550271
O O16 0.587344 0.750000 0.500000
O O17 0.047938 0.942000 0.750000
O O18 0.156745 0.843518 0.825906
#
# Coordination Sequence:
#
# PCOD9439481 Si02
#       8
#     8   8   8   8   8   8   8   8
#     4  12  22  40  62  92 126 166 204 258 308 378
#     4   9  20  39  62  87 118 160 204 248 306 367
#     4  10  22  41  63  87 125 162 202 261 317 361
#     4  11  21  39  64  92 119 159 209 258 311 361
#     4  11  23  40  64  90 123 163 207 254 312 371
#     4  10  22  41  63  85 122 165 204 249 308 367
#     4  10  23  42  63  89 129 170 203 251 315 373
#     4  11  22  38  63  92 126 159 207 256 310 369
#
# _framework density 20.960760000000001
#
# number of rings (size 3 to 8) (size 9 to 14) (size 15 to 20)
#    0.000    1.500    2.500    4.125    0.000    2.000 
#    0.000    3.125    0.000    0.000    0.000    0.000 
#    0.000    0.000    0.000    0.000    0.000    0.000 
#
# Total GULP energy -357280.035397 kJ/mol
# GULP energy per Si atom -5582.500553 kJ/mol
# Density = 2.091305 g / cm^3
# Si number density = 20.960760 Si / 1000 Ang^3
#
#
#
# Elastic Constant Matrix: (Units=GPa)
#
#
# Indices 1 2 3 4 5 6 
#
# 1 65.2227 4.2304 2.5178 0.0000 0.0000 0.0000
# 2 4.2304 82.4527 17.0009 0.0000 0.0000 0.0000
# 3 2.5178 17.0009 87.0775 0.0000 0.0000 0.0000
# 4 0.0000 0.0000 0.0000 10.9092 0.0000 0.0000
# 5 0.0000 0.0000 0.0000 0.0000 8.0780 0.0000
# 6 0.0000 0.0000 0.0000 0.0000 0.0000 26.6260
#
#
#
# Elastic Compliance Matrix: (Units=1/GPa)
#
#
# Indices 1 2 3 4 5 6 
#
# 1 0.015391 -0.000727 -0.000303 0.000000 0.000000 0.000000
# 2 -0.000727 0.012671 -0.002453 0.000000 0.000000 0.000000
# 3 -0.000303 -0.002453 0.011972 0.000000 0.000000 0.000000
# 4 0.000000 0.000000 0.000000 0.091666 0.000000 0.000000
# 5 0.000000 0.000000 0.000000 0.000000 0.123794 0.000000
# 6 0.000000 0.000000 0.000000 0.000000 0.000000 0.037557
#
#
# Mechanical properties :
#
#
# Convention : Reuss Voigt Hill
#
# Bulk Modulus (GPa) = 30.24104 31.36123 30.80114
# Shear Modulus (GPa) = 16.07512 23.18954 19.63233
#
# Velocity S-wave (km/s) = 2.77233 3.32976 3.06375
# Velocity P-wave (km/s) = 4.97056 5.45687 5.21939
#
# Compressibility (1/GPa) = 0.03306764
#
# Stress axis : x y z
#
# Youngs Moduli (GPa) = 64.97321 78.91887 83.53048
#
# Poissons Ratio (x) = 0.05739 0.02531
# Poissons Ratio (y) = 0.04725 0.20489
# Poissons Ratio (z) = 0.01969 0.19358
#
# Static dielectric constant tensor:
#      x y z
#    x 1.772630 0.000000 0.000000 
#    y 0.000000 1.779640 0.000000 
#    z 0.000000 0.000000 1.757400 
# 
# From -- ./inp_files/29783.got.cif
#   From: 2010.05.17/outbox.cif.g08.bks.cpg/sg57_15_cif.got.tgz:29783.got - 2010.06.03 13:58:18.
