data_PCOD9439746
_publ_section_title
;
Structure prediction by ZEFSAII (Michael W. Deem and Ramdas Pophale) SiO2 
 PCOD9439746
Probable space group: P B C M
;
_chemical_formula_sum "Si O2"
_cell_formula_units_Z 32
_cell_length_a 19.559376
_cell_length_b 4.917816
_cell_length_c 14.285071
_cell_angle_alpha 90.000000
_cell_angle_beta 90.000000
_cell_angle_gamma 90.000000
_cell_volume 1374.072583
_symmetry_space_group_name_H-M "P B C M"
_symmetry_group_IT_number 57
_symmetry_cell_setting 'orthorhombic'
loop_
_space_group_symop_operation_xyz
x,y,z
-x,-y,1/2+z
x,1/2-y,-z
-x,1/2+y,1/2-z
-x,-y,-z
x,y,1/2-z
-x,1/2+y,z
x,1/2-y,1/2+z
loop_
_atom_site_type_symbol
_atom_site_label
_atom_site_fract_x
_atom_site_fract_y
_atom_site_fract_z
Si Si1 0.044788 0.527873 0.250000
Si Si2 0.249479 0.649713 0.643695
Si Si3 0.453760 0.065753 0.642345
Si Si4 0.359493 0.750000 0.000000
Si Si5 0.155068 0.346699 0.102451
O O1 0.091059 0.448979 0.161689
O O2 0.022473 0.840070 0.250000
O O3 0.272124 0.705508 0.750000
O O4 0.311641 0.591338 0.574176
O O5 0.195282 0.406831 0.645709
O O6 0.209726 0.910028 0.603126
O O7 0.429078 0.029025 0.750000
O O8 0.521179 0.874506 0.632171
O O9 0.402838 0.954801 0.564402
O O10 0.134100 0.250000 0.000000
#
# Coordination Sequence:
#
# PCOD9439746 Si02
#       5
#     4   8   8   4   8
#     4  12  26  44  74 100 136 178 226 274 332 398
#     4  12  24  42  67  98 137 178 216 277 339 405
#     4  10  23  43  64  92 133 176 222 284 335 389
#     4  12  24  40  68 102 128 174 240 262 348 400
#     4  12  24  46  69  99 135 177 220 274 334 395
#
# _framework density 23.288433000000001
#
# number of rings (size 3 to 8) (size 9 to 14) (size 15 to 20)
#    0.000    0.500    5.000    3.000    0.000    5.000 
#    0.000    5.000    0.000    0.000    0.000    0.000 
#    0.000    0.000    0.000    0.000    0.000    0.000 
#
# Total GULP energy -179362.405926 kJ/mol
# GULP energy per Si atom -5605.075185 kJ/mol
# Density = 2.323543 g / cm^3
# Si number density = 23.288433 Si / 1000 Ang^3
#
#
#
# Elastic Constant Matrix: (Units=GPa)
#
#
# Indices 1 2 3 4 5 6 
#
# 1 63.2959 -16.0702 48.0096 0.0000 0.0000 0.0000
# 2 -16.0702 70.2498 -9.8319 0.0000 0.0000 0.0000
# 3 48.0096 -9.8319 159.3897 0.0000 0.0000 0.0000
# 4 0.0000 0.0000 0.0000 29.5411 0.0000 0.0000
# 5 0.0000 0.0000 0.0000 0.0000 79.7668 0.0000
# 6 0.0000 0.0000 0.0000 0.0000 0.0000 17.9856
#
#
#
# Elastic Compliance Matrix: (Units=1/GPa)
#
#
# Indices 1 2 3 4 5 6 
#
# 1 0.021567 0.004059 -0.006246 0.000000 0.000000 0.000000
# 2 0.004059 0.015123 -0.000290 0.000000 0.000000 0.000000
# 3 -0.006246 -0.000290 0.008137 0.000000 0.000000 0.000000
# 4 0.000000 0.000000 0.000000 0.033851 0.000000 0.000000
# 5 0.000000 0.000000 0.000000 0.000000 0.012537 0.000000
# 6 0.000000 0.000000 0.000000 0.000000 0.000000 0.055600
#
#
# Mechanical properties :
#
#
# Convention : Reuss Voigt Hill
#
# Bulk Modulus (GPa) = 25.07849 37.46116 31.26982
# Shear Modulus (GPa) = 30.29225 43.51388 36.90306
#
# Velocity S-wave (km/s) = 3.61049 4.32728 3.98503
# Velocity P-wave (km/s) = 5.30782 6.40997 5.88475
#
# Compressibility (1/GPa) = 0.03987481
#
# Stress axis : x y z
#
# Youngs Moduli (GPa) = 46.36753 66.12454 122.89066
#
# Poissons Ratio (x) = -0.26843 0.76754
# Poissons Ratio (y) = -0.18823 0.03562
# Poissons Ratio (z) = 0.28960 0.01917
#
# Static dielectric constant tensor:
#      x y z
#    x 1.865200 0.000000 0.000000 
#    y 0.000000 1.500460 0.000000 
#    z 0.000000 0.000000 1.884780 
# 
# From -- ./inp_files/18831.got.cif
#   From: 2010.05.17/outbox.cif.g08.bks.cpg/sg57_10_cif.got.tgz:18831.got - 2010.06.03 13:58:18.
