data_PCOD9439983
_publ_section_title
;
Structure prediction by ZEFSAII (Michael W. Deem and Ramdas Pophale) SiO2 
 PCOD9439983
Probable space group: P B C M
;
_chemical_formula_sum "Si O2"
_cell_formula_units_Z 48
_cell_length_a 17.190181
_cell_length_b 18.597968
_cell_length_c 8.189070
_cell_angle_alpha 90.000000
_cell_angle_beta 90.000000
_cell_angle_gamma 90.000000
_cell_volume 2618.065629
_symmetry_space_group_name_H-M "P B C M"
_symmetry_group_IT_number 57
_symmetry_cell_setting 'orthorhombic'
loop_
_space_group_symop_operation_xyz
x,y,z
-x,-y,1/2+z
x,1/2-y,-z
-x,1/2+y,1/2-z
-x,-y,-z
x,y,1/2-z
-x,1/2+y,z
x,1/2-y,1/2+z
loop_
_atom_site_type_symbol
_atom_site_label
_atom_site_fract_x
_atom_site_fract_y
_atom_site_fract_z
Si Si1 0.336263 0.171289 0.053270
Si Si2 0.415225 0.024293 0.446996
Si Si3 0.821464 0.602120 0.051506
Si Si4 0.258945 0.952378 0.051189
Si Si5 0.854681 0.168167 0.555340
Si Si6 0.007026 0.082895 0.054193
O O1 0.335313 0.169285 0.250000
O O2 0.389822 0.104495 0.998057
O O3 0.247806 0.154393 0.995430
O O4 0.361654 0.250000 0.000000
O O5 0.413297 0.024882 0.250000
O O6 0.500000 0.000000 0.500000
O O7 0.346333 0.970591 0.503440
O O8 0.822214 0.605373 0.250000
O O9 0.793879 0.521444 0.007772
O O10 0.909455 0.613233 0.994580
O O11 0.260640 0.950240 0.250000
O O12 0.216920 0.880608 0.991477
O O13 0.852050 0.250000 0.500000
O O14 0.850781 0.167068 0.750000
O O15 0.934534 0.129193 0.505652
O O16 0.007418 0.084098 0.250000
O O17 0.000000 0.000000 0.000000
#
# Coordination Sequence:
#
# PCOD9439983 Si02
#       6
#     8   8   8   8   8   8
#     4   9  18  33  53  76 105 138 170 208 259 312
#     4   9  18  34  57  81 104 135 173 213 260 316
#     4   8  15  30  52  74  97 133 175 211 252 307
#     4   8  15  32  55  73  96 135 173 207 259 318
#     4  11  22  37  54  75 105 142 183 227 273 319
#     4  11  20  33  54  79 107 143 184 225 267 315
#
# _framework density 18.334147000000002
#
# number of rings (size 3 to 8) (size 9 to 14) (size 15 to 20)
#    0.000    2.667    1.667    3.000    0.000    1.333 
#    0.000    5.833    0.000    4.000    0.000    0.000 
#    0.000    0.000    0.000    0.000    0.000    0.000 
#
# Total GULP energy -267595.458845 kJ/mol
# GULP energy per Si atom -5574.905393 kJ/mol
# Density = 1.829242 g / cm^3
# Si number density = 18.334147 Si / 1000 Ang^3
#
#
#
# Elastic Constant Matrix: (Units=GPa)
#
#
# Indices 1 2 3 4 5 6 
#
# 1 175.2416 93.8806 16.8483 0.0000 0.0000 0.0000
# 2 93.8806 144.5109 14.6698 0.0000 0.0000 0.0000
# 3 16.8483 14.6698 18.0774 0.0000 0.0000 0.0000
# 4 0.0000 0.0000 0.0000 26.3031 0.0000 0.0000
# 5 0.0000 0.0000 0.0000 0.0000 21.9346 0.0000
# 6 0.0000 0.0000 0.0000 0.0000 0.0000 19.3338
#
#
#
# Elastic Compliance Matrix: (Units=1/GPa)
#
#
# Indices 1 2 3 4 5 6 
#
# 1 0.009007 -0.005448 -0.003974 0.000000 0.000000 0.000000
# 2 -0.005448 0.010836 -0.003716 0.000000 0.000000 0.000000
# 3 -0.003974 -0.003716 0.062037 0.000000 0.000000 0.000000
# 4 0.000000 0.000000 0.000000 0.038018 0.000000 0.000000
# 5 0.000000 0.000000 0.000000 0.000000 0.045590 0.000000
# 6 0.000000 0.000000 0.000000 0.000000 0.000000 0.051723
#
#
# Mechanical properties :
#
#
# Convention : Reuss Voigt Hill
#
# Bulk Modulus (GPa) = 17.98409 65.40304 41.69357
# Shear Modulus (GPa) = 19.08236 27.67635 23.37936
#
# Velocity S-wave (km/s) = 3.22966 3.88951 3.57484
# Velocity P-wave (km/s) = 4.87216 7.47805 6.31107
#
# Compressibility (1/GPa) = 0.05560471
#
# Stress axis : x y z
#
# Youngs Moduli (GPa) = 111.02409 92.28167 16.11947
#
# Poissons Ratio (x) = 0.50275 0.06405
# Poissons Ratio (y) = 0.60486 0.05990
# Poissons Ratio (z) = 0.44117 0.34293
#
# Static dielectric constant tensor:
#      x y z
#    x 1.663960 0.000000 0.000000 
#    y 0.000000 1.617050 0.000000 
#    z 0.000000 0.000000 1.652490 
# 
# From -- ./inp_files/6684.got.cif
#   From: 2010.05.17/outbox.cif.g08.bks.cpg/sg57_4_cif.got.tgz:6684.got - 2010.06.03 13:58:18.
