data_PCOD9439809
_publ_section_title
;
Structure prediction by ZEFSAII (Michael W. Deem and Ramdas Pophale) SiO2 
 PCOD9439809
Probable space group: P B C M
;
_chemical_formula_sum "Si O2"
_cell_formula_units_Z 24
_cell_length_a 4.869847
_cell_length_b 13.937827
_cell_length_c 12.555762
_cell_angle_alpha 90.000000
_cell_angle_beta 90.000000
_cell_angle_gamma 90.000000
_cell_volume 852.223413
_symmetry_space_group_name_H-M "P B C M"
_symmetry_group_IT_number 57
_symmetry_cell_setting 'orthorhombic'
loop_
_space_group_symop_operation_xyz
x,y,z
-x,-y,1/2+z
x,1/2-y,-z
-x,1/2+y,1/2-z
-x,-y,-z
x,y,1/2-z
-x,1/2+y,z
x,1/2-y,1/2+z
loop_
_atom_site_type_symbol
_atom_site_label
_atom_site_fract_x
_atom_site_fract_y
_atom_site_fract_z
Si Si1 0.069889 0.856325 0.964023
Si Si2 0.196061 0.290591 0.750000
Si Si3 0.315671 0.032359 0.872238
Si Si4 0.697785 0.154520 0.750000
O O1 0.883254 0.844331 0.857657
O O2 0.308020 0.929097 0.927346
O O3 0.159986 0.750000 0.000000
O O4 0.875693 0.902888 0.053414
O O5 0.995989 0.197828 0.750000
O O6 0.500409 0.248034 0.750000
O O7 0.212805 0.016789 0.750000
O O8 0.598473 0.088721 0.848528
#
# Coordination Sequence:
#
# PCOD9439809 Si02
#       4
#     8   4   8   4
#     4  11  20  40  74 106 148 194 248 311 372 444
#     4  12  23  46  71 107 141 194 243 304 371 441
#     4   9  20  42  69 107 148 194 251 305 376 441
#     4  10  23  46  71 101 147 190 249 294 369 445
#
# _framework density 28.161629000000001
#
# number of rings (size 3 to 8) (size 9 to 14) (size 15 to 20)
#    1.000    0.667    5.000    0.000    0.000    0.000 
#    6.000    8.333    0.000    0.000    0.000    0.000 
#    0.000    0.000    0.000    0.000    0.000    0.000 
#
# Total GULP energy -134679.184315 kJ/mol
# GULP energy per Si atom -5611.632680 kJ/mol
# Density = 2.809753 g / cm^3
# Si number density = 28.161629 Si / 1000 Ang^3
#
#
#
# Elastic Constant Matrix: (Units=GPa)
#
#
# Indices 1 2 3 4 5 6 
#
# 1 79.0898 34.1095 25.4510 0.0000 0.0000 0.0000
# 2 34.1095 169.1701 50.5030 0.0000 0.0000 0.0000
# 3 25.4510 50.5030 226.2272 0.0000 0.0000 0.0000
# 4 0.0000 0.0000 0.0000 63.7973 0.0000 0.0000
# 5 0.0000 0.0000 0.0000 0.0000 39.8715 0.0000
# 6 0.0000 0.0000 0.0000 0.0000 0.0000 30.1780
#
#
#
# Elastic Compliance Matrix: (Units=1/GPa)
#
#
# Indices 1 2 3 4 5 6 
#
# 1 0.014063 -0.002532 -0.001017 0.000000 0.000000 0.000000
# 2 -0.002532 0.006789 -0.001231 0.000000 0.000000 0.000000
# 3 -0.001017 -0.001231 0.004809 0.000000 0.000000 0.000000
# 4 0.000000 0.000000 0.000000 0.015675 0.000000 0.000000
# 5 0.000000 0.000000 0.000000 0.000000 0.025081 0.000000
# 6 0.000000 0.000000 0.000000 0.000000 0.000000 0.033137
#
#
# Mechanical properties :
#
#
# Convention : Reuss Voigt Hill
#
# Bulk Modulus (GPa) = 62.10214 77.17937 69.64075
# Shear Modulus (GPa) = 43.67564 51.06427 47.36996
#
# Velocity S-wave (km/s) = 3.94241 4.26286 4.10576
# Velocity P-wave (km/s) = 6.54396 7.18990 6.87452
#
# Compressibility (1/GPa) = 0.01610251
#
# Stress axis : x y z
#
# Youngs Moduli (GPa) = 71.10835 147.29399 207.92210
#
# Poissons Ratio (x) = 0.37294 0.21143
# Poissons Ratio (y) = 0.18004 0.25590
# Poissons Ratio (z) = 0.07231 0.18128
#
# Static dielectric constant tensor:
#      x y z
#    x 2.163520 0.000000 0.000000 
#    y 0.000000 2.179780 0.000000 
#    z 0.000000 0.000000 2.271040 
# 
# From -- ./inp_files/14619.got.cif
#   From: 2010.05.17/outbox.cif.g08.bks.cpg/sg57_8_cif.got.tgz:14619.got - 2010.06.03 13:58:18.
