data_PCOD9439811
_publ_section_title
;
Structure prediction by ZEFSAII (Michael W. Deem and Ramdas Pophale) SiO2 
 PCOD9439811
Probable space group: P B C M
;
_chemical_formula_sum "Si O2"
_cell_formula_units_Z 44
_cell_length_a 5.604812
_cell_length_b 14.749542
_cell_length_c 23.235866
_cell_angle_alpha 90.000000
_cell_angle_beta 90.000000
_cell_angle_gamma 90.000000
_cell_volume 1920.872097
_symmetry_space_group_name_H-M "P B C M"
_symmetry_group_IT_number 57
_symmetry_cell_setting 'orthorhombic'
loop_
_space_group_symop_operation_xyz
x,y,z
-x,-y,1/2+z
x,1/2-y,-z
-x,1/2+y,1/2-z
-x,-y,-z
x,y,1/2-z
-x,1/2+y,z
x,1/2-y,1/2+z
loop_
_atom_site_type_symbol
_atom_site_label
_atom_site_fract_x
_atom_site_fract_y
_atom_site_fract_z
Si Si1 0.739394 0.871446 0.750000
Si Si2 0.893812 0.210703 0.750000
Si Si3 0.738845 0.255260 0.372920
Si Si4 0.423841 0.936559 0.853827
Si Si5 0.478394 0.593603 0.558149
Si Si6 0.140840 0.020748 0.750000
Si Si7 0.980597 0.656880 0.535187
O O1 0.599506 0.884300 0.809817
O O2 0.925745 0.951826 0.750000
O O3 0.896360 0.783028 0.750000
O O4 0.735904 0.224665 0.694051
O O5 0.024063 0.116809 0.750000
O O6 0.534910 0.311971 0.405350
O O7 0.970645 0.305729 0.399781
O O8 0.725719 0.147024 0.381102
O O9 0.528392 0.004856 0.901343
O O10 0.283912 0.999551 0.808274
O O11 0.229085 0.602776 0.523163
O O12 0.736564 0.601472 0.528392
O O13 0.973384 0.750000 0.500000
#
# Coordination Sequence:
#
# PCOD9439811 Si02
#       7
#     4   4   8   8   8   4   8
#     4  11  24  37  60  92 146 176 221 274 318 413
#     4  12  21  40  65  96 133 180 214 266 348 392
#     4  10  24  40  65  97 135 176 216 281 327 409
#     4  11  23  40  58 100 130 176 229 269 335 392
#     4  10  24  41  70  96 128 178 214 282 331 396
#     4  11  23  37  59  86 137 178 219 270 314 415
#     4  10  23  47  70  98 132 179 225 281 341 393
#
# _framework density 22.906262999999999
#
# number of rings (size 3 to 8) (size 9 to 14) (size 15 to 20)
#    1.091    0.364    1.818    3.273    7.636    0.727 
#    0.000    1.818    0.000    0.000    0.000    0.000 
#    0.000    0.000    0.000    0.000    0.000    0.000 
#
# Total GULP energy -245467.026395 kJ/mol
# GULP energy per Si atom -5578.796054 kJ/mol
# Density = 2.285413 g / cm^3
# Si number density = 22.906263 Si / 1000 Ang^3
#
#
#
# Elastic Constant Matrix: (Units=GPa)
#
#
# Indices 1 2 3 4 5 6 
#
# 1 119.9980 17.4252 8.1786 0.0000 0.0000 0.0000
# 2 17.4252 139.5628 8.8821 0.0000 0.0000 0.0000
# 3 8.1786 8.8821 57.1107 0.0000 0.0000 0.0000
# 4 0.0000 0.0000 0.0000 -173.3164 0.0000 0.0000
# 5 0.0000 0.0000 0.0000 0.0000 -14.9395 0.0000
# 6 0.0000 0.0000 0.0000 0.0000 0.0000 8.9700
#
#
#
# Elastic Compliance Matrix: (Units=1/GPa)
#
#
# Indices 1 2 3 4 5 6 
#
# 1 0.008552 -0.001000 -0.001069 0.000000 0.000000 0.000000
# 2 -0.001000 0.007354 -0.001001 0.000000 0.000000 0.000000
# 3 -0.001069 -0.001001 0.017819 0.000000 0.000000 0.000000
# 4 0.000000 0.000000 0.000000 -0.005770 0.000000 0.000000
# 5 0.000000 0.000000 0.000000 0.000000 -0.066937 0.000000
# 6 0.000000 0.000000 0.000000 0.000000 0.000000 0.111482
#
#
# Mechanical properties :
#
#
# Convention : Reuss Voigt Hill
#
# Bulk Modulus (GPa) = 36.25142 42.84926 39.55034
# Shear Modulus (GPa) = 56.92580 -17.04482 19.94049
#
# Velocity S-wave (km/s) = 4.99055 -2.73080 2.95367
# Velocity P-wave (km/s) = 7.00484 2.96714 5.37921
#
# Compressibility (1/GPa) = 0.02758512
#
# Stress axis : x y z
#
# Youngs Moduli (GPa) = 116.93846 135.98555 56.12119
#
# Poissons Ratio (x) = 0.13594 0.06000
# Poissons Ratio (y) = 0.11690 0.05615
# Poissons Ratio (z) = 0.12503 0.13606
#
# Static dielectric constant tensor:
#      x y z
#    x 1.854400 0.000000 0.000000 
#    y 0.000000 1.784290 0.000000 
#    z 0.000000 0.000000 2.720230 
# 
# From -- ./inp_files/27920.got.cif
#   From: 2010.05.17/outbox.cif.g08.bks.cpg/sg57_14_cif.got.tgz:27920.got - 2010.06.03 13:58:18.
