data_PCOD9439471
_publ_section_title
;
Structure prediction by ZEFSAII (Michael W. Deem and Ramdas Pophale) SiO2 
 PCOD9439471
Probable space group: P B C M
;
_chemical_formula_sum "Si O2"
_cell_formula_units_Z 64
_cell_length_a 10.176408
_cell_length_b 20.653582
_cell_length_c 17.034196
_cell_angle_alpha 90.000000
_cell_angle_beta 90.000000
_cell_angle_gamma 90.000000
_cell_volume 3580.235001
_symmetry_space_group_name_H-M "P B C M"
_symmetry_group_IT_number 57
_symmetry_cell_setting 'orthorhombic'
loop_
_space_group_symop_operation_xyz
x,y,z
-x,-y,1/2+z
x,1/2-y,-z
-x,1/2+y,1/2-z
-x,-y,-z
x,y,1/2-z
-x,1/2+y,z
x,1/2-y,1/2+z
loop_
_atom_site_type_symbol
_atom_site_label
_atom_site_fract_x
_atom_site_fract_y
_atom_site_fract_z
Si Si1 0.976987 0.604962 0.841063
Si Si2 0.676339 0.907508 0.344055
Si Si3 0.869980 0.309793 0.560027
Si Si4 0.090583 0.253681 0.841286
Si Si5 0.392910 0.973426 0.940000
Si Si6 0.116081 0.949439 0.020698
Si Si7 0.609420 0.338900 0.846076
Si Si8 0.391355 0.232112 0.845092
O O1 0.984245 0.587379 0.750000
O O2 0.828819 0.590477 0.870766
O O3 0.977376 0.682868 0.846932
O O4 0.088485 0.567851 0.888581
O O5 0.681579 0.903075 0.250000
O O6 0.600622 0.842783 0.372550
O O7 0.613743 0.973182 0.372053
O O8 0.847252 0.250000 0.500000
O O9 0.889970 0.378259 0.517895
O O10 0.750656 0.314575 0.622226
O O11 0.004761 0.298639 0.605408
O O12 0.088325 0.272348 0.750000
O O13 0.242392 0.251379 0.866549
O O14 0.415799 0.904606 0.896367
O O15 0.256555 0.973178 0.989410
O O16 0.500000 0.000000 0.000000
O O17 0.000000 0.000000 0.000000
O O18 0.609233 0.348157 0.750000
O O19 0.501145 0.284063 0.867725
O O20 0.395815 0.230630 0.750000
#
# Coordination Sequence:
#
# PCOD9439471 Si02
#       8
#     8   8   8   8   8   8   8   8
#     4   9  17  34  61  86 111 148 194 240 286 342
#     4   9  17  35  61  84 107 150 201 236 283 356
#     4  11  22  35  56  86 122 153 191 238 302 358
#     4   9  17  34  59  86 112 145 189 239 288 343
#     4  11  24  38  57  83 120 158 192 241 300 354
#     4  11  22  39  57  84 120 152 193 246 293 346
#     4  10  22  41  60  83 117 160 199 244 295 355
#     4   8  17  34  59  85 107 140 195 244 279 332
#
# _framework density 17.875921999999999
#
# number of rings (size 3 to 8) (size 9 to 14) (size 15 to 20)
#    0.000    2.250    2.500    2.250    0.000    3.000 
#    0.000    2.500    0.000    0.000    0.000    0.000 
#    0.000    0.000    0.000    0.000    0.000    0.000 
#
# Total GULP energy -356279.312239 kJ/mol
# GULP energy per Si atom -5566.864254 kJ/mol
# Density = 1.783524 g / cm^3
# Si number density = 17.875922 Si / 1000 Ang^3
#
#
#
# Elastic Constant Matrix: (Units=GPa)
#
#
# Indices 1 2 3 4 5 6 
#
# 1 59.9871 53.5984 22.6457 0.0000 0.0000 0.0000
# 2 53.5984 103.0974 27.2833 0.0000 0.0000 0.0000
# 3 22.6457 27.2833 44.9156 0.0000 0.0000 0.0000
# 4 0.0000 0.0000 0.0000 13.9380 0.0000 0.0000
# 5 0.0000 0.0000 0.0000 0.0000 26.4544 0.0000
# 6 0.0000 0.0000 0.0000 0.0000 0.0000 28.8408
#
#
#
# Elastic Compliance Matrix: (Units=1/GPa)
#
#
# Indices 1 2 3 4 5 6 
#
# 1 0.033087 -0.015236 -0.007427 0.000000 0.000000 0.000000
# 2 -0.015236 0.018573 -0.003600 0.000000 0.000000 0.000000
# 3 -0.007427 -0.003600 0.028196 0.000000 0.000000 0.000000
# 4 0.000000 0.000000 0.000000 0.071746 0.000000 0.000000
# 5 0.000000 0.000000 0.000000 0.000000 0.037801 0.000000
# 6 0.000000 0.000000 0.000000 0.000000 0.000000 0.034673
#
#
# Mechanical properties :
#
#
# Convention : Reuss Voigt Hill
#
# Bulk Modulus (GPa) = 36.59092 46.11722 41.35407
# Shear Modulus (GPa) = 17.50005 20.81149 19.15577
#
# Velocity S-wave (km/s) = 3.13225 3.41577 3.27708
# Velocity P-wave (km/s) = 5.79613 6.43515 6.12398
#
# Compressibility (1/GPa) = 0.02732918
#
# Stress axis : x y z
#
# Youngs Moduli (GPa) = 30.22291 53.84089 35.46647
#
# Poissons Ratio (x) = 0.82032 0.26342
# Poissons Ratio (y) = 0.46048 0.12769
# Poissons Ratio (z) = 0.22447 0.19384
#
# Static dielectric constant tensor:
#      x y z
#    x 1.337030 0.000000 0.000000 
#    y 0.000000 1.550470 0.000000 
#    z 0.000000 0.000000 1.674580 
# 
# From -- ./inp_files/21447.got.cif
#   From: 2010.05.17/outbox.cif.g08.bks.cpg/sg57_11_cif.got.tgz:21447.got - 2010.06.03 13:58:18.
