data_PCOD9439854
_publ_section_title
;
Structure prediction by ZEFSAII (Michael W. Deem and Ramdas Pophale) SiO2 
 PCOD9439854
Probable space group: P B C M
;
_chemical_formula_sum "Si O2"
_cell_formula_units_Z 36
_cell_length_a 20.591402
_cell_length_b 8.337422
_cell_length_c 9.988653
_cell_angle_alpha 90.000000
_cell_angle_beta 90.000000
_cell_angle_gamma 90.000000
_cell_volume 1714.844036
_symmetry_space_group_name_H-M "P B C M"
_symmetry_group_IT_number 57
_symmetry_cell_setting 'orthorhombic'
loop_
_space_group_symop_operation_xyz
x,y,z
-x,-y,1/2+z
x,1/2-y,-z
-x,1/2+y,1/2-z
-x,-y,-z
x,y,1/2-z
-x,1/2+y,z
x,1/2-y,1/2+z
loop_
_atom_site_type_symbol
_atom_site_label
_atom_site_fract_x
_atom_site_fract_y
_atom_site_fract_z
Si Si1 0.091552 0.932055 0.250000
Si Si2 0.142698 0.439162 0.022758
Si Si3 0.949513 0.437350 0.750000
Si Si4 0.485638 0.511344 0.750000
Si Si5 0.589949 0.942353 0.487248
Si Si6 0.723246 0.402234 0.596520
O O1 0.069475 0.748490 0.250000
O O2 0.131605 0.972443 0.117778
O O3 0.026309 0.038532 0.250000
O O4 0.145022 0.250000 0.000000
O O5 0.083354 0.482362 0.120593
O O6 0.209591 0.501430 0.085138
O O7 0.542295 0.502023 0.632060
O O8 0.430959 0.515906 0.870416
O O9 0.582074 0.750000 0.500000
O O10 0.662610 0.989376 0.448639
O O11 0.726167 0.250000 0.500000
O O12 0.713716 0.352008 0.750000
#
# Coordination Sequence:
#
# PCOD9439854 Si02
#       6
#     4   8   4   4   8   8
#     4  12  26  43  75 104 146 186 234 291 354 414
#     4  12  26  47  73 103 140 187 237 292 351 419
#     4  12  24  47  69 108 144 186 234 289 350 424
#     4  10  24  42  68 106 136 176 224 286 344 410
#     4  11  24  46  72 101 138 182 232 286 348 417
#     4  12  28  48  71 103 141 183 234 290 353 421
#
# _framework density 20.993162000000002
#
# number of rings (size 3 to 8) (size 9 to 14) (size 15 to 20)
#    0.000    0.444    2.222    6.000    3.111    5.333 
#    0.000    0.000    0.000    0.000    0.000    0.000 
#    0.000    0.000    0.000    0.000    0.000    0.000 
#
# Total GULP energy -200552.673083 kJ/mol
# GULP energy per Si atom -5570.907586 kJ/mol
# Density = 2.094538 g / cm^3
# Si number density = 20.993162 Si / 1000 Ang^3
#
#
#
# Elastic Constant Matrix: (Units=GPa)
#
#
# Indices 1 2 3 4 5 6 
#
# 1 97.3037 -8.8367 30.9706 0.0000 0.0000 0.0000
# 2 -8.8367 74.9454 22.7500 0.0000 0.0000 0.0000
# 3 30.9706 22.7500 208.2638 0.0000 0.0000 0.0000
# 4 0.0000 0.0000 0.0000 1.3343 0.0000 0.0000
# 5 0.0000 0.0000 0.0000 0.0000 47.5186 0.0000
# 6 0.0000 0.0000 0.0000 0.0000 0.0000 -12.0502
#
#
#
# Elastic Compliance Matrix: (Units=1/GPa)
#
#
# Indices 1 2 3 4 5 6 
#
# 1 0.011033 0.001861 -0.001844 0.000000 0.000000 0.000000
# 2 0.001861 0.014114 -0.001818 0.000000 0.000000 0.000000
# 3 -0.001844 -0.001818 0.005274 0.000000 0.000000 0.000000
# 4 0.000000 0.000000 0.000000 0.749485 0.000000 0.000000
# 5 0.000000 0.000000 0.000000 0.000000 0.021044 0.000000
# 6 0.000000 0.000000 0.000000 0.000000 0.000000 -0.082986
#
#
# Mechanical properties :
#
#
# Convention : Reuss Voigt Hill
#
# Bulk Modulus (GPa) = 37.28807 52.25339 44.77073
# Shear Modulus (GPa) = 6.84455 29.73581 18.29018
#
# Velocity S-wave (km/s) = 1.80761 3.76766 2.95489
# Velocity P-wave (km/s) = 4.70714 6.62357 5.74582
#
# Compressibility (1/GPa) = 0.02681823
#
# Stress axis : x y z
#
# Youngs Moduli (GPa) = 90.63739 70.84943 189.59292
#
# Poissons Ratio (x) = -0.13182 0.34960
# Poissons Ratio (y) = -0.16864 0.34477
# Poissons Ratio (z) = 0.16713 0.12884
#
# Static dielectric constant tensor:
#      x y z
#    x 1.719100 0.000000 0.000000 
#    y 0.000000 1.763660 0.000000 
#    z 0.000000 0.000000 1.724210 
# 
# From -- ./inp_files/7700.got.cif
#   From: 2010.05.17/outbox.cif.g08.bks.cpg/sg57_4_cif.got.tgz:7700.got - 2010.06.03 13:58:18.
