data_PCOD9439829
_publ_section_title
;
Structure prediction by ZEFSAII (Michael W. Deem and Ramdas Pophale) SiO2 
 PCOD9439829
Probable space group: P B C M
;
_chemical_formula_sum "Si O2"
_cell_formula_units_Z 36
_cell_length_a 21.612231
_cell_length_b 9.079877
_cell_length_c 9.092404
_cell_angle_alpha 90.000000
_cell_angle_beta 90.000000
_cell_angle_gamma 90.000000
_cell_volume 1784.260621
_symmetry_space_group_name_H-M "P B C M"
_symmetry_group_IT_number 57
_symmetry_cell_setting 'orthorhombic'
loop_
_space_group_symop_operation_xyz
x,y,z
-x,-y,1/2+z
x,1/2-y,-z
-x,1/2+y,1/2-z
-x,-y,-z
x,y,1/2-z
-x,1/2+y,z
x,1/2-y,1/2+z
loop_
_atom_site_type_symbol
_atom_site_label
_atom_site_fract_x
_atom_site_fract_y
_atom_site_fract_z
Si Si1 0.557783 0.587210 0.929677
Si Si2 0.328563 0.911282 0.428029
Si Si3 0.999530 0.250000 0.000000
Si Si4 0.796195 0.592270 0.421971
Si Si5 0.910018 0.500944 0.904936
O O1 0.555467 0.590496 0.750000
O O2 0.557233 0.750000 0.000000
O O3 0.500000 0.500000 0.000000
O O4 0.618656 0.504869 0.989940
O O5 0.328020 0.750000 0.500000
O O6 0.339172 0.904883 0.250000
O O7 0.263111 0.991773 0.454369
O O8 0.045143 0.357937 0.087134
O O9 0.954178 0.139675 0.084390
O O10 0.792870 0.750000 0.500000
O O11 0.797525 0.620165 0.250000
O O12 0.859470 0.512331 0.469052
O O13 0.875658 0.500822 0.750000
#
# Coordination Sequence:
#
# PCOD9439829 Si02
#       5
#     8   8   4   8   8
#     4  12  25  44  71 104 142 184 227 276 327 387
#     4  11  25  45  68  99 135 176 222 275 329 392
#     4  10  24  40  62  96 124 162 208 266 324 394
#     4  11  25  43  65  93 127 168 217 268 328 392
#     4  11  23  41  65  91 125 165 211 265 325 392
#
# _framework density 20.176424999999998
#
# number of rings (size 3 to 8) (size 9 to 14) (size 15 to 20)
#    0.000    0.889    1.111    5.333    1.556    9.778 
#    0.000    0.000    0.000    0.000    0.000    0.000 
#    0.000    0.000    0.000    0.000    0.000    0.000 
#
# Total GULP energy -201216.095879 kJ/mol
# GULP energy per Si atom -5589.335997 kJ/mol
# Density = 2.013050 g / cm^3
# Si number density = 20.176425 Si / 1000 Ang^3
#
#
#
# Elastic Constant Matrix: (Units=GPa)
#
#
# Indices 1 2 3 4 5 6 
#
# 1 150.5639 69.8360 75.0370 0.0000 0.0000 0.0000
# 2 69.8360 111.2462 62.1059 0.0000 0.0000 0.0000
# 3 75.0370 62.1059 127.3741 0.0000 0.0000 0.0000
# 4 0.0000 0.0000 0.0000 6.9056 0.0000 0.0000
# 5 0.0000 0.0000 0.0000 0.0000 17.6107 0.0000
# 6 0.0000 0.0000 0.0000 0.0000 0.0000 26.4368
#
#
#
# Elastic Compliance Matrix: (Units=1/GPa)
#
#
# Indices 1 2 3 4 5 6 
#
# 1 0.010787 -0.004430 -0.004195 0.000000 0.000000 0.000000
# 2 -0.004430 0.014170 -0.004300 0.000000 0.000000 0.000000
# 3 -0.004195 -0.004300 0.012418 0.000000 0.000000 0.000000
# 4 0.000000 0.000000 0.000000 0.144809 0.000000 0.000000
# 5 0.000000 0.000000 0.000000 0.000000 0.056784 0.000000
# 6 0.000000 0.000000 0.000000 0.000000 0.000000 0.037826
#
#
# Mechanical properties :
#
#
# Convention : Reuss Voigt Hill
#
# Bulk Modulus (GPa) = 86.75001 89.23801 87.99401
# Shear Modulus (GPa) = 16.31398 22.33763 19.32581
#
# Velocity S-wave (km/s) = 2.84662 3.33094 3.09826
# Velocity P-wave (km/s) = 7.34121 7.68885 7.51704
#
# Compressibility (1/GPa) = 0.01152738
#
# Stress axis : x y z
#
# Youngs Moduli (GPa) = 92.70489 70.57020 80.52515
#
# Poissons Ratio (x) = 0.31261 0.33778
# Poissons Ratio (y) = 0.41066 0.34623
# Poissons Ratio (z) = 0.38887 0.30343
#
# Static dielectric constant tensor:
#      x y z
#    x 1.679280 0.000000 0.000000 
#    y 0.000000 1.691710 0.000000 
#    z 0.000000 0.000000 1.725230 
# 
# From -- ./inp_files/7624.got.cif
#   From: 2010.05.17/outbox.cif.g08.bks.cpg/sg57_4_cif.got.tgz:7624.got - 2010.06.03 13:58:18.
