data_PCOD9439674
_publ_section_title
;
Structure prediction by ZEFSAII (Michael W. Deem and Ramdas Pophale) SiO2 
 PCOD9439674
Probable space group: P B C M
;
_chemical_formula_sum "Si O2"
_cell_formula_units_Z 40
_cell_length_a 26.336160
_cell_length_b 9.123899
_cell_length_c 8.706675
_cell_angle_alpha 90.000000
_cell_angle_beta 90.000000
_cell_angle_gamma 90.000000
_cell_volume 2092.113561
_symmetry_space_group_name_H-M "P B C M"
_symmetry_group_IT_number 57
_symmetry_cell_setting 'orthorhombic'
loop_
_space_group_symop_operation_xyz
x,y,z
-x,-y,1/2+z
x,1/2-y,-z
-x,1/2+y,1/2-z
-x,-y,-z
x,y,1/2-z
-x,1/2+y,z
x,1/2-y,1/2+z
loop_
_atom_site_type_symbol
_atom_site_label
_atom_site_fract_x
_atom_site_fract_y
_atom_site_fract_z
Si Si1 0.752173 0.913866 0.934822
Si Si2 0.650393 0.086588 0.565066
Si Si3 0.151287 0.913688 0.565623
Si Si4 0.548380 0.913937 0.934979
Si Si5 0.951854 0.913578 0.434099
O O1 0.754103 0.908881 0.750000
O O2 0.700803 0.998504 0.982151
O O3 0.751966 0.750000 0.000000
O O4 0.800630 0.001133 0.997461
O O5 0.650431 0.250000 0.500000
O O6 0.650580 0.095136 0.750000
O O7 0.599760 0.999105 0.518935
O O8 0.149376 0.750000 0.500000
O O9 0.155459 0.908349 0.750000
O O10 0.099746 0.000278 0.525409
O O11 0.545837 0.909611 0.750000
O O12 0.549138 0.750000 0.000000
O O13 0.500000 0.000000 0.000000
O O14 0.950388 0.750000 0.500000
O O15 0.955620 0.907327 0.250000
O O16 0.000000 0.000000 0.500000
#
# Coordination Sequence:
#
# PCOD9439674 Si02
#       5
#     8   8   8   8   8
#     4  11  23  40  62  89 120 157 199 245 296 352
#     4  10  23  40  60  87 119 155 197 244 295 350
#     4  11  24  41  62  90 122 158 198 245 296 351
#     4  11  23  40  61  88 120 156 198 245 296 352
#     4  11  24  41  63  90 122 158 199 245 296 351
#
# _framework density 19.119420000000002
#
# number of rings (size 3 to 8) (size 9 to 14) (size 15 to 20)
#    0.000    1.200    0.000    5.400    0.000   12.800 
#    0.000    0.000    0.000    0.000    0.000    0.000 
#    0.000    0.000    0.000    0.000    0.000    0.000 
#
# Total GULP energy -223845.285470 kJ/mol
# GULP energy per Si atom -5596.132137 kJ/mol
# Density = 1.907590 g / cm^3
# Si number density = 19.119420 Si / 1000 Ang^3
#
#
#
# Elastic Constant Matrix: (Units=GPa)
#
#
# Indices 1 2 3 4 5 6 
#
# 1 240.5135 148.6916 77.3972 0.0000 0.0000 0.0000
# 2 148.6916 246.1545 68.5551 0.0000 0.0000 0.0000
# 3 77.3972 68.5551 59.0639 0.0000 0.0000 0.0000
# 4 0.0000 0.0000 0.0000 44.6642 0.0000 0.0000
# 5 0.0000 0.0000 0.0000 0.0000 32.1599 0.0000
# 6 0.0000 0.0000 0.0000 0.0000 0.0000 43.9519
#
#
#
# Elastic Compliance Matrix: (Units=1/GPa)
#
#
# Indices 1 2 3 4 5 6 
#
# 1 0.008453 -0.002987 -0.007611 0.000000 0.000000 0.000000
# 2 -0.002987 0.007058 -0.004279 0.000000 0.000000 0.000000
# 3 -0.007611 -0.004279 0.031870 0.000000 0.000000 0.000000
# 4 0.000000 0.000000 0.000000 0.022389 0.000000 0.000000
# 5 0.000000 0.000000 0.000000 0.000000 0.031095 0.000000
# 6 0.000000 0.000000 0.000000 0.000000 0.000000 0.022752
#
#
# Mechanical properties :
#
#
# Convention : Reuss Voigt Hill
#
# Bulk Modulus (GPa) = 56.72280 126.11332 91.41806
# Shear Modulus (GPa) = 31.39795 40.89439 36.14617
#
# Velocity S-wave (km/s) = 4.05681 4.62983 4.35276
# Velocity P-wave (km/s) = 7.18857 9.73060 8.55453
#
# Compressibility (1/GPa) = 0.01762959
#
# Stress axis : x y z
#
# Youngs Moduli (GPa) = 118.29688 141.67746 31.37753
#
# Poissons Ratio (x) = 0.42315 0.23880
# Poissons Ratio (y) = 0.35332 0.13426
# Poissons Ratio (z) = 0.90030 0.60620
#
# Static dielectric constant tensor:
#      x y z
#    x 1.641940 0.000000 0.000000 
#    y 0.000000 1.607160 0.000000 
#    z 0.000000 0.000000 1.646060 
# 
# From -- ./inp_files/8893.got.cif
#   From: 2010.05.17/outbox.cif.g08.bks.cpg/sg57_5_cif.got.tgz:8893.got - 2010.06.03 13:58:18.
