data_PCOD9439106
_publ_section_title
;
Structure prediction by ZEFSAII (Michael W. Deem and Ramdas Pophale) SiO2 
 PCOD9439106
Probable space group: P B C M
;
_chemical_formula_sum "Si O2"
_cell_formula_units_Z 48
_cell_length_a 14.666247
_cell_length_b 8.402515
_cell_length_c 18.033435
_cell_angle_alpha 90.000000
_cell_angle_beta 90.000000
_cell_angle_gamma 90.000000
_cell_volume 2222.320795
_symmetry_space_group_name_H-M "P B C M"
_symmetry_group_IT_number 57
_symmetry_cell_setting 'orthorhombic'
loop_
_space_group_symop_operation_xyz
x,y,z
-x,-y,1/2+z
x,1/2-y,-z
-x,1/2+y,1/2-z
-x,-y,-z
x,y,1/2-z
-x,1/2+y,z
x,1/2-y,1/2+z
loop_
_atom_site_type_symbol
_atom_site_label
_atom_site_fract_x
_atom_site_fract_y
_atom_site_fract_z
Si Si1 0.445406 0.515509 0.162498
Si Si2 0.040059 0.835784 0.078597
Si Si3 0.780496 0.531173 0.067259
Si Si4 0.632793 0.368810 0.337441
Si Si5 0.271444 0.115267 0.599442
Si Si6 0.894158 0.467292 0.835052
O O1 0.438768 0.476661 0.250000
O O2 0.409496 0.694034 0.151399
O O3 0.550746 0.489919 0.142886
O O4 0.377154 0.401297 0.118534
O O5 0.081585 0.705789 0.134265
O O6 0.115484 0.973595 0.068934
O O7 0.024772 0.750000 0.000000
O O8 0.949832 0.910301 0.113407
O O9 0.718544 0.405654 0.111325
O O10 0.763278 0.703756 0.103064
O O11 0.748800 0.548868 0.982473
O O12 0.655805 0.386231 0.250000
O O13 0.211876 0.008638 0.655224
O O14 0.922049 0.483790 0.750000
#
# Coordination Sequence:
#
# PCOD9439106 Si02
#       6
#     8   8   8   8   8   8
#     4  10  21  40  64  92 128 171 214 270 335 388
#     4  12  25  45  70  95 132 178 214 272 330 399
#     4  11  25  41  64  95 126 173 220 264 331 394
#     4  10  22  39  64  94 128 170 220 271 328 395
#     4  11  24  42  64  93 132 169 218 271 328 395
#     4  12  26  43  68 100 131 170 222 274 328 392
#
# _framework density 21.599042000000001
#
# number of rings (size 3 to 8) (size 9 to 14) (size 15 to 20)
#    0.000    1.000    1.667    4.500    2.333    6.000 
#    0.000    0.000    0.000    0.000    0.000    0.000 
#    0.000    0.000    0.000    0.000    0.000    0.000 
#
# Total GULP energy -268810.931719 kJ/mol
# GULP energy per Si atom -5600.227744 kJ/mol
# Density = 2.154988 g / cm^3
# Si number density = 21.599042 Si / 1000 Ang^3
#
#
#
# Elastic Constant Matrix: (Units=GPa)
#
#
# Indices 1 2 3 4 5 6 
#
# 1 67.7907 1.4183 18.7045 0.0000 0.0000 0.0000
# 2 1.4183 61.1412 23.7493 0.0000 0.0000 0.0000
# 3 18.7045 23.7493 56.9461 0.0000 0.0000 0.0000
# 4 0.0000 0.0000 0.0000 22.0924 0.0000 0.0000
# 5 0.0000 0.0000 0.0000 0.0000 27.5301 0.0000
# 6 0.0000 0.0000 0.0000 0.0000 0.0000 39.4917
#
#
#
# Elastic Compliance Matrix: (Units=1/GPa)
#
#
# Indices 1 2 3 4 5 6 
#
# 1 0.016433 0.002047 -0.006251 0.000000 0.000000 0.000000
# 2 0.002047 0.019772 -0.008918 0.000000 0.000000 0.000000
# 3 -0.006251 -0.008918 0.023333 0.000000 0.000000 0.000000
# 4 0.000000 0.000000 0.000000 0.045264 0.000000 0.000000
# 5 0.000000 0.000000 0.000000 0.000000 0.036324 0.000000
# 6 0.000000 0.000000 0.000000 0.000000 0.000000 0.025322
#
#
# Mechanical properties :
#
#
# Convention : Reuss Voigt Hill
#
# Bulk Modulus (GPa) = 30.03605 30.40248 30.21926
# Shear Modulus (GPa) = 24.53482 27.28992 25.91237
#
# Velocity S-wave (km/s) = 3.37400 3.55840 3.46743
# Velocity P-wave (km/s) = 5.39582 5.56681 5.48198
#
# Compressibility (1/GPa) = 0.03329332
#
# Stress axis : x y z
#
# Youngs Moduli (GPa) = 60.85203 50.57586 42.85738
#
# Poissons Ratio (x) = -0.10353 0.26792
# Poissons Ratio (y) = -0.12457 0.38222
# Poissons Ratio (z) = 0.38041 0.45105
#
# Static dielectric constant tensor:
#      x y z
#    x 1.750480 0.000000 0.000000 
#    y 0.000000 1.800900 0.000000 
#    z 0.000000 0.000000 1.744680 
# 
# From -- ./inp_files/22476.got.cif
#   From: 2010.05.17/outbox.cif.g08.bks.cpg/sg57_12_cif.got.tgz:22476.got - 2010.06.03 13:58:18.
