data_PCOD9439211
_publ_section_title
;
Structure prediction by ZEFSAII (Michael W. Deem and Ramdas Pophale) SiO2 
 PCOD9439211
Probable space group: P B C M
;
_chemical_formula_sum "Si O2"
_cell_formula_units_Z 48
_cell_length_a 8.153783
_cell_length_b 34.346062
_cell_length_c 8.576821
_cell_angle_alpha 90.000000
_cell_angle_beta 90.000000
_cell_angle_gamma 90.000000
_cell_volume 2401.941607
_symmetry_space_group_name_H-M "P B C M"
_symmetry_group_IT_number 57
_symmetry_cell_setting 'orthorhombic'
loop_
_space_group_symop_operation_xyz
x,y,z
-x,-y,1/2+z
x,1/2-y,-z
-x,1/2+y,1/2-z
-x,-y,-z
x,y,1/2-z
-x,1/2+y,z
x,1/2-y,1/2+z
loop_
_atom_site_type_symbol
_atom_site_label
_atom_site_fract_x
_atom_site_fract_y
_atom_site_fract_z
Si Si1 0.820290 0.839000 0.565235
Si Si2 0.503062 0.793697 0.062793
Si Si3 0.831584 0.337794 0.438527
Si Si4 0.815736 0.998879 0.937985
Si Si5 0.307842 0.082846 0.936844
Si Si6 0.683141 0.082304 0.938974
O O1 0.814638 0.836443 0.750000
O O2 0.663009 0.816731 0.495993
O O3 0.803539 0.883845 0.510890
O O4 0.995467 0.823616 0.504780
O O5 0.507017 0.794083 0.250000
O O6 0.330779 0.813796 0.014906
O O7 0.508058 0.750000 0.000000
O O8 0.841066 0.337227 0.250000
O O9 0.798461 0.382443 0.490818
O O10 0.812670 0.997468 0.750000
O O11 0.731234 0.039144 0.991223
O O12 0.733170 0.960257 0.005323
O O13 0.000000 0.000000 0.000000
O O14 0.290916 0.084494 0.750000
O O15 0.496077 0.091553 0.980262
O O16 0.690908 0.081772 0.750000
#
# Coordination Sequence:
#
# PCOD9439211 Si02
#       6
#     8   8   8   8   8   8
#     4  12  25  41  65  99 134 171 216 266 320 384
#     4  11  24  45  72  99 131 169 210 262 321 384
#     4  10  21  42  69  95 127 173 219 263 322 386
#     4  11  22  36  55  86 122 163 213 267 322 381
#     4  11  21  39  62  86 121 168 216 267 323 378
#     4   9  19  37  61  86 118 163 213 262 318 377
#
# _framework density 19.983834000000002
#
# number of rings (size 3 to 8) (size 9 to 14) (size 15 to 20)
#    0.000    1.333    1.667    4.500    0.000    3.333 
#    0.000    5.000    0.000    0.000    0.000    0.000 
#    0.000    0.000    0.000    0.000    0.000    0.000 
#
# Total GULP energy -268330.355553 kJ/mol
# GULP energy per Si atom -5590.215741 kJ/mol
# Density = 1.993835 g / cm^3
# Si number density = 19.983834 Si / 1000 Ang^3
#
#
#
# Elastic Constant Matrix: (Units=GPa)
#
#
# Indices 1 2 3 4 5 6 
#
# 1 161.2545 58.6338 44.7863 0.0000 0.0000 0.0000
# 2 58.6338 119.8606 28.6080 0.0000 0.0000 0.0000
# 3 44.7863 28.6080 63.7697 0.0000 0.0000 0.0000
# 4 0.0000 0.0000 0.0000 24.8264 0.0000 0.0000
# 5 0.0000 0.0000 0.0000 0.0000 22.8431 0.0000
# 6 0.0000 0.0000 0.0000 0.0000 0.0000 12.4246
#
#
#
# Elastic Compliance Matrix: (Units=1/GPa)
#
#
# Indices 1 2 3 4 5 6 
#
# 1 0.008627 -0.003107 -0.004665 0.000000 0.000000 0.000000
# 2 -0.003107 0.010462 -0.002512 0.000000 0.000000 0.000000
# 3 -0.004665 -0.002512 0.020084 0.000000 0.000000 0.000000
# 4 0.000000 0.000000 0.000000 0.040280 0.000000 0.000000
# 5 0.000000 0.000000 0.000000 0.000000 0.043777 0.000000
# 6 0.000000 0.000000 0.000000 0.000000 0.000000 0.080486
#
#
# Mechanical properties :
#
#
# Convention : Reuss Voigt Hill
#
# Bulk Modulus (GPa) = 53.74367 67.66011 60.70189
# Shear Modulus (GPa) = 21.69349 26.20928 23.95138
#
# Velocity S-wave (km/s) = 3.29835 3.62543 3.46575
# Velocity P-wave (km/s) = 6.43874 7.17327 6.81591
#
# Compressibility (1/GPa) = 0.01860684
#
# Stress axis : x y z
#
# Youngs Moduli (GPa) = 115.92097 95.58228 49.78984
#
# Poissons Ratio (x) = 0.29693 0.23226
# Poissons Ratio (y) = 0.36012 0.12506
# Poissons Ratio (z) = 0.54076 0.24007
#
# Static dielectric constant tensor:
#      x y z
#    x 1.696640 0.000000 0.000000 
#    y 0.000000 1.704980 0.000000 
#    z 0.000000 0.000000 1.673460 
# 
# From -- ./inp_files/2116.got.cif
#   From: 2010.05.17/outbox.cif.g08.bks.cpg/sg57_2_cif.got.tgz:2116.got - 2010.06.03 13:58:18.
