data_PCOD9439828
_publ_section_title
;
Structure prediction by ZEFSAII (Michael W. Deem and Ramdas Pophale) SiO2 
 PCOD9439828
Probable space group: P B C M
;
_chemical_formula_sum "Si O2"
_cell_formula_units_Z 36
_cell_length_a 21.565217
_cell_length_b 9.026019
_cell_length_c 9.426894
_cell_angle_alpha 90.000000
_cell_angle_beta 90.000000
_cell_angle_gamma 90.000000
_cell_volume 1834.926614
_symmetry_space_group_name_H-M "P B C M"
_symmetry_group_IT_number 57
_symmetry_cell_setting 'orthorhombic'
loop_
_space_group_symop_operation_xyz
x,y,z
-x,-y,1/2+z
x,1/2-y,-z
-x,1/2+y,1/2-z
-x,-y,-z
x,y,1/2-z
-x,1/2+y,z
x,1/2-y,1/2+z
loop_
_atom_site_type_symbol
_atom_site_label
_atom_site_fract_x
_atom_site_fract_y
_atom_site_fract_z
Si Si1 0.200240 0.906505 0.919080
Si Si2 0.321638 0.096628 0.917085
Si Si3 0.910579 0.999914 0.598176
Si Si4 0.446684 0.592786 0.079396
Si Si5 0.000153 0.750000 0.500000
O O1 0.198569 0.883799 0.750000
O O2 0.260703 0.002669 0.956193
O O3 0.201733 0.750000 0.000000
O O4 0.138806 0.990517 0.972631
O O5 0.317230 0.130017 0.750000
O O6 0.382456 0.996329 0.938286
O O7 0.325877 0.250000 0.000000
O O8 0.877688 0.999021 0.750000
O O9 0.954723 0.143272 0.587906
O O10 0.955344 0.859474 0.585058
O O11 0.458378 0.608983 0.250000
O O12 0.442467 0.750000 0.000000
O O13 0.500000 0.500000 0.000000
#
# Coordination Sequence:
#
# PCOD9439828 Si02
#       5
#     8   8   8   8   4
#     4  11  24  42  63  90 122 161 208 257 312 375
#     4  10  24  43  64  93 128 167 211 260 313 372
#     4  11  23  41  64  90 121 161 203 254 311 372
#     4  11  23  41  66  98 135 174 218 263 315 370
#     4  10  24  40  62  92 124 154 204 250 312 374
#
# _framework density 19.619312000000001
#
# number of rings (size 3 to 8) (size 9 to 14) (size 15 to 20)
#    0.000    1.333    1.111    3.333    1.556    9.778 
#    0.000    0.000    0.000    0.000    0.000    0.000 
#    0.000    0.000    0.000    0.000    0.000    0.000 
#
# Total GULP energy -201202.464028 kJ/mol
# GULP energy per Si atom -5588.957334 kJ/mol
# Density = 1.957466 g / cm^3
# Si number density = 19.619312 Si / 1000 Ang^3
#
#
#
# Elastic Constant Matrix: (Units=GPa)
#
#
# Indices 1 2 3 4 5 6 
#
# 1 129.2428 51.9873 55.2383 0.0000 0.0000 0.0000
# 2 51.9873 94.8290 50.2258 0.0000 0.0000 0.0000
# 3 55.2383 50.2258 105.5200 0.0000 0.0000 0.0000
# 4 0.0000 0.0000 0.0000 23.7759 0.0000 0.0000
# 5 0.0000 0.0000 0.0000 0.0000 23.6013 0.0000
# 6 0.0000 0.0000 0.0000 0.0000 0.0000 26.6946
#
#
#
# Elastic Compliance Matrix: (Units=1/GPa)
#
#
# Indices 1 2 3 4 5 6 
#
# 1 0.010987 -0.003980 -0.003857 0.000000 0.000000 0.000000
# 2 -0.003980 0.015542 -0.005314 0.000000 0.000000 0.000000
# 3 -0.003857 -0.005314 0.014025 0.000000 0.000000 0.000000
# 4 0.000000 0.000000 0.000000 0.042059 0.000000 0.000000
# 5 0.000000 0.000000 0.000000 0.000000 0.042371 0.000000
# 6 0.000000 0.000000 0.000000 0.000000 0.000000 0.037461
#
#
# Mechanical properties :
#
#
# Convention : Reuss Voigt Hill
#
# Bulk Modulus (GPa) = 70.16807 71.61049 70.88928
# Shear Modulus (GPa) = 25.84003 26.29039 26.06521
#
# Velocity S-wave (km/s) = 3.63308 3.66461 3.64888
# Velocity P-wave (km/s) = 7.31037 7.38140 7.34597
#
# Compressibility (1/GPa) = 0.01425150
#
# Stress axis : x y z
#
# Youngs Moduli (GPa) = 91.01728 64.34165 71.29984
#
# Poissons Ratio (x) = 0.25611 0.27499
# Poissons Ratio (y) = 0.36229 0.37889
# Poissons Ratio (z) = 0.35104 0.34191
#
# Static dielectric constant tensor:
#      x y z
#    x 1.666960 0.000000 0.000000 
#    y 0.000000 1.661870 0.000000 
#    z 0.000000 0.000000 1.679290 
# 
# From -- ./inp_files/7613.got.cif
#   From: 2010.05.17/outbox.cif.g08.bks.cpg/sg57_4_cif.got.tgz:7613.got - 2010.06.03 13:58:18.
