data_PCOD9439332
_publ_section_title
;
Structure prediction by ZEFSAII (Michael W. Deem and Ramdas Pophale) SiO2 
 PCOD9439332
Probable space group: P B C M
;
_chemical_formula_sum "Si O2"
_cell_formula_units_Z 56
_cell_length_a 11.342221
_cell_length_b 14.678107
_cell_length_c 14.620133
_cell_angle_alpha 90.000000
_cell_angle_beta 90.000000
_cell_angle_gamma 90.000000
_cell_volume 2433.993857
_symmetry_space_group_name_H-M "P B C M"
_symmetry_group_IT_number 57
_symmetry_cell_setting 'orthorhombic'
loop_
_space_group_symop_operation_xyz
x,y,z
-x,-y,1/2+z
x,1/2-y,-z
-x,1/2+y,1/2-z
-x,-y,-z
x,y,1/2-z
-x,1/2+y,z
x,1/2-y,1/2+z
loop_
_atom_site_type_symbol
_atom_site_label
_atom_site_fract_x
_atom_site_fract_y
_atom_site_fract_z
Si Si1 0.061491 0.271719 0.893996
Si Si2 0.450959 0.666727 0.590971
Si Si3 0.330980 0.219090 0.144038
Si Si4 0.648351 0.154116 0.113099
Si Si5 0.893130 0.433423 0.931534
Si Si6 0.571401 0.539120 0.151672
Si Si7 0.957575 0.416542 0.143381
O O1 0.192551 0.265771 0.855877
O O2 0.000671 0.370264 0.894781
O O3 0.979804 0.191729 0.854783
O O4 0.073863 0.250000 0.000000
O O5 0.583431 0.706770 0.598423
O O6 0.370818 0.741531 0.644376
O O7 0.400223 0.660670 0.489730
O O8 0.443074 0.562990 0.620569
O O9 0.371104 0.218000 0.250000
O O10 0.355415 0.118580 0.101279
O O11 0.777634 0.114345 0.108028
O O12 0.557779 0.083925 0.157165
O O13 0.921605 0.530835 0.886205
O O14 0.887544 0.434584 0.044604
O O15 0.630995 0.531778 0.250000
O O16 0.923848 0.442727 0.250000
#
# Coordination Sequence:
#
# PCOD9439332 Si02
#       7
#     8   8   8   8   8   8   8
#     4  10  23  40  69  94 128 171 221 271 338 400
#     4  10  22  38  67  90 125 174 219 264 333 393
#     4  10  22  40  62  95 131 166 221 280 328 395
#     4  10  23  41  67  94 132 171 221 271 338 398
#     4  10  24  46  67 101 140 176 223 284 336 417
#     4  10  22  40  62  95 131 167 215 272 332 400
#     4  10  23  43  68 100 132 178 227 271 335 403
#
# _framework density 23.007453999999999
#
# number of rings (size 3 to 8) (size 9 to 14) (size 15 to 20)
#    0.000    2.000    0.000    1.286   12.000    5.714 
#    0.000    2.857    0.000    0.000    0.000    0.000 
#    0.000    0.000    0.000    0.000    0.000    0.000 
#
# Total GULP energy -311955.219893 kJ/mol
# GULP energy per Si atom -5570.628927 kJ/mol
# Density = 2.295509 g / cm^3
# Si number density = 23.007454 Si / 1000 Ang^3
#
#
#
# Elastic Constant Matrix: (Units=GPa)
#
#
# Indices 1 2 3 4 5 6 
#
# 1 43.9621 -30.9029 -11.8425 0.0000 0.0000 0.0000
# 2 -30.9029 111.5309 21.4098 0.0000 0.0000 0.0000
# 3 -11.8425 21.4098 84.6252 0.0000 0.0000 0.0000
# 4 0.0000 0.0000 0.0000 296.3579 0.0000 0.0000
# 5 0.0000 0.0000 0.0000 0.0000 -21.0614 0.0000
# 6 0.0000 0.0000 0.0000 0.0000 0.0000 14.4283
#
#
#
# Elastic Compliance Matrix: (Units=1/GPa)
#
#
# Indices 1 2 3 4 5 6 
#
# 1 0.028599 0.007521 0.002099 0.000000 0.000000 0.000000
# 2 0.007521 0.011402 -0.001832 0.000000 0.000000 0.000000
# 3 0.002099 -0.001832 0.012574 0.000000 0.000000 0.000000
# 4 0.000000 0.000000 0.000000 0.003374 0.000000 0.000000
# 5 0.000000 0.000000 0.000000 0.000000 -0.047480 0.000000
# 6 0.000000 0.000000 0.000000 0.000000 0.000000 0.069308
#
#
# Mechanical properties :
#
#
# Convention : Reuss Voigt Hill
#
# Bulk Modulus (GPa) = 14.67295 21.93855 18.30575
# Shear Modulus (GPa) = 58.88042 75.37521 67.12781
#
# Velocity S-wave (km/s) = 5.06433 5.72995 5.40739
# Velocity P-wave (km/s) = 6.37086 7.30291 6.85275
#
# Compressibility (1/GPa) = 0.06815263
#
# Stress axis : x y z
#
# Youngs Moduli (GPa) = 34.96566 87.70525 79.52855
#
# Poissons Ratio (x) = -0.65966 -0.16696
# Poissons Ratio (y) = -0.26299 0.14570
# Poissons Ratio (z) = -0.07341 0.16068
#
# Static dielectric constant tensor:
#      x y z
#    x 1.852240 0.000000 0.000000 
#    y 0.000000 1.998420 0.000000 
#    z 0.000000 0.000000 1.938190 
# 
# From -- ./inp_files/17748.got.cif
#   From: 2010.05.17/outbox.cif.g08.bks.cpg/sg57_9_cif.got.tgz:17748.got - 2010.06.03 13:58:18.
