data_PCOD9439796
_publ_section_title
;
Structure prediction by ZEFSAII (Michael W. Deem and Ramdas Pophale) SiO2 
 PCOD9439796
Probable space group: P B C M
;
_chemical_formula_sum "Si O2"
_cell_formula_units_Z 44
_cell_length_a 5.036040
_cell_length_b 18.010786
_cell_length_c 20.181969
_cell_angle_alpha 90.000000
_cell_angle_beta 90.000000
_cell_angle_gamma 90.000000
_cell_volume 1830.565916
_symmetry_space_group_name_H-M "P B C M"
_symmetry_group_IT_number 57
_symmetry_cell_setting 'orthorhombic'
loop_
_space_group_symop_operation_xyz
x,y,z
-x,-y,1/2+z
x,1/2-y,-z
-x,1/2+y,1/2-z
-x,-y,-z
x,y,1/2-z
-x,1/2+y,z
x,1/2-y,1/2+z
loop_
_atom_site_type_symbol
_atom_site_label
_atom_site_fract_x
_atom_site_fract_y
_atom_site_fract_z
Si Si1 0.541103 0.033298 0.250000
Si Si2 0.831233 0.851836 0.823240
Si Si3 0.209389 0.588522 0.062990
Si Si4 0.348829 0.439528 0.121924
Si Si5 0.452946 0.274601 0.570256
Si Si6 0.868497 0.143888 0.921820
O O1 0.391441 0.086658 0.306160
O O2 0.662317 0.980066 0.308010
O O3 0.952022 0.834791 0.750000
O O4 0.709028 0.781668 0.861660
O O5 0.043369 0.887057 0.872675
O O6 0.272251 0.502447 0.068478
O O7 0.469473 0.639709 0.060275
O O8 0.073071 0.615837 0.995959
O O9 0.642399 0.409636 0.108337
O O10 0.139795 0.372364 0.116326
O O11 0.325264 0.250000 0.500000
O O12 0.718229 0.223671 0.577536
#
# Coordination Sequence:
#
# PCOD9439796 Si02
#       6
#     4   8   8   8   8   8
#     4  10  24  46  72 102 138 204 244 300 362 464
#     4  10  23  44  78 105 144 195 260 301 362 448
#     4  11  23  42  77 105 141 201 252 301 360 460
#     4  12  25  47  70 106 149 195 247 308 373 446
#     4  10  24  45  71 108 149 196 251 307 377 447
#     4  11  28  43  72 111 154 185 244 320 386 423
#
# _framework density 24.036283999999998
#
# number of rings (size 3 to 8) (size 9 to 14) (size 15 to 20)
#    0.545    0.727    1.818    2.182    8.909    2.182 
#    3.273    0.000    0.000    0.000    0.000    0.000 
#    0.000    0.000    0.000    0.000    0.000    0.000 
#
# Total GULP energy -244968.246768 kJ/mol
# GULP energy per Si atom -5567.460154 kJ/mol
# Density = 2.398158 g / cm^3
# Si number density = 24.036284 Si / 1000 Ang^3
#
#
#
# Elastic Constant Matrix: (Units=GPa)
#
#
# Indices 1 2 3 4 5 6 
#
# 1 31.5093 -8.2780 27.0146 0.0000 0.0000 0.0000
# 2 -8.2780 72.8227 -3.4455 0.0000 0.0000 0.0000
# 3 27.0146 -3.4455 113.2939 0.0000 0.0000 0.0000
# 4 0.0000 0.0000 0.0000 28.5748 0.0000 0.0000
# 5 0.0000 0.0000 0.0000 0.0000 -14.1603 0.0000
# 6 0.0000 0.0000 0.0000 0.0000 0.0000 32.6806
#
#
#
# Elastic Compliance Matrix: (Units=1/GPa)
#
#
# Indices 1 2 3 4 5 6 
#
# 1 0.041147 0.004219 -0.009683 0.000000 0.000000 0.000000
# 2 0.004219 0.014184 -0.000575 0.000000 0.000000 0.000000
# 3 -0.009683 -0.000575 0.011118 0.000000 0.000000 0.000000
# 4 0.000000 0.000000 0.000000 0.034996 0.000000 0.000000
# 5 0.000000 0.000000 0.000000 0.000000 -0.070620 0.000000
# 6 0.000000 0.000000 0.000000 0.000000 0.000000 0.030599
#
#
# Mechanical properties :
#
#
# Convention : Reuss Voigt Hill
#
# Bulk Modulus (GPa) = 18.39174 27.57867 22.98521
# Shear Modulus (GPa) = 54.56998 22.90802 38.73900
#
# Velocity S-wave (km/s) = 4.76995 3.09052 4.01894
# Velocity P-wave (km/s) = 6.16481 4.92278 5.57847
#
# Compressibility (1/GPa) = 0.05437223
#
# Stress axis : x y z
#
# Youngs Moduli (GPa) = 24.30318 70.49992 89.94406
#
# Poissons Ratio (x) = -0.29745 0.87093
# Poissons Ratio (y) = -0.10254 0.05169
# Poissons Ratio (z) = 0.23533 0.04051
#
# Static dielectric constant tensor:
#      x y z
#    x 1.983970 0.000000 0.000000 
#    y 0.000000 1.973250 0.000000 
#    z 0.000000 0.000000 1.945800 
# 
# From -- ./inp_files/23637.got.cif
#   From: 2010.05.17/outbox.cif.g08.bks.cpg/sg57_12_cif.got.tgz:23637.got - 2010.06.03 13:58:18.
