data_PCOD9439340
_publ_section_title
;
Structure prediction by ZEFSAII (Michael W. Deem and Ramdas Pophale) SiO2 
 PCOD9439340
Probable space group: P B C M
;
_chemical_formula_sum "Si O2"
_cell_formula_units_Z 48
_cell_length_a 7.165279
_cell_length_b 13.366282
_cell_length_c 24.319945
_cell_angle_alpha 90.000000
_cell_angle_beta 90.000000
_cell_angle_gamma 90.000000
_cell_volume 2329.197491
_symmetry_space_group_name_H-M "P B C M"
_symmetry_group_IT_number 57
_symmetry_cell_setting 'orthorhombic'
loop_
_space_group_symop_operation_xyz
x,y,z
-x,-y,1/2+z
x,1/2-y,-z
-x,1/2+y,1/2-z
-x,-y,-z
x,y,1/2-z
-x,1/2+y,z
x,1/2-y,1/2+z
loop_
_atom_site_type_symbol
_atom_site_label
_atom_site_fract_x
_atom_site_fract_y
_atom_site_fract_z
Si Si1 0.945180 0.404057 0.556328
Si Si2 0.623234 0.958752 0.103439
Si Si3 0.241994 0.202885 0.810963
Si Si4 0.244301 0.564468 0.944624
Si Si5 0.854722 0.269492 0.140953
Si Si6 0.527590 0.368697 0.687205
O O1 0.809262 0.491136 0.579619
O O2 0.856097 0.383215 0.496588
O O3 0.931275 0.309012 0.595504
O O4 0.148669 0.454838 0.555159
O O5 0.677167 0.863383 0.139692
O O6 0.468647 0.938880 0.056797
O O7 0.538650 0.040308 0.145316
O O8 0.293432 0.164084 0.750000
O O9 0.330444 0.312731 0.815411
O O10 0.020892 0.208175 0.817441
O O11 0.198940 0.629189 0.890472
O O12 0.681092 0.214146 0.169426
O O13 0.563852 0.399990 0.750000
#
# Coordination Sequence:
#
# PCOD9439340 Si02
#       6
#     8   8   8   8   8   8
#     4  10  23  38  61  86 121 155 198 244 290 355
#     4  11  21  39  61  87 118 154 194 248 297 351
#     4  11  22  38  60  87 118 154 198 244 295 356
#     4  11  21  39  61  88 118 157 196 240 299 352
#     4  11  21  39  61  85 119 156 196 243 297 349
#     4  10  22  39  59  84 116 154 196 243 296 352
#
# _framework density 20.607955
#
# number of rings (size 3 to 8) (size 9 to 14) (size 15 to 20)
#    0.000    1.333    3.333    3.000    0.000    0.000 
#    0.000    0.000    0.000    0.000    0.000    0.000 
#    0.000    0.000    0.000    0.000    0.000    0.000 
#
# Total GULP energy -268129.252931 kJ/mol
# GULP energy per Si atom -5586.026103 kJ/mol
# Density = 2.056105 g / cm^3
# Si number density = 20.607955 Si / 1000 Ang^3
#
#
#
# Elastic Constant Matrix: (Units=GPa)
#
#
# Indices 1 2 3 4 5 6 
#
# 1 38.9278 -1.2597 -2.2519 0.0000 0.0000 0.0000
# 2 -1.2597 30.4946 -6.2459 0.0000 0.0000 0.0000
# 3 -2.2519 -6.2459 61.6800 0.0000 0.0000 0.0000
# 4 0.0000 0.0000 0.0000 23.5854 0.0000 0.0000
# 5 0.0000 0.0000 0.0000 0.0000 30.2970 0.0000
# 6 0.0000 0.0000 0.0000 0.0000 0.0000 23.4067
#
#
#
# Elastic Compliance Matrix: (Units=1/GPa)
#
#
# Indices 1 2 3 4 5 6 
#
# 1 0.025792 0.001285 0.001072 0.000000 0.000000 0.000000
# 2 0.001285 0.033551 0.003444 0.000000 0.000000 0.000000
# 3 0.001072 0.003444 0.016601 0.000000 0.000000 0.000000
# 4 0.000000 0.000000 0.000000 0.042399 0.000000 0.000000
# 5 0.000000 0.000000 0.000000 0.000000 0.033007 0.000000
# 6 0.000000 0.000000 0.000000 0.000000 0.000000 0.042723
#
#
# Mechanical properties :
#
#
# Convention : Reuss Voigt Hill
#
# Bulk Modulus (GPa) = 11.42253 12.39861 11.91057
# Shear Modulus (GPa) = 23.62362 24.84846 24.23604
#
# Velocity S-wave (km/s) = 3.38943 3.47619 3.43308
# Velocity P-wave (km/s) = 4.56864 4.70546 4.63755
#
# Compressibility (1/GPa) = 0.08754632
#
# Stress axis : x y z
#
# Youngs Moduli (GPa) = 38.77143 29.80512 60.23871
#
# Poissons Ratio (x) = -0.03830 -0.06456
# Poissons Ratio (y) = -0.04982 -0.20749
# Poissons Ratio (z) = -0.04155 -0.10266
#
# Static dielectric constant tensor:
#      x y z
#    x 1.727170 0.000000 0.000000 
#    y 0.000000 1.693490 0.000000 
#    z 0.000000 0.000000 1.724850 
# 
# From -- ./inp_files/27934.got.cif
#   From: 2010.05.17/outbox.cif.g08.bks.cpg/sg57_14_cif.got.tgz:27934.got - 2010.06.03 13:58:18.
