data_PCOD9439539
_publ_section_title
;
Structure prediction by ZEFSAII (Michael W. Deem and Ramdas Pophale) SiO2 
 PCOD9439539
Probable space group: P B C M
;
_chemical_formula_sum "Si O2"
_cell_formula_units_Z 64
_cell_length_a 11.911791
_cell_length_b 7.826270
_cell_length_c 29.633069
_cell_angle_alpha 90.000000
_cell_angle_beta 90.000000
_cell_angle_gamma 90.000000
_cell_volume 2762.539673
_symmetry_space_group_name_H-M "P B C M"
_symmetry_group_IT_number 57
_symmetry_cell_setting 'orthorhombic'
loop_
_space_group_symop_operation_xyz
x,y,z
-x,-y,1/2+z
x,1/2-y,-z
-x,1/2+y,1/2-z
-x,-y,-z
x,y,1/2-z
-x,1/2+y,z
x,1/2-y,1/2+z
loop_
_atom_site_type_symbol
_atom_site_label
_atom_site_fract_x
_atom_site_fract_y
_atom_site_fract_z
Si Si1 0.883146 0.172624 0.392815
Si Si2 0.623782 0.941553 0.666209
Si Si3 0.424897 0.226170 0.428713
Si Si4 0.764802 0.572795 0.020285
Si Si5 0.786402 0.248077 0.304046
Si Si6 0.978645 0.457315 0.446661
Si Si7 0.614037 0.936298 0.198682
Si Si8 0.333469 0.893349 0.939518
O O1 0.887911 0.230649 0.340834
O O2 0.951998 0.261375 0.433919
O O3 0.752061 0.181986 0.403706
O O4 0.930536 0.989002 0.406849
O O5 0.616058 0.872413 0.615534
O O6 0.499253 0.020168 0.672206
O O7 0.643298 0.762833 0.692628
O O8 0.711607 0.086725 0.681547
O O9 0.360500 0.119175 0.466202
O O10 0.556078 0.221358 0.439955
O O11 0.377786 0.417817 0.426919
O O12 0.851235 0.528785 0.059556
O O13 0.810886 0.750000 0.000000
O O14 0.744395 0.427367 0.983284
O O15 0.813648 0.259932 0.250000
O O16 0.712250 0.073814 0.310056
O O17 0.000000 0.500000 0.500000
O O18 0.579854 0.965470 0.250000
#
# Coordination Sequence:
#
# PCOD9439539 Si02
#       8
#     8   8   8   8   8   8   8   8
#     4  12  27  48  75 106 139 185 246 308 372 433
#     4  12  21  37  62  98 142 198 251 297 355 430
#     4  11  24  39  62  98 148 193 238 283 359 443
#     4  10  22  42  64  95 138 184 234 289 354 432
#     4  11  25  45  68 104 147 191 249 310 371 446
#     4  12  25  47  76 104 133 178 245 311 371 429
#     4  11  22  37  63  96 141 195 248 298 357 428
#     4  11  25  42  65 102 148 193 239 290 358 443
#
# _framework density 23.167086000000001
#
# number of rings (size 3 to 8) (size 9 to 14) (size 15 to 20)
#    0.000    0.750    2.500    5.625    5.250    0.000 
#    2.250    0.625    0.000    0.000    0.000    0.000 
#    0.000    0.000    0.000    0.000    0.000    0.000 
#
# Total GULP energy -356947.343370 kJ/mol
# GULP energy per Si atom -5577.302240 kJ/mol
# Density = 2.311436 g / cm^3
# Si number density = 23.167086 Si / 1000 Ang^3
#
#
#
# Elastic Constant Matrix: (Units=GPa)
#
#
# Indices 1 2 3 4 5 6 
#
# 1 83.1273 10.2273 34.1288 0.0000 0.0000 0.0000
# 2 10.2273 96.5216 22.3063 0.0000 0.0000 0.0000
# 3 34.1288 22.3063 125.4867 0.0000 0.0000 0.0000
# 4 0.0000 0.0000 0.0000 27.6758 0.0000 0.0000
# 5 0.0000 0.0000 0.0000 0.0000 20.7133 0.0000
# 6 0.0000 0.0000 0.0000 0.0000 0.0000 14.9893
#
#
#
# Elastic Compliance Matrix: (Units=1/GPa)
#
#
# Indices 1 2 3 4 5 6 
#
# 1 0.013576 -0.000610 -0.003584 0.000000 0.000000 0.000000
# 2 -0.000610 0.010832 -0.001759 0.000000 0.000000 0.000000
# 3 -0.003584 -0.001759 0.009256 0.000000 0.000000 0.000000
# 4 0.000000 0.000000 0.000000 0.036133 0.000000 0.000000
# 5 0.000000 0.000000 0.000000 0.000000 0.048278 0.000000
# 6 0.000000 0.000000 0.000000 0.000000 0.000000 0.066714
#
#
# Mechanical properties :
#
#
# Convention : Reuss Voigt Hill
#
# Bulk Modulus (GPa) = 45.96190 48.71780 47.33985
# Shear Modulus (GPa) = 24.51593 28.57389 26.54491
#
# Velocity S-wave (km/s) = 3.25656 3.51577 3.38864
# Velocity P-wave (km/s) = 5.83289 6.12824 5.98239
#
# Compressibility (1/GPa) = 0.02175715
#
# Stress axis : x y z
#
# Youngs Moduli (GPa) = 73.65819 92.32205 108.03295
#
# Poissons Ratio (x) = 0.05634 0.38718
# Poissons Ratio (y) = 0.04495 0.19008
# Poissons Ratio (z) = 0.26398 0.16243
#
# Static dielectric constant tensor:
#      x y z
#    x 2.051750 0.000000 0.000000 
#    y 0.000000 2.378210 0.000000 
#    z 0.000000 0.000000 2.038140 
# 
# From -- ./inp_files/29786.got.cif
#   From: 2010.05.17/outbox.cif.g08.bks.cpg/sg57_15_cif.got.tgz:29786.got - 2010.06.03 13:58:18.
