data_PCOD9439327
_publ_section_title
;
Structure prediction by ZEFSAII (Michael W. Deem and Ramdas Pophale) SiO2 
 PCOD9439327
Probable space group: P B C M
;
_chemical_formula_sum "Si O2"
_cell_formula_units_Z 60
_cell_length_a 15.063902
_cell_length_b 8.020918
_cell_length_c 24.818321
_cell_angle_alpha 90.000000
_cell_angle_beta 90.000000
_cell_angle_gamma 90.000000
_cell_volume 2998.706462
_symmetry_space_group_name_H-M "P B C M"
_symmetry_group_IT_number 57
_symmetry_cell_setting 'orthorhombic'
loop_
_space_group_symop_operation_xyz
x,y,z
-x,-y,1/2+z
x,1/2-y,-z
-x,1/2+y,1/2-z
-x,-y,-z
x,y,1/2-z
-x,1/2+y,z
x,1/2-y,1/2+z
loop_
_atom_site_type_symbol
_atom_site_label
_atom_site_fract_x
_atom_site_fract_y
_atom_site_fract_z
Si Si1 0.584618 0.806349 0.621805
Si Si2 0.072518 0.964524 0.546467
Si Si3 0.384120 0.572569 0.359434
Si Si4 0.960782 0.766085 0.374877
Si Si5 0.311810 0.903119 0.312912
Si Si6 0.353593 0.250000 0.000000
Si Si7 0.273110 0.908107 0.531474
Si Si8 0.889252 0.471108 0.313733
O O1 0.483177 0.863907 0.627790
O O2 0.607132 0.627762 0.650788
O O3 0.597267 0.770599 0.557651
O O4 0.641995 0.958684 0.648034
O O5 0.024610 0.842535 0.587681
O O6 0.167099 0.897106 0.529938
O O7 0.000000 0.000000 0.500000
O O8 0.092770 0.126266 0.582260
O O9 0.349211 0.715019 0.318659
O O10 0.316746 0.589281 0.409713
O O11 0.897297 0.653375 0.339379
O O12 0.027653 0.871144 0.337978
O O13 0.321171 0.955631 0.250000
O O14 0.207018 0.897402 0.326870
O O15 0.297468 0.417953 0.004263
O O16 0.311543 0.750000 0.500000
O O17 0.898283 0.477669 0.250000
#
# Coordination Sequence:
#
# PCOD9439327 Si02
#       8
#     8   8   8   8   8   4   8   8
#     4  11  24  44  67  99 131 175 224 280 338 405
#     4  11  23  38  57  92 128 177 214 259 324 395
#     4  11  24  43  67  94 131 170 224 277 337 403
#     4  10  22  38  65  87 127 168 215 271 317 399
#     4  11  25  45  69  97 134 175 222 283 342 409
#     4  10  26  38  68  94 128 174 218 274 328 402
#     4  11  24  39  62  93 130 171 216 272 327 396
#     4  10  22  42  67  94 125 166 218 277 337 391
#
# _framework density 20.008628000000002
#
# number of rings (size 3 to 8) (size 9 to 14) (size 15 to 20)
#    0.000    1.333    1.333    3.200    6.533    4.267 
#    0.000    0.000    0.000    0.000    0.000    0.000 
#    0.000    0.000    0.000    0.000    0.000    0.000 
#
# Total GULP energy -334669.028084 kJ/mol
# GULP energy per Si atom -5577.817135 kJ/mol
# Density = 1.996309 g / cm^3
# Si number density = 20.008628 Si / 1000 Ang^3
#
#
#
# Elastic Constant Matrix: (Units=GPa)
#
#
# Indices 1 2 3 4 5 6 
#
# 1 64.4734 9.1997 21.1498 0.0000 0.0000 0.0000
# 2 9.1997 102.2569 32.4165 0.0000 0.0000 0.0000
# 3 21.1498 32.4165 64.4412 0.0000 0.0000 0.0000
# 4 0.0000 0.0000 0.0000 29.5959 0.0000 0.0000
# 5 0.0000 0.0000 0.0000 0.0000 15.6145 0.0000
# 6 0.0000 0.0000 0.0000 0.0000 0.0000 21.4261
#
#
#
# Elastic Compliance Matrix: (Units=1/GPa)
#
#
# Indices 1 2 3 4 5 6 
#
# 1 0.017389 0.000291 -0.005854 0.000000 0.000000 0.000000
# 2 0.000291 0.011640 -0.005951 0.000000 0.000000 0.000000
# 3 -0.005854 -0.005951 0.020433 0.000000 0.000000 0.000000
# 4 0.000000 0.000000 0.000000 0.033788 0.000000 0.000000
# 5 0.000000 0.000000 0.000000 0.000000 0.064043 0.000000
# 6 0.000000 0.000000 0.000000 0.000000 0.000000 0.046672
#
#
# Mechanical properties :
#
#
# Convention : Reuss Voigt Hill
#
# Bulk Modulus (GPa) = 37.82878 39.63372 38.73125
# Shear Modulus (GPa) = 22.14326 24.55434 23.34880
#
# Velocity S-wave (km/s) = 3.33030 3.50692 3.41975
# Velocity P-wave (km/s) = 5.80819 6.02074 5.91542
#
# Compressibility (1/GPa) = 0.02643490
#
# Stress axis : x y z
#
# Youngs Moduli (GPa) = 57.50784 85.91410 48.94131
#
# Poissons Ratio (x) = -0.02502 0.28648
# Poissons Ratio (y) = -0.01675 0.29124
# Poissons Ratio (z) = 0.33663 0.51125
#
# Static dielectric constant tensor:
#      x y z
#    x 1.573600 0.000000 0.000000 
#    y 0.000000 1.758980 0.000000 
#    z 0.000000 0.000000 1.710950 
# 
# From -- ./inp_files/27441.got.cif
#   From: 2010.05.17/outbox.cif.g08.bks.cpg/sg57_14_cif.got.tgz:27441.got - 2010.06.03 13:58:18.
