data_PCOD9439970
_publ_section_title
;
Structure prediction by ZEFSAII (Michael W. Deem and Ramdas Pophale) SiO2 
 PCOD9439970
Probable space group: P B C M
;
_chemical_formula_sum "Si O2"
_cell_formula_units_Z 56
_cell_length_a 15.364519
_cell_length_b 8.108350
_cell_length_c 21.466315
_cell_angle_alpha 90.000000
_cell_angle_beta 90.000000
_cell_angle_gamma 90.000000
_cell_volume 2674.292792
_symmetry_space_group_name_H-M "P B C M"
_symmetry_group_IT_number 57
_symmetry_cell_setting 'orthorhombic'
loop_
_space_group_symop_operation_xyz
x,y,z
-x,-y,1/2+z
x,1/2-y,-z
-x,1/2+y,1/2-z
-x,-y,-z
x,y,1/2-z
-x,1/2+y,z
x,1/2-y,1/2+z
loop_
_atom_site_type_symbol
_atom_site_label
_atom_site_fract_x
_atom_site_fract_y
_atom_site_fract_z
Si Si1 0.252621 0.498671 0.629442
Si Si2 0.571834 0.923403 0.918686
Si Si3 0.040346 0.185252 0.750000
Si Si4 0.892533 0.172406 0.932133
Si Si5 0.139287 0.540959 0.750000
Si Si6 0.218028 0.336426 0.066389
Si Si7 0.054562 0.006551 0.881891
Si Si8 0.392413 0.035606 0.560258
O O1 0.356968 0.505017 0.626451
O O2 0.204513 0.603401 0.575597
O O3 0.202344 0.549475 0.691050
O O4 0.231149 0.307033 0.616574
O O5 0.590133 0.729641 0.926989
O O6 0.470151 0.944660 0.904309
O O7 0.592211 0.999557 0.987090
O O8 0.085704 0.365353 0.750000
O O9 0.063433 0.088127 0.813863
O O10 0.935210 0.179439 0.750000
O O11 0.917068 0.317935 0.884405
O O12 0.958848 0.028361 0.911218
O O13 0.907365 0.250000 0.000000
O O14 0.121597 0.402648 0.072170
O O15 0.290515 0.478834 0.075466
O O16 0.234136 0.250000 0.000000
#
# Coordination Sequence:
#
# PCOD9439970 Si02
#       8
#     8   8   4   8   4   8   8   8
#     4  11  22  39  60  89 121 160 204 249 305 363
#     4   9  18  34  56  87 117 155 191 242 305 363
#     4  12  24  42  64  85 113 164 214 257 287 351
#     4  12  25  40  57  88 121 164 193 252 314 374
#     4  12  24  42  66  83 119 164 218 255 301 351
#     4  11  19  37  59  88 122 159 197 253 305 370
#     4  12  24  39  60  83 122 158 208 253 301 358
#     4   9  17  32  57  83 119 151 190 241 301 367
#
# _framework density 20.940116
#
# number of rings (size 3 to 8) (size 9 to 14) (size 15 to 20)
#    0.000    1.143    5.714    3.429    0.000    1.143 
#    2.571    0.000    0.000    4.286    0.000    0.000 
#    0.000    0.000    0.000    0.000    0.000    0.000 
#
# Total GULP energy -312745.029979 kJ/mol
# GULP energy per Si atom -5584.732678 kJ/mol
# Density = 2.089245 g / cm^3
# Si number density = 20.940116 Si / 1000 Ang^3
#
#
#
# Elastic Constant Matrix: (Units=GPa)
#
#
# Indices 1 2 3 4 5 6 
#
# 1 91.2505 8.8215 37.7554 0.0000 0.0000 0.0000
# 2 8.8215 31.8050 9.8570 0.0000 0.0000 0.0000
# 3 37.7554 9.8570 68.7336 0.0000 0.0000 0.0000
# 4 0.0000 0.0000 0.0000 19.9489 0.0000 0.0000
# 5 0.0000 0.0000 0.0000 0.0000 24.6835 0.0000
# 6 0.0000 0.0000 0.0000 0.0000 0.0000 37.9929
#
#
#
# Elastic Compliance Matrix: (Units=1/GPa)
#
#
# Indices 1 2 3 4 5 6 
#
# 1 0.014259 -0.001599 -0.007603 0.000000 0.000000 0.000000
# 2 -0.001599 0.033083 -0.003866 0.000000 0.000000 0.000000
# 3 -0.007603 -0.003866 0.019280 0.000000 0.000000 0.000000
# 4 0.000000 0.000000 0.000000 0.050128 0.000000 0.000000
# 5 0.000000 0.000000 0.000000 0.000000 0.040513 0.000000
# 6 0.000000 0.000000 0.000000 0.000000 0.000000 0.026321
#
#
# Mechanical properties :
#
#
# Convention : Reuss Voigt Hill
#
# Bulk Modulus (GPa) = 24.69993 33.85075 29.27534
# Shear Modulus (GPa) = 22.39983 25.54876 23.97430
#
# Velocity S-wave (km/s) = 3.27419 3.49676 3.38730
# Velocity P-wave (km/s) = 5.11027 5.70121 5.41381
#
# Compressibility (1/GPa) = 0.04048594
#
# Stress axis : x y z
#
# Youngs Moduli (GPa) = 70.12953 30.22678 51.86735
#
# Poissons Ratio (x) = 0.04832 0.39437
# Poissons Ratio (y) = 0.11210 0.20054
# Poissons Ratio (z) = 0.53322 0.11687
#
# Static dielectric constant tensor:
#      x y z
#    x 1.797090 0.000000 0.000000 
#    y 0.000000 1.788400 0.000000 
#    z 0.000000 0.000000 1.769340 
# 
# From -- ./inp_files/25450.got.cif
#   From: 2010.05.17/outbox.cif.g08.bks.cpg/sg57_13_cif.got.tgz:25450.got - 2010.06.03 13:58:18.
