data_PCOD9439353
_publ_section_title
;
Structure prediction by ZEFSAII (Michael W. Deem and Ramdas Pophale) SiO2 
 PCOD9439353
Probable space group: P B C M
;
_chemical_formula_sum "Si O2"
_cell_formula_units_Z 48
_cell_length_a 13.885378
_cell_length_b 19.436122
_cell_length_c 8.393284
_cell_angle_alpha 90.000000
_cell_angle_beta 90.000000
_cell_angle_gamma 90.000000
_cell_volume 2265.161867
_symmetry_space_group_name_H-M "P B C M"
_symmetry_group_IT_number 57
_symmetry_cell_setting 'orthorhombic'
loop_
_space_group_symop_operation_xyz
x,y,z
-x,-y,1/2+z
x,1/2-y,-z
-x,1/2+y,1/2-z
-x,-y,-z
x,y,1/2-z
-x,1/2+y,z
x,1/2-y,1/2+z
loop_
_atom_site_type_symbol
_atom_site_label
_atom_site_fract_x
_atom_site_fract_y
_atom_site_fract_z
Si Si1 0.595161 0.961085 0.557849
Si Si2 0.909860 0.828686 0.439125
Si Si3 0.500756 0.173718 0.058494
Si Si4 0.716023 0.327573 0.557878
Si Si5 0.808354 0.540965 0.440588
Si Si6 0.096743 0.589782 0.441143
O O1 0.596053 0.965341 0.750000
O O2 0.576326 0.882255 0.508187
O O3 0.701589 0.981220 0.500774
O O4 0.500000 0.000000 0.500000
O O5 0.906908 0.750000 0.500000
O O6 0.900155 0.827674 0.250000
O O7 0.830626 0.880566 0.511827
O O8 0.009896 0.866486 0.485907
O O9 0.503046 0.174528 0.250000
O O10 0.608522 0.152415 0.002733
O O11 0.481296 0.250000 0.000000
O O12 0.732003 0.250000 0.500000
O O13 0.715961 0.328717 0.750000
O O14 0.803674 0.374369 0.503774
O O15 0.811486 0.535765 0.250000
O O16 0.888275 0.489426 0.510200
O O17 0.087742 0.593634 0.250000
#
# Coordination Sequence:
#
# PCOD9439353 Si02
#       6
#     8   8   8   8   8   8
#     4  10  22  39  61  88 121 159 204 253 303 360
#     4  12  26  45  67  92 123 161 203 251 303 364
#     4   9  18  34  53  79 113 151 194 242 294 353
#     4   9  18  31  52  81 116 154 195 243 299 357
#     4  11  24  42  63  91 124 161 205 255 307 364
#     4  11  22  39  63  91 122 160 203 252 308 368
#
# _framework density 21.190538
#
# number of rings (size 3 to 8) (size 9 to 14) (size 15 to 20)
#    0.000    1.667    0.000    4.500    0.000    6.667 
#    0.000    5.000    0.000    0.000    0.000    0.000 
#    0.000    0.000    0.000    0.000    0.000    0.000 
#
# Total GULP energy -268179.078573 kJ/mol
# GULP energy per Si atom -5587.064137 kJ/mol
# Density = 2.114231 g / cm^3
# Si number density = 21.190538 Si / 1000 Ang^3
#
#
#
# Elastic Constant Matrix: (Units=GPa)
#
#
# Indices 1 2 3 4 5 6 
#
# 1 97.2792 34.0504 -4.6208 0.0000 0.0000 0.0000
# 2 34.0504 76.5810 -18.7487 0.0000 0.0000 0.0000
# 3 -4.6208 -18.7487 13.1958 0.0000 0.0000 0.0000
# 4 0.0000 0.0000 0.0000 37.0502 0.0000 0.0000
# 5 0.0000 0.0000 0.0000 0.0000 19.7232 0.0000
# 6 0.0000 0.0000 0.0000 0.0000 0.0000 36.9544
#
#
#
# Elastic Compliance Matrix: (Units=1/GPa)
#
#
# Indices 1 2 3 4 5 6 
#
# 1 0.012417 -0.006833 -0.005361 0.000000 0.000000 0.000000
# 2 -0.006833 0.023784 0.031399 0.000000 0.000000 0.000000
# 3 -0.005361 0.031399 0.118516 0.000000 0.000000 0.000000
# 4 0.000000 0.000000 0.000000 0.026990 0.000000 0.000000
# 5 0.000000 0.000000 0.000000 0.000000 0.050702 0.000000
# 6 0.000000 0.000000 0.000000 0.000000 0.000000 0.027060
#
#
# Mechanical properties :
#
#
# Convention : Reuss Voigt Hill
#
# Bulk Modulus (GPa) = 5.17799 23.15756 14.16777
# Shear Modulus (GPa) = 17.51712 30.50390 24.01051
#
# Velocity S-wave (km/s) = 2.87827 3.79820 3.36977
# Velocity P-wave (km/s) = 3.67352 5.49427 4.67342
#
# Compressibility (1/GPa) = 0.19312522
#
# Stress axis : x y z
#
# Youngs Moduli (GPa) = 80.53519 42.04587 8.43769
#
# Poissons Ratio (x) = 0.28732 0.04523
# Poissons Ratio (y) = 0.55033 -0.26493
# Poissons Ratio (z) = 0.43175 -1.32019
#
# Static dielectric constant tensor:
#      x y z
#    x 1.792110 0.000000 0.000000 
#    y 0.000000 1.756090 0.000000 
#    z 0.000000 0.000000 1.724010 
# 
# From -- ./inp_files/4594.got.cif
#   From: 2010.05.17/outbox.cif.g08.bks.cpg/sg57_3_cif.got.tgz:4594.got - 2010.06.03 13:58:18.
