data_PCOD9439492
_publ_section_title
;
Structure prediction by ZEFSAII (Michael W. Deem and Ramdas Pophale) SiO2 
 PCOD9439492
Probable space group: P B C M
;
_chemical_formula_sum "Si O2"
_cell_formula_units_Z 40
_cell_length_a 16.914696
_cell_length_b 5.164311
_cell_length_c 20.114433
_cell_angle_alpha 90.000000
_cell_angle_beta 90.000000
_cell_angle_gamma 90.000000
_cell_volume 1757.051050
_symmetry_space_group_name_H-M "P B C M"
_symmetry_group_IT_number 57
_symmetry_cell_setting 'orthorhombic'
loop_
_space_group_symop_operation_xyz
x,y,z
-x,-y,1/2+z
x,1/2-y,-z
-x,1/2+y,1/2-z
-x,-y,-z
x,y,1/2-z
-x,1/2+y,z
x,1/2-y,1/2+z
loop_
_atom_site_type_symbol
_atom_site_label
_atom_site_fract_x
_atom_site_fract_y
_atom_site_fract_z
Si Si1 0.299244 0.866799 0.174936
Si Si2 0.138229 0.956893 0.821601
Si Si3 0.949659 0.159362 0.585221
Si Si4 0.800928 0.644967 0.427892
Si Si5 0.542801 0.436829 0.669505
O O1 0.314803 0.976988 0.250000
O O2 0.222195 0.687098 0.180883
O O3 0.273026 0.067817 0.118398
O O4 0.373031 0.690662 0.154188
O O5 0.124021 0.081756 0.750000
O O6 0.072550 0.740288 0.838705
O O7 0.147669 0.160659 0.881378
O O8 0.996943 0.416022 0.566807
O O9 0.861985 0.091094 0.559892
O O10 0.778760 0.750000 0.500000
O O11 0.539782 0.449164 0.750000
O O12 0.477548 0.225810 0.646614
#
# Coordination Sequence:
#
# PCOD9439492 Si02
#       5
#     8   8   8   8   8
#     4   9  20  37  61  92 127 165 210 265 316 373
#     4  10  22  41  64  91 123 164 209 261 319 378
#     4  11  23  44  63  91 121 160 203 259 313 368
#     4  11  24  41  65  94 127 173 218 260 313 381
#     4   9  18  32  56  91 126 159 200 254 316 373
#
# _framework density 22.765416999999999
#
# number of rings (size 3 to 8) (size 9 to 14) (size 15 to 20)
#    0.000    2.000    2.000    0.600    2.800    5.600 
#    0.000    0.000    0.000    1.200    0.000    0.000 
#    0.000    0.000    0.000    0.000    0.000    0.000 
#
# Total GULP energy -223096.863602 kJ/mol
# GULP energy per Si atom -5577.421590 kJ/mol
# Density = 2.271360 g / cm^3
# Si number density = 22.765417 Si / 1000 Ang^3
#
#
#
# Elastic Constant Matrix: (Units=GPa)
#
#
# Indices 1 2 3 4 5 6 
#
# 1 54.9204 0.9879 7.8528 0.0000 0.0000 0.0000
# 2 0.9879 89.4225 28.3336 0.0000 0.0000 0.0000
# 3 7.8528 28.3336 121.6945 0.0000 0.0000 0.0000
# 4 0.0000 0.0000 0.0000 32.8049 0.0000 0.0000
# 5 0.0000 0.0000 0.0000 0.0000 11.1623 0.0000
# 6 0.0000 0.0000 0.0000 0.0000 0.0000 23.5508
#
#
#
# Elastic Compliance Matrix: (Units=1/GPa)
#
#
# Indices 1 2 3 4 5 6 
#
# 1 0.018381 0.000187 -0.001230 0.000000 0.000000 0.000000
# 2 0.000187 0.012075 -0.002824 0.000000 0.000000 0.000000
# 3 -0.001230 -0.002824 0.008954 0.000000 0.000000 0.000000
# 4 0.000000 0.000000 0.000000 0.030483 0.000000 0.000000
# 5 0.000000 0.000000 0.000000 0.000000 0.089587 0.000000
# 6 0.000000 0.000000 0.000000 0.000000 0.000000 0.042461
#
#
# Mechanical properties :
#
#
# Convention : Reuss Voigt Hill
#
# Bulk Modulus (GPa) = 31.56857 37.82067 34.69462
# Shear Modulus (GPa) = 22.70314 28.76115 25.73214
#
# Velocity S-wave (km/s) = 3.16138 3.55825 3.36567
# Velocity P-wave (km/s) = 5.21754 5.79058 5.51151
#
# Compressibility (1/GPa) = 0.03167708
#
# Stress axis : x y z
#
# Youngs Moduli (GPa) = 54.40513 82.81270 111.68163
#
# Poissons Ratio (x) = -0.01545 0.13731
# Poissons Ratio (y) = -0.01015 0.31533
# Poissons Ratio (z) = 0.06689 0.23382
#
# Static dielectric constant tensor:
#      x y z
#    x 1.849920 0.000000 0.000000 
#    y 0.000000 1.943730 0.000000 
#    z 0.000000 0.000000 1.939140 
# 
# From -- ./inp_files/22767.got.cif
#   From: 2010.05.17/outbox.cif.g08.bks.cpg/sg57_12_cif.got.tgz:22767.got - 2010.06.03 13:58:18.
