data_PCOD9439168
_publ_section_title
;
Structure prediction by ZEFSAII (Michael W. Deem and Ramdas Pophale) SiO2 
 PCOD9439168
Probable space group: P B C M
;
_chemical_formula_sum "Si O2"
_cell_formula_units_Z 56
_cell_length_a 7.434047
_cell_length_b 18.492328
_cell_length_c 17.671733
_cell_angle_alpha 90.000000
_cell_angle_beta 90.000000
_cell_angle_gamma 90.000000
_cell_volume 2429.383244
_symmetry_space_group_name_H-M "P B C M"
_symmetry_group_IT_number 57
_symmetry_cell_setting 'orthorhombic'
loop_
_space_group_symop_operation_xyz
x,y,z
-x,-y,1/2+z
x,1/2-y,-z
-x,1/2+y,1/2-z
-x,-y,-z
x,y,1/2-z
-x,1/2+y,z
x,1/2-y,1/2+z
loop_
_atom_site_type_symbol
_atom_site_label
_atom_site_fract_x
_atom_site_fract_y
_atom_site_fract_z
Si Si1 0.949889 0.129941 0.667937
Si Si2 0.052818 0.666208 0.507479
Si Si3 0.799723 0.503109 0.121837
Si Si4 0.569625 0.556978 0.834790
Si Si5 0.684194 0.856990 0.564233
Si Si6 0.671461 0.713633 0.836958
Si Si7 0.688257 0.442254 0.542355
O O1 0.866746 0.142461 0.750000
O O2 0.859862 0.149642 0.588910
O O3 0.126802 0.179963 0.665586
O O4 0.966843 0.043018 0.653561
O O5 0.078366 0.750000 0.500000
O O6 0.839256 0.651022 0.499459
O O7 0.156228 0.616996 0.446933
O O8 0.633013 0.470870 0.167155
O O9 0.780261 0.588845 0.124446
O O10 0.754714 0.483694 0.033613
O O11 0.649179 0.554713 0.750000
O O12 0.563991 0.640969 0.857901
O O13 0.661087 0.502728 0.894073
O O14 0.652112 0.719984 0.394866
O O15 0.499033 0.896413 0.538675
O O16 0.625998 0.735429 0.750000
#
# Coordination Sequence:
#
# PCOD9439168 Si02
#       7
#     8   8   8   8   8   8   8
#     4  10  22  41  62  91 128 167 214 268 324 390
#     4  11  24  41  67  97 128 175 221 266 332 392
#     4  10  23  40  68  96 127 171 224 275 328 396
#     4  10  21  41  65  93 130 174 217 268 336 394
#     4  11  23  41  67  96 134 174 214 277 331 384
#     4  10  23  40  63  96 134 173 217 267 335 398
#     4  10  25  42  64  99 132 167 227 278 320 398
#
# _framework density 23.051119
#
# number of rings (size 3 to 8) (size 9 to 14) (size 15 to 20)
#    0.000    1.714    1.429    2.143    6.000    6.857 
#    0.000    1.429    0.000    0.000    0.000    0.000 
#    0.000    0.000    0.000    0.000    0.000    0.000 
#
# Total GULP energy -312244.078305 kJ/mol
# GULP energy per Si atom -5575.787113 kJ/mol
# Density = 2.299865 g / cm^3
# Si number density = 23.051119 Si / 1000 Ang^3
#
#
#
# Elastic Constant Matrix: (Units=GPa)
#
#
# Indices 1 2 3 4 5 6 
#
# 1 81.6518 29.7412 24.9340 0.0000 0.0000 0.0000
# 2 29.7412 153.8501 56.7976 0.0000 0.0000 0.0000
# 3 24.9340 56.7976 114.5257 0.0000 0.0000 0.0000
# 4 0.0000 0.0000 0.0000 20.0971 0.0000 0.0000
# 5 0.0000 0.0000 0.0000 0.0000 32.1221 0.0000
# 6 0.0000 0.0000 0.0000 0.0000 0.0000 39.4805
#
#
#
# Elastic Compliance Matrix: (Units=1/GPa)
#
#
# Indices 1 2 3 4 5 6 
#
# 1 0.013546 -0.001873 -0.002020 0.000000 0.000000 0.000000
# 2 -0.001873 0.008216 -0.003667 0.000000 0.000000 0.000000
# 3 -0.002020 -0.003667 0.010990 0.000000 0.000000 0.000000
# 4 0.000000 0.000000 0.000000 0.049758 0.000000 0.000000
# 5 0.000000 0.000000 0.000000 0.000000 0.031131 0.000000
# 6 0.000000 0.000000 0.000000 0.000000 0.000000 0.025329
#
#
# Mechanical properties :
#
#
# Convention : Reuss Voigt Hill
#
# Bulk Modulus (GPa) = 56.71506 63.66370 60.18938
# Shear Modulus (GPa) = 31.25638 34.24360 32.74999
#
# Velocity S-wave (km/s) = 3.68633 3.85847 3.77338
# Velocity P-wave (km/s) = 6.54035 6.89411 6.71956
#
# Compressibility (1/GPa) = 0.01763200
#
# Stress axis : x y z
#
# Youngs Moduli (GPa) = 73.82116 121.72113 90.99200
#
# Poissons Ratio (x) = 0.22796 0.18384
# Poissons Ratio (y) = 0.13825 0.33364
# Poissons Ratio (z) = 0.14915 0.44631
#
# Static dielectric constant tensor:
#      x y z
#    x 1.961970 0.000000 0.000000 
#    y 0.000000 1.903570 0.000000 
#    z 0.000000 0.000000 1.903030 
# 
# From -- ./inp_files/24533.got.cif
#   From: 2010.05.17/outbox.cif.g08.bks.cpg/sg57_13_cif.got.tgz:24533.got - 2010.06.03 13:58:18.
