data_PCOD9439901
_publ_section_title
;
Structure prediction by ZEFSAII (Michael W. Deem and Ramdas Pophale) SiO2 
 PCOD9439901
Probable space group: P B C M
;
_chemical_formula_sum "Si O2"
_cell_formula_units_Z 24
_cell_length_a 5.154527
_cell_length_b 14.096533
_cell_length_c 13.564031
_cell_angle_alpha 90.000000
_cell_angle_beta 90.000000
_cell_angle_gamma 90.000000
_cell_volume 985.575513
_symmetry_space_group_name_H-M "P B C M"
_symmetry_group_IT_number 57
_symmetry_cell_setting 'orthorhombic'
loop_
_space_group_symop_operation_xyz
x,y,z
-x,-y,1/2+z
x,1/2-y,-z
-x,1/2+y,1/2-z
-x,-y,-z
x,y,1/2-z
-x,1/2+y,z
x,1/2-y,1/2+z
loop_
_atom_site_type_symbol
_atom_site_label
_atom_site_fract_x
_atom_site_fract_y
_atom_site_fract_z
Si Si1 0.910537 0.590374 0.635833
Si Si2 0.749162 0.806137 0.635749
Si Si3 0.741846 0.098709 0.041711
O O1 0.957615 0.567147 0.750000
O O2 0.777437 0.692919 0.630880
O O3 0.745020 0.507888 0.584039
O O4 0.174856 0.596670 0.572368
O O5 0.710507 0.832933 0.750000
O O6 0.513412 0.846372 0.572597
O O7 0.015555 0.849926 0.595420
#
# Coordination Sequence:
#
# PCOD9439901 Si02
#       3
#     8   8   8
#     4  10  24  45  73 107 142 186 236 288 351 418
#     4  11  24  44  71 103 141 184 232 287 349 418
#     4  11  25  46  72 103 143 184 232 292 349 414
#
# _framework density 24.351254000000001
#
# number of rings (size 3 to 8) (size 9 to 14) (size 15 to 20)
#    0.000    1.333    0.000    4.000    0.000   13.333 
#    0.000   11.667    0.000   10.000    0.000    0.000 
#    0.000    0.000    0.000    0.000    0.000    0.000 
#
# Total GULP energy -134783.439235 kJ/mol
# GULP energy per Si atom -5615.976635 kJ/mol
# Density = 2.429583 g / cm^3
# Si number density = 24.351254 Si / 1000 Ang^3
#
#
#
# Elastic Constant Matrix: (Units=GPa)
#
#
# Indices 1 2 3 4 5 6 
#
# 1 135.9979 42.5826 49.6205 0.0000 0.0000 0.0000
# 2 42.5826 137.4312 33.1956 0.0000 0.0000 0.0000
# 3 49.6205 33.1956 191.3607 0.0000 0.0000 0.0000
# 4 0.0000 0.0000 0.0000 42.1497 0.0000 0.0000
# 5 0.0000 0.0000 0.0000 0.0000 19.4061 0.0000
# 6 0.0000 0.0000 0.0000 0.0000 0.0000 30.5435
#
#
#
# Elastic Compliance Matrix: (Units=1/GPa)
#
#
# Indices 1 2 3 4 5 6 
#
# 1 0.008744 -0.002256 -0.001876 0.000000 0.000000 0.000000
# 2 -0.002256 0.008177 -0.000833 0.000000 0.000000 0.000000
# 3 -0.001876 -0.000833 0.005857 0.000000 0.000000 0.000000
# 4 0.000000 0.000000 0.000000 0.023725 0.000000 0.000000
# 5 0.000000 0.000000 0.000000 0.000000 0.051530 0.000000
# 6 0.000000 0.000000 0.000000 0.000000 0.000000 0.032740
#
#
# Mechanical properties :
#
#
# Convention : Reuss Voigt Hill
#
# Bulk Modulus (GPa) = 77.84283 79.50969 78.67626
# Shear Modulus (GPa) = 34.48610 41.04592 37.76601
#
# Velocity S-wave (km/s) = 3.76732 4.11003 3.94240
# Velocity P-wave (km/s) = 7.13860 7.43271 7.28714
#
# Compressibility (1/GPa) = 0.01284640
#
# Stress axis : x y z
#
# Youngs Moduli (GPa) = 114.36467 122.29821 170.74319
#
# Poissons Ratio (x) = 0.27592 0.32031
# Poissons Ratio (y) = 0.25803 0.14230
# Poissons Ratio (z) = 0.21454 0.10192
#
# Static dielectric constant tensor:
#      x y z
#    x 1.907350 0.000000 0.000000 
#    y 0.000000 1.937230 0.000000 
#    z 0.000000 0.000000 1.930670 
# 
# From -- ./inp_files/14565.got.cif
#   From: 2010.05.17/outbox.cif.g08.bks.cpg/sg57_8_cif.got.tgz:14565.got - 2010.06.03 13:58:18.
