data_PCOD9439837
_publ_section_title
;
Structure prediction by ZEFSAII (Michael W. Deem and Ramdas Pophale) SiO2 
 PCOD9439837
Probable space group: P B C M
;
_chemical_formula_sum "Si O2"
_cell_formula_units_Z 64
_cell_length_a 12.596816
_cell_length_b 15.462308
_cell_length_c 16.223660
_cell_angle_alpha 90.000000
_cell_angle_beta 90.000000
_cell_angle_gamma 90.000000
_cell_volume 3159.977147
_symmetry_space_group_name_H-M "P B C M"
_symmetry_group_IT_number 57
_symmetry_cell_setting 'orthorhombic'
loop_
_space_group_symop_operation_xyz
x,y,z
-x,-y,1/2+z
x,1/2-y,-z
-x,1/2+y,1/2-z
-x,-y,-z
x,y,1/2-z
-x,1/2+y,z
x,1/2-y,1/2+z
loop_
_atom_site_type_symbol
_atom_site_label
_atom_site_fract_x
_atom_site_fract_y
_atom_site_fract_z
Si Si1 0.081923 0.642731 0.346845
Si Si2 0.319100 0.187088 0.920672
Si Si3 0.991301 0.041343 0.847459
Si Si4 0.286443 0.739336 0.096408
Si Si5 0.482309 0.305165 0.655642
Si Si6 0.255336 0.566488 0.844973
Si Si7 0.916206 0.718257 0.594375
Si Si8 0.603402 0.953420 0.965380
O O1 0.107876 0.639060 0.250000
O O2 0.046239 0.547530 0.374439
O O3 0.185096 0.677625 0.393455
O O4 0.985266 0.710269 0.358296
O O5 0.419080 0.216899 0.866566
O O6 0.205968 0.204942 0.878312
O O7 0.320076 0.250000 0.000000
O O8 0.333389 0.092101 0.959361
O O9 0.015420 0.055661 0.750000
O O10 0.028560 0.125439 0.896379
O O11 0.864757 0.033044 0.853626
O O12 0.393076 0.705535 0.139036
O O13 0.257020 0.831422 0.136318
O O14 0.310363 0.750000 0.000000
O O15 0.462831 0.327741 0.750000
O O16 0.435675 0.377992 0.595867
O O17 0.289653 0.551957 0.750000
O O18 0.326967 0.518547 0.911727
O O19 0.915528 0.750000 0.500000
O O20 0.500000 0.000000 0.000000
#
# Coordination Sequence:
#
# PCOD9439837 Si02
#       8
#     8   8   8   8   8   8   8   8
#     4  11  24  42  64  92 129 173 218 274 332 391
#     4   9  22  41  61  92 128 165 214 271 328 391
#     4  10  24  41  63  96 132 171 220 275 331 394
#     4  12  24  43  66  97 132 175 219 272 335 398
#     4  11  23  41  67  95 125 173 225 271 331 402
#     4  11  23  41  66  95 129 173 222 272 328 404
#     4  11  23  41  63  97 132 171 216 271 333 395
#     4  11  23  42  63  93 131 170 220 274 334 393
#
# _framework density 20.253311
#
# number of rings (size 3 to 8) (size 9 to 14) (size 15 to 20)
#    0.000    1.250    1.250    4.875    5.250    3.500 
#    0.000    0.625    0.000    0.000    0.000    0.000 
#    0.000    0.000    0.000    0.000    0.000    0.000 
#
# Total GULP energy -357823.901496 kJ/mol
# GULP energy per Si atom -5590.998461 kJ/mol
# Density = 2.020721 g / cm^3
# Si number density = 20.253311 Si / 1000 Ang^3
#
#
#
# Elastic Constant Matrix: (Units=GPa)
#
#
# Indices 1 2 3 4 5 6 
#
# 1 100.4038 38.1593 26.7917 0.0000 0.0000 0.0000
# 2 38.1593 119.0955 28.4939 0.0000 0.0000 0.0000
# 3 26.7917 28.4939 62.8996 0.0000 0.0000 0.0000
# 4 0.0000 0.0000 0.0000 115.3499 0.0000 0.0000
# 5 0.0000 0.0000 0.0000 0.0000 97.2416 0.0000
# 6 0.0000 0.0000 0.0000 0.0000 0.0000 29.5173
#
#
#
# Elastic Compliance Matrix: (Units=1/GPa)
#
#
# Indices 1 2 3 4 5 6 
#
# 1 0.012104 -0.002966 -0.003812 0.000000 0.000000 0.000000
# 2 -0.002966 0.010144 -0.003332 0.000000 0.000000 0.000000
# 3 -0.003812 -0.003332 0.019031 0.000000 0.000000 0.000000
# 4 0.000000 0.000000 0.000000 0.008669 0.000000 0.000000
# 5 0.000000 0.000000 0.000000 0.000000 0.010284 0.000000
# 6 0.000000 0.000000 0.000000 0.000000 0.000000 0.033878
#
#
# Mechanical properties :
#
#
# Convention : Reuss Voigt Hill
#
# Bulk Modulus (GPa) = 47.48442 52.14317 49.81380
# Shear Modulus (GPa) = 41.20256 61.01871 51.11064
#
# Velocity S-wave (km/s) = 4.51528 5.49483 5.02896
# Velocity P-wave (km/s) = 7.11898 8.12767 7.63999
#
# Compressibility (1/GPa) = 0.02105954
#
# Stress axis : x y z
#
# Youngs Moduli (GPa) = 82.61490 98.57826 52.54464
#
# Poissons Ratio (x) = 0.29241 0.20030
# Poissons Ratio (y) = 0.24506 0.17507
# Poissons Ratio (z) = 0.31493 0.32845
#
# Static dielectric constant tensor:
#      x y z
#    x 1.705290 0.000000 0.000000 
#    y 0.000000 1.712700 0.000000 
#    z 0.000000 0.000000 1.695670 
# 
# From -- ./inp_files/22063.got.cif
#   From: 2010.05.17/outbox.cif.g08.bks.cpg/sg57_12_cif.got.tgz:22063.got - 2010.06.03 13:58:18.
