data_PCOD9439203
_publ_section_title
;
Structure prediction by ZEFSAII (Michael W. Deem and Ramdas Pophale) SiO2 
 PCOD9439203
Probable space group: P B C M
;
_chemical_formula_sum "Si O2"
_cell_formula_units_Z 44
_cell_length_a 9.177623
_cell_length_b 14.131452
_cell_length_c 16.479441
_cell_angle_alpha 90.000000
_cell_angle_beta 90.000000
_cell_angle_gamma 90.000000
_cell_volume 2137.270431
_symmetry_space_group_name_H-M "P B C M"
_symmetry_group_IT_number 57
_symmetry_cell_setting 'orthorhombic'
loop_
_space_group_symop_operation_xyz
x,y,z
-x,-y,1/2+z
x,1/2-y,-z
-x,1/2+y,1/2-z
-x,-y,-z
x,y,1/2-z
-x,1/2+y,z
x,1/2-y,1/2+z
loop_
_atom_site_type_symbol
_atom_site_label
_atom_site_fract_x
_atom_site_fract_y
_atom_site_fract_z
Si Si1 0.336378 0.394811 0.250000
Si Si2 0.386362 0.819016 0.922562
Si Si3 0.635019 0.000520 0.750000
Si Si4 0.284673 0.351111 0.541202
Si Si5 0.193582 0.004298 0.905060
Si Si6 0.892820 0.945901 0.658972
Si Si7 0.496761 0.212660 0.250000
O O1 0.503762 0.428791 0.250000
O O2 0.260161 0.439219 0.171527
O O3 0.357829 0.282380 0.250000
O O4 0.267852 0.901426 0.913176
O O5 0.411718 0.772455 0.833289
O O6 0.357710 0.750000 0.000000
O O7 0.545658 0.864899 0.938653
O O8 0.746901 0.008467 0.674517
O O9 0.562506 0.895703 0.750000
O O10 0.274840 0.250000 0.500000
O O11 0.231839 0.433998 0.482808
O O12 0.174913 0.354787 0.616503
O O13 0.022069 0.991936 0.890566
O O14 0.948137 0.925979 0.750000
#
# Coordination Sequence:
#
# PCOD9439203 Si02
#       7
#     4   8   4   8   8   8   4
#     4  12  21  39  71  98 125 176 222 280 335 390
#     4  11  23  42  66 102 136 171 226 278 328 389
#     4  10  21  42  67  91 135 167 223 267 328 395
#     4  11  23  41  65  99 130 176 220 272 331 396
#     4  12  23  40  69  95 134 172 224 276 334 395
#     4  10  22  42  64  88 131 177 218 263 334 398
#     4  12  22  41  70  99 130 173 221 273 331 399
#
# _framework density 20.587005999999999
#
# number of rings (size 3 to 8) (size 9 to 14) (size 15 to 20)
#    0.545    0.364    4.545    3.273    0.000    2.182 
#    0.000    1.818    4.000    0.000    0.000    0.000 
#    0.000    0.000    0.000    0.000    0.000    0.000 
#
# Total GULP energy -245557.058561 kJ/mol
# GULP energy per Si atom -5580.842240 kJ/mol
# Density = 2.054015 g / cm^3
# Si number density = 20.587006 Si / 1000 Ang^3
#
#
#
# Elastic Constant Matrix: (Units=GPa)
#
#
# Indices 1 2 3 4 5 6 
#
# 1 66.7968 13.9705 3.0061 0.0000 0.0000 0.0000
# 2 13.9705 45.2588 17.2155 0.0000 0.0000 0.0000
# 3 3.0061 17.2155 99.5063 0.0000 0.0000 0.0000
# 4 0.0000 0.0000 0.0000 -31.4599 0.0000 0.0000
# 5 0.0000 0.0000 0.0000 0.0000 18.7939 0.0000
# 6 0.0000 0.0000 0.0000 0.0000 0.0000 -185.7796
#
#
#
# Elastic Compliance Matrix: (Units=1/GPa)
#
#
# Indices 1 2 3 4 5 6 
#
# 1 0.016019 -0.005096 0.000398 0.000000 0.000000 0.000000
# 2 -0.005096 0.025273 -0.004218 0.000000 0.000000 0.000000
# 3 0.000398 -0.004218 0.010767 0.000000 0.000000 0.000000
# 4 0.000000 0.000000 0.000000 -0.031787 0.000000 0.000000
# 5 0.000000 0.000000 0.000000 0.000000 0.053209 0.000000
# 6 0.000000 0.000000 0.000000 0.000000 0.000000 -0.005383
#
#
# Mechanical properties :
#
#
# Convention : Reuss Voigt Hill
#
# Bulk Modulus (GPa) = 29.21796 31.10512 30.16154
# Shear Modulus (GPa) = 51.36622 -27.86445 11.75088
#
# Velocity S-wave (km/s) = 5.00050 -3.68298 2.39172
# Velocity P-wave (km/s) = 6.89661 1.71578 4.72331
#
# Compressibility (1/GPa) = 0.03422553
#
# Stress axis : x y z
#
# Youngs Moduli (GPa) = 62.42702 39.56821 92.87261
#
# Poissons Ratio (x) = 0.20164 -0.03694
# Poissons Ratio (y) = 0.31813 0.39178
# Poissons Ratio (z) = -0.02483 0.16692
#
# Static dielectric constant tensor:
#      x y z
#    x 1.701720 0.000000 0.000000 
#    y 0.000000 1.699260 0.000000 
#    z 0.000000 0.000000 1.843220 
# 
# From -- ./inp_files/20847.got.cif
#   From: 2010.05.17/outbox.cif.g08.bks.cpg/sg57_11_cif.got.tgz:20847.got - 2010.06.03 13:58:18.
