data_PCOD9439781
_publ_section_title
;
Structure prediction by ZEFSAII (Michael W. Deem and Ramdas Pophale) SiO2 
 PCOD9439781
Probable space group: P B C M
;
_chemical_formula_sum "Si O2"
_cell_formula_units_Z 32
_cell_length_a 14.482171
_cell_length_b 8.308833
_cell_length_c 11.928563
_cell_angle_alpha 90.000000
_cell_angle_beta 90.000000
_cell_angle_gamma 90.000000
_cell_volume 1435.363274
_symmetry_space_group_name_H-M "P B C M"
_symmetry_group_IT_number 57
_symmetry_cell_setting 'orthorhombic'
loop_
_space_group_symop_operation_xyz
x,y,z
-x,-y,1/2+z
x,1/2-y,-z
-x,1/2+y,1/2-z
-x,-y,-z
x,y,1/2-z
-x,1/2+y,z
x,1/2-y,1/2+z
loop_
_atom_site_type_symbol
_atom_site_label
_atom_site_fract_x
_atom_site_fract_y
_atom_site_fract_z
Si Si1 0.426282 0.250000 0.000000
Si Si2 0.876324 0.040208 0.381221
Si Si3 0.351612 0.878986 0.250000
Si Si4 0.501055 0.842289 0.750000
Si Si5 0.687163 0.076131 0.509112
Si Si6 0.978703 0.750000 0.000000
O O1 0.468519 0.277194 0.874079
O O2 0.370557 0.082506 0.982128
O O3 0.865684 0.014805 0.250000
O O4 0.778866 0.083019 0.436539
O O5 0.952794 0.175033 0.407654
O O6 0.915242 0.883670 0.443759
O O7 0.390730 0.695792 0.250000
O O8 0.294235 0.928093 0.141814
O O9 0.446833 0.984625 0.250000
O O10 0.637137 0.250000 0.500000
#
# Coordination Sequence:
#
# PCOD9439781 Si02
#       6
#     4   8   4   4   8   4
#     4  10  25  44  63 102 136 180 224 286 339 412
#     4  11  23  43  68 100 135 180 225 280 342 408
#     4  10  26  44  66 102 132 177 223 292 329 413
#     4  10  24  44  70  96 136 173 235 278 349 403
#     4  11  25  42  67  98 136 178 225 276 345 401
#     4  10  23  44  65 102 134 176 226 280 337 412
#
# _framework density 22.294008999999999
#
# number of rings (size 3 to 8) (size 9 to 14) (size 15 to 20)
#    0.000    1.500    1.250    1.500    8.750    2.000 
#   15.750    0.000    0.000    0.000    0.000    0.000 
#    0.000    0.000    0.000    0.000    0.000    0.000 
#
# Total GULP energy -178567.590120 kJ/mol
# GULP energy per Si atom -5580.237191 kJ/mol
# Density = 2.224327 g / cm^3
# Si number density = 22.294009 Si / 1000 Ang^3
#
#
#
# Elastic Constant Matrix: (Units=GPa)
#
#
# Indices 1 2 3 4 5 6 
#
# 1 78.6051 40.5128 50.4401 0.0000 0.0000 0.0000
# 2 40.5128 107.4042 7.6560 0.0000 0.0000 0.0000
# 3 50.4401 7.6560 131.3807 0.0000 0.0000 0.0000
# 4 0.0000 0.0000 0.0000 16.7583 0.0000 0.0000
# 5 0.0000 0.0000 0.0000 0.0000 22.2886 0.0000
# 6 0.0000 0.0000 0.0000 0.0000 0.0000 22.1950
#
#
#
# Elastic Compliance Matrix: (Units=1/GPa)
#
#
# Indices 1 2 3 4 5 6 
#
# 1 0.021720 -0.007630 -0.007894 0.000000 0.000000 0.000000
# 2 -0.007630 0.012030 0.002228 0.000000 0.000000 0.000000
# 3 -0.007894 0.002228 0.010512 0.000000 0.000000 0.000000
# 4 0.000000 0.000000 0.000000 0.059672 0.000000 0.000000
# 5 0.000000 0.000000 0.000000 0.000000 0.044866 0.000000
# 6 0.000000 0.000000 0.000000 0.000000 0.000000 0.045055
#
#
# Mechanical properties :
#
#
# Convention : Reuss Voigt Hill
#
# Bulk Modulus (GPa) = 56.59182 57.17864 56.88523
# Shear Modulus (GPa) = 22.09096 26.83379 24.46237
#
# Velocity S-wave (km/s) = 3.15126 3.47310 3.31609
# Velocity P-wave (km/s) = 6.21932 6.46425 6.34297
#
# Compressibility (1/GPa) = 0.01767040
#
# Stress axis : x y z
#
# Youngs Moduli (GPa) = 46.04070 83.12673 95.12610
#
# Poissons Ratio (x) = 0.63426 0.75094
# Poissons Ratio (y) = 0.35129 -0.21197
# Poissons Ratio (z) = 0.36345 -0.18523
#
# Static dielectric constant tensor:
#      x y z
#    x 1.790140 0.000000 0.000000 
#    y 0.000000 1.886210 0.000000 
#    z 0.000000 0.000000 1.824970 
# 
# From -- ./inp_files/13526.got.cif
#   From: 2010.05.17/outbox.cif.g08.bks.cpg/sg57_7_cif.got.tgz:13526.got - 2010.06.03 13:58:18.
