data_PCOD9439896
_publ_section_title
;
Structure prediction by ZEFSAII (Michael W. Deem and Ramdas Pophale) SiO2 
 PCOD9439896
Probable space group: P B C M
;
_chemical_formula_sum "Si O2"
_cell_formula_units_Z 40
_cell_length_a 19.408783
_cell_length_b 5.115239
_cell_length_c 17.234882
_cell_angle_alpha 90.000000
_cell_angle_beta 90.000000
_cell_angle_gamma 90.000000
_cell_volume 1711.088801
_symmetry_space_group_name_H-M "P B C M"
_symmetry_group_IT_number 57
_symmetry_cell_setting 'orthorhombic'
loop_
_space_group_symop_operation_xyz
x,y,z
-x,-y,1/2+z
x,1/2-y,-z
-x,1/2+y,1/2-z
-x,-y,-z
x,y,1/2-z
-x,1/2+y,z
x,1/2-y,1/2+z
loop_
_atom_site_type_symbol
_atom_site_label
_atom_site_fract_x
_atom_site_fract_y
_atom_site_fract_z
Si Si1 0.535929 0.688128 0.907620
Si Si2 0.958156 0.274367 0.906603
Si Si3 0.268331 0.992649 0.447966
Si Si4 0.676575 0.640898 0.839781
Si Si5 0.815477 0.208407 0.160669
O O1 0.480787 0.477457 0.877108
O O2 0.609376 0.560004 0.887622
O O3 0.533493 0.750000 0.000000
O O4 0.891102 0.383885 0.862209
O O5 0.018200 0.481355 0.886410
O O6 0.947329 0.250000 0.000000
O O7 0.290737 0.750000 0.500000
O O8 0.197209 0.921766 0.406643
O O9 0.266335 0.250000 0.500000
O O10 0.313258 0.066987 0.373478
O O11 0.659846 0.638682 0.750000
O O12 0.749920 0.489014 0.848296
O O13 0.813976 0.300174 0.250000
#
# Coordination Sequence:
#
# PCOD9439896 Si02
#       5
#     8   8   8   8   8
#     4  10  24  45  69 100 141 188 241 293 350 427
#     4  10  24  45  69 100 141 188 241 293 350 427
#     4  12  25  44  71 102 138 186 238 298 357 416
#     4  11  26  46  72 109 149 188 239 301 367 434
#     4  11  26  46  72 109 149 188 239 301 367 434
#
# _framework density 23.376929000000001
#
# number of rings (size 3 to 8) (size 9 to 14) (size 15 to 20)
#    0.000    1.200    2.000    1.800    5.600    3.200 
#    0.000    0.000    0.000    0.000    0.000    0.000 
#    0.000    0.000    0.000    0.000    0.000    0.000 
#
# Total GULP energy -222984.384579 kJ/mol
# GULP energy per Si atom -5574.609614 kJ/mol
# Density = 2.332372 g / cm^3
# Si number density = 23.376929 Si / 1000 Ang^3
#
#
#
# Elastic Constant Matrix: (Units=GPa)
#
#
# Indices 1 2 3 4 5 6 
#
# 1 120.7755 35.8039 18.1369 0.0000 0.0000 0.0000
# 2 35.8039 128.2619 42.2014 0.0000 0.0000 0.0000
# 3 18.1369 42.2014 58.0430 0.0000 0.0000 0.0000
# 4 0.0000 0.0000 0.0000 3.3133 0.0000 0.0000
# 5 0.0000 0.0000 0.0000 0.0000 29.0521 0.0000
# 6 0.0000 0.0000 0.0000 0.0000 0.0000 31.8170
#
#
#
# Elastic Compliance Matrix: (Units=1/GPa)
#
#
# Indices 1 2 3 4 5 6 
#
# 1 0.009102 -0.002110 -0.001310 0.000000 0.000000 0.000000
# 2 -0.002110 0.010737 -0.007147 0.000000 0.000000 0.000000
# 3 -0.001310 -0.007147 0.022835 0.000000 0.000000 0.000000
# 4 0.000000 0.000000 0.000000 0.301811 0.000000 0.000000
# 5 0.000000 0.000000 0.000000 0.000000 0.034421 0.000000
# 6 0.000000 0.000000 0.000000 0.000000 0.000000 0.031430
#
#
# Mechanical properties :
#
#
# Convention : Reuss Voigt Hill
#
# Bulk Modulus (GPa) = 46.42717 55.48498 50.95608
# Shear Modulus (GPa) = 11.39860 26.89903 19.14881
#
# Velocity S-wave (km/s) = 2.21056 3.39583 2.86515
# Velocity P-wave (km/s) = 5.13992 6.25795 5.72629
#
# Compressibility (1/GPa) = 0.02153911
#
# Stress axis : x y z
#
# Youngs Moduli (GPa) = 109.86597 93.13454 43.79296
#
# Poissons Ratio (x) = 0.19648 0.05738
# Poissons Ratio (y) = 0.23178 0.31301
# Poissons Ratio (z) = 0.14395 0.66568
#
# Static dielectric constant tensor:
#      x y z
#    x 1.965990 0.000000 0.000000 
#    y 0.000000 2.083510 0.000000 
#    z 0.000000 0.000000 1.892480 
# 
# From -- ./inp_files/22762.got.cif
#   From: 2010.05.17/outbox.cif.g08.bks.cpg/sg57_12_cif.got.tgz:22762.got - 2010.06.03 13:58:18.
