data_PCOD9439608
_publ_section_title
;
Structure prediction by ZEFSAII (Michael W. Deem and Ramdas Pophale) SiO2 
 PCOD9439608
Probable space group: P B C M
;
_chemical_formula_sum "Si O2"
_cell_formula_units_Z 32
_cell_length_a 5.507417
_cell_length_b 18.643852
_cell_length_c 13.989427
_cell_angle_alpha 90.000000
_cell_angle_beta 90.000000
_cell_angle_gamma 90.000000
_cell_volume 1436.426914
_symmetry_space_group_name_H-M "P B C M"
_symmetry_group_IT_number 57
_symmetry_cell_setting 'orthorhombic'
loop_
_space_group_symop_operation_xyz
x,y,z
-x,-y,1/2+z
x,1/2-y,-z
-x,1/2+y,1/2-z
-x,-y,-z
x,y,1/2-z
-x,1/2+y,z
x,1/2-y,1/2+z
loop_
_atom_site_type_symbol
_atom_site_label
_atom_site_fract_x
_atom_site_fract_y
_atom_site_fract_z
Si Si1 0.964240 0.436973 0.863705
Si Si2 0.302423 0.440929 0.026203
Si Si3 0.779147 0.285846 0.865008
Si Si4 0.715126 0.793197 0.365734
O O1 0.992730 0.440254 0.750000
O O2 0.880343 0.512470 0.907014
O O3 0.795515 0.369588 0.891175
O O4 0.203573 0.418664 0.922573
O O5 0.341985 0.369441 0.086183
O O6 0.500000 0.500000 0.000000
O O7 0.789098 0.284070 0.750000
O O8 0.518315 0.254760 0.891780
O O9 0.021782 0.240796 0.894154
O O10 0.720008 0.800483 0.250000
#
# Coordination Sequence:
#
# PCOD9439608 Si02
#       4
#     8   8   8   8
#     4  10  24  46  68  97 140 182 230 287 346 418
#     4  11  26  43  65 105 133 181 233 279 353 412
#     4   9  21  42  70 100 133 182 228 276 342 404
#     4  10  22  43  70 101 138 177 227 283 341 408
#
# _framework density 22.277501999999998
#
# number of rings (size 3 to 8) (size 9 to 14) (size 15 to 20)
#    0.000    2.000    0.000    0.750   10.500    3.000 
#    0.000    0.000    0.000    0.000    0.000    0.000 
#    0.000    0.000    0.000    0.000    0.000    0.000 
#
# Total GULP energy -178612.596789 kJ/mol
# GULP energy per Si atom -5581.643650 kJ/mol
# Density = 2.222680 g / cm^3
# Si number density = 22.277502 Si / 1000 Ang^3
#
#
#
# Elastic Constant Matrix: (Units=GPa)
#
#
# Indices 1 2 3 4 5 6 
#
# 1 99.8870 31.9547 7.1726 0.0000 0.0000 0.0000
# 2 31.9547 121.2280 17.2709 0.0000 0.0000 0.0000
# 3 7.1726 17.2709 98.7835 0.0000 0.0000 0.0000
# 4 0.0000 0.0000 0.0000 39.8254 0.0000 0.0000
# 5 0.0000 0.0000 0.0000 0.0000 5.3402 0.0000
# 6 0.0000 0.0000 0.0000 0.0000 0.0000 57.2638
#
#
#
# Elastic Compliance Matrix: (Units=1/GPa)
#
#
# Indices 1 2 3 4 5 6 
#
# 1 0.010942 -0.002842 -0.000298 0.000000 0.000000 0.000000
# 2 -0.002842 0.009198 -0.001402 0.000000 0.000000 0.000000
# 3 -0.000298 -0.001402 0.010390 0.000000 0.000000 0.000000
# 4 0.000000 0.000000 0.000000 0.025110 0.000000 0.000000
# 5 0.000000 0.000000 0.000000 0.000000 0.187259 0.000000
# 6 0.000000 0.000000 0.000000 0.000000 0.000000 0.017463
#
#
# Mechanical properties :
#
#
# Convention : Reuss Voigt Hill
#
# Bulk Modulus (GPa) = 46.62654 48.07722 47.35188
# Shear Modulus (GPa) = 18.07718 38.05257 28.06488
#
# Velocity S-wave (km/s) = 2.85169 4.13742 3.55320
# Velocity P-wave (km/s) = 5.64076 6.66725 6.17537
#
# Compressibility (1/GPa) = 0.02144701
#
# Stress axis : x y z
#
# Youngs Moduli (GPa) = 91.39278 108.72299 96.24796
#
# Poissons Ratio (x) = 0.30896 0.02865
# Poissons Ratio (y) = 0.25972 0.13492
# Poissons Ratio (z) = 0.02720 0.15240
#
# Static dielectric constant tensor:
#      x y z
#    x 1.901130 0.000000 0.000000 
#    y 0.000000 1.869680 0.000000 
#    z 0.000000 0.000000 1.842300 
# 
# From -- ./inp_files/14695.got.cif
#   From: 2010.05.17/outbox.cif.g08.bks.cpg/sg57_8_cif.got.tgz:14695.got - 2010.06.03 13:58:18.
