data_PCOD9439467
_publ_section_title
;
Structure prediction by ZEFSAII (Michael W. Deem and Ramdas Pophale) SiO2 
 PCOD9439467
Probable space group: P B C M
;
_chemical_formula_sum "Si O2"
_cell_formula_units_Z 44
_cell_length_a 8.671642
_cell_length_b 7.796008
_cell_length_c 29.603006
_cell_angle_alpha 90.000000
_cell_angle_beta 90.000000
_cell_angle_gamma 90.000000
_cell_volume 2001.287254
_symmetry_space_group_name_H-M "P B C M"
_symmetry_group_IT_number 57
_symmetry_cell_setting 'orthorhombic'
loop_
_space_group_symop_operation_xyz
x,y,z
-x,-y,1/2+z
x,1/2-y,-z
-x,1/2+y,1/2-z
-x,-y,-z
x,y,1/2-z
-x,1/2+y,z
x,1/2-y,1/2+z
loop_
_atom_site_type_symbol
_atom_site_label
_atom_site_fract_x
_atom_site_fract_y
_atom_site_fract_z
Si Si1 0.990737 0.414959 0.250000
Si Si2 0.113238 0.250000 0.000000
Si Si3 0.104133 0.006276 0.648906
Si Si4 0.657794 0.811122 0.652154
Si Si5 0.675007 0.202913 0.876163
Si Si6 0.882045 0.041471 0.562783
Si Si7 0.259967 0.138919 0.250000
O O1 0.035724 0.482788 0.300558
O O2 0.096422 0.242890 0.250000
O O3 0.804763 0.443305 0.250000
O O4 0.189653 0.380295 0.964211
O O5 0.005759 0.133890 0.968509
O O6 0.215592 0.841536 0.647651
O O7 0.207601 0.176282 0.640648
O O8 0.979954 0.994865 0.608296
O O9 0.500334 0.759324 0.627960
O O10 0.646088 0.806469 0.706307
O O11 0.686509 0.010056 0.642431
O O12 0.749512 0.177487 0.925258
#
# Coordination Sequence:
#
# PCOD9439467 Si02
#       7
#     4   4   8   8   8   8   4
#     4  10  24  39  65 102 140 181 235 285 330 392
#     4  10  22  40  72 110 124 168 226 310 366 404
#     4  11  24  44  66 104 140 186 234 284 341 406
#     4  11  25  42  64  94 141 193 232 274 343 408
#     4  12  24  43  68  97 137 188 225 283 343 417
#     4  11  22  42  73 102 134 170 233 296 352 414
#     4  10  24  41  61  98 138 185 245 289 332 396
#
# _framework density 21.985847
#
# number of rings (size 3 to 8) (size 9 to 14) (size 15 to 20)
#    0.000    1.091    3.636    2.182    7.636    1.455 
#    0.000    0.909    0.000   18.545    0.000    0.000 
#    0.000    0.000    0.000    0.000    0.000    0.000 
#
# Total GULP energy -245443.638247 kJ/mol
# GULP energy per Si atom -5578.264506 kJ/mol
# Density = 2.193581 g / cm^3
# Si number density = 21.985847 Si / 1000 Ang^3
#
#
#
# Elastic Constant Matrix: (Units=GPa)
#
#
# Indices 1 2 3 4 5 6 
#
# 1 81.8987 21.9855 38.0367 0.0000 0.0000 0.0000
# 2 21.9855 117.7020 28.9162 0.0000 0.0000 0.0000
# 3 38.0367 28.9162 98.6007 0.0000 0.0000 0.0000
# 4 0.0000 0.0000 0.0000 27.2640 0.0000 0.0000
# 5 0.0000 0.0000 0.0000 0.0000 7125.0724 0.0000
# 6 0.0000 0.0000 0.0000 0.0000 0.0000 38.7587
#
#
#
# Elastic Compliance Matrix: (Units=1/GPa)
#
#
# Indices 1 2 3 4 5 6 
#
# 1 0.015117 -0.001499 -0.005392 0.000000 0.000000 0.000000
# 2 -0.001499 0.009304 -0.002150 0.000000 0.000000 0.000000
# 3 -0.005392 -0.002150 0.012853 0.000000 0.000000 0.000000
# 4 0.000000 0.000000 0.000000 0.036678 0.000000 0.000000
# 5 0.000000 0.000000 0.000000 0.000000 0.000140 0.000000
# 6 0.000000 0.000000 0.000000 0.000000 0.000000 0.025801
#
#
# Mechanical properties :
#
#
# Convention : Reuss Voigt Hill
#
# Bulk Modulus (GPa) = 52.10755 52.89757 52.50256
# Shear Modulus (GPa) = 40.20170 1452.16987 746.18578
#
# Velocity S-wave (km/s) = 4.28077 25.72812 18.44263
# Velocity P-wave (km/s) = 6.94156 30.11135 21.85038
#
# Compressibility (1/GPa) = 0.01919108
#
# Stress axis : x y z
#
# Youngs Moduli (GPa) = 66.15151 107.47694 77.80544
#
# Poissons Ratio (x) = 0.16111 0.41952
# Poissons Ratio (y) = 0.09916 0.16731
# Poissons Ratio (z) = 0.35668 0.23112
#
# Static dielectric constant tensor:
#      x y z
#    x 1.819150 0.000000 0.000000 
#    y 0.000000 1.919480 0.000000 
#    z 0.000000 0.000000 1.864310 
# 
# From -- ./inp_files/29423.got.cif
#   From: 2010.05.17/outbox.cif.g08.bks.cpg/sg57_15_cif.got.tgz:29423.got - 2010.06.03 13:58:18.
