data_PCOD9439166
_publ_section_title
;
Structure prediction by ZEFSAII (Michael W. Deem and Ramdas Pophale) SiO2 
 PCOD9439166
Probable space group: P B C M
;
_chemical_formula_sum "Si O2"
_cell_formula_units_Z 48
_cell_length_a 9.910862
_cell_length_b 29.690156
_cell_length_c 8.787070
_cell_angle_alpha 90.000000
_cell_angle_beta 90.000000
_cell_angle_gamma 90.000000
_cell_volume 2585.639624
_symmetry_space_group_name_H-M "P B C M"
_symmetry_group_IT_number 57
_symmetry_cell_setting 'orthorhombic'
loop_
_space_group_symop_operation_xyz
x,y,z
-x,-y,1/2+z
x,1/2-y,-z
-x,1/2+y,1/2-z
-x,-y,-z
x,y,1/2-z
-x,1/2+y,z
x,1/2-y,1/2+z
loop_
_atom_site_type_symbol
_atom_site_label
_atom_site_fract_x
_atom_site_fract_y
_atom_site_fract_z
Si Si1 0.231322 0.201060 0.432818
Si Si2 0.725214 0.120699 0.932049
Si Si3 0.026509 0.376572 0.567548
Si Si4 0.889405 0.532321 0.926917
Si Si5 0.542138 0.299907 0.933406
Si Si6 0.378054 0.527509 0.072801
O O1 0.203374 0.250000 0.500000
O O2 0.227511 0.203475 0.250000
O O3 0.118809 0.165407 0.481488
O O4 0.385887 0.188650 0.474173
O O5 0.724645 0.122058 0.750000
O O6 0.641226 0.162713 0.998682
O O7 0.658480 0.074017 0.989098
O O8 0.878762 0.122692 0.992995
O O9 0.010320 0.375823 0.750000
O O10 0.105358 0.421344 0.517826
O O11 0.921430 0.541121 0.750000
O O12 0.750036 0.505608 0.935070
O O13 0.000000 0.500000 0.000000
O O14 0.553817 0.298837 0.750000
O O15 0.569461 0.250000 0.000000
O O16 0.405561 0.537699 0.250000
O O17 0.500000 0.500000 0.000000
#
# Coordination Sequence:
#
# PCOD9439166 Si02
#       6
#     8   8   8   8   8   8
#     4   9  21  40  64  92 121 156 198 247 303 361
#     4  12  25  41  62  91 124 164 208 254 307 366
#     4  11  23  40  62  91 124 162 205 254 307 365
#     4  11  23  40  63  90 122 163 205 249 304 363
#     4  10  21  41  65  92 123 160 202 253 309 368
#     4  11  25  43  63  91 125 162 206 255 306 366
#
# _framework density 18.564070999999998
#
# number of rings (size 3 to 8) (size 9 to 14) (size 15 to 20)
#    0.000    1.333    1.667    3.500    2.333    4.667 
#    0.000    1.667    0.000    0.000    0.000    0.000 
#    0.000    0.000    0.000    0.000    0.000    0.000 
#
# Total GULP energy -268289.863451 kJ/mol
# GULP energy per Si atom -5589.372155 kJ/mol
# Density = 1.852182 g / cm^3
# Si number density = 18.564071 Si / 1000 Ang^3
#
#
#
# Elastic Constant Matrix: (Units=GPa)
#
#
# Indices 1 2 3 4 5 6 
#
# 1 75.7064 64.1543 58.2128 0.0000 0.0000 0.0000
# 2 64.1543 136.2810 57.7458 0.0000 0.0000 0.0000
# 3 58.2128 57.7458 114.0111 0.0000 0.0000 0.0000
# 4 0.0000 0.0000 0.0000 37.7749 0.0000 0.0000
# 5 0.0000 0.0000 0.0000 0.0000 28.5561 0.0000
# 6 0.0000 0.0000 0.0000 0.0000 0.0000 38.4117
#
#
#
# Elastic Compliance Matrix: (Units=1/GPa)
#
#
# Indices 1 2 3 4 5 6 
#
# 1 0.028774 -0.009320 -0.009971 0.000000 0.000000 0.000000
# 2 -0.009320 0.012362 -0.001502 0.000000 0.000000 0.000000
# 3 -0.009971 -0.001502 0.014623 0.000000 0.000000 0.000000
# 4 0.000000 0.000000 0.000000 0.026473 0.000000 0.000000
# 5 0.000000 0.000000 0.000000 0.000000 0.035019 0.000000
# 6 0.000000 0.000000 0.000000 0.000000 0.000000 0.026034
#
#
# Mechanical properties :
#
#
# Convention : Reuss Voigt Hill
#
# Bulk Modulus (GPa) = 70.56363 76.24714 73.40538
# Shear Modulus (GPa) = 26.37188 30.67423 28.52306
#
# Velocity S-wave (km/s) = 3.77316 4.06931 3.92403
# Velocity P-wave (km/s) = 7.55484 7.95240 7.75617
#
# Compressibility (1/GPa) = 0.01417161
#
# Stress axis : x y z
#
# Youngs Moduli (GPa) = 34.75337 80.89331 68.38506
#
# Poissons Ratio (x) = 0.75396 0.68187
# Poissons Ratio (y) = 0.32392 0.10274
# Poissons Ratio (z) = 0.34653 0.12153
#
# Static dielectric constant tensor:
#      x y z
#    x 1.618730 0.000000 0.000000 
#    y 0.000000 1.610860 0.000000 
#    z 0.000000 0.000000 1.631600 
# 
# From -- ./inp_files/2011.got.cif
#   From: 2010.05.17/outbox.cif.g08.bks.cpg/sg57_2_cif.got.tgz:2011.got - 2010.06.03 13:58:18.
