data_PCOD9439818
_publ_section_title
;
Structure prediction by ZEFSAII (Michael W. Deem and Ramdas Pophale) SiO2 
 PCOD9439818
Probable space group: P B C M
;
_chemical_formula_sum "Si O2"
_cell_formula_units_Z 24
_cell_length_a 13.804835
_cell_length_b 8.508389
_cell_length_c 9.211985
_cell_angle_alpha 90.000000
_cell_angle_beta 90.000000
_cell_angle_gamma 90.000000
_cell_volume 1082.011259
_symmetry_space_group_name_H-M "P B C M"
_symmetry_group_IT_number 57
_symmetry_cell_setting 'orthorhombic'
loop_
_space_group_symop_operation_xyz
x,y,z
-x,-y,1/2+z
x,1/2-y,-z
-x,1/2+y,1/2-z
-x,-y,-z
x,y,1/2-z
-x,1/2+y,z
x,1/2-y,1/2+z
loop_
_atom_site_type_symbol
_atom_site_label
_atom_site_fract_x
_atom_site_fract_y
_atom_site_fract_z
Si Si1 0.000086 0.750000 0.500000
Si Si2 0.248593 0.015665 0.750000
Si Si3 0.856734 0.174475 0.750000
Si Si4 0.138194 0.345529 0.750000
Si Si5 0.582770 0.091628 0.084385
O O1 0.929684 0.656121 0.392530
O O2 0.073280 0.830626 0.388554
O O3 0.194995 0.845290 0.750000
O O4 0.320609 0.009991 0.611651
O O5 0.188543 0.174669 0.750000
O O6 0.800355 0.007728 0.750000
O O7 0.550570 0.130422 0.250000
O O8 0.607026 0.250000 0.000000
O O9 0.500000 0.000000 0.000000
#
# Coordination Sequence:
#
# PCOD9439818 Si02
#       5
#     4   4   4   4   8
#     4  10  26  42  70 104 144 196 238 296 356 422
#     4  10  28  42  74 106 144 182 250 294 362 438
#     4  11  25  44  70 100 148 190 240 297 355 420
#     4  11  25  46  68 104 144 192 244 289 361 426
#     4  10  23  48  73 104 142 186 240 303 378 440
#
# _framework density 22.180917000000001
#
# number of rings (size 3 to 8) (size 9 to 14) (size 15 to 20)
#    1.000    0.667    0.000    2.000   16.333    0.000 
#    9.000    0.000    3.667    0.000    0.000    0.000 
#    0.000    0.000    0.000    0.000    0.000    0.000 
#
# Total GULP energy -133771.488616 kJ/mol
# GULP energy per Si atom -5573.812026 kJ/mol
# Density = 2.213043 g / cm^3
# Si number density = 22.180917 Si / 1000 Ang^3
#
#
#
# Elastic Constant Matrix: (Units=GPa)
#
#
# Indices 1 2 3 4 5 6 
#
# 1 93.5694 72.1150 29.3593 0.0000 0.0000 0.0000
# 2 72.1150 173.2711 36.5023 0.0000 0.0000 0.0000
# 3 29.3593 36.5023 155.1549 0.0000 0.0000 0.0000
# 4 0.0000 0.0000 0.0000 -37.3931 0.0000 0.0000
# 5 0.0000 0.0000 0.0000 0.0000 37.6000 0.0000
# 6 0.0000 0.0000 0.0000 0.0000 0.0000 -68.2142
#
#
#
# Elastic Compliance Matrix: (Units=1/GPa)
#
#
# Indices 1 2 3 4 5 6 
#
# 1 0.016079 -0.006366 -0.001545 0.000000 0.000000 0.000000
# 2 -0.006366 0.008593 -0.000817 0.000000 0.000000 0.000000
# 3 -0.001545 -0.000817 0.006930 0.000000 0.000000 0.000000
# 4 0.000000 0.000000 0.000000 -0.026743 0.000000 0.000000
# 5 0.000000 0.000000 0.000000 0.000000 0.026596 0.000000
# 6 0.000000 0.000000 0.000000 0.000000 0.000000 -0.014660
#
#
# Mechanical properties :
#
#
# Convention : Reuss Voigt Hill
#
# Bulk Modulus (GPa) = 70.69540 77.54986 74.12263
# Shear Modulus (GPa) = 128.31723 5.33312 66.82517
#
# Velocity S-wave (km/s) = 7.61419 1.55229 5.49479
# Velocity P-wave (km/s) = 10.45191 6.18475 8.58760
#
# Compressibility (1/GPa) = 0.01414519
#
# Stress axis : x y z
#
# Youngs Moduli (GPa) = 62.19425 116.37208 144.30707
#
# Poissons Ratio (x) = 0.74088 0.22291
# Poissons Ratio (y) = 0.39596 0.11789
# Poissons Ratio (z) = 0.09607 0.09507
#
# Static dielectric constant tensor:
#      x y z
#    x 1.829750 0.000000 0.000000 
#    y 0.000000 1.908930 0.000000 
#    z 0.000000 0.000000 1.795910 
# 
# From -- ./inp_files/3964.got.cif
#   From: 2010.05.17/outbox.cif.g08.bks.cpg/sg57_2_cif.got.tgz:3964.got - 2010.06.03 13:58:18.
