data_PCOD9439019
_publ_section_title
;
Structure prediction by ZEFSAII (Michael W. Deem and Ramdas Pophale) SiO2 
 PCOD9439019
Probable space group: P B C M
;
_chemical_formula_sum "Si O2"
_cell_formula_units_Z 64
_cell_length_a 25.134859
_cell_length_b 15.307262
_cell_length_c 7.858045
_cell_angle_alpha 90.000000
_cell_angle_beta 90.000000
_cell_angle_gamma 90.000000
_cell_volume 3023.350376
_symmetry_space_group_name_H-M "P B C M"
_symmetry_group_IT_number 57
_symmetry_cell_setting 'orthorhombic'
loop_
_space_group_symop_operation_xyz
x,y,z
-x,-y,1/2+z
x,1/2-y,-z
-x,1/2+y,1/2-z
-x,-y,-z
x,y,1/2-z
-x,1/2+y,z
x,1/2-y,1/2+z
loop_
_atom_site_type_symbol
_atom_site_label
_atom_site_fract_x
_atom_site_fract_y
_atom_site_fract_z
Si Si1 0.007799 0.148836 0.946078
Si Si2 0.499887 0.103382 0.044866
Si Si3 0.729720 0.154247 0.046696
Si Si4 0.385582 0.394109 0.546278
Si Si5 0.614356 0.099160 0.043990
Si Si6 0.804649 0.501931 0.051522
Si Si7 0.270318 0.344957 0.954771
Si Si8 0.075323 0.987215 0.550742
O O1 0.022335 0.153588 0.750000
O O2 0.049333 0.077131 0.022310
O O3 0.006874 0.250000 0.000000
O O4 0.951850 0.097932 0.968017
O O5 0.499304 0.111301 0.250000
O O6 0.443078 0.138132 0.978726
O O7 0.557374 0.136616 0.982467
O O8 0.500000 0.000000 0.000000
O O9 0.729987 0.142176 0.250000
O O10 0.668660 0.143498 0.984434
O O11 0.748744 0.250000 0.000000
O O12 0.767551 0.082293 0.966681
O O13 0.386145 0.381086 0.750000
O O14 0.382786 0.497856 0.510974
O O15 0.330782 0.354731 0.477314
O O16 0.613664 0.101724 0.250000
O O17 0.814970 0.519259 0.250000
O O18 0.769140 0.580966 0.979407
O O19 0.861609 0.489641 0.967418
O O20 0.273235 0.355026 0.750000
O O21 0.249867 0.250000 0.000000
O O22 0.061438 0.981337 0.750000
#
# Coordination Sequence:
#
# PCOD9439019 Si02
#       8
#     8   8   8   8   8   8   8   8
#     4  10  21  39  65  96 131 167 200 239 283 330
#     4   8  14  25  45  72 100 131 172 222 279 345
#     4  11  23  38  57  81 111 148 191 240 294 352
#     4   9  16  30  51  74 103 139 179 227 285 345
#     4   9  17  30  50  76 103 136 178 228 286 347
#     4  11  23  41  62  85 117 154 198 246 291 338
#     4  10  22  37  55  80 110 148 191 237 289 344
#     4  10  22  40  63  93 126 161 202 241 285 337
#
# _framework density 21.168568
#
# number of rings (size 3 to 8) (size 9 to 14) (size 15 to 20)
#    0.000    2.250    1.250    1.500    0.000    4.500 
#    0.000    5.625    0.000    0.000    0.000    0.000 
#    0.000    0.000    0.000    0.000    0.000    0.000 
#
# Total GULP energy -357030.449663 kJ/mol
# GULP energy per Si atom -5578.600776 kJ/mol
# Density = 2.112039 g / cm^3
# Si number density = 21.168568 Si / 1000 Ang^3
#
#
#
# Elastic Constant Matrix: (Units=GPa)
#
#
# Indices 1 2 3 4 5 6 
#
# 1 122.5310 40.7970 -8.3368 0.0000 0.0000 0.0000
# 2 40.7970 122.0931 -11.6238 0.0000 0.0000 0.0000
# 3 -8.3368 -11.6238 25.5473 0.0000 0.0000 0.0000
# 4 0.0000 0.0000 0.0000 17.6094 0.0000 0.0000
# 5 0.0000 0.0000 0.0000 0.0000 -25.4008 0.0000
# 6 0.0000 0.0000 0.0000 0.0000 0.0000 60.0065
#
#
#
# Elastic Compliance Matrix: (Units=1/GPa)
#
#
# Indices 1 2 3 4 5 6 
#
# 1 0.009252 -0.002931 0.001686 0.000000 0.000000 0.000000
# 2 -0.002931 0.009490 0.003361 0.000000 0.000000 0.000000
# 3 0.001686 0.003361 0.041222 0.000000 0.000000 0.000000
# 4 0.000000 0.000000 0.000000 0.056788 0.000000 0.000000
# 5 0.000000 0.000000 0.000000 0.000000 -0.039369 0.000000
# 6 0.000000 0.000000 0.000000 0.000000 0.000000 0.016665
#
#
# Mechanical properties :
#
#
# Convention : Reuss Voigt Hill
#
# Bulk Modulus (GPa) = 15.57733 34.64936 25.11335
# Shear Modulus (GPa) = 44.95811 27.06536 36.01174
#
# Velocity S-wave (km/s) = 4.61349 3.57958 4.12902
# Velocity P-wave (km/s) = 5.97944 5.78691 5.88396
#
# Compressibility (1/GPa) = 0.06419586
#
# Stress axis : x y z
#
# Youngs Moduli (GPa) = 108.08758 105.37560 24.25863
#
# Poissons Ratio (x) = 0.30885 -0.04089
# Poissons Ratio (y) = 0.31680 -0.08154
# Poissons Ratio (z) = -0.18218 -0.35420
#
# Static dielectric constant tensor:
#      x y z
#    x 1.785010 0.000000 0.000000 
#    y 0.000000 1.740590 0.000000 
#    z 0.000000 0.000000 1.779610 
# 
# From -- ./inp_files/9497.got.cif
#   From: 2010.05.17/outbox.cif.g08.bks.cpg/sg57_5_cif.got.tgz:9497.got - 2010.06.03 13:58:18.
