data_PCOD9439061
_publ_section_title
;
Structure prediction by ZEFSAII (Michael W. Deem and Ramdas Pophale) SiO2 
 PCOD9439061
Probable space group: P B C M
;
_chemical_formula_sum "Si O2"
_cell_formula_units_Z 40
_cell_length_a 12.693794
_cell_length_b 10.234287
_cell_length_c 17.185612
_cell_angle_alpha 90.000000
_cell_angle_beta 90.000000
_cell_angle_gamma 90.000000
_cell_volume 2232.616039
_symmetry_space_group_name_H-M "P B C M"
_symmetry_group_IT_number 57
_symmetry_cell_setting 'orthorhombic'
loop_
_space_group_symop_operation_xyz
x,y,z
-x,-y,1/2+z
x,1/2-y,-z
-x,1/2+y,1/2-z
-x,-y,-z
x,y,1/2-z
-x,1/2+y,z
x,1/2-y,1/2+z
loop_
_atom_site_type_symbol
_atom_site_label
_atom_site_fract_x
_atom_site_fract_y
_atom_site_fract_z
Si Si1 0.513277 0.624781 0.554760
Si Si2 0.321517 0.787168 0.341764
Si Si3 0.910191 0.214792 0.909110
Si Si4 0.306802 0.476928 0.159502
Si Si5 0.939457 0.002410 0.342388
O O1 0.518438 0.750000 0.500000
O O2 0.500000 0.500000 0.500000
O O3 0.413785 0.858950 0.387879
O O4 0.618438 0.606931 0.605198
O O5 0.321867 0.818061 0.250000
O O6 0.207156 0.815466 0.378089
O O7 0.336133 0.630245 0.349668
O O8 0.950189 0.345435 0.865078
O O9 0.906358 0.250000 0.000000
O O10 0.984693 0.092989 0.889719
O O11 0.322005 0.442483 0.250000
O O12 0.182796 0.466861 0.141557
O O13 0.958119 0.987065 0.250000
#
# Coordination Sequence:
#
# PCOD9439061 Si02
#       5
#     8   8   8   8   8
#     4  12  23  39  61  89 119 154 196 251 302 352
#     4  10  21  40  63  85 118 162 200 239 300 370
#     4  11  22  38  63  92 121 155 205 252 302 350
#     4   9  20  39  61  83 118 161 201 239 296 360
#     4  10  21  40  62  86 121 164 199 242 302 364
#
# _framework density 17.916201999999998
#
# number of rings (size 3 to 8) (size 9 to 14) (size 15 to 20)
#    0.000    1.600    2.000    4.800    2.800    0.800 
#    3.600    0.000    0.000    0.000    0.000    0.000 
#    0.000    0.000    0.000    0.000    0.000    0.000 
#
# Total GULP energy -223469.008685 kJ/mol
# GULP energy per Si atom -5586.725217 kJ/mol
# Density = 1.787542 g / cm^3
# Si number density = 17.916202 Si / 1000 Ang^3
#
#
#
# Elastic Constant Matrix: (Units=GPa)
#
#
# Indices 1 2 3 4 5 6 
#
# 1 49.8388 23.3535 33.8604 0.0000 0.0000 0.0000
# 2 23.3535 53.7652 19.3436 0.0000 0.0000 0.0000
# 3 33.8604 19.3436 83.2069 0.0000 0.0000 0.0000
# 4 0.0000 0.0000 0.0000 28.5374 0.0000 0.0000
# 5 0.0000 0.0000 0.0000 0.0000 28.6414 0.0000
# 6 0.0000 0.0000 0.0000 0.0000 0.0000 32.5221
#
#
#
# Elastic Compliance Matrix: (Units=1/GPa)
#
#
# Indices 1 2 3 4 5 6 
#
# 1 0.032057 -0.010073 -0.010703 0.000000 0.000000 0.000000
# 2 -0.010073 0.023462 -0.001355 0.000000 0.000000 0.000000
# 3 -0.010703 -0.001355 0.016689 0.000000 0.000000 0.000000
# 4 0.000000 0.000000 0.000000 0.035042 0.000000 0.000000
# 5 0.000000 0.000000 0.000000 0.000000 0.034914 0.000000
# 6 0.000000 0.000000 0.000000 0.000000 0.000000 0.030748
#
#
# Mechanical properties :
#
#
# Convention : Reuss Voigt Hill
#
# Bulk Modulus (GPa) = 35.78555 37.76954 36.77755
# Shear Modulus (GPa) = 22.07593 25.29042 23.68317
#
# Velocity S-wave (km/s) = 3.51405 3.76120 3.63972
# Velocity P-wave (km/s) = 6.04002 6.32369 6.18349
#
# Compressibility (1/GPa) = 0.02794424
#
# Stress axis : x y z
#
# Youngs Moduli (GPa) = 31.19476 42.62135 59.91992
#
# Poissons Ratio (x) = 0.42934 0.64135
# Poissons Ratio (y) = 0.31423 0.08120
# Poissons Ratio (z) = 0.33389 0.05776
#
# Static dielectric constant tensor:
#      x y z
#    x 1.590030 0.000000 0.000000 
#    y 0.000000 1.584130 0.000000 
#    z 0.000000 0.000000 1.608310 
# 
# From -- ./inp_files/17384.got.cif
#   From: 2010.05.17/outbox.cif.g08.bks.cpg/sg57_9_cif.got.tgz:17384.got - 2010.06.03 13:58:18.
