data_PCOD9439711
_publ_section_title
;
Structure prediction by ZEFSAII (Michael W. Deem and Ramdas Pophale) SiO2 
 PCOD9439711
Probable space group: P B C M
;
_chemical_formula_sum "Si O2"
_cell_formula_units_Z 28
_cell_length_a 4.895472
_cell_length_b 13.517066
_cell_length_c 16.970752
_cell_angle_alpha 90.000000
_cell_angle_beta 90.000000
_cell_angle_gamma 90.000000
_cell_volume 1122.995697
_symmetry_space_group_name_H-M "P B C M"
_symmetry_group_IT_number 57
_symmetry_cell_setting 'orthorhombic'
loop_
_space_group_symop_operation_xyz
x,y,z
-x,-y,1/2+z
x,1/2-y,-z
-x,1/2+y,1/2-z
-x,-y,-z
x,y,1/2-z
-x,1/2+y,z
x,1/2-y,1/2+z
loop_
_atom_site_type_symbol
_atom_site_label
_atom_site_fract_x
_atom_site_fract_y
_atom_site_fract_z
Si Si1 0.991067 0.750000 0.500000
Si Si2 0.360908 0.973077 0.342447
Si Si3 0.848818 0.084846 0.098949
Si Si4 0.982697 0.223841 0.833991
O O1 0.163239 0.849605 0.519686
O O2 0.847987 0.769264 0.416016
O O3 0.380916 0.002046 0.250000
O O4 0.645129 0.996097 0.384522
O O5 0.148579 0.042118 0.388494
O O6 0.232401 0.864455 0.341680
O O7 0.820997 0.172355 0.163049
O O8 0.129190 0.211927 0.750000
#
# Coordination Sequence:
#
# PCOD9439711 Si02
#       4
#     4   8   8   8
#     4   8  22  42  62  94 124 170 200 258 314 358
#     4  11  22  38  67  93 121 169 208 252 313 364
#     4  10  23  42  62  91 128 161 207 257 307 368
#     4   9  20  41  62  94 128 162 210 258 307 370
#
# _framework density 24.933312999999998
#
# number of rings (size 3 to 8) (size 9 to 14) (size 15 to 20)
#    1.714    0.571    0.000    2.571    0.000    5.714 
#    0.000    2.857    0.000    0.000    0.000    0.000 
#    0.000    0.000    0.000    0.000    0.000    0.000 
#
# Total GULP energy -156010.328480 kJ/mol
# GULP energy per Si atom -5571.797446 kJ/mol
# Density = 2.487656 g / cm^3
# Si number density = 24.933313 Si / 1000 Ang^3
#
#
#
# Elastic Constant Matrix: (Units=GPa)
#
#
# Indices 1 2 3 4 5 6 
#
# 1 43.9114 -13.5664 15.1023 0.0000 0.0000 0.0000
# 2 -13.5664 91.9914 1.3631 0.0000 0.0000 0.0000
# 3 15.1023 1.3631 200.1819 0.0000 0.0000 0.0000
# 4 0.0000 0.0000 0.0000 -116.4685 0.0000 0.0000
# 5 0.0000 0.0000 0.0000 0.0000 21.2225 0.0000
# 6 0.0000 0.0000 0.0000 0.0000 0.0000 12.0464
#
#
#
# Elastic Compliance Matrix: (Units=1/GPa)
#
#
# Indices 1 2 3 4 5 6 
#
# 1 0.024546 0.003648 -0.001877 0.000000 0.000000 0.000000
# 2 0.003648 0.011414 -0.000353 0.000000 0.000000 0.000000
# 3 -0.001877 -0.000353 0.005139 0.000000 0.000000 0.000000
# 4 0.000000 0.000000 0.000000 -0.008586 0.000000 0.000000
# 5 0.000000 0.000000 0.000000 0.000000 0.047120 0.000000
# 6 0.000000 0.000000 0.000000 0.000000 0.000000 0.083012
#
#
# Mechanical properties :
#
#
# Convention : Reuss Voigt Hill
#
# Bulk Modulus (GPa) = 22.76094 37.98698 30.37396
# Shear Modulus (GPa) = 28.66090 5.57245 17.11668
#
# Velocity S-wave (km/s) = 3.39411 1.49659 2.62295
# Velocity P-wave (km/s) = 4.95061 4.27258 4.62404
#
# Compressibility (1/GPa) = 0.04393493
#
# Stress axis : x y z
#
# Youngs Moduli (GPa) = 40.74064 87.61363 194.57379
#
# Poissons Ratio (x) = -0.31958 0.36514
# Poissons Ratio (y) = -0.14861 0.06867
# Poissons Ratio (z) = 0.07646 0.03092
#
# Static dielectric constant tensor:
#      x y z
#    x 1.866360 0.000000 0.000000 
#    y 0.000000 1.992420 0.000000 
#    z 0.000000 0.000000 2.065350 
# 
# From -- ./inp_files/19849.got.cif
#   From: 2010.05.17/outbox.cif.g08.bks.cpg/sg57_10_cif.got.tgz:19849.got - 2010.06.03 13:58:18.
