data_PCOD9439419
_publ_section_title
;
Structure prediction by ZEFSAII (Michael W. Deem and Ramdas Pophale) SiO2 
 PCOD9439419
Probable space group: P B C M
;
_chemical_formula_sum "Si O2"
_cell_formula_units_Z 64
_cell_length_a 10.952435
_cell_length_b 17.732861
_cell_length_c 15.786822
_cell_angle_alpha 90.000000
_cell_angle_beta 90.000000
_cell_angle_gamma 90.000000
_cell_volume 3066.085113
_symmetry_space_group_name_H-M "P B C M"
_symmetry_group_IT_number 57
_symmetry_cell_setting 'orthorhombic'
loop_
_space_group_symop_operation_xyz
x,y,z
-x,-y,1/2+z
x,1/2-y,-z
-x,1/2+y,1/2-z
-x,-y,-z
x,y,1/2-z
-x,1/2+y,z
x,1/2-y,1/2+z
loop_
_atom_site_type_symbol
_atom_site_label
_atom_site_fract_x
_atom_site_fract_y
_atom_site_fract_z
Si Si1 0.532722 0.276405 0.905493
Si Si2 0.479425 0.933151 0.654160
Si Si3 0.727633 0.733375 0.898989
Si Si4 0.708533 0.939687 0.151112
Si Si5 0.251996 0.837474 0.348446
Si Si6 0.008895 0.290414 0.412763
Si Si7 0.245407 0.487111 0.650212
Si Si8 0.110573 0.054364 0.987687
O O1 0.566901 0.364366 0.902537
O O2 0.395567 0.273238 0.864199
O O3 0.640084 0.219958 0.875896
O O4 0.509976 0.250000 0.000000
O O5 0.451709 0.907683 0.750000
O O6 0.413858 0.012875 0.642644
O O7 0.620857 0.951513 0.646406
O O8 0.696514 0.646167 0.879182
O O9 0.868975 0.745829 0.869027
O O10 0.738333 0.750000 0.000000
O O11 0.747550 0.940928 0.250000
O O12 0.799286 0.977246 0.084044
O O13 0.273889 0.847826 0.250000
O O14 0.250083 0.924809 0.380499
O O15 0.116844 0.802620 0.362958
O O16 0.974977 0.250000 0.500000
O O17 0.060537 0.370024 0.445421
O O18 0.204315 0.484678 0.750000
O O19 0.170924 0.439945 0.580160
O O20 0.000000 0.000000 0.000000
#
# Coordination Sequence:
#
# PCOD9439419 Si02
#       8
#     8   8   8   8   8   8   8   8
#     4  11  24  38  65  98 129 171 223 273 341 407
#     4  10  23  42  64  96 133 167 215 280 338 405
#     4   9  21  41  63  95 127 167 217 274 334 403
#     4  10  23  41  67  96 131 174 219 271 335 400
#     4  11  23  42  64  93 130 175 223 273 335 405
#     4  10  22  40  63  91 131 166 215 274 327 401
#     4  10  23  41  66  95 130 170 219 277 340 401
#     4  11  23  40  66  93 129 174 222 272 331 395
#
# _framework density 20.873522999999999
#
# number of rings (size 3 to 8) (size 9 to 14) (size 15 to 20)
#    0.000    1.750    1.250    1.500   10.500    6.000 
#    0.000    0.625    0.000    0.000    0.000    0.000 
#    0.000    0.000    0.000    0.000    0.000    0.000 
#
# Total GULP energy -356490.580477 kJ/mol
# GULP energy per Si atom -5570.165320 kJ/mol
# Density = 2.082601 g / cm^3
# Si number density = 20.873523 Si / 1000 Ang^3
#
#
#
# Elastic Constant Matrix: (Units=GPa)
#
#
# Indices 1 2 3 4 5 6 
#
# 1 90.0091 12.4695 20.7829 0.0000 0.0000 0.0000
# 2 12.4695 43.3909 3.9287 0.0000 0.0000 0.0000
# 3 20.7829 3.9287 56.9681 0.0000 0.0000 0.0000
# 4 0.0000 0.0000 0.0000 32.3588 0.0000 0.0000
# 5 0.0000 0.0000 0.0000 0.0000 0.5314 0.0000
# 6 0.0000 0.0000 0.0000 0.0000 0.0000 14.7096
#
#
#
# Elastic Compliance Matrix: (Units=1/GPa)
#
#
# Indices 1 2 3 4 5 6 
#
# 1 0.012562 -0.003215 -0.004361 0.000000 0.000000 0.000000
# 2 -0.003215 0.024014 -0.000483 0.000000 0.000000 0.000000
# 3 -0.004361 -0.000483 0.019178 0.000000 0.000000 0.000000
# 4 0.000000 0.000000 0.000000 0.030903 0.000000 0.000000
# 5 0.000000 0.000000 0.000000 0.000000 1.881870 0.000000
# 6 0.000000 0.000000 0.000000 0.000000 0.000000 0.067983
#
#
# Mechanical properties :
#
#
# Convention : Reuss Voigt Hill
#
# Bulk Modulus (GPa) = 25.23004 29.41448 27.32226
# Shear Modulus (GPa) = 2.42032 19.73243 11.07637
#
# Velocity S-wave (km/s) = 1.07798 3.07796 2.30607
# Velocity P-wave (km/s) = 3.69631 5.17244 4.49538
#
# Compressibility (1/GPa) = 0.03963529
#
# Stress axis : x y z
#
# Youngs Moduli (GPa) = 79.60252 41.64231 52.14291
#
# Poissons Ratio (x) = 0.13389 0.22741
# Poissons Ratio (y) = 0.25594 0.02519
# Poissons Ratio (z) = 0.34717 0.02012
#
# Static dielectric constant tensor:
#      x y z
#    x 1.816640 0.000000 0.000000 
#    y 0.000000 1.806120 0.000000 
#    z 0.000000 0.000000 1.668630 
# 
# From -- ./inp_files/17949.got.cif
#   From: 2010.05.17/outbox.cif.g08.bks.cpg/sg57_9_cif.got.tgz:17949.got - 2010.06.03 13:58:18.
