data_PCOD9439010
_publ_section_title
;
Structure prediction by ZEFSAII (Michael W. Deem and Ramdas Pophale) SiO2 
 PCOD9439010
Probable space group: P B C M
;
_chemical_formula_sum "Si O2"
_cell_formula_units_Z 64
_cell_length_a 17.985912
_cell_length_b 20.524519
_cell_length_c 8.469535
_cell_angle_alpha 90.000000
_cell_angle_beta 90.000000
_cell_angle_gamma 90.000000
_cell_volume 3126.547415
_symmetry_space_group_name_H-M "P B C M"
_symmetry_group_IT_number 57
_symmetry_cell_setting 'orthorhombic'
loop_
_space_group_symop_operation_xyz
x,y,z
-x,-y,1/2+z
x,1/2-y,-z
-x,1/2+y,1/2-z
-x,-y,-z
x,y,1/2-z
-x,1/2+y,z
x,1/2-y,1/2+z
loop_
_atom_site_type_symbol
_atom_site_label
_atom_site_fract_x
_atom_site_fract_y
_atom_site_fract_z
Si Si1 0.705884 0.323363 0.941886
Si Si2 0.074235 0.464343 0.058159
Si Si3 0.870690 0.820889 0.060021
Si Si4 0.549799 0.816403 0.068079
Si Si5 0.435511 0.909344 0.560691
Si Si6 0.704687 0.843924 0.932682
Si Si7 0.198469 0.563918 0.071105
Si Si8 0.655910 0.524658 0.568813
O O1 0.707253 0.324763 0.750000
O O2 0.629018 0.358666 0.992051
O O3 0.775858 0.367246 0.000523
O O4 0.708856 0.250000 0.000000
O O5 0.075661 0.462887 0.250000
O O6 0.087599 0.388420 0.009463
O O7 0.140519 0.512432 0.000734
O O8 0.000000 0.500000 0.000000
O O9 0.870109 0.819512 0.250000
O O10 0.898859 0.750000 0.000000
O O11 0.785851 0.828112 0.998820
O O12 0.534178 0.818426 0.250000
O O13 0.516428 0.750000 0.000000
O O14 0.513167 0.879351 0.990199
O O15 0.637267 0.815054 0.033665
O O16 0.432865 0.912429 0.750000
O O17 0.411993 0.981221 0.505982
O O18 0.699218 0.824559 0.750000
O O19 0.686746 0.920019 0.955958
O O20 0.171230 0.577340 0.250000
O O21 0.276280 0.525927 0.083672
O O22 0.641536 0.549249 0.750000
#
# Coordination Sequence:
#
# PCOD9439010 Si02
#       8
#     8   8   8   8   8   8   8   8
#     4   9  17  30  52  79 109 147 192 239 292 346
#     4  10  21  39  65  92 123 159 196 237 289 351
#     4  11  23  42  67  94 125 162 202 247 301 357
#     4  12  25  40  56  75 108 151 197 249 306 366
#     4   9  19  35  56  80 109 149 196 247 300 360
#     4  12  24  38  59  87 118 151 196 250 301 358
#     4   8  15  33  57  80 110 152 192 231 283 345
#     4   9  17  35  60  83 111 149 194 240 295 355
#
# _framework density 20.469864000000001
#
# number of rings (size 3 to 8) (size 9 to 14) (size 15 to 20)
#    0.000    2.000    1.250    4.875    0.000    3.500 
#    0.000    3.125    0.000    3.000    0.000    0.000 
#    0.000    0.000    0.000    0.000    0.000    0.000 
#
# Total GULP energy -356963.191043 kJ/mol
# GULP energy per Si atom -5577.549860 kJ/mol
# Density = 2.042327 g / cm^3
# Si number density = 20.469864 Si / 1000 Ang^3
#
#
#
# Elastic Constant Matrix: (Units=GPa)
#
#
# Indices 1 2 3 4 5 6 
#
# 1 68.6489 37.2208 -8.8209 0.0000 0.0000 0.0000
# 2 37.2208 147.2169 12.6185 0.0000 0.0000 0.0000
# 3 -8.8209 12.6185 21.3045 0.0000 0.0000 0.0000
# 4 0.0000 0.0000 0.0000 29.4358 0.0000 0.0000
# 5 0.0000 0.0000 0.0000 0.0000 19.5873 0.0000
# 6 0.0000 0.0000 0.0000 0.0000 0.0000 10.4018
#
#
#
# Elastic Compliance Matrix: (Units=1/GPa)
#
#
# Indices 1 2 3 4 5 6 
#
# 1 0.019192 -0.005829 0.011399 0.000000 0.000000 0.000000
# 2 -0.005829 0.008927 -0.007701 0.000000 0.000000 0.000000
# 3 0.011399 -0.007701 0.056219 0.000000 0.000000 0.000000
# 4 0.000000 0.000000 0.000000 0.033972 0.000000 0.000000
# 5 0.000000 0.000000 0.000000 0.000000 0.051054 0.000000
# 6 0.000000 0.000000 0.000000 0.000000 0.000000 0.096138
#
#
# Mechanical properties :
#
#
# Convention : Reuss Voigt Hill
#
# Bulk Modulus (GPa) = 12.48818 35.46743 23.97781
# Shear Modulus (GPa) = 16.86594 24.96176 20.91385
#
# Velocity S-wave (km/s) = 2.87355 3.49584 3.19986
# Velocity P-wave (km/s) = 4.13808 5.80162 5.03897
#
# Compressibility (1/GPa) = 0.08007572
#
# Stress axis : x y z
#
# Youngs Moduli (GPa) = 52.10439 112.02463 17.78755
#
# Poissons Ratio (x) = 0.65304 -0.20276
# Poissons Ratio (y) = 0.30374 0.13698
# Poissons Ratio (z) = -0.59394 0.86267
#
# Static dielectric constant tensor:
#      x y z
#    x 1.742890 0.000000 0.000000 
#    y 0.000000 1.815950 0.000000 
#    z 0.000000 0.000000 1.708890 
# 
# From -- ./inp_files/7127.got.cif
#   From: 2010.05.17/outbox.cif.g08.bks.cpg/sg57_4_cif.got.tgz:7127.got - 2010.06.03 13:58:18.
