data_PCOD9439243
_publ_section_title
;
Structure prediction by ZEFSAII (Michael W. Deem and Ramdas Pophale) SiO2 
 PCOD9439243
Probable space group: P B C M
;
_chemical_formula_sum "Si O2"
_cell_formula_units_Z 32
_cell_length_a 5.230558
_cell_length_b 9.203362
_cell_length_c 23.678902
_cell_angle_alpha 90.000000
_cell_angle_beta 90.000000
_cell_angle_gamma 90.000000
_cell_volume 1139.872003
_symmetry_space_group_name_H-M "P B C M"
_symmetry_group_IT_number 57
_symmetry_cell_setting 'orthorhombic'
loop_
_space_group_symop_operation_xyz
x,y,z
-x,-y,1/2+z
x,1/2-y,-z
-x,1/2+y,1/2-z
-x,-y,-z
x,y,1/2-z
-x,1/2+y,z
x,1/2-y,1/2+z
loop_
_atom_site_type_symbol
_atom_site_label
_atom_site_fract_x
_atom_site_fract_y
_atom_site_fract_z
Si Si1 0.866796 0.966043 0.250000
Si Si2 0.015936 0.434800 0.875277
Si Si3 0.311530 0.386500 0.033351
Si Si4 0.335031 0.688031 0.627478
Si Si5 0.619603 0.310886 0.250000
O O1 0.925997 0.030567 0.188827
O O2 0.562127 0.951156 0.250000
O O3 0.074608 0.833713 0.250000
O O4 0.935845 0.268032 0.879869
O O5 0.288227 0.514365 0.873373
O O6 0.871990 0.513069 0.927942
O O7 0.486593 0.209691 0.924882
O O8 0.181222 0.250000 0.000000
O O9 0.500000 0.500000 0.000000
O O10 0.448085 0.741718 0.687155
#
# Coordination Sequence:
#
# PCOD9439243 Si02
#       5
#     4   8   8   8   4
#     4  10  21  44  74 111 145 190 236 306 367 451
#     4  11  25  45  71 104 142 186 239 302 371 439
#     4  12  26  45  68 100 137 188 245 302 359 434
#     4  11  25  45  71 105 141 188 238 303 369 443
#     4  10  21  44  74 111 147 186 242 296 379 435
#
# _framework density 28.073329999999999
#
# number of rings (size 3 to 8) (size 9 to 14) (size 15 to 20)
#    0.000    1.000    5.000    0.750    3.500    2.000 
#    0.000    2.500    0.000    0.000    0.000    0.000 
#    0.000    0.000    0.000    0.000    0.000    0.000 
#
# Total GULP energy -178437.057148 kJ/mol
# GULP energy per Si atom -5576.158036 kJ/mol
# Density = 2.800943 g / cm^3
# Si number density = 28.073330 Si / 1000 Ang^3
#
#
#
# Elastic Constant Matrix: (Units=GPa)
#
#
# Indices 1 2 3 4 5 6 
#
# 1 31.8364 0.7772 20.9054 0.0000 0.0000 0.0000
# 2 0.7772 106.0788 48.7318 0.0000 0.0000 0.0000
# 3 20.9054 48.7318 189.4735 0.0000 0.0000 0.0000
# 4 0.0000 0.0000 0.0000 16.1864 0.0000 0.0000
# 5 0.0000 0.0000 0.0000 0.0000 52.6654 0.0000
# 6 0.0000 0.0000 0.0000 0.0000 0.0000 34.5570
#
#
#
# Elastic Compliance Matrix: (Units=1/GPa)
#
#
# Indices 1 2 3 4 5 6 
#
# 1 0.034125 0.001678 -0.004197 0.000000 0.000000 0.000000
# 2 0.001678 0.010773 -0.002956 0.000000 0.000000 0.000000
# 3 -0.004197 -0.002956 0.006501 0.000000 0.000000 0.000000
# 4 0.000000 0.000000 0.000000 0.061780 0.000000 0.000000
# 5 0.000000 0.000000 0.000000 0.000000 0.018988 0.000000
# 6 0.000000 0.000000 0.000000 0.000000 0.000000 0.028938
#
#
# Mechanical properties :
#
#
# Convention : Reuss Voigt Hill
#
# Bulk Modulus (GPa) = 24.72201 52.02417 38.37309
# Shear Modulus (GPa) = 26.94874 37.81336 32.38105
#
# Velocity S-wave (km/s) = 3.10165 3.67406 3.39993
# Velocity P-wave (km/s) = 4.65321 6.04732 5.39548
#
# Compressibility (1/GPa) = 0.04044978
#
# Stress axis : x y z
#
# Youngs Moduli (GPa) = 29.30368 92.82877 153.82150
#
# Poissons Ratio (x) = -0.15576 0.64555
# Poissons Ratio (y) = -0.04917 0.45466
# Poissons Ratio (z) = 0.12298 0.27438
#
# Static dielectric constant tensor:
#      x y z
#    x 2.211280 0.000000 0.000000 
#    y 0.000000 2.276760 0.000000 
#    z 0.000000 0.000000 2.185850 
# 
# From -- ./inp_files/23396.got.cif
#   From: 2010.05.17/outbox.cif.g08.bks.cpg/sg57_12_cif.got.tgz:23396.got - 2010.06.03 13:58:18.
