data_PCOD9439129
_publ_section_title
;
Structure prediction by ZEFSAII (Michael W. Deem and Ramdas Pophale) SiO2 
 PCOD9439129
Probable space group: P B C M
;
_chemical_formula_sum "Si O2"
_cell_formula_units_Z 48
_cell_length_a 11.666178
_cell_length_b 12.370073
_cell_length_c 15.753177
_cell_angle_alpha 90.000000
_cell_angle_beta 90.000000
_cell_angle_gamma 90.000000
_cell_volume 2273.364185
_symmetry_space_group_name_H-M "P B C M"
_symmetry_group_IT_number 57
_symmetry_cell_setting 'orthorhombic'
loop_
_space_group_symop_operation_xyz
x,y,z
-x,-y,1/2+z
x,1/2-y,-z
-x,1/2+y,1/2-z
-x,-y,-z
x,y,1/2-z
-x,1/2+y,z
x,1/2-y,1/2+z
loop_
_atom_site_type_symbol
_atom_site_label
_atom_site_fract_x
_atom_site_fract_y
_atom_site_fract_z
Si Si1 0.434332 0.280231 0.093915
Si Si2 0.897443 0.867309 0.406029
Si Si3 0.689147 0.991048 0.348379
Si Si4 0.322619 0.769934 0.847604
Si Si5 0.799784 0.648626 0.402047
Si Si6 0.145390 0.911126 0.349997
O O1 0.386127 0.401200 0.103669
O O2 0.545477 0.265466 0.150677
O O3 0.326787 0.199832 0.109076
O O4 0.474095 0.250000 0.000000
O O5 0.819224 0.948799 0.352965
O O6 0.881972 0.745482 0.370566
O O7 0.839335 0.866902 0.499690
O O8 0.029052 0.898965 0.403272
O O9 0.650528 0.991948 0.250000
O O10 0.683740 0.110612 0.387075
O O11 0.286301 0.785696 0.750000
O O12 0.239235 0.676273 0.880715
O O13 0.809421 0.533007 0.359439
O O14 0.119791 0.892921 0.250000
#
# Coordination Sequence:
#
# PCOD9439129 Si02
#       6
#     8   8   8   8   8   8
#     4  11  22  43  65  91 124 168 214 266 315 381
#     4  10  21  43  66  92 128 164 210 265 323 383
#     4  10  21  40  66  91 123 169 211 261 323 377
#     4  10  25  42  60  95 133 166 213 264 316 378
#     4  10  22  43  66  92 127 164 214 268 320 378
#     4  11  25  41  64  97 130 168 215 263 316 384
#
# _framework density 21.114083999999998
#
# number of rings (size 3 to 8) (size 9 to 14) (size 15 to 20)
#    0.000    1.667    3.333    1.500    4.667    6.000 
#    3.000    0.000    0.000    0.000    0.000    0.000 
#    0.000    0.000    0.000    0.000    0.000    0.000 
#
# Total GULP energy -267892.862454 kJ/mol
# GULP energy per Si atom -5581.101301 kJ/mol
# Density = 2.106603 g / cm^3
# Si number density = 21.114084 Si / 1000 Ang^3
#
#
#
# Elastic Constant Matrix: (Units=GPa)
#
#
# Indices 1 2 3 4 5 6 
#
# 1 95.6469 71.9004 8.2246 0.0000 0.0000 0.0000
# 2 71.9004 164.0004 -0.4788 0.0000 0.0000 0.0000
# 3 8.2246 -0.4788 25.6273 0.0000 0.0000 0.0000
# 4 0.0000 0.0000 0.0000 23.9616 0.0000 0.0000
# 5 0.0000 0.0000 0.0000 0.0000 10.9391 0.0000
# 6 0.0000 0.0000 0.0000 0.0000 0.0000 13.5137
#
#
#
# Elastic Compliance Matrix: (Units=1/GPa)
#
#
# Indices 1 2 3 4 5 6 
#
# 1 0.016300 -0.007162 -0.005365 0.000000 0.000000 0.000000
# 2 -0.007162 0.009245 0.002471 0.000000 0.000000 0.000000
# 3 -0.005365 0.002471 0.040789 0.000000 0.000000 0.000000
# 4 0.000000 0.000000 0.000000 0.041733 0.000000 0.000000
# 5 0.000000 0.000000 0.000000 0.000000 0.091415 0.000000
# 6 0.000000 0.000000 0.000000 0.000000 0.000000 0.073999
#
#
# Mechanical properties :
#
#
# Convention : Reuss Voigt Hill
#
# Bulk Modulus (GPa) = 21.63465 49.39634 35.51549
# Shear Modulus (GPa) = 16.18120 23.39145 19.78633
#
# Velocity S-wave (km/s) = 2.77134 3.33206 3.06455
# Velocity P-wave (km/s) = 4.52871 6.18460 5.42026
#
# Compressibility (1/GPa) = 0.04622215
#
# Stress axis : x y z
#
# Youngs Moduli (GPa) = 61.34850 108.17024 24.51651
#
# Poissons Ratio (x) = 0.77471 0.13153
# Poissons Ratio (y) = 0.43938 -0.06059
# Poissons Ratio (z) = 0.32914 -0.26731
#
# Static dielectric constant tensor:
#      x y z
#    x 1.738210 0.000000 0.000000 
#    y 0.000000 1.769510 0.000000 
#    z 0.000000 0.000000 1.816280 
# 
# From -- ./inp_files/21806.got.cif
#   From: 2010.05.17/outbox.cif.g08.bks.cpg/sg57_11_cif.got.tgz:21806.got - 2010.06.03 13:58:18.
