data_PCOD9439176
_publ_section_title
;
Structure prediction by ZEFSAII (Michael W. Deem and Ramdas Pophale) SiO2 
 PCOD9439176
Probable space group: P B C M
;
_chemical_formula_sum "Si O2"
_cell_formula_units_Z 64
_cell_length_a 10.031189
_cell_length_b 22.125427
_cell_length_c 15.351158
_cell_angle_alpha 90.000000
_cell_angle_beta 90.000000
_cell_angle_gamma 90.000000
_cell_volume 3407.102630
_symmetry_space_group_name_H-M "P B C M"
_symmetry_group_IT_number 57
_symmetry_cell_setting 'orthorhombic'
loop_
_space_group_symop_operation_xyz
x,y,z
-x,-y,1/2+z
x,1/2-y,-z
-x,1/2+y,1/2-z
-x,-y,-z
x,y,1/2-z
-x,1/2+y,z
x,1/2-y,1/2+z
loop_
_atom_site_type_symbol
_atom_site_label
_atom_site_fract_x
_atom_site_fract_y
_atom_site_fract_z
Si Si1 0.380375 0.046365 0.512469
Si Si2 0.310856 0.254287 0.398914
Si Si3 0.011411 0.270445 0.354803
Si Si4 0.803330 0.123279 0.853043
Si Si5 0.039611 0.866965 0.648017
Si Si6 0.492737 0.361105 0.347533
Si Si7 0.275910 0.116909 0.153024
Si Si8 0.135463 0.537382 0.010991
O O1 0.424568 0.095325 0.582929
O O2 0.345825 0.079585 0.422288
O O3 0.500000 0.000000 0.500000
O O4 0.250539 0.008618 0.538861
O O5 0.347120 0.250000 0.500000
O O6 0.415113 0.298069 0.353359
O O7 0.308557 0.187769 0.358064
O O8 0.159119 0.279458 0.393145
O O9 0.028247 0.268760 0.250000
O O10 0.908107 0.323523 0.375413
O O11 0.958415 0.203710 0.379395
O O12 0.821140 0.108244 0.750000
O O13 0.650645 0.144683 0.864637
O O14 0.827992 0.068001 0.918422
O O15 0.080900 0.871352 0.750000
O O16 0.118191 0.909890 0.582467
O O17 0.884252 0.886581 0.643705
O O18 0.478414 0.386142 0.250000
O O19 0.312657 0.096444 0.250000
O O20 0.000000 0.500000 0.000000
#
# Coordination Sequence:
#
# PCOD9439176 Si02
#       8
#     8   8   8   8   8   8   8   8
#     4  12  25  44  61  92 125 163 220 258 301 369
#     4  11  21  37  67 100 126 155 205 263 315 370
#     4   9  20  39  64  95 124 155 203 255 313 382
#     4  10  24  44  65  91 126 169 206 251 319 380
#     4   9  20  40  64  93 124 157 200 257 316 370
#     4  11  24  45  66  90 130 170 207 260 316 374
#     4  10  21  41  67  91 124 167 205 250 313 379
#     4  12  25  40  64  90 122 161 214 262 303 364
#
# _framework density 18.784289999999999
#
# number of rings (size 3 to 8) (size 9 to 14) (size 15 to 20)
#    0.000    1.500    3.750    1.875    5.250    2.000 
#    4.500    0.000    0.000    0.000    0.000    0.000 
#    0.000    0.000    0.000    0.000    0.000    0.000 
#
# Total GULP energy -357583.318650 kJ/mol
# GULP energy per Si atom -5587.239354 kJ/mol
# Density = 1.874154 g / cm^3
# Si number density = 18.784290 Si / 1000 Ang^3
#
#
#
# Elastic Constant Matrix: (Units=GPa)
#
#
# Indices 1 2 3 4 5 6 
#
# 1 87.3170 36.8980 26.6232 0.0000 0.0000 0.0000
# 2 36.8980 58.8454 26.0782 0.0000 0.0000 0.0000
# 3 26.6232 26.0782 87.3065 0.0000 0.0000 0.0000
# 4 0.0000 0.0000 0.0000 -2.5292 0.0000 0.0000
# 5 0.0000 0.0000 0.0000 0.0000 27.4942 0.0000
# 6 0.0000 0.0000 0.0000 0.0000 0.0000 30.8391
#
#
#
# Elastic Compliance Matrix: (Units=1/GPa)
#
#
# Indices 1 2 3 4 5 6 
#
# 1 0.015927 -0.009029 -0.002160 0.000000 0.000000 0.000000
# 2 -0.009029 0.024706 -0.004626 0.000000 0.000000 0.000000
# 3 -0.002160 -0.004626 0.013494 0.000000 0.000000 0.000000
# 4 0.000000 0.000000 0.000000 -0.395382 0.000000 0.000000
# 5 0.000000 0.000000 0.000000 0.000000 0.036371 0.000000
# 6 0.000000 0.000000 0.000000 0.000000 0.000000 0.032426
#
#
# Mechanical properties :
#
#
# Convention : Reuss Voigt Hill
#
# Bulk Modulus (GPa) = 44.45189 45.85198 45.15194
# Shear Modulus (GPa) = -21.42895 20.75213 -0.33841
#
# Velocity S-wave (km/s) = -3.38122 3.32740 -0.42491
# Velocity P-wave (km/s) = 2.91071 6.26297 4.88350
#
# Compressibility (1/GPa) = 0.02249623
#
# Stress axis : x y z
#
# Youngs Moduli (GPa) = 62.78795 40.47672 74.10579
#
# Poissons Ratio (x) = 0.36548 0.16004
# Poissons Ratio (y) = 0.56694 0.34282
# Poissons Ratio (z) = 0.13560 0.18725
#
# Static dielectric constant tensor:
#      x y z
#    x 1.615170 0.000000 0.000000 
#    y 0.000000 1.642280 0.000000 
#    z 0.000000 0.000000 1.650670 
# 
# From -- ./inp_files/16946.got.cif
#   From: 2010.05.17/outbox.cif.g08.bks.cpg/sg57_9_cif.got.tgz:16946.got - 2010.06.03 13:58:18.
