data_PCOD9439388
_publ_section_title
;
Structure prediction by ZEFSAII (Michael W. Deem and Ramdas Pophale) SiO2 
 PCOD9439388
Probable space group: P B C M
;
_chemical_formula_sum "Si O2"
_cell_formula_units_Z 64
_cell_length_a 13.804275
_cell_length_b 12.549386
_cell_length_c 19.435419
_cell_angle_alpha 90.000000
_cell_angle_beta 90.000000
_cell_angle_gamma 90.000000
_cell_volume 3366.898220
_symmetry_space_group_name_H-M "P B C M"
_symmetry_group_IT_number 57
_symmetry_cell_setting 'orthorhombic'
loop_
_space_group_symop_operation_xyz
x,y,z
-x,-y,1/2+z
x,1/2-y,-z
-x,1/2+y,1/2-z
-x,-y,-z
x,y,1/2-z
-x,1/2+y,z
x,1/2-y,1/2+z
loop_
_atom_site_type_symbol
_atom_site_label
_atom_site_fract_x
_atom_site_fract_y
_atom_site_fract_z
Si Si1 0.602914 0.029177 0.467274
Si Si2 0.632111 0.664090 0.327767
Si Si3 0.875114 0.917686 0.509444
Si Si4 0.721303 0.025684 0.596789
Si Si5 0.204382 0.768711 0.170507
Si Si6 0.914485 0.347131 0.948342
Si Si7 0.588239 0.343739 0.826391
Si Si8 0.716797 0.816715 0.434836
O O1 0.666743 0.075700 0.530489
O O2 0.592941 0.096811 0.398839
O O3 0.500000 0.000000 0.500000
O O4 0.659033 0.925679 0.440394
O O5 0.665051 0.654583 0.250000
O O6 0.644631 0.546246 0.361034
O O7 0.520419 0.702894 0.328576
O O8 0.694118 0.751011 0.367771
O O9 0.828532 0.843341 0.450858
O O10 0.969864 0.867783 0.544197
O O11 0.795333 0.937592 0.567639
O O12 0.882541 0.035845 0.475306
O O13 0.782257 0.113717 0.637791
O O14 0.170118 0.771907 0.250000
O O15 0.136581 0.692312 0.122590
O O16 0.315738 0.727924 0.172209
O O17 0.890155 0.250000 0.000000
O O18 0.591824 0.399485 0.750000
O O19 0.679328 0.750000 0.500000
#
# Coordination Sequence:
#
# PCOD9439388 Si02
#       8
#     8   8   8   8   8   8   8   8
#     4  11  21  35  59  91 119 166 215 256 307 366
#     4  11  23  39  58  89 131 174 211 253 317 378
#     4  10  22  39  68  95 121 157 211 260 322 364
#     4  11  21  40  61  95 127 165 212 265 310 384
#     4  11  24  42  64  94 130 169 212 264 327 387
#     4  11  22  41  69  94 122 162 204 263 317 383
#     4  10  23  40  58  88 131 172 212 263 316 374
#     4  11  20  37  59  85 125 158 206 263 301 370
#
# _framework density 19.008593000000001
#
# number of rings (size 3 to 8) (size 9 to 14) (size 15 to 20)
#    0.000    1.250    5.000    2.250    1.750    0.500 
#    0.000    1.875    0.000    0.000    0.000    0.000 
#    0.000    0.000    0.000    0.000    0.000    0.000 
#
# Total GULP energy -356343.912555 kJ/mol
# GULP energy per Si atom -5567.873634 kJ/mol
# Density = 1.896533 g / cm^3
# Si number density = 19.008593 Si / 1000 Ang^3
#
#
#
# Elastic Constant Matrix: (Units=GPa)
#
#
# Indices 1 2 3 4 5 6 
#
# 1 95.9294 23.8602 42.4928 0.0000 0.0000 0.0000
# 2 23.8602 60.9749 44.3572 0.0000 0.0000 0.0000
# 3 42.4928 44.3572 145.1474 0.0000 0.0000 0.0000
# 4 0.0000 0.0000 0.0000 28.0728 0.0000 0.0000
# 5 0.0000 0.0000 0.0000 0.0000 22.6244 0.0000
# 6 0.0000 0.0000 0.0000 0.0000 0.0000 26.3664
#
#
#
# Elastic Compliance Matrix: (Units=1/GPa)
#
#
# Indices 1 2 3 4 5 6 
#
# 1 0.012346 -0.002831 -0.002749 0.000000 0.000000 0.000000
# 2 -0.002831 0.021738 -0.005814 0.000000 0.000000 0.000000
# 3 -0.002749 -0.005814 0.009471 0.000000 0.000000 0.000000
# 4 0.000000 0.000000 0.000000 0.035622 0.000000 0.000000
# 5 0.000000 0.000000 0.000000 0.000000 0.044200 0.000000
# 6 0.000000 0.000000 0.000000 0.000000 0.000000 0.037927
#
#
# Mechanical properties :
#
#
# Convention : Reuss Voigt Hill
#
# Bulk Modulus (GPa) = 48.15593 58.16357 53.15975
# Shear Modulus (GPa) = 26.17587 28.16881 27.17234
#
# Velocity S-wave (km/s) = 3.71489 3.85372 3.78494
# Velocity P-wave (km/s) = 6.61735 7.10398 6.86498
#
# Compressibility (1/GPa) = 0.02076587
#
# Stress axis : x y z
#
# Youngs Moduli (GPa) = 80.99561 46.00285 105.58291
#
# Poissons Ratio (x) = 0.13025 0.29027
# Poissons Ratio (y) = 0.22932 0.61388
# Poissons Ratio (z) = 0.22267 0.26747
#
# Static dielectric constant tensor:
#      x y z
#    x 1.715670 0.000000 0.000000 
#    y 0.000000 1.701560 0.000000 
#    z 0.000000 0.000000 1.673000 
# 
# From -- ./inp_files/22641.got.cif
#   From: 2010.05.17/outbox.cif.g08.bks.cpg/sg57_12_cif.got.tgz:22641.got - 2010.06.03 13:58:18.
