data_PCOD9439552
_publ_section_title
;
Structure prediction by ZEFSAII (Michael W. Deem and Ramdas Pophale) SiO2 
 PCOD9439552
Probable space group: P B C M
;
_chemical_formula_sum "Si O2"
_cell_formula_units_Z 56
_cell_length_a 20.850267
_cell_length_b 8.471221
_cell_length_c 13.861625
_cell_angle_alpha 90.000000
_cell_angle_beta 90.000000
_cell_angle_gamma 90.000000
_cell_volume 2448.340284
_symmetry_space_group_name_H-M "P B C M"
_symmetry_group_IT_number 57
_symmetry_cell_setting 'orthorhombic'
loop_
_space_group_symop_operation_xyz
x,y,z
-x,-y,1/2+z
x,1/2-y,-z
-x,1/2+y,1/2-z
-x,-y,-z
x,y,1/2-z
-x,1/2+y,z
x,1/2-y,1/2+z
loop_
_atom_site_type_symbol
_atom_site_label
_atom_site_fract_x
_atom_site_fract_y
_atom_site_fract_z
Si Si1 0.910769 0.411441 0.635846
Si Si2 0.953620 0.052735 0.635762
Si Si3 0.701897 0.528456 0.423164
Si Si4 0.522350 0.488764 0.643501
Si Si5 0.409612 0.830154 0.098565
Si Si6 0.339122 0.122224 0.636933
Si Si7 0.837413 0.930407 0.974677
O O1 0.898243 0.426845 0.750000
O O2 0.931508 0.231415 0.615459
O O3 0.852500 0.470443 0.570895
O O4 0.973091 0.516753 0.609401
O O5 0.950467 0.027670 0.750000
O O6 0.902534 0.939094 0.586160
O O7 0.656295 0.405717 0.367727
O O8 0.683035 0.698951 0.380453
O O9 0.688046 0.534302 0.540425
O O10 0.777485 0.500644 0.416147
O O11 0.495142 0.519061 0.750000
O O12 0.550671 0.312830 0.644350
O O13 0.460694 0.530311 0.580119
O O14 0.583908 0.600430 0.628787
O O15 0.390153 0.750000 0.000000
O O16 0.323658 0.075115 0.750000
O O17 0.821606 0.750000 0.000000
#
# Coordination Sequence:
#
# PCOD9439552 Si02
#       7
#     8   8   8   8   8   8   8
#     4  10  22  42  69  98 132 173 219 274 326 379
#     4  10  22  42  67 100 134 170 220 272 325 381
#     4  11  25  44  64  95 130 176 220 258 328 393
#     4  11  24  42  68  98 123 162 218 274 332 393
#     4  12  24  40  67  92 129 165 208 268 333 391
#     4  10  22  44  67  91 126 164 215 271 319 383
#     4  12  24  41  65  96 132 177 221 266 322 393
#
# _framework density 22.872637000000001
#
# number of rings (size 3 to 8) (size 9 to 14) (size 15 to 20)
#    0.000    1.143    2.857    3.429    2.000    6.286 
#    0.000    0.000    0.000    0.000    0.000    0.000 
#    0.000    0.000    0.000    0.000    0.000    0.000 
#
# Total GULP energy -312685.258758 kJ/mol
# GULP energy per Si atom -5583.665335 kJ/mol
# Density = 2.282058 g / cm^3
# Si number density = 22.872637 Si / 1000 Ang^3
#
#
#
# Elastic Constant Matrix: (Units=GPa)
#
#
# Indices 1 2 3 4 5 6 
#
# 1 113.9626 42.0368 7.7375 0.0000 0.0000 0.0000
# 2 42.0368 70.9660 2.9982 0.0000 0.0000 0.0000
# 3 7.7375 2.9982 51.9146 0.0000 0.0000 0.0000
# 4 0.0000 0.0000 0.0000 26.0630 0.0000 0.0000
# 5 0.0000 0.0000 0.0000 0.0000 11.7480 0.0000
# 6 0.0000 0.0000 0.0000 0.0000 0.0000 22.8118
#
#
#
# Elastic Compliance Matrix: (Units=1/GPa)
#
#
# Indices 1 2 3 4 5 6 
#
# 1 0.011315 -0.006648 -0.001303 0.000000 0.000000 0.000000
# 2 -0.006648 0.018031 -0.000051 0.000000 0.000000 0.000000
# 3 -0.001303 -0.000051 0.019459 0.000000 0.000000 0.000000
# 4 0.000000 0.000000 0.000000 0.038369 0.000000 0.000000
# 5 0.000000 0.000000 0.000000 0.000000 0.085121 0.000000
# 6 0.000000 0.000000 0.000000 0.000000 0.000000 0.043837
#
#
# Mechanical properties :
#
#
# Convention : Reuss Voigt Hill
#
# Bulk Modulus (GPa) = 30.48368 38.04313 34.26340
# Shear Modulus (GPa) = 20.57032 24.39593 22.48312
#
# Velocity S-wave (km/s) = 3.00216 3.26943 3.13864
# Velocity P-wave (km/s) = 5.03724 5.56066 5.30541
#
# Compressibility (1/GPa) = 0.03280444
#
# Stress axis : x y z
#
# Youngs Moduli (GPa) = 88.37588 55.45976 51.38886
#
# Poissons Ratio (x) = 0.36867 0.06694
# Poissons Ratio (y) = 0.58749 0.00260
# Poissons Ratio (z) = 0.11511 0.00280
#
# Static dielectric constant tensor:
#      x y z
#    x 1.799130 0.000000 0.000000 
#    y 0.000000 1.868320 0.000000 
#    z 0.000000 0.000000 1.916000 
# 
# From -- ./inp_files/19346.got.cif
#   From: 2010.05.17/outbox.cif.g08.bks.cpg/sg57_10_cif.got.tgz:19346.got - 2010.06.03 13:58:18.
