data_PCOD9439453
_publ_section_title
;
Structure prediction by ZEFSAII (Michael W. Deem and Ramdas Pophale) SiO2 
 PCOD9439453
Probable space group: P B C M
;
_chemical_formula_sum "Si O2"
_cell_formula_units_Z 32
_cell_length_a 7.594387
_cell_length_b 9.223436
_cell_length_c 20.385401
_cell_angle_alpha 90.000000
_cell_angle_beta 90.000000
_cell_angle_gamma 90.000000
_cell_volume 1427.922780
_symmetry_space_group_name_H-M "P B C M"
_symmetry_group_IT_number 57
_symmetry_cell_setting 'orthorhombic'
loop_
_space_group_symop_operation_xyz
x,y,z
-x,-y,1/2+z
x,1/2-y,-z
-x,1/2+y,1/2-z
-x,-y,-z
x,y,1/2-z
-x,1/2+y,z
x,1/2-y,1/2+z
loop_
_atom_site_type_symbol
_atom_site_label
_atom_site_fract_x
_atom_site_fract_y
_atom_site_fract_z
Si Si1 0.914818 0.615099 0.953299
Si Si2 0.356720 0.511971 0.363812
Si Si3 0.655784 0.686885 0.178605
Si Si4 0.056409 0.739883 0.324545
O O1 0.733681 0.546488 0.928917
O O2 0.032188 0.656537 0.888459
O O3 0.884853 0.750000 0.000000
O O4 0.000000 0.500000 0.000000
O O5 0.375619 0.359848 0.325255
O O6 0.538331 0.596819 0.371185
O O7 0.214783 0.626071 0.333839
O O8 0.595044 0.634849 0.250000
O O9 0.864111 0.663744 0.173340
O O10 0.070147 0.803993 0.250000
#
# Coordination Sequence:
#
# PCOD9439453 Si02
#       4
#     8   8   8   8
#     4  11  23  47  74 101 143 193 240 300 357 430
#     4  11  23  43  72 101 146 187 238 290 367 421
#     4  10  22  40  66 106 144 179 234 300 354 429
#     4  10  22  42  75 106 137 185 242 297 364 425
#
# _framework density 22.410174000000001
#
# number of rings (size 3 to 8) (size 9 to 14) (size 15 to 20)
#    0.000    1.500    2.500    2.250    0.000    6.000 
#    0.000   10.000   11.000    0.000    0.000    0.000 
#    0.000    0.000    0.000    0.000    0.000    0.000 
#
# Total GULP energy -178597.146440 kJ/mol
# GULP energy per Si atom -5581.160826 kJ/mol
# Density = 2.235917 g / cm^3
# Si number density = 22.410174 Si / 1000 Ang^3
#
#
#
# Elastic Constant Matrix: (Units=GPa)
#
#
# Indices 1 2 3 4 5 6 
#
# 1 44.3435 35.3971 13.4513 0.0000 0.0000 0.0000
# 2 35.3971 68.1246 51.1910 0.0000 0.0000 0.0000
# 3 13.4513 51.1910 154.3586 0.0000 0.0000 0.0000
# 4 0.0000 0.0000 0.0000 22.0346 0.0000 0.0000
# 5 0.0000 0.0000 0.0000 0.0000 23.4000 0.0000
# 6 0.0000 0.0000 0.0000 0.0000 0.0000 35.2961
#
#
#
# Elastic Compliance Matrix: (Units=1/GPa)
#
#
# Indices 1 2 3 4 5 6 
#
# 1 0.040883 -0.024728 0.004638 0.000000 0.000000 0.000000
# 2 -0.024728 0.034508 -0.009289 0.000000 0.000000 0.000000
# 3 0.004638 -0.009289 0.009155 0.000000 0.000000 0.000000
# 4 0.000000 0.000000 0.000000 0.045383 0.000000 0.000000
# 5 0.000000 0.000000 0.000000 0.000000 0.042735 0.000000
# 6 0.000000 0.000000 0.000000 0.000000 0.000000 0.028332
#
#
# Mechanical properties :
#
#
# Convention : Reuss Voigt Hill
#
# Bulk Modulus (GPa) = 38.77813 51.87841 45.32827
# Shear Modulus (GPa) = 18.63242 27.26529 22.94886
#
# Velocity S-wave (km/s) = 2.88658 3.49183 3.20353
# Velocity P-wave (km/s) = 5.33396 6.28148 5.82701
#
# Compressibility (1/GPa) = 0.02578773
#
# Stress axis : x y z
#
# Youngs Moduli (GPa) = 24.45991 28.97918 109.23145
#
# Poissons Ratio (x) = 0.71659 -0.50661
# Poissons Ratio (y) = 0.60484 1.01466
# Poissons Ratio (z) = -0.11344 0.26919
#
# Static dielectric constant tensor:
#      x y z
#    x 1.799470 0.000000 0.000000 
#    y 0.000000 1.868790 0.000000 
#    z 0.000000 0.000000 1.719960 
# 
# From -- ./inp_files/23950.got.cif
#   From: 2010.05.17/outbox.cif.g08.bks.cpg/sg57_12_cif.got.tgz:23950.got - 2010.06.03 13:58:18.
