data_PCOD9439701
_publ_section_title
;
Structure prediction by ZEFSAII (Michael W. Deem and Ramdas Pophale) SiO2 
 PCOD9439701
Probable space group: P B C M
;
_chemical_formula_sum "Si O2"
_cell_formula_units_Z 48
_cell_length_a 8.044328
_cell_length_b 11.670034
_cell_length_c 24.985983
_cell_angle_alpha 90.000000
_cell_angle_beta 90.000000
_cell_angle_gamma 90.000000
_cell_volume 2345.623650
_symmetry_space_group_name_H-M "P B C M"
_symmetry_group_IT_number 57
_symmetry_cell_setting 'orthorhombic'
loop_
_space_group_symop_operation_xyz
x,y,z
-x,-y,1/2+z
x,1/2-y,-z
-x,1/2+y,1/2-z
-x,-y,-z
x,y,1/2-z
-x,1/2+y,z
x,1/2-y,1/2+z
loop_
_atom_site_type_symbol
_atom_site_label
_atom_site_fract_x
_atom_site_fract_y
_atom_site_fract_z
Si Si1 0.256646 0.112771 0.580479
Si Si2 0.835580 0.956597 0.529718
Si Si3 0.635003 0.368859 0.098060
Si Si4 0.401416 0.059313 0.311941
Si Si5 0.748242 0.129902 0.363328
Si Si6 0.895329 0.686470 0.362402
O O1 0.241691 0.119658 0.516896
O O2 0.440648 0.156380 0.592462
O O3 0.125630 0.184074 0.615923
O O4 0.245428 0.980449 0.598231
O O5 0.877768 0.886279 0.582776
O O6 0.714108 0.058034 0.549611
O O7 0.000000 0.000000 0.500000
O O8 0.643160 0.450974 0.150317
O O9 0.722983 0.247888 0.104872
O O10 0.398439 0.028184 0.250000
O O11 0.584819 0.106593 0.327488
O O12 0.260284 0.153017 0.325511
O O13 0.928947 0.150017 0.336902
#
# Coordination Sequence:
#
# PCOD9439701 Si02
#       6
#     8   8   8   8   8   8
#     4  11  22  41  62  97 134 178 216 261 327 392
#     4  11  21  39  62  95 135 183 219 264 326 388
#     4  10  23  41  64  95 132 171 222 275 319 396
#     4  10  24  46  68  92 122 166 218 277 337 382
#     4  11  23  42  68  92 130 169 216 272 322 387
#     4  11  23  42  67  95 134 169 223 271 319 399
#
# _framework density 20.463640999999999
#
# number of rings (size 3 to 8) (size 9 to 14) (size 15 to 20)
#    0.000    1.333    3.333    2.000    2.333    2.000 
#    3.000    0.000    0.000    0.000    0.000    0.000 
#    0.000    0.000    0.000    0.000    0.000    0.000 
#
# Total GULP energy -267935.462049 kJ/mol
# GULP energy per Si atom -5581.988793 kJ/mol
# Density = 2.041706 g / cm^3
# Si number density = 20.463641 Si / 1000 Ang^3
#
#
#
# Elastic Constant Matrix: (Units=GPa)
#
#
# Indices 1 2 3 4 5 6 
#
# 1 123.2772 29.0605 28.8781 0.0000 0.0000 0.0000
# 2 29.0605 75.7340 0.2857 0.0000 0.0000 0.0000
# 3 28.8781 0.2857 71.4032 0.0000 0.0000 0.0000
# 4 0.0000 0.0000 0.0000 9.7920 0.0000 0.0000
# 5 0.0000 0.0000 0.0000 0.0000 9.5671 0.0000
# 6 0.0000 0.0000 0.0000 0.0000 0.0000 19.6099
#
#
#
# Elastic Compliance Matrix: (Units=1/GPa)
#
#
# Indices 1 2 3 4 5 6 
#
# 1 0.009947 -0.003802 -0.004008 0.000000 0.000000 0.000000
# 2 -0.003802 0.014657 0.001479 0.000000 0.000000 0.000000
# 3 -0.004008 0.001479 0.015620 0.000000 0.000000 0.000000
# 4 0.000000 0.000000 0.000000 0.102124 0.000000 0.000000
# 5 0.000000 0.000000 0.000000 0.000000 0.104524 0.000000
# 6 0.000000 0.000000 0.000000 0.000000 0.000000 0.050995
#
#
# Mechanical properties :
#
#
# Convention : Reuss Voigt Hill
#
# Bulk Modulus (GPa) = 36.28030 42.98478 39.63254
# Shear Modulus (GPa) = 15.63890 21.93982 18.78936
#
# Velocity S-wave (km/s) = 2.76747 3.27790 3.03344
# Velocity P-wave (km/s) = 5.28956 5.94788 5.62835
#
# Compressibility (1/GPa) = 0.02756316
#
# Stress axis : x y z
#
# Youngs Moduli (GPa) = 100.53503 68.22547 64.02091
#
# Poissons Ratio (x) = 0.25937 0.25657
# Poissons Ratio (y) = 0.38220 -0.09468
# Poissons Ratio (z) = 0.40291 -0.10090
#
# Static dielectric constant tensor:
#      x y z
#    x 1.708170 0.000000 0.000000 
#    y 0.000000 1.845640 0.000000 
#    z 0.000000 0.000000 2.073970 
# 
# From -- ./inp_files/26718.got.cif
#   From: 2010.05.17/outbox.cif.g08.bks.cpg/sg57_14_cif.got.tgz:26718.got - 2010.06.03 13:58:18.
