data_PCOD9439898
_publ_section_title
;
Structure prediction by ZEFSAII (Michael W. Deem and Ramdas Pophale) SiO2 
 PCOD9439898
Probable space group: P B C M
;
_chemical_formula_sum "Si O2"
_cell_formula_units_Z 40
_cell_length_a 5.077049
_cell_length_b 20.584094
_cell_length_c 16.487490
_cell_angle_alpha 90.000000
_cell_angle_beta 90.000000
_cell_angle_gamma 90.000000
_cell_volume 1723.049113
_symmetry_space_group_name_H-M "P B C M"
_symmetry_group_IT_number 57
_symmetry_cell_setting 'orthorhombic'
loop_
_space_group_symop_operation_xyz
x,y,z
-x,-y,1/2+z
x,1/2-y,-z
-x,1/2+y,1/2-z
-x,-y,-z
x,y,1/2-z
-x,1/2+y,z
x,1/2-y,1/2+z
loop_
_atom_site_type_symbol
_atom_site_label
_atom_site_fract_x
_atom_site_fract_y
_atom_site_fract_z
Si Si1 0.702026 0.842431 0.346328
Si Si2 0.037220 0.562863 0.942247
Si Si3 0.797156 0.238382 0.596886
Si Si4 0.283071 0.461739 0.842290
Si Si5 0.775998 0.384403 0.601398
O O1 0.703487 0.854813 0.250000
O O2 0.788600 0.906171 0.397225
O O3 0.929572 0.790392 0.370136
O O4 0.430712 0.810198 0.374239
O O5 0.228656 0.534058 0.874344
O O6 0.144013 0.614182 0.006641
O O7 0.000000 0.500000 0.000000
O O8 0.797193 0.250000 0.500000
O O9 0.748106 0.311019 0.631256
O O10 0.368026 0.462916 0.750000
O O11 0.507220 0.424440 0.891523
O O12 0.010162 0.421961 0.852264
#
# Coordination Sequence:
#
# PCOD9439898 Si02
#       5
#     8   8   8   8   8
#     4  12  27  46  72 108 142 179 231 299 352 405
#     4  10  24  45  71 100 136 184 234 279 343 419
#     4  12  26  45  74 100 140 187 235 281 351 427
#     4  11  24  42  68 100 140 179 225 289 348 404
#     4  11  24  43  70  99 134 182 236 278 339 421
#
# _framework density 23.214662000000001
#
# number of rings (size 3 to 8) (size 9 to 14) (size 15 to 20)
#    0.000    0.800    2.000    4.200    5.600    8.000 
#    0.000    6.000    0.000    0.000    0.000    0.000 
#    0.000    0.000    0.000    0.000    0.000    0.000 
#
# Total GULP energy -223921.928925 kJ/mol
# GULP energy per Si atom -5598.048223 kJ/mol
# Density = 2.316182 g / cm^3
# Si number density = 23.214662 Si / 1000 Ang^3
#
#
#
# Elastic Constant Matrix: (Units=GPa)
#
#
# Indices 1 2 3 4 5 6 
#
# 1 85.3121 17.4479 -0.6323 0.0000 0.0000 0.0000
# 2 17.4479 114.9594 21.2606 0.0000 0.0000 0.0000
# 3 -0.6323 21.2606 128.4308 0.0000 0.0000 0.0000
# 4 0.0000 0.0000 0.0000 16.3689 0.0000 0.0000
# 5 0.0000 0.0000 0.0000 0.0000 29.4635 0.0000
# 6 0.0000 0.0000 0.0000 0.0000 0.0000 38.1777
#
#
#
# Elastic Compliance Matrix: (Units=1/GPa)
#
#
# Indices 1 2 3 4 5 6 
#
# 1 0.012115 -0.001908 0.000376 0.000000 0.000000 0.000000
# 2 -0.001908 0.009274 -0.001545 0.000000 0.000000 0.000000
# 3 0.000376 -0.001545 0.008044 0.000000 0.000000 0.000000
# 4 0.000000 0.000000 0.000000 0.061091 0.000000 0.000000
# 5 0.000000 0.000000 0.000000 0.000000 0.033940 0.000000
# 6 0.000000 0.000000 0.000000 0.000000 0.000000 0.026193
#
#
# Mechanical properties :
#
#
# Convention : Reuss Voigt Hill
#
# Bulk Modulus (GPa) = 42.95896 44.98386 43.97141
# Shear Modulus (GPa) = 30.38195 36.17709 33.27952
#
# Velocity S-wave (km/s) = 3.62158 3.95191 3.79034
# Velocity P-wave (km/s) = 6.00275 6.34372 6.17559
#
# Compressibility (1/GPa) = 0.02327803
#
# Stress axis : x y z
#
# Youngs Moduli (GPa) = 82.54438 107.82836 124.31868
#
# Poissons Ratio (x) = 0.20575 -0.04668
# Poissons Ratio (y) = 0.15751 0.19203
# Poissons Ratio (z) = -0.03100 0.16655
#
# Static dielectric constant tensor:
#      x y z
#    x 1.838420 0.000000 0.000000 
#    y 0.000000 1.952320 0.000000 
#    z 0.000000 0.000000 1.880210 
# 
# From -- ./inp_files/20110.got.cif
#   From: 2010.05.17/outbox.cif.g08.bks.cpg/sg57_11_cif.got.tgz:20110.got - 2010.06.03 13:58:18.
