data_PCOD9439910
_publ_section_title
;
Structure prediction by ZEFSAII (Michael W. Deem and Ramdas Pophale) SiO2 
 PCOD9439910
Probable space group: P B C M
;
_chemical_formula_sum "Si O2"
_cell_formula_units_Z 48
_cell_length_a 4.858060
_cell_length_b 27.819563
_cell_length_c 12.525717
_cell_angle_alpha 90.000000
_cell_angle_beta 90.000000
_cell_angle_gamma 90.000000
_cell_volume 1692.839457
_symmetry_space_group_name_H-M "P B C M"
_symmetry_group_IT_number 57
_symmetry_cell_setting 'orthorhombic'
loop_
_space_group_symop_operation_xyz
x,y,z
-x,-y,1/2+z
x,1/2-y,-z
-x,1/2+y,1/2-z
-x,-y,-z
x,y,1/2-z
-x,1/2+y,z
x,1/2-y,1/2+z
loop_
_atom_site_type_symbol
_atom_site_label
_atom_site_fract_x
_atom_site_fract_y
_atom_site_fract_z
Si Si1 0.566983 0.373045 0.944927
Si Si2 0.728092 0.598574 0.750000
Si Si3 0.168763 0.294759 0.434233
Si Si4 0.932018 0.435386 0.412296
Si Si5 0.303509 0.028118 0.418418
Si Si6 0.093739 0.672640 0.250000
Si Si7 0.572161 0.764596 0.750000
Si Si8 0.789047 0.161559 0.750000
O O1 0.437600 0.420586 0.888029
O O2 0.781972 0.351057 0.858191
O O3 0.340086 0.334135 0.993693
O O4 0.734336 0.392603 0.047713
O O5 0.528070 0.643897 0.750000
O O6 0.761100 0.572921 0.861658
O O7 0.063102 0.609182 0.750000
O O8 0.045399 0.250000 0.500000
O O9 0.938537 0.315294 0.353416
O O10 0.372993 0.266545 0.354633
O O11 0.795196 0.480988 0.355212
O O12 0.023070 0.453321 0.529774
O O13 0.500000 0.000000 0.500000
O O14 0.254687 0.722827 0.250000
O O15 0.772536 0.688178 0.250000
#
# Coordination Sequence:
#
# PCOD9439910 Si02
#       8
#     8   4   8   8   8   4   4   4
#     4  11  25  49  86 122 166 231 278 346 433 509
#     4  12  28  49  79 122 168 210 286 345 412 505
#     4  11  25  54  83 113 162 221 278 351 426 494
#     4  10  24  46  80 124 171 220 276 348 425 501
#     4   9  21  46  75 119 169 218 278 338 420 510
#     4  12  28  52  78 120 169 207 286 345 414 516
#     4  11  28  55  74 117 162 209 284 353 410 498
#     4  11  30  48  77 125 161 208 284 355 408 501
#
# _framework density 28.354725999999999
#
# number of rings (size 3 to 8) (size 9 to 14) (size 15 to 20)
#    0.000    1.333    1.667    1.000    9.333    5.333 
#    6.000    7.500    0.000    1.000    0.000    0.000 
#    0.000    0.000    0.000    0.000    0.000    0.000 
#
# Total GULP energy -267556.508679 kJ/mol
# GULP energy per Si atom -5574.093931 kJ/mol
# Density = 2.829019 g / cm^3
# Si number density = 28.354726 Si / 1000 Ang^3
#
#
#
# Elastic Constant Matrix: (Units=GPa)
#
#
# Indices 1 2 3 4 5 6 
#
# 1 136.3496 62.0561 48.9747 0.0000 0.0000 0.0000
# 2 62.0561 199.3237 63.5047 0.0000 0.0000 0.0000
# 3 48.9747 63.5047 147.8566 0.0000 0.0000 0.0000
# 4 0.0000 0.0000 0.0000 -48.1530 0.0000 0.0000
# 5 0.0000 0.0000 0.0000 0.0000 169.8737 0.0000
# 6 0.0000 0.0000 0.0000 0.0000 0.0000 70.3565
#
#
#
# Elastic Compliance Matrix: (Units=1/GPa)
#
#
# Indices 1 2 3 4 5 6 
#
# 1 0.009062 -0.002161 -0.002074 0.000000 0.000000 0.000000
# 2 -0.002161 0.006328 -0.002002 0.000000 0.000000 0.000000
# 3 -0.002074 -0.002002 0.008310 0.000000 0.000000 0.000000
# 4 0.000000 0.000000 0.000000 -0.020767 0.000000 0.000000
# 5 0.000000 0.000000 0.000000 0.000000 0.005887 0.000000
# 6 0.000000 0.000000 0.000000 0.000000 0.000000 0.014213
#
#
# Mechanical properties :
#
#
# Convention : Reuss Voigt Hill
#
# Bulk Modulus (GPa) = 89.07033 92.51120 90.79077
# Shear Modulus (GPa) = 127.39538 59.01507 93.20523
#
# Velocity S-wave (km/s) = 6.71019 4.56709 5.73956
# Velocity P-wave (km/s) = 9.56643 7.77871 8.71851
#
# Compressibility (1/GPa) = 0.01122708
#
# Stress axis : x y z
#
# Youngs Moduli (GPa) = 110.34702 158.04025 120.33648
#
# Poissons Ratio (x) = 0.34148 0.24954
# Poissons Ratio (y) = 0.23843 0.24091
# Poissons Ratio (z) = 0.22883 0.31639
#
# Static dielectric constant tensor:
#      x y z
#    x 2.253460 0.000000 0.000000 
#    y 0.000000 2.460100 0.000000 
#    z 0.000000 0.000000 1.597250 
# 
# From -- ./inp_files/15228.got.cif
#   From: 2010.05.17/outbox.cif.g08.bks.cpg/sg57_8_cif.got.tgz:15228.got - 2010.06.03 13:58:18.
