data_PCOD9439021
_publ_section_title
;
Structure prediction by ZEFSAII (Michael W. Deem and Ramdas Pophale) SiO2 
 PCOD9439021
Probable space group: P B C M
;
_chemical_formula_sum "Si O2"
_cell_formula_units_Z 64
_cell_length_a 8.663779
_cell_length_b 23.769536
_cell_length_c 14.337255
_cell_angle_alpha 90.000000
_cell_angle_beta 90.000000
_cell_angle_gamma 90.000000
_cell_volume 2952.528369
_symmetry_space_group_name_H-M "P B C M"
_symmetry_group_IT_number 57
_symmetry_cell_setting 'orthorhombic'
loop_
_space_group_symop_operation_xyz
x,y,z
-x,-y,1/2+z
x,1/2-y,-z
-x,1/2+y,1/2-z
-x,-y,-z
x,y,1/2-z
-x,1/2+y,z
x,1/2-y,1/2+z
loop_
_atom_site_type_symbol
_atom_site_label
_atom_site_fract_x
_atom_site_fract_y
_atom_site_fract_z
Si Si1 0.637938 0.308448 0.971205
Si Si2 0.167449 0.653211 0.852102
Si Si3 0.620774 0.631031 0.950074
Si Si4 0.234369 0.482290 0.511086
Si Si5 0.938276 0.181810 0.360485
Si Si6 0.383682 0.944827 0.148647
Si Si7 0.851498 0.785162 0.140572
Si Si8 0.049528 0.950790 0.862979
O O1 0.745081 0.322245 0.060050
O O2 0.500168 0.352870 0.967951
O O3 0.563473 0.250000 0.000000
O O4 0.763250 0.303826 0.890275
O O5 0.216028 0.676039 0.750000
O O6 0.220728 0.588767 0.852337
O O7 0.989544 0.668703 0.861553
O O8 0.512186 0.602659 0.870925
O O9 0.712307 0.685409 0.913870
O O10 0.731511 0.580910 0.980117
O O11 0.374458 0.510804 0.566655
O O12 0.187342 0.520231 0.421971
O O13 0.099240 0.478231 0.588374
O O14 0.949217 0.186285 0.250000
O O15 0.959285 0.116189 0.384693
O O16 0.066003 0.227222 0.395360
O O17 0.407931 0.970403 0.250000
O O18 0.808410 0.776876 0.250000
O O19 0.058029 0.957973 0.750000
#
# Coordination Sequence:
#
# PCOD9439021 Si02
#       8
#     8   8   8   8   8   8   8   8
#     4  11  22  39  63  91 128 173 214 256 328 402
#     4   9  19  36  63  94 122 159 212 265 316 384
#     4  11  25  39  60  98 135 172 213 276 333 386
#     4  11  24  41  65  90 133 175 222 275 321 389
#     4  10  22  42  68  96 130 172 221 270 323 396
#     4  10  21  40  64  91 129 171 214 262 324 393
#     4  10  21  39  65  97 129 165 214 278 334 381
#     4  10  23  41  65  96 126 167 222 275 330 387
#
# _framework density 21.676335000000002
#
# number of rings (size 3 to 8) (size 9 to 14) (size 15 to 20)
#    0.000    1.750    1.250    2.625    5.250    2.500 
#    0.000    2.500    0.000    0.000    0.000    0.000 
#    0.000    0.000    0.000    0.000    0.000    0.000 
#
# Total GULP energy -356979.863051 kJ/mol
# GULP energy per Si atom -5577.810360 kJ/mol
# Density = 2.162700 g / cm^3
# Si number density = 21.676335 Si / 1000 Ang^3
#
#
#
# Elastic Constant Matrix: (Units=GPa)
#
#
# Indices 1 2 3 4 5 6 
#
# 1 75.0683 45.2786 38.4712 0.0000 0.0000 0.0000
# 2 45.2786 114.2129 49.9100 0.0000 0.0000 0.0000
# 3 38.4712 49.9100 65.1846 0.0000 0.0000 0.0000
# 4 0.0000 0.0000 0.0000 19.3492 0.0000 0.0000
# 5 0.0000 0.0000 0.0000 0.0000 10.6964 0.0000
# 6 0.0000 0.0000 0.0000 0.0000 0.0000 23.5167
#
#
#
# Elastic Compliance Matrix: (Units=1/GPa)
#
#
# Indices 1 2 3 4 5 6 
#
# 1 0.020379 -0.004243 -0.008779 0.000000 0.000000 0.000000
# 2 -0.004243 0.014042 -0.008247 0.000000 0.000000 0.000000
# 3 -0.008779 -0.008247 0.026837 0.000000 0.000000 0.000000
# 4 0.000000 0.000000 0.000000 0.051682 0.000000 0.000000
# 5 0.000000 0.000000 0.000000 0.000000 0.093489 0.000000
# 6 0.000000 0.000000 0.000000 0.000000 0.000000 0.042523
#
#
# Mechanical properties :
#
#
# Convention : Reuss Voigt Hill
#
# Bulk Modulus (GPa) = 53.41933 57.97615 55.69774
# Shear Modulus (GPa) = 16.79376 18.76621 17.77998
#
# Velocity S-wave (km/s) = 2.78645 2.94555 2.86711
# Velocity P-wave (km/s) = 5.92031 6.19457 6.05899
#
# Compressibility (1/GPa) = 0.01871982
#
# Stress axis : x y z
#
# Youngs Moduli (GPa) = 49.06898 71.21730 37.26209
#
# Poissons Ratio (x) = 0.30217 0.32713
# Poissons Ratio (y) = 0.20819 0.30730
# Poissons Ratio (z) = 0.43078 0.58734
#
# Static dielectric constant tensor:
#      x y z
#    x 1.823870 0.000000 0.000000 
#    y 0.000000 1.829400 0.000000 
#    z 0.000000 0.000000 1.803510 
# 
# From -- ./inp_files/16982.got.cif
#   From: 2010.05.17/outbox.cif.g08.bks.cpg/sg57_9_cif.got.tgz:16982.got - 2010.06.03 13:58:18.
