data_PCOD9439627
_publ_section_title
;
Structure prediction by ZEFSAII (Michael W. Deem and Ramdas Pophale) SiO2 
 PCOD9439627
Probable space group: P B C M
;
_chemical_formula_sum "Si O2"
_cell_formula_units_Z 60
_cell_length_a 13.449359
_cell_length_b 9.456346
_cell_length_c 23.498467
_cell_angle_alpha 90.000000
_cell_angle_beta 90.000000
_cell_angle_gamma 90.000000
_cell_volume 2988.577147
_symmetry_space_group_name_H-M "P B C M"
_symmetry_group_IT_number 57
_symmetry_cell_setting 'orthorhombic'
loop_
_space_group_symop_operation_xyz
x,y,z
-x,-y,1/2+z
x,1/2-y,-z
-x,1/2+y,1/2-z
-x,-y,-z
x,y,1/2-z
-x,1/2+y,z
x,1/2-y,1/2+z
loop_
_atom_site_type_symbol
_atom_site_label
_atom_site_fract_x
_atom_site_fract_y
_atom_site_fract_z
Si Si1 0.874095 0.817478 0.443669
Si Si2 0.792201 0.058849 0.637059
Si Si3 0.426758 0.131276 0.931586
Si Si4 0.278467 0.129023 0.841560
Si Si5 0.836967 0.148842 0.314802
Si Si6 0.624006 0.541085 0.049551
Si Si7 0.998787 0.063154 0.096982
Si Si8 0.258800 0.122297 0.250000
O O1 0.826571 0.750000 0.500000
O O2 0.795699 0.822514 0.392522
O O3 0.961573 0.706233 0.430560
O O4 0.926501 0.970641 0.443311
O O5 0.788083 0.226378 0.648484
O O6 0.716121 0.002847 0.588871
O O7 0.903120 0.021723 0.615770
O O8 0.771079 0.987705 0.698223
O O9 0.382341 0.091893 0.870830
O O10 0.416403 0.301127 0.935758
O O11 0.537241 0.073482 0.940164
O O12 0.361919 0.055513 0.981445
O O13 0.284958 0.257279 0.798733
O O14 0.231109 0.989718 0.814981
O O15 0.856448 0.194058 0.250000
O O16 0.937683 0.102983 0.346537
#
# Coordination Sequence:
#
# PCOD9439627 Si02
#       8
#     8   8   8   8   8   8   8   4
#     4  11  23  39  62  90 127 169 211 267 332 392
#     4  12  24  43  67  97 130 175 222 272 332 394
#     4  10  22  44  69 101 128 169 212 276 330 399
#     4  11  24  41  67  94 127 169 221 269 331 392
#     4  11  25  41  63  93 132 176 221 271 322 387
#     4  10  23  42  72  99 132 167 218 271 335 398
#     4  11  23  41  59  95 128 168 221 269 322 392
#     4  12  22  40  68  92 124 168 222 266 312 404
#
# _framework density 20.076443999999999
#
# number of rings (size 3 to 8) (size 9 to 14) (size 15 to 20)
#    0.000    1.067    5.333    0.400    6.533    0.000 
#    0.000    0.667    2.933    0.000    0.000    0.000 
#    0.000    0.000    0.000    0.000    0.000    0.000 
#
# Total GULP energy -334043.567491 kJ/mol
# GULP energy per Si atom -5567.392792 kJ/mol
# Density = 2.003075 g / cm^3
# Si number density = 20.076444 Si / 1000 Ang^3
#
#
#
# Elastic Constant Matrix: (Units=GPa)
#
#
# Indices 1 2 3 4 5 6 
#
# 1 53.3965 24.5075 36.0233 0.0000 0.0000 0.0000
# 2 24.5075 80.1380 23.2222 0.0000 0.0000 0.0000
# 3 36.0233 23.2222 104.1413 0.0000 0.0000 0.0000
# 4 0.0000 0.0000 0.0000 36.6009 0.0000 0.0000
# 5 0.0000 0.0000 0.0000 0.0000 16.6327 0.0000
# 6 0.0000 0.0000 0.0000 0.0000 0.0000 24.5317
#
#
#
# Elastic Compliance Matrix: (Units=1/GPa)
#
#
# Indices 1 2 3 4 5 6 
#
# 1 0.026799 -0.005890 -0.007957 0.000000 0.000000 0.000000
# 2 -0.005890 0.014635 -0.001226 0.000000 0.000000 0.000000
# 3 -0.007957 -0.001226 0.012628 0.000000 0.000000 0.000000
# 4 0.000000 0.000000 0.000000 0.027322 0.000000 0.000000
# 5 0.000000 0.000000 0.000000 0.000000 0.060123 0.000000
# 6 0.000000 0.000000 0.000000 0.000000 0.000000 0.040764
#
#
# Mechanical properties :
#
#
# Convention : Reuss Voigt Hill
#
# Bulk Modulus (GPa) = 41.81160 45.02019 43.41590
# Shear Modulus (GPa) = 22.68735 25.81458 24.25096
#
# Velocity S-wave (km/s) = 3.36527 3.58972 3.47930
# Velocity P-wave (km/s) = 5.99762 6.29718 6.14922
#
# Compressibility (1/GPa) = 0.02391681
#
# Stress axis : x y z
#
# Youngs Moduli (GPa) = 37.31494 68.32946 79.18920
#
# Poissons Ratio (x) = 0.40245 0.63008
# Poissons Ratio (y) = 0.21978 0.09709
# Poissons Ratio (z) = 0.29690 0.08378
#
# Static dielectric constant tensor:
#      x y z
#    x 1.713520 0.000000 0.000000 
#    y 0.000000 1.722090 0.000000 
#    z 0.000000 0.000000 1.734840 
# 
# From -- ./inp_files/27411.got.cif
#   From: 2010.05.17/outbox.cif.g08.bks.cpg/sg57_14_cif.got.tgz:27411.got - 2010.06.03 13:58:18.
