data_PCOD9439487
_publ_section_title
;
Structure prediction by ZEFSAII (Michael W. Deem and Ramdas Pophale) SiO2 
 PCOD9439487
Probable space group: P B C M
;
_chemical_formula_sum "Si O2"
_cell_formula_units_Z 56
_cell_length_a 5.128820
_cell_length_b 31.398284
_cell_length_c 15.104114
_cell_angle_alpha 90.000000
_cell_angle_beta 90.000000
_cell_angle_gamma 90.000000
_cell_volume 2432.308322
_symmetry_space_group_name_H-M "P B C M"
_symmetry_group_IT_number 57
_symmetry_cell_setting 'orthorhombic'
loop_
_space_group_symop_operation_xyz
x,y,z
-x,-y,1/2+z
x,1/2-y,-z
-x,1/2+y,1/2-z
-x,-y,-z
x,y,1/2-z
-x,1/2+y,z
x,1/2-y,1/2+z
loop_
_atom_site_type_symbol
_atom_site_label
_atom_site_fract_x
_atom_site_fract_y
_atom_site_fract_z
Si Si1 0.532440 0.660338 0.922755
Si Si2 0.400037 0.546634 0.156374
Si Si3 0.281406 0.562629 0.750000
Si Si4 0.684681 0.582724 0.013051
Si Si5 0.006056 0.478032 0.403716
Si Si6 0.951447 0.199392 0.999396
Si Si7 0.062307 0.868410 0.852641
Si Si8 0.770196 0.879859 0.250000
O O1 0.679170 0.648552 0.832990
O O2 0.481467 0.615109 0.970855
O O3 0.256439 0.683468 0.925857
O O4 0.752097 0.685995 0.977435
O O5 0.544396 0.543688 0.250000
O O6 0.560955 0.543987 0.066608
O O7 0.179431 0.511082 0.151679
O O8 0.279997 0.594396 0.152451
O O9 0.227742 0.535776 0.839466
O O10 0.064315 0.601189 0.750000
O O11 0.571468 0.580190 0.750000
O O12 0.844588 0.608026 0.087863
O O13 0.858723 0.566187 0.932849
O O14 0.000000 0.500000 0.500000
O O15 0.875445 0.174199 0.090647
O O16 0.933700 0.250000 0.000000
O O17 0.988877 0.859220 0.750000
#
# Coordination Sequence:
#
# PCOD9439487 Si02
#       8
#     8   8   4   8   8   8   8   4
#     4  11  24  44  73 103 134 184 227 278 351 427
#     4  11  22  39  60  91 129 171 234 287 341 410
#     4  12  28  46  66 104 142 188 242 304 352 408
#     4  11  22  39  67  88 131 182 231 282 348 413
#     4  12  25  42  62  95 136 185 243 298 353 409
#     4  11  24  47  75 103 142 174 223 287 358 427
#     4  10  22  41  63  95 128 173 224 273 340 417
#     4  12  26  46  74 100 144 184 242 288 348 426
#
# _framework density 23.023398
#
# number of rings (size 3 to 8) (size 9 to 14) (size 15 to 20)
#    0.000    0.857    5.000    2.143    4.000    1.143 
#    3.857    0.000    0.000    0.000    0.000    0.000 
#    0.000    0.000    0.000    0.000    0.000    0.000 
#
# Total GULP energy -312951.847819 kJ/mol
# GULP energy per Si atom -5588.425854 kJ/mol
# Density = 2.297100 g / cm^3
# Si number density = 23.023398 Si / 1000 Ang^3
#
#
#
# Elastic Constant Matrix: (Units=GPa)
#
#
# Indices 1 2 3 4 5 6 
#
# 1 59.8389 16.3380 -1.9229 0.0000 0.0000 0.0000
# 2 16.3380 113.4591 40.6879 0.0000 0.0000 0.0000
# 3 -1.9229 40.6879 120.8562 0.0000 0.0000 0.0000
# 4 0.0000 0.0000 0.0000 -25.4464 0.0000 0.0000
# 5 0.0000 0.0000 0.0000 0.0000 46.2268 0.0000
# 6 0.0000 0.0000 0.0000 0.0000 0.0000 36.8434
#
#
#
# Elastic Compliance Matrix: (Units=1/GPa)
#
#
# Indices 1 2 3 4 5 6 
#
# 1 0.017570 -0.002991 0.001287 0.000000 0.000000 0.000000
# 2 -0.002991 0.010533 -0.003594 0.000000 0.000000 0.000000
# 3 0.001287 -0.003594 0.009505 0.000000 0.000000 0.000000
# 4 0.000000 0.000000 0.000000 -0.039298 0.000000 0.000000
# 5 0.000000 0.000000 0.000000 0.000000 0.021632 0.000000
# 6 0.000000 0.000000 0.000000 0.000000 0.000000 0.027142
#
#
# Mechanical properties :
#
#
# Convention : Reuss Voigt Hill
#
# Bulk Modulus (GPa) = 37.02266 44.92893 40.97579
# Shear Modulus (GPa) = 74.98024 27.46150 51.22087
#
# Velocity S-wave (km/s) = 5.71294 3.45739 4.72182
# Velocity P-wave (km/s) = 7.72219 5.95776 6.89663
#
# Compressibility (1/GPa) = 0.02701048
#
# Stress axis : x y z
#
# Youngs Moduli (GPa) = 56.91642 94.93719 105.21151
#
# Poissons Ratio (x) = 0.28400 -0.13537
# Poissons Ratio (y) = 0.17026 0.37811
# Poissons Ratio (z) = -0.07323 0.34118
#
# Static dielectric constant tensor:
#      x y z
#    x 1.938980 0.000000 0.000000 
#    y 0.000000 1.892400 0.000000 
#    z 0.000000 0.000000 1.918340 
# 
# From -- ./inp_files/15302.got.cif
#   From: 2010.05.17/outbox.cif.g08.bks.cpg/sg57_8_cif.got.tgz:15302.got - 2010.06.03 13:58:18.
