data_PCOD9439657
_publ_section_title
;
Structure prediction by ZEFSAII (Michael W. Deem and Ramdas Pophale) SiO2 
 PCOD9439657
Probable space group: P B C M
;
_chemical_formula_sum "Si O2"
_cell_formula_units_Z 48
_cell_length_a 12.832126
_cell_length_b 8.847661
_cell_length_c 18.277753
_cell_angle_alpha 90.000000
_cell_angle_beta 90.000000
_cell_angle_gamma 90.000000
_cell_volume 2075.151906
_symmetry_space_group_name_H-M "P B C M"
_symmetry_group_IT_number 57
_symmetry_cell_setting 'orthorhombic'
loop_
_space_group_symop_operation_xyz
x,y,z
-x,-y,1/2+z
x,1/2-y,-z
-x,1/2+y,1/2-z
-x,-y,-z
x,y,1/2-z
-x,1/2+y,z
x,1/2-y,1/2+z
loop_
_atom_site_type_symbol
_atom_site_label
_atom_site_fract_x
_atom_site_fract_y
_atom_site_fract_z
Si Si1 0.347281 0.742832 0.915093
Si Si2 0.300906 0.773376 0.250000
Si Si3 0.318465 0.250000 0.000000
Si Si4 0.854542 0.645423 0.393310
Si Si5 0.465445 0.457357 0.401168
Si Si6 0.961699 0.131514 0.554567
Si Si7 0.545878 0.687405 0.750000
Si Si8 0.260946 0.121426 0.250000
O O1 0.281756 0.774226 0.838528
O O2 0.412942 0.587005 0.907150
O O3 0.438559 0.869441 0.913482
O O4 0.307809 0.750000 0.000000
O O5 0.425759 0.769090 0.250000
O O6 0.257289 0.941866 0.250000
O O7 0.236466 0.152166 0.046990
O O8 0.391946 0.360030 0.045984
O O9 0.897595 0.473179 0.390181
O O10 0.798076 0.686743 0.319194
O O11 0.944561 0.768924 0.411301
O O12 0.431354 0.410641 0.320567
O O13 0.906954 0.250000 0.500000
O O14 0.000000 0.000000 0.500000
O O15 0.618920 0.832359 0.750000
#
# Coordination Sequence:
#
# PCOD9439657 Si02
#       8
#     8   4   4   8   8   8   4   4
#     4  11  24  41  65  90 128 188 232 291 346 404
#     4  10  27  42  64  92 143 181 238 284 345 404
#     4  12  22  36  64 100 134 166 224 284 334 406
#     4  11  23  42  72  98 133 175 212 284 345 419
#     4  11  24  38  64  92 130 172 244 284 339 404
#     4   9  18  41  72 101 127 166 216 267 355 429
#     4  10  23  38  66  84 132 186 221 268 347 393
#     4  12  26  44  64 102 137 177 231 280 338 407
#
# _framework density 23.130837
#
# number of rings (size 3 to 8) (size 9 to 14) (size 15 to 20)
#    0.000    1.333    5.000    1.000   11.667    0.667 
#    3.000    0.000    0.000    0.000    0.000    0.000 
#    0.000    0.000    0.000    0.000    0.000    0.000 
#
# Total GULP energy -267757.125853 kJ/mol
# GULP energy per Si atom -5578.273455 kJ/mol
# Density = 2.307819 g / cm^3
# Si number density = 23.130837 Si / 1000 Ang^3
#
#
#
# Elastic Constant Matrix: (Units=GPa)
#
#
# Indices 1 2 3 4 5 6 
#
# 1 71.2045 19.7312 30.3257 0.0000 0.0000 0.0000
# 2 19.7312 94.7587 16.3570 0.0000 0.0000 0.0000
# 3 30.3257 16.3570 173.6818 0.0000 0.0000 0.0000
# 4 0.0000 0.0000 0.0000 20.4287 0.0000 0.0000
# 5 0.0000 0.0000 0.0000 0.0000 17.2083 0.0000
# 6 0.0000 0.0000 0.0000 0.0000 0.0000 26.8166
#
#
#
# Elastic Compliance Matrix: (Units=1/GPa)
#
#
# Indices 1 2 3 4 5 6 
#
# 1 0.015910 -0.002880 -0.002507 0.000000 0.000000 0.000000
# 2 -0.002880 0.011249 -0.000557 0.000000 0.000000 0.000000
# 3 -0.002507 -0.000557 0.006248 0.000000 0.000000 0.000000
# 4 0.000000 0.000000 0.000000 0.048951 0.000000 0.000000
# 5 0.000000 0.000000 0.000000 0.000000 0.058112 0.000000
# 6 0.000000 0.000000 0.000000 0.000000 0.000000 0.037290
#
#
# Mechanical properties :
#
#
# Convention : Reuss Voigt Hill
#
# Bulk Modulus (GPa) = 46.46892 52.49698 49.48295
# Shear Modulus (GPa) = 25.40407 31.10612 28.25509
#
# Velocity S-wave (km/s) = 3.31762 3.67112 3.49884
# Velocity P-wave (km/s) = 5.89989 6.38078 6.14504
#
# Compressibility (1/GPa) = 0.02151976
#
# Stress axis : x y z
#
# Youngs Moduli (GPa) = 62.85463 88.89756 160.05776
#
# Poissons Ratio (x) = 0.25604 0.40121
# Poissons Ratio (y) = 0.18103 0.08907
# Poissons Ratio (z) = 0.15756 0.04947
#
# Static dielectric constant tensor:
#      x y z
#    x 1.893220 0.000000 0.000000 
#    y 0.000000 1.987470 0.000000 
#    z 0.000000 0.000000 2.346320 
# 
# From -- ./inp_files/22544.got.cif
#   From: 2010.05.17/outbox.cif.g08.bks.cpg/sg57_12_cif.got.tgz:22544.got - 2010.06.03 13:58:18.
