data_PCOD9439202
_publ_section_title
;
Structure prediction by ZEFSAII (Michael W. Deem and Ramdas Pophale) SiO2 
 PCOD9439202
Probable space group: P B C M
;
_chemical_formula_sum "Si O2"
_cell_formula_units_Z 48
_cell_length_a 11.958541
_cell_length_b 8.760359
_cell_length_c 24.071201
_cell_angle_alpha 90.000000
_cell_angle_beta 90.000000
_cell_angle_gamma 90.000000
_cell_volume 2521.725791
_symmetry_space_group_name_H-M "P B C M"
_symmetry_group_IT_number 57
_symmetry_cell_setting 'orthorhombic'
loop_
_space_group_symop_operation_xyz
x,y,z
-x,-y,1/2+z
x,1/2-y,-z
-x,1/2+y,1/2-z
-x,-y,-z
x,y,1/2-z
-x,1/2+y,z
x,1/2-y,1/2+z
loop_
_atom_site_type_symbol
_atom_site_label
_atom_site_fract_x
_atom_site_fract_y
_atom_site_fract_z
Si Si1 0.845108 0.315891 0.592969
Si Si2 0.438875 0.323126 0.184663
Si Si3 0.924678 0.528005 0.078890
Si Si4 0.661200 0.338742 0.685273
Si Si5 0.286727 0.183283 0.406932
Si Si6 0.760972 0.962849 0.011338
O O1 0.895309 0.148962 0.584429
O O2 0.768247 0.323222 0.646789
O O3 0.769297 0.377627 0.542293
O O4 0.950955 0.428958 0.594283
O O5 0.420288 0.284659 0.250000
O O6 0.398973 0.497048 0.176196
O O7 0.569309 0.291764 0.173577
O O8 0.369843 0.216445 0.142672
O O9 0.833998 0.625276 0.114217
O O10 0.883301 0.570512 0.016285
O O11 0.691712 0.331012 0.750000
O O12 0.314809 0.059744 0.455975
O O13 0.270307 0.337954 0.442750
#
# Coordination Sequence:
#
# PCOD9439202 Si02
#       6
#     8   8   8   8   8   8
#     4  12  21  39  60  93 125 165 209 247 304 370
#     4  10  21  42  67  89 118 160 208 256 311 361
#     4  10  23  33  61  89 123 165 199 246 300 363
#     4  10  24  42  67  90 118 160 209 261 307 368
#     4   9  19  37  60  91 120 165 201 251 301 362
#     4   9  19  35  60  87 124 160 205 244 304 358
#
# _framework density 19.034583000000001
#
# number of rings (size 3 to 8) (size 9 to 14) (size 15 to 20)
#    1.000    1.000    1.667    2.000    2.333    0.000 
#    0.000    2.500    7.333    0.000    0.000    0.000 
#    0.000    0.000    0.000    0.000    0.000    0.000 
#
# Total GULP energy -267329.095875 kJ/mol
# GULP energy per Si atom -5569.356164 kJ/mol
# Density = 1.899126 g / cm^3
# Si number density = 19.034583 Si / 1000 Ang^3
#
#
#
# Elastic Constant Matrix: (Units=GPa)
#
#
# Indices 1 2 3 4 5 6 
#
# 1 67.9336 27.6506 60.3596 0.0000 0.0000 0.0000
# 2 27.6506 79.2282 43.5634 0.0000 0.0000 0.0000
# 3 60.3596 43.5634 80.4014 0.0000 0.0000 0.0000
# 4 0.0000 0.0000 0.0000 18.6253 0.0000 0.0000
# 5 0.0000 0.0000 0.0000 0.0000 35.4486 0.0000
# 6 0.0000 0.0000 0.0000 0.0000 0.0000 19.5287
#
#
#
# Elastic Compliance Matrix: (Units=1/GPa)
#
#
# Indices 1 2 3 4 5 6 
#
# 1 0.045125 0.004100 -0.036098 0.000000 0.000000 0.000000
# 2 0.004100 0.018350 -0.013020 0.000000 0.000000 0.000000
# 3 -0.036098 -0.013020 0.046592 0.000000 0.000000 0.000000
# 4 0.000000 0.000000 0.000000 0.053690 0.000000 0.000000
# 5 0.000000 0.000000 0.000000 0.000000 0.028210 0.000000
# 6 0.000000 0.000000 0.000000 0.000000 0.000000 0.051207
#
#
# Mechanical properties :
#
#
# Convention : Reuss Voigt Hill
#
# Bulk Modulus (GPa) = 49.92482 54.52338 52.22410
# Shear Modulus (GPa) = 14.71076 21.11985 17.91531
#
# Velocity S-wave (km/s) = 2.78302 3.33461 3.07122
# Velocity P-wave (km/s) = 6.05082 6.59793 6.33029
#
# Compressibility (1/GPa) = 0.02003012
#
# Stress axis : x y z
#
# Youngs Moduli (GPa) = 22.16076 54.49546 21.46293
#
# Poissons Ratio (x) = -0.22342 0.77476
# Poissons Ratio (y) = -0.09085 0.27945
# Poissons Ratio (z) = 0.79995 0.70955
#
# Static dielectric constant tensor:
#      x y z
#    x 1.681730 0.000000 0.000000 
#    y 0.000000 1.723010 0.000000 
#    z 0.000000 0.000000 1.667960 
# 
# From -- ./inp_files/27092.got.cif
#   From: 2010.05.17/outbox.cif.g08.bks.cpg/sg57_14_cif.got.tgz:27092.got - 2010.06.03 13:58:18.
