data_PCOD9439751
_publ_section_title
;
Structure prediction by ZEFSAII (Michael W. Deem and Ramdas Pophale) SiO2 
 PCOD9439751
Probable space group: P B C M
;
_chemical_formula_sum "Si O2"
_cell_formula_units_Z 32
_cell_length_a 7.480037
_cell_length_b 12.426566
_cell_length_c 16.076618
_cell_angle_alpha 90.000000
_cell_angle_beta 90.000000
_cell_angle_gamma 90.000000
_cell_volume 1494.340508
_symmetry_space_group_name_H-M "P B C M"
_symmetry_group_IT_number 57
_symmetry_cell_setting 'orthorhombic'
loop_
_space_group_symop_operation_xyz
x,y,z
-x,-y,1/2+z
x,1/2-y,-z
-x,1/2+y,1/2-z
-x,-y,-z
x,y,1/2-z
-x,1/2+y,z
x,1/2-y,1/2+z
loop_
_atom_site_type_symbol
_atom_site_label
_atom_site_fract_x
_atom_site_fract_y
_atom_site_fract_z
Si Si1 0.638247 0.959028 0.433170
Si Si2 0.076288 0.884995 0.885127
Si Si3 0.289324 0.750650 0.250000
Si Si4 0.382950 0.106794 0.750000
Si Si5 0.817428 0.750000 0.500000
Si Si6 0.971935 0.449249 0.250000
O O1 0.577417 0.956261 0.336297
O O2 0.698470 0.838829 0.454691
O O3 0.500000 0.000000 0.500000
O O4 0.805242 0.039026 0.442809
O O5 0.215086 0.816465 0.828619
O O6 0.971922 0.970000 0.827586
O O7 0.943943 0.808084 0.933377
O O8 0.497743 0.784653 0.250000
O O9 0.184137 0.863735 0.250000
O O10 0.165042 0.112943 0.750000
#
# Coordination Sequence:
#
# PCOD9439751 Si02
#       6
#     8   8   4   4   4   4
#     4  11  27  46  69 107 145 187 243 302 367 441
#     4  10  23  43  66 100 140 179 246 292 355 441
#     4  11  23  41  78  97 137 196 229 301 366 433
#     4  10  24  44  68 101 144 185 241 291 369 435
#     4  12  26  42  74 100 142 196 234 310 372 428
#     4   9  21  45  64 104 133 183 242 292 361 442
#
# _framework density 21.414128999999999
#
# number of rings (size 3 to 8) (size 9 to 14) (size 15 to 20)
#    0.000    1.500    0.000    4.500   10.500    1.000 
#    0.000    2.500    0.000    0.000    0.000    0.000 
#    0.000    0.000    0.000    0.000    0.000    0.000 
#
# Total GULP energy -178902.746476 kJ/mol
# GULP energy per Si atom -5590.710827 kJ/mol
# Density = 2.136539 g / cm^3
# Si number density = 21.414129 Si / 1000 Ang^3
#
#
#
# Elastic Constant Matrix: (Units=GPa)
#
#
# Indices 1 2 3 4 5 6 
#
# 1 47.3679 57.0164 55.6844 0.0000 0.0000 0.0000
# 2 57.0164 147.1703 48.6924 0.0000 0.0000 0.0000
# 3 55.6844 48.6924 116.7286 0.0000 0.0000 0.0000
# 4 0.0000 0.0000 0.0000 20.2778 0.0000 0.0000
# 5 0.0000 0.0000 0.0000 0.0000 13.8390 0.0000
# 6 0.0000 0.0000 0.0000 0.0000 0.0000 51.9715
#
#
#
# Elastic Compliance Matrix: (Units=1/GPa)
#
#
# Indices 1 2 3 4 5 6 
#
# 1 0.084711 -0.022562 -0.030999 0.000000 0.000000 0.000000
# 2 -0.022562 0.013892 0.004968 0.000000 0.000000 0.000000
# 3 -0.030999 0.004968 0.021282 0.000000 0.000000 0.000000
# 4 0.000000 0.000000 0.000000 0.049315 0.000000 0.000000
# 5 0.000000 0.000000 0.000000 0.000000 0.072260 0.000000
# 6 0.000000 0.000000 0.000000 0.000000 0.000000 0.019241
#
#
# Mechanical properties :
#
#
# Convention : Reuss Voigt Hill
#
# Bulk Modulus (GPa) = 44.05451 70.45036 57.25243
# Shear Modulus (GPa) = 13.68158 27.20922 20.44540
#
# Velocity S-wave (km/s) = 2.53040 3.56844 3.09327
# Velocity P-wave (km/s) = 5.39949 7.06745 6.28901
#
# Compressibility (1/GPa) = 0.02269915
#
# Stress axis : x y z
#
# Youngs Moduli (GPa) = 11.80480 71.98304 46.98735
#
# Poissons Ratio (x) = 1.62411 1.45657
# Poissons Ratio (y) = 0.26634 -0.23344
# Poissons Ratio (z) = 0.36594 -0.35763
#
# Static dielectric constant tensor:
#      x y z
#    x 1.774000 0.000000 0.000000 
#    y 0.000000 1.749100 0.000000 
#    z 0.000000 0.000000 1.812480 
# 
# From -- ./inp_files/15577.got.cif
#   From: 2010.05.17/outbox.cif.g08.bks.cpg/sg57_8_cif.got.tgz:15577.got - 2010.06.03 13:58:18.
