data_PCOD9439581
_publ_section_title
;
Structure prediction by ZEFSAII (Michael W. Deem and Ramdas Pophale) SiO2 
 PCOD9439581
Probable space group: P B C M
;
_chemical_formula_sum "Si O2"
_cell_formula_units_Z 40
_cell_length_a 5.238856
_cell_length_b 14.759227
_cell_length_c 21.100866
_cell_angle_alpha 90.000000
_cell_angle_beta 90.000000
_cell_angle_gamma 90.000000
_cell_volume 1631.549870
_symmetry_space_group_name_H-M "P B C M"
_symmetry_group_IT_number 57
_symmetry_cell_setting 'orthorhombic'
loop_
_space_group_symop_operation_xyz
x,y,z
-x,-y,1/2+z
x,1/2-y,-z
-x,1/2+y,1/2-z
-x,-y,-z
x,y,1/2-z
-x,1/2+y,z
x,1/2-y,1/2+z
loop_
_atom_site_type_symbol
_atom_site_label
_atom_site_fract_x
_atom_site_fract_y
_atom_site_fract_z
Si Si1 0.989333 0.194823 0.444189
Si Si2 0.930426 0.030429 0.750000
Si Si3 0.744871 0.448240 0.023569
Si Si4 0.296090 0.446646 0.864179
Si Si5 0.675991 0.200359 0.321592
Si Si6 0.577245 0.843769 0.250000
O O1 0.127608 0.250000 0.500000
O O2 0.774960 0.146131 0.488095
O O3 0.850261 0.230376 0.380526
O O4 0.186035 0.124260 0.414230
O O5 0.171617 0.095879 0.750000
O O6 0.669326 0.090176 0.750000
O O7 0.906604 0.964878 0.690253
O O8 0.702534 0.457623 0.098664
O O9 0.500000 0.500000 0.000000
O O10 0.000000 0.500000 0.000000
O O11 0.546127 0.397191 0.836897
O O12 0.794040 0.199485 0.250000
O O13 0.452682 0.275192 0.309633
#
# Coordination Sequence:
#
# PCOD9439581 Si02
#       6
#     8   4   8   8   8   4
#     4  11  26  45  72 104 148 197 243 305 370 445
#     4  12  27  47  74 112 148 190 238 314 369 442
#     4  10  22  43  64 101 140 185 234 290 351 432
#     4  11  25  43  76 104 146 194 251 301 375 437
#     4  10  24  45  72 106 144 193 245 311 366 445
#     4  10  29  43  72 110 148 186 242 308 371 436
#
# _framework density 24.516565
#
# number of rings (size 3 to 8) (size 9 to 14) (size 15 to 20)
#    0.600    0.800    3.000    0.000    9.800    0.800 
#    0.000    0.000    0.000    0.000    0.000    0.000 
#    0.000    0.000    0.000    0.000    0.000    0.000 
#
# Total GULP energy -223060.077119 kJ/mol
# GULP energy per Si atom -5576.501928 kJ/mol
# Density = 2.446076 g / cm^3
# Si number density = 24.516565 Si / 1000 Ang^3
#
#
#
# Elastic Constant Matrix: (Units=GPa)
#
#
# Indices 1 2 3 4 5 6 
#
# 1 105.1765 19.3789 22.8888 0.0000 0.0000 0.0000
# 2 19.3789 64.4202 42.5321 0.0000 0.0000 0.0000
# 3 22.8888 42.5321 195.5153 0.0000 0.0000 0.0000
# 4 0.0000 0.0000 0.0000 46.8340 0.0000 0.0000
# 5 0.0000 0.0000 0.0000 0.0000 24.1901 0.0000
# 6 0.0000 0.0000 0.0000 0.0000 0.0000 36.4190
#
#
#
# Elastic Compliance Matrix: (Units=1/GPa)
#
#
# Indices 1 2 3 4 5 6 
#
# 1 0.010128 -0.002644 -0.000611 0.000000 0.000000 0.000000
# 2 -0.002644 0.018817 -0.003784 0.000000 0.000000 0.000000
# 3 -0.000611 -0.003784 0.006009 0.000000 0.000000 0.000000
# 4 0.000000 0.000000 0.000000 0.021352 0.000000 0.000000
# 5 0.000000 0.000000 0.000000 0.000000 0.041339 0.000000
# 6 0.000000 0.000000 0.000000 0.000000 0.000000 0.027458
#
#
# Mechanical properties :
#
#
# Convention : Reuss Voigt Hill
#
# Bulk Modulus (GPa) = 47.89797 59.41240 53.65519
# Shear Modulus (GPa) = 34.21422 40.17610 37.19516
#
# Velocity S-wave (km/s) = 3.73977 4.05252 3.89928
# Velocity P-wave (km/s) = 6.18281 6.79584 6.49656
#
# Compressibility (1/GPa) = 0.02087771
#
# Stress axis : x y z
#
# Youngs Moduli (GPa) = 98.73840 53.14480 166.40863
#
# Poissons Ratio (x) = 0.14049 0.10161
# Poissons Ratio (y) = 0.26102 0.62966
# Poissons Ratio (z) = 0.06029 0.20109
#
# Static dielectric constant tensor:
#      x y z
#    x 1.924170 0.000000 0.000000 
#    y 0.000000 2.183820 0.000000 
#    z 0.000000 0.000000 -1.333860 
# 
# From -- ./inp_files/20011.got.cif
#   From: 2010.05.17/outbox.cif.g08.bks.cpg/sg57_11_cif.got.tgz:20011.got - 2010.06.03 13:58:18.
