data_PCOD9439962
_publ_section_title
;
Structure prediction by ZEFSAII (Michael W. Deem and Ramdas Pophale) SiO2 
 PCOD9439962
Probable space group: P B C M
;
_chemical_formula_sum "Si O2"
_cell_formula_units_Z 56
_cell_length_a 9.447679
_cell_length_b 13.432639
_cell_length_c 19.912029
_cell_angle_alpha 90.000000
_cell_angle_beta 90.000000
_cell_angle_gamma 90.000000
_cell_volume 2526.981069
_symmetry_space_group_name_H-M "P B C M"
_symmetry_group_IT_number 57
_symmetry_cell_setting 'orthorhombic'
loop_
_space_group_symop_operation_xyz
x,y,z
-x,-y,1/2+z
x,1/2-y,-z
-x,1/2+y,1/2-z
-x,-y,-z
x,y,1/2-z
-x,1/2+y,z
x,1/2-y,1/2+z
loop_
_atom_site_type_symbol
_atom_site_label
_atom_site_fract_x
_atom_site_fract_y
_atom_site_fract_z
Si Si1 0.605612 0.337298 0.324676
Si Si2 0.859742 0.202176 0.175799
Si Si3 0.211338 0.648543 0.463818
Si Si4 0.010750 0.416491 0.328860
Si Si5 0.334793 0.433987 0.328644
Si Si6 0.495061 0.571441 0.065388
Si Si7 0.228254 0.508716 0.583560
O O1 0.630565 0.383715 0.250000
O O2 0.695296 0.237422 0.322448
O O3 0.437537 0.337412 0.333865
O O4 0.675063 0.405094 0.381595
O O5 0.894288 0.161230 0.250000
O O6 0.864987 0.140510 0.107806
O O7 0.947950 0.304167 0.165581
O O8 0.163543 0.750000 0.500000
O O9 0.382227 0.655601 0.453525
O O10 0.187513 0.553249 0.511157
O O11 0.002489 0.440136 0.250000
O O12 0.909006 0.489663 0.370107
O O13 0.174269 0.416995 0.349956
O O14 0.332241 0.463316 0.250000
O O15 0.414872 0.514787 0.373892
O O16 0.662089 0.583533 0.081261
O O17 0.500000 0.500000 0.000000
#
# Coordination Sequence:
#
# PCOD9439962 Si02
#       7
#     8   8   8   8   8   8   8
#     4   8  13  24  44  69  95 123 160 203 241 289
#     4   9  17  29  48  73  97 127 166 206 252 301
#     4  11  18  30  51  73  99 131 167 209 254 302
#     4   9  16  28  50  76  99 130 168 208 249 301
#     4   9  17  30  50  75 101 131 169 206 249 301
#     4   9  20  33  49  75 101 131 168 214 259 296
#     4   9  16  30  49  71  99 129 168 210 250 297
#
# _framework density 22.160829
#
# number of rings (size 3 to 8) (size 9 to 14) (size 15 to 20)
#    0.000    2.857    2.857    1.286    0.000    1.143 
#    0.000    2.857    0.000   12.000    0.000    4.000 
#    0.000    0.000    0.000    0.000    0.000    0.000 
#
# Total GULP energy -311973.715414 kJ/mol
# GULP energy per Si atom -5570.959204 kJ/mol
# Density = 2.211039 g / cm^3
# Si number density = 22.160829 Si / 1000 Ang^3
#
#
#
# Elastic Constant Matrix: (Units=GPa)
#
#
# Indices 1 2 3 4 5 6 
#
# 1 151.1129 25.6414 41.9458 0.0000 0.0000 0.0000
# 2 25.6414 37.5125 19.7447 0.0000 0.0000 0.0000
# 3 41.9458 19.7447 126.3857 0.0000 0.0000 0.0000
# 4 0.0000 0.0000 0.0000 9.4911 0.0000 0.0000
# 5 0.0000 0.0000 0.0000 0.0000 -29.0113 0.0000
# 6 0.0000 0.0000 0.0000 0.0000 0.0000 26.2911
#
#
#
# Elastic Compliance Matrix: (Units=1/GPa)
#
#
# Indices 1 2 3 4 5 6 
#
# 1 0.007898 -0.004379 -0.001937 0.000000 0.000000 0.000000
# 2 -0.004379 0.031474 -0.003464 0.000000 0.000000 0.000000
# 3 -0.001937 -0.003464 0.009096 0.000000 0.000000 0.000000
# 4 0.000000 0.000000 0.000000 0.105362 0.000000 0.000000
# 5 0.000000 0.000000 0.000000 0.000000 -0.034469 0.000000
# 6 0.000000 0.000000 0.000000 0.000000 0.000000 0.038036
#
#
# Mechanical properties :
#
#
# Convention : Reuss Voigt Hill
#
# Bulk Modulus (GPa) = 34.59162 54.40831 44.49996
# Shear Modulus (GPa) = 26.79623 16.53281 21.66452
#
# Velocity S-wave (km/s) = 3.48109 2.73433 3.13006
# Velocity P-wave (km/s) = 5.63919 5.87993 5.76082
#
# Compressibility (1/GPa) = 0.02890874
#
# Stress axis : x y z
#
# Youngs Moduli (GPa) = 126.60814 31.77201 109.93429
#
# Poissons Ratio (x) = 0.13914 0.21297
# Poissons Ratio (y) = 0.55444 0.38078
# Poissons Ratio (z) = 0.24527 0.11005
#
# Static dielectric constant tensor:
#      x y z
#    x 1.869750 0.000000 0.000000 
#    y 0.000000 1.861880 0.000000 
#    z 0.000000 0.000000 1.874800 
# 
# From -- ./inp_files/24510.got.cif
#   From: 2010.05.17/outbox.cif.g08.bks.cpg/sg57_13_cif.got.tgz:24510.got - 2010.06.03 13:58:18.
