data_PCOD9439946
_publ_section_title
;
Structure prediction by ZEFSAII (Michael W. Deem and Ramdas Pophale) SiO2 
 PCOD9439946
Probable space group: P B C M
;
_chemical_formula_sum "Si O2"
_cell_formula_units_Z 32
_cell_length_a 9.466874
_cell_length_b 15.830149
_cell_length_c 9.593027
_cell_angle_alpha 90.000000
_cell_angle_beta 90.000000
_cell_angle_gamma 90.000000
_cell_volume 1437.630462
_symmetry_space_group_name_H-M "P B C M"
_symmetry_group_IT_number 57
_symmetry_cell_setting 'orthorhombic'
loop_
_space_group_symop_operation_xyz
x,y,z
-x,-y,1/2+z
x,1/2-y,-z
-x,1/2+y,1/2-z
-x,-y,-z
x,y,1/2-z
-x,1/2+y,z
x,1/2-y,1/2+z
loop_
_atom_site_type_symbol
_atom_site_label
_atom_site_fract_x
_atom_site_fract_y
_atom_site_fract_z
Si Si1 0.081363 0.422090 0.250000
Si Si2 0.816068 0.846590 0.969953
Si Si3 0.354501 0.750000 0.500000
Si Si4 0.771630 0.357856 0.250000
Si Si5 0.390208 0.859363 0.750000
Si Si6 0.051342 0.621331 0.250000
Si Si7 0.354993 0.044482 0.250000
O O1 0.937627 0.369611 0.250000
O O2 0.163644 0.395946 0.387066
O O3 0.039779 0.520029 0.250000
O O4 0.711677 0.903439 0.878254
O O5 0.964685 0.844692 0.883358
O O6 0.773234 0.750000 0.000000
O O7 0.270075 0.690723 0.608282
O O8 0.433960 0.809348 0.610305
O O9 0.696332 0.448752 0.250000
O O10 0.219297 0.862336 0.750000
O O11 0.475874 0.946086 0.750000
#
# Coordination Sequence:
#
# PCOD9439946 Si02
#       7
#     4   8   4   4   4   4   4
#     4  12  23  40  70 102 137 175 240 294 342 417
#     4  11  25  44  68 102 143 187 231 292 351 408
#     4  10  26  44  72 102 142 180 230 290 348 420
#     4  11  24  47  73 107 138 181 232 292 353 413
#     4  11  26  46  69 102 139 188 229 283 346 413
#     4  11  24  42  68 102 136 178 238 289 353 411
#     4  11  27  49  68 101 146 190 235 282 346 420
#
# _framework density 22.258849000000001
#
# number of rings (size 3 to 8) (size 9 to 14) (size 15 to 20)
#    0.000    1.000    2.500    3.750   15.750    1.000 
#    0.000    0.000    0.000    0.000    0.000    0.000 
#    0.000    0.000    0.000    0.000    0.000    0.000 
#
# Total GULP energy -178961.578722 kJ/mol
# GULP energy per Si atom -5592.549335 kJ/mol
# Density = 2.220819 g / cm^3
# Si number density = 22.258849 Si / 1000 Ang^3
#
#
#
# Elastic Constant Matrix: (Units=GPa)
#
#
# Indices 1 2 3 4 5 6 
#
# 1 90.6142 18.5434 32.0021 0.0000 0.0000 0.0000
# 2 18.5434 132.5791 52.6897 0.0000 0.0000 0.0000
# 3 32.0021 52.6897 187.3605 0.0000 0.0000 0.0000
# 4 0.0000 0.0000 0.0000 34.9513 0.0000 0.0000
# 5 0.0000 0.0000 0.0000 0.0000 -55.9626 0.0000
# 6 0.0000 0.0000 0.0000 0.0000 0.0000 22.7164
#
#
#
# Elastic Compliance Matrix: (Units=1/GPa)
#
#
# Indices 1 2 3 4 5 6 
#
# 1 0.011852 -0.000961 -0.001754 0.000000 0.000000 0.000000
# 2 -0.000961 0.008570 -0.002246 0.000000 0.000000 0.000000
# 3 -0.001754 -0.002246 0.006269 0.000000 0.000000 0.000000
# 4 0.000000 0.000000 0.000000 0.028611 0.000000 0.000000
# 5 0.000000 0.000000 0.000000 0.000000 -0.017869 0.000000
# 6 0.000000 0.000000 0.000000 0.000000 0.000000 0.044021
#
#
# Mechanical properties :
#
#
# Convention : Reuss Voigt Hill
#
# Bulk Modulus (GPa) = 59.63486 68.55825 64.09655
# Shear Modulus (GPa) = 51.56546 20.82892 36.19719
#
# Velocity S-wave (km/s) = 4.81836 3.06234 4.03698
# Velocity P-wave (km/s) = 7.60297 6.58568 7.11253
#
# Compressibility (1/GPa) = 0.01676872
#
# Stress axis : x y z
#
# Youngs Moduli (GPa) = 84.37462 116.69198 159.52713
#
# Poissons Ratio (x) = 0.11208 0.27985
# Poissons Ratio (y) = 0.08104 0.35828
# Poissons Ratio (z) = 0.14801 0.26208
#
# Static dielectric constant tensor:
#      x y z
#    x 1.849710 0.000000 0.000000 
#    y 0.000000 1.804770 0.000000 
#    z 0.000000 0.000000 1.434050 
# 
# From -- ./inp_files/2472.got.cif
#   From: 2010.05.17/outbox.cif.g08.bks.cpg/sg57_2_cif.got.tgz:2472.got - 2010.06.03 13:58:18.
