data_PCOD9439032
_publ_section_title
;
Structure prediction by ZEFSAII (Michael W. Deem and Ramdas Pophale) SiO2 
 PCOD9439032
Probable space group: P B C M
;
_chemical_formula_sum "Si O2"
_cell_formula_units_Z 64
_cell_length_a 14.591915
_cell_length_b 8.660725
_cell_length_c 23.605022
_cell_angle_alpha 90.000000
_cell_angle_beta 90.000000
_cell_angle_gamma 90.000000
_cell_volume 2983.121551
_symmetry_space_group_name_H-M "P B C M"
_symmetry_group_IT_number 57
_symmetry_cell_setting 'orthorhombic'
loop_
_space_group_symop_operation_xyz
x,y,z
-x,-y,1/2+z
x,1/2-y,-z
-x,1/2+y,1/2-z
-x,-y,-z
x,y,1/2-z
-x,1/2+y,z
x,1/2-y,1/2+z
loop_
_atom_site_type_symbol
_atom_site_label
_atom_site_fract_x
_atom_site_fract_y
_atom_site_fract_z
Si Si1 0.763979 0.460716 0.598206
Si Si2 0.384162 0.493525 0.814743
Si Si3 0.859266 0.632902 0.811990
Si Si4 0.038874 0.058535 0.343500
Si Si5 0.949019 0.388377 0.540951
Si Si6 0.511606 0.719742 0.626092
Si Si7 0.799609 0.169767 0.681767
Si Si8 0.425762 0.545917 0.451091
O O1 0.780677 0.605058 0.640988
O O2 0.857141 0.459790 0.563921
O O3 0.768502 0.312961 0.641714
O O4 0.684694 0.452935 0.550132
O O5 0.397101 0.448916 0.750000
O O6 0.422556 0.354138 0.852200
O O7 0.442981 0.648196 0.828056
O O8 0.279613 0.540977 0.824205
O O9 0.817905 0.612040 0.750000
O O10 0.908789 0.799460 0.814110
O O11 0.941671 0.505777 0.819712
O O12 0.014798 0.129695 0.404894
O O13 0.106824 0.910402 0.340277
O O14 0.924786 0.250000 0.500000
O O15 0.000000 0.500000 0.500000
O O16 0.455204 0.789856 0.573576
O O17 0.562881 0.574830 0.600321
O O18 0.807184 0.205862 0.750000
O O19 0.500000 0.500000 0.500000
#
# Coordination Sequence:
#
# PCOD9439032 Si02
#       8
#     8   8   8   8   8   8   8   8
#     4  11  24  43  66  98 130 173 223 277 331 402
#     4  10  21  39  66  98 133 173 212 264 337 409
#     4  11  22  39  65 100 138 179 218 268 338 406
#     4  11  23  40  64  96 141 178 225 273 327 401
#     4  11  23  43  63  90 125 174 224 276 325 378
#     4  10  22  43  65  94 132 166 223 273 334 399
#     4  11  22  40  66 100 137 175 214 266 334 408
#     4  11  24  45  68  94 130 174 227 284 337 391
#
# _framework density 21.454035999999999
#
# number of rings (size 3 to 8) (size 9 to 14) (size 15 to 20)
#    0.000    1.250    1.250    6.000    1.750    1.000 
#    4.500    2.500    0.000    0.000    0.000    0.000 
#    0.000    0.000    0.000    0.000    0.000    0.000 
#
# Total GULP energy -356765.019680 kJ/mol
# GULP energy per Si atom -5574.453432 kJ/mol
# Density = 2.140521 g / cm^3
# Si number density = 21.454036 Si / 1000 Ang^3
#
#
#
# Elastic Constant Matrix: (Units=GPa)
#
#
# Indices 1 2 3 4 5 6 
#
# 1 96.5951 -5.3322 33.8992 0.0000 0.0000 0.0000
# 2 -5.3322 42.8638 -10.0666 0.0000 0.0000 0.0000
# 3 33.8992 -10.0666 87.6153 0.0000 0.0000 0.0000
# 4 0.0000 0.0000 0.0000 33.5606 0.0000 0.0000
# 5 0.0000 0.0000 0.0000 0.0000 -5.4675 0.0000
# 6 0.0000 0.0000 0.0000 0.0000 0.0000 20.0073
#
#
#
# Elastic Compliance Matrix: (Units=1/GPa)
#
#
# Indices 1 2 3 4 5 6 
#
# 1 0.011986 0.000413 -0.004590 0.000000 0.000000 0.000000
# 2 0.000413 0.023991 0.002597 0.000000 0.000000 0.000000
# 3 -0.004590 0.002597 0.013488 0.000000 0.000000 0.000000
# 4 0.000000 0.000000 0.000000 0.029797 0.000000 0.000000
# 5 0.000000 0.000000 0.000000 0.000000 -0.182898 0.000000
# 6 0.000000 0.000000 0.000000 0.000000 0.000000 0.049982
#
#
# Mechanical properties :
#
#
# Convention : Reuss Voigt Hill
#
# Bulk Modulus (GPa) = 21.59636 29.34167 25.46901
# Shear Modulus (GPa) = -142.61546 23.52499 -59.54523
#
# Velocity S-wave (km/s) = -8.16206 3.31498 -5.27400
# Velocity P-wave (km/s) = 8.87341 5.32526 5.01892
#
# Compressibility (1/GPa) = 0.04630410
#
# Stress axis : x y z
#
# Youngs Moduli (GPa) = 83.42967 41.68243 74.14095
#
# Poissons Ratio (x) = -0.01722 0.34031
# Poissons Ratio (y) = -0.03446 -0.19252
# Poissons Ratio (z) = 0.38295 -0.10823
#
# Static dielectric constant tensor:
#      x y z
#    x 1.867730 0.000000 0.000000 
#    y 0.000000 1.805050 0.000000 
#    z 0.000000 0.000000 1.788420 
# 
# From -- ./inp_files/27494.got.cif
#   From: 2010.05.17/outbox.cif.g08.bks.cpg/sg57_14_cif.got.tgz:27494.got - 2010.06.03 13:58:18.
