data_PCOD9439738
_publ_section_title
;
Structure prediction by ZEFSAII (Michael W. Deem and Ramdas Pophale) SiO2 
 PCOD9439738
Probable space group: P B C M
;
_chemical_formula_sum "Si O2"
_cell_formula_units_Z 64
_cell_length_a 12.852006
_cell_length_b 14.066423
_cell_length_c 17.177469
_cell_angle_alpha 90.000000
_cell_angle_beta 90.000000
_cell_angle_gamma 90.000000
_cell_volume 3105.372954
_symmetry_space_group_name_H-M "P B C M"
_symmetry_group_IT_number 57
_symmetry_cell_setting 'orthorhombic'
loop_
_space_group_symop_operation_xyz
x,y,z
-x,-y,1/2+z
x,1/2-y,-z
-x,1/2+y,1/2-z
-x,-y,-z
x,y,1/2-z
-x,1/2+y,z
x,1/2-y,1/2+z
loop_
_atom_site_type_symbol
_atom_site_label
_atom_site_fract_x
_atom_site_fract_y
_atom_site_fract_z
Si Si1 0.025141 0.575987 0.840619
Si Si2 0.030790 0.802782 0.837966
Si Si3 0.221795 0.967729 0.435160
Si Si4 0.551089 0.520791 0.415206
Si Si5 0.835948 0.046170 0.097619
Si Si6 0.835654 0.827237 0.933145
Si Si7 0.638751 0.711938 0.157397
Si Si8 0.639533 0.571620 0.659536
O O1 0.004277 0.554548 0.750000
O O2 0.029852 0.689762 0.849782
O O3 0.139607 0.542740 0.866269
O O4 0.934022 0.525893 0.890425
O O5 0.994419 0.820407 0.750000
O O6 0.950529 0.841422 0.901272
O O7 0.136194 0.861779 0.850301
O O8 0.341452 0.960766 0.411726
O O9 0.182452 0.912598 0.510869
O O10 0.209164 0.075484 0.465422
O O11 0.500000 0.500000 0.500000
O O12 0.580563 0.629841 0.392444
O O13 0.466265 0.485128 0.354266
O O14 0.733371 0.988299 0.122321
O O15 0.761232 0.800943 0.861098
O O16 0.832051 0.750000 0.000000
O O17 0.617707 0.701129 0.250000
O O18 0.619463 0.820449 0.130542
O O19 0.665828 0.582016 0.750000
#
# Coordination Sequence:
#
# PCOD9439738 Si02
#       8
#     8   8   8   8   8   8   8   8
#     4  11  24  41  62  94 133 172 219 267 328 406
#     4  11  24  39  61  93 132 176 220 269 332 403
#     4  11  24  41  64  91 130 171 217 269 332 393
#     4  11  24  45  67  97 131 171 220 281 337 399
#     4  12  23  42  67  97 134 172 220 276 341 395
#     4  11  22  36  65  98 130 172 221 276 330 398
#     4  10  23  42  69  99 130 175 227 276 335 404
#     4  11  23  43  70  98 132 174 226 282 339 400
#
# _framework density 20.609441
#
# number of rings (size 3 to 8) (size 9 to 14) (size 15 to 20)
#    0.000    1.000    2.500    4.500    3.500    4.500 
#    2.250    1.250    0.000    0.000    0.000    0.000 
#    0.000    0.000    0.000    0.000    0.000    0.000 
#
# Total GULP energy -357183.098649 kJ/mol
# GULP energy per Si atom -5580.985916 kJ/mol
# Density = 2.056253 g / cm^3
# Si number density = 20.609441 Si / 1000 Ang^3
#
#
#
# Elastic Constant Matrix: (Units=GPa)
#
#
# Indices 1 2 3 4 5 6 
#
# 1 125.6264 28.9244 12.2185 0.0000 0.0000 0.0000
# 2 28.9244 83.2316 9.5933 0.0000 0.0000 0.0000
# 3 12.2185 9.5933 34.3951 0.0000 0.0000 0.0000
# 4 0.0000 0.0000 0.0000 26.6719 0.0000 0.0000
# 5 0.0000 0.0000 0.0000 0.0000 33.4838 0.0000
# 6 0.0000 0.0000 0.0000 0.0000 0.0000 22.7634
#
#
#
# Elastic Compliance Matrix: (Units=1/GPa)
#
#
# Indices 1 2 3 4 5 6 
#
# 1 0.008834 -0.002798 -0.002358 0.000000 0.000000 0.000000
# 2 -0.002798 0.013300 -0.002716 0.000000 0.000000 0.000000
# 3 -0.002358 -0.002716 0.030669 0.000000 0.000000 0.000000
# 4 0.000000 0.000000 0.000000 0.037493 0.000000 0.000000
# 5 0.000000 0.000000 0.000000 0.000000 0.029865 0.000000
# 6 0.000000 0.000000 0.000000 0.000000 0.000000 0.043930
#
#
# Mechanical properties :
#
#
# Convention : Reuss Voigt Hill
#
# Bulk Modulus (GPa) = 26.98330 38.30282 32.64306
# Shear Modulus (GPa) = 26.01639 29.41827 27.71733
#
# Velocity S-wave (km/s) = 3.55681 3.78222 3.67125
# Velocity P-wave (km/s) = 5.47622 6.13995 5.81756
#
# Compressibility (1/GPa) = 0.03705996
#
# Stress axis : x y z
#
# Youngs Moduli (GPa) = 113.20340 75.18763 32.60633
#
# Poissons Ratio (x) = 0.21038 0.07687
# Poissons Ratio (y) = 0.31676 0.08855
# Poissons Ratio (z) = 0.26689 0.20418
#
# Static dielectric constant tensor:
#      x y z
#    x 1.715130 0.000000 0.000000 
#    y 0.000000 1.789620 0.000000 
#    z 0.000000 0.000000 1.778330 
# 
# From -- ./inp_files/22104.got.cif
#   From: 2010.05.17/outbox.cif.g08.bks.cpg/sg57_12_cif.got.tgz:22104.got - 2010.06.03 13:58:18.
