data_PCOD9439040
_publ_section_title
;
Structure prediction by ZEFSAII (Michael W. Deem and Ramdas Pophale) SiO2 
 PCOD9439040
Probable space group: P B C M
;
_chemical_formula_sum "Si O2"
_cell_formula_units_Z 60
_cell_length_a 19.938107
_cell_length_b 5.232030
_cell_length_c 25.579995
_cell_angle_alpha 90.000000
_cell_angle_beta 90.000000
_cell_angle_gamma 90.000000
_cell_volume 2668.422556
_symmetry_space_group_name_H-M "P B C M"
_symmetry_group_IT_number 57
_symmetry_cell_setting 'orthorhombic'
loop_
_space_group_symop_operation_xyz
x,y,z
-x,-y,1/2+z
x,1/2-y,-z
-x,1/2+y,1/2-z
-x,-y,-z
x,y,1/2-z
-x,1/2+y,z
x,1/2-y,1/2+z
loop_
_atom_site_type_symbol
_atom_site_label
_atom_site_fract_x
_atom_site_fract_y
_atom_site_fract_z
Si Si1 0.154946 0.997713 0.530269
Si Si2 0.041829 0.308751 0.390182
Si Si3 0.241078 0.780161 0.617220
Si Si4 0.456098 0.276964 0.940709
Si Si5 0.627988 0.574742 0.657564
Si Si6 0.735604 0.908322 0.805205
Si Si7 0.859141 0.980571 0.193158
Si Si8 0.544098 0.158827 0.250000
O O1 0.178701 0.250000 0.500000
O O2 0.097906 0.114058 0.567744
O O3 0.216125 0.871633 0.562004
O O4 0.126086 0.750000 0.500000
O O5 0.077502 0.354878 0.334605
O O6 0.983338 0.519824 0.395750
O O7 0.307360 0.925237 0.635500
O O8 0.175778 0.818304 0.654725
O O9 0.258859 0.497435 0.634308
O O10 0.483922 0.566069 0.937634
O O11 0.410837 0.200152 0.891149
O O12 0.426754 0.250000 0.000000
O O13 0.584836 0.396747 0.696294
O O14 0.662864 0.783236 0.694401
O O15 0.738809 0.069020 0.750000
O O16 0.798614 0.720545 0.801623
O O17 0.876239 0.084989 0.250000
O O18 0.486445 0.940983 0.250000
#
# Coordination Sequence:
#
# PCOD9439040 Si02
#       8
#     8   8   8   8   8   8   8   4
#     4  11  26  46  70  97 136 176 223 285 350 404
#     4  11  25  42  68  98 133 173 229 277 327 406
#     4  10  24  39  68  95 133 171 223 277 338 402
#     4  10  23  44  66  88 123 171 220 269 326 392
#     4  11  24  40  64  98 132 171 224 276 333 404
#     4  10  21  39  67  97 131 175 219 270 338 413
#     4   9  21  40  62  94 132 176 218 269 340 396
#     4  12  28  44  66 100 142 182 220 274 336 400
#
# _framework density 22.485194
#
# number of rings (size 3 to 8) (size 9 to 14) (size 15 to 20)
#    0.000    1.600    0.667    2.000   14.933    2.667 
#    0.000    0.000    0.000    0.000    0.000    0.000 
#    0.000    0.000    0.000    0.000    0.000    0.000 
#
# Total GULP energy -334516.036353 kJ/mol
# GULP energy per Si atom -5575.267273 kJ/mol
# Density = 2.243402 g / cm^3
# Si number density = 22.485194 Si / 1000 Ang^3
#
#
#
# Elastic Constant Matrix: (Units=GPa)
#
#
# Indices 1 2 3 4 5 6 
#
# 1 54.1340 -6.2578 23.4295 0.0000 0.0000 0.0000
# 2 -6.2578 45.4585 -3.5403 0.0000 0.0000 0.0000
# 3 23.4295 -3.5403 98.5517 0.0000 0.0000 0.0000
# 4 0.0000 0.0000 0.0000 23.1687 0.0000 0.0000
# 5 0.0000 0.0000 0.0000 0.0000 37.8675 0.0000
# 6 0.0000 0.0000 0.0000 0.0000 0.0000 18.3249
#
#
#
# Elastic Compliance Matrix: (Units=1/GPa)
#
#
# Indices 1 2 3 4 5 6 
#
# 1 0.020869 0.002493 -0.004872 0.000000 0.000000 0.000000
# 2 0.002493 0.022358 0.000210 0.000000 0.000000 0.000000
# 3 -0.004872 0.000210 0.011313 0.000000 0.000000 0.000000
# 4 0.000000 0.000000 0.000000 0.043162 0.000000 0.000000
# 5 0.000000 0.000000 0.000000 0.000000 0.026408 0.000000
# 6 0.000000 0.000000 0.000000 0.000000 0.000000 0.054571
#
#
# Mechanical properties :
#
#
# Convention : Reuss Voigt Hill
#
# Bulk Modulus (GPa) = 19.91880 25.04523 22.48201
# Shear Modulus (GPa) = 25.03116 28.17306 26.60211
#
# Velocity S-wave (km/s) = 3.34013 3.54356 3.44335
# Velocity P-wave (km/s) = 4.87372 5.28253 5.08224
#
# Compressibility (1/GPa) = 0.05020382
#
# Stress axis : x y z
#
# Youngs Moduli (GPa) = 47.91682 44.72729 88.39587
#
# Poissons Ratio (x) = -0.11153 0.43066
# Poissons Ratio (y) = -0.11948 -0.01860
# Poissons Ratio (z) = 0.23345 -0.00941
#
# Static dielectric constant tensor:
#      x y z
#    x 1.803750 0.000000 0.000000 
#    y 0.000000 1.945470 0.000000 
#    z 0.000000 0.000000 1.937930 
# 
# From -- ./inp_files/27673.got.cif
#   From: 2010.05.17/outbox.cif.g08.bks.cpg/sg57_14_cif.got.tgz:27673.got - 2010.06.03 13:58:18.
