data_PCOD9439093
_publ_section_title
;
Structure prediction by ZEFSAII (Michael W. Deem and Ramdas Pophale) SiO2 
 PCOD9439093
Probable space group: P B C M
;
_chemical_formula_sum "Si O2"
_cell_formula_units_Z 56
_cell_length_a 15.525630
_cell_length_b 21.405296
_cell_length_c 8.392781
_cell_angle_alpha 90.000000
_cell_angle_beta 90.000000
_cell_angle_gamma 90.000000
_cell_volume 2789.178833
_symmetry_space_group_name_H-M "P B C M"
_symmetry_group_IT_number 57
_symmetry_cell_setting 'orthorhombic'
loop_
_space_group_symop_operation_xyz
x,y,z
-x,-y,1/2+z
x,1/2-y,-z
-x,1/2+y,1/2-z
-x,-y,-z
x,y,1/2-z
-x,1/2+y,z
x,1/2-y,1/2+z
loop_
_atom_site_type_symbol
_atom_site_label
_atom_site_fract_x
_atom_site_fract_y
_atom_site_fract_z
Si Si1 0.946457 0.060070 0.558756
Si Si2 0.780348 0.626819 0.564530
Si Si3 0.439936 0.818852 0.434973
Si Si4 0.772184 0.496544 0.060172
Si Si5 0.583482 0.459316 0.939689
Si Si6 0.957184 0.682912 0.557810
Si Si7 0.627010 0.811806 0.933958
O O1 0.954842 0.059974 0.750000
O O2 0.844453 0.055466 0.523853
O O3 0.987200 0.124508 0.498113
O O4 0.000000 0.000000 0.500000
O O5 0.761268 0.639100 0.750000
O O6 0.806448 0.555725 0.538341
O O7 0.858357 0.670021 0.508517
O O8 0.694540 0.634255 0.461716
O O9 0.410761 0.750000 0.500000
O O10 0.416324 0.823010 0.250000
O O11 0.418246 0.884900 0.518746
O O12 0.543225 0.817651 0.458104
O O13 0.775238 0.508654 0.250000
O O14 0.674174 0.482764 0.011136
O O15 0.584451 0.466578 0.750000
O O16 0.500000 0.500000 0.000000
O O17 0.987076 0.750000 0.500000
O O18 0.957573 0.682029 0.750000
O O19 0.601736 0.806755 0.750000
O O20 0.673326 0.750000 0.000000
#
# Coordination Sequence:
#
# PCOD9439093 Si02
#       7
#     8   8   8   8   8   8   8
#     4  10  21  40  64  90 121 160 206 255 305 366
#     4  11  21  35  55  82 119 157 200 250 308 375
#     4  11  22  40  63  88 119 160 209 259 318 379
#     4  11  23  39  62  91 121 159 207 258 316 376
#     4  12  25  43  65  93 129 167 212 266 323 379
#     4  10  22  38  58  87 122 160 203 253 309 366
#     4  11  21  34  52  79 115 155 201 246 304 371
#
# _framework density 20.077593
#
# number of rings (size 3 to 8) (size 9 to 14) (size 15 to 20)
#    0.000    1.143    1.429    6.857    0.000    3.429 
#    0.000    0.714    0.000    1.714    0.000    0.000 
#    0.000    0.000    0.000    0.000    0.000    0.000 
#
# Total GULP energy -312487.901701 kJ/mol
# GULP energy per Si atom -5580.141102 kJ/mol
# Density = 2.003190 g / cm^3
# Si number density = 20.077593 Si / 1000 Ang^3
#
#
#
# Elastic Constant Matrix: (Units=GPa)
#
#
# Indices 1 2 3 4 5 6 
#
# 1 85.3555 33.4576 8.9926 0.0000 0.0000 0.0000
# 2 33.4576 118.8473 -1.8563 0.0000 0.0000 0.0000
# 3 8.9926 -1.8563 50.3779 0.0000 0.0000 0.0000
# 4 0.0000 0.0000 0.0000 35.6107 0.0000 0.0000
# 5 0.0000 0.0000 0.0000 0.0000 19.5982 0.0000
# 6 0.0000 0.0000 0.0000 0.0000 0.0000 33.6216
#
#
#
# Elastic Compliance Matrix: (Units=1/GPa)
#
#
# Indices 1 2 3 4 5 6 
#
# 1 0.013488 -0.003837 -0.002549 0.000000 0.000000 0.000000
# 2 -0.003837 0.009511 0.001035 0.000000 0.000000 0.000000
# 3 -0.002549 0.001035 0.020343 0.000000 0.000000 0.000000
# 4 0.000000 0.000000 0.000000 0.028081 0.000000 0.000000
# 5 0.000000 0.000000 0.000000 0.000000 0.051025 0.000000
# 6 0.000000 0.000000 0.000000 0.000000 0.000000 0.029743
#
#
# Mechanical properties :
#
#
# Convention : Reuss Voigt Hill
#
# Bulk Modulus (GPa) = 30.63680 37.30761 33.97220
# Shear Modulus (GPa) = 28.77317 32.03187 30.40252
#
# Velocity S-wave (km/s) = 3.78974 3.99858 3.89556
# Velocity P-wave (km/s) = 5.86871 6.31983 6.09845
#
# Compressibility (1/GPa) = 0.03264049
#
# Stress axis : x y z
#
# Youngs Moduli (GPa) = 74.13838 105.14679 49.15658
#
# Poissons Ratio (x) = 0.40345 0.12530
# Poissons Ratio (y) = 0.28447 -0.05089
# Poissons Ratio (z) = 0.18899 -0.10886
#
# Static dielectric constant tensor:
#      x y z
#    x 1.703540 0.000000 0.000000 
#    y 0.000000 1.839990 0.000000 
#    z 0.000000 0.000000 1.688190 
# 
# From -- ./inp_files/5265.got.cif
#   From: 2010.05.17/outbox.cif.g08.bks.cpg/sg57_3_cif.got.tgz:5265.got - 2010.06.03 13:58:18.
