data_PCOD9439077
_publ_section_title
;
Structure prediction by ZEFSAII (Michael W. Deem and Ramdas Pophale) SiO2 
 PCOD9439077
Probable space group: P B C M
;
_chemical_formula_sum "Si O2"
_cell_formula_units_Z 32
_cell_length_a 7.187773
_cell_length_b 14.411190
_cell_length_c 15.572842
_cell_angle_alpha 90.000000
_cell_angle_beta 90.000000
_cell_angle_gamma 90.000000
_cell_volume 1613.102909
_symmetry_space_group_name_H-M "P B C M"
_symmetry_group_IT_number 57
_symmetry_cell_setting 'orthorhombic'
loop_
_space_group_symop_operation_xyz
x,y,z
-x,-y,1/2+z
x,1/2-y,-z
-x,1/2+y,1/2-z
-x,-y,-z
x,y,1/2-z
-x,1/2+y,z
x,1/2-y,1/2+z
loop_
_atom_site_type_symbol
_atom_site_label
_atom_site_fract_x
_atom_site_fract_y
_atom_site_fract_z
Si Si1 0.529145 0.390334 0.511973
Si Si2 0.896359 0.452396 0.919757
Si Si3 0.314587 0.368962 0.152648
Si Si4 0.774365 0.666796 0.347202
O O1 0.500000 0.500000 0.500000
O O2 0.738506 0.382435 0.544922
O O3 0.474558 0.352599 0.418468
O O4 0.381555 0.357343 0.582529
O O5 0.795781 0.536803 0.869453
O O6 0.047185 0.396042 0.865853
O O7 0.000000 0.500000 0.000000
O O8 0.386242 0.374490 0.250000
O O9 0.187219 0.277010 0.146035
O O10 0.706620 0.649328 0.250000
#
# Coordination Sequence:
#
# PCOD9439077 Si02
#       4
#     8   8   8   8
#     4  10  21  40  63  89 122 165 210 258 317 369
#     4  11  22  42  66  94 124 171 212 258 320 373
#     4  10  22  42  64  94 133 169 210 262 313 375
#     4  11  23  42  66  94 132 170 211 265 317 373
#
# _framework density 19.837546
#
# number of rings (size 3 to 8) (size 9 to 14) (size 15 to 20)
#    0.000    1.500    5.000    1.500    0.000    5.000 
#    9.000    0.000    0.000    0.000    0.000    0.000 
#    0.000    0.000    0.000    0.000    0.000    0.000 
#
# Total GULP energy -178523.653636 kJ/mol
# GULP energy per Si atom -5578.864176 kJ/mol
# Density = 1.979239 g / cm^3
# Si number density = 19.837546 Si / 1000 Ang^3
#
#
#
# Elastic Constant Matrix: (Units=GPa)
#
#
# Indices 1 2 3 4 5 6 
#
# 1 96.1423 26.5725 60.5852 0.0000 0.0000 0.0000
# 2 26.5725 93.0665 42.1432 0.0000 0.0000 0.0000
# 3 60.5852 42.1432 174.7006 0.0000 0.0000 0.0000
# 4 0.0000 0.0000 0.0000 28.6679 0.0000 0.0000
# 5 0.0000 0.0000 0.0000 0.0000 13.5147 0.0000
# 6 0.0000 0.0000 0.0000 0.0000 0.0000 28.1220
#
#
#
# Elastic Compliance Matrix: (Units=1/GPa)
#
#
# Indices 1 2 3 4 5 6 
#
# 1 0.013623 -0.001965 -0.004250 0.000000 0.000000 0.000000
# 2 -0.001965 0.012346 -0.002297 0.000000 0.000000 0.000000
# 3 -0.004250 -0.002297 0.007752 0.000000 0.000000 0.000000
# 4 0.000000 0.000000 0.000000 0.034882 0.000000 0.000000
# 5 0.000000 0.000000 0.000000 0.000000 0.073994 0.000000
# 6 0.000000 0.000000 0.000000 0.000000 0.000000 0.035559
#
#
# Mechanical properties :
#
#
# Convention : Reuss Voigt Hill
#
# Bulk Modulus (GPa) = 59.89158 69.16793 64.52976
# Shear Modulus (GPa) = 24.90712 29.70148 27.30430
#
# Velocity S-wave (km/s) = 3.54722 3.87361 3.71400
# Velocity P-wave (km/s) = 6.85811 7.41278 7.14083
#
# Compressibility (1/GPa) = 0.01669684
#
# Stress axis : x y z
#
# Youngs Moduli (GPa) = 73.40698 80.99718 128.99708
#
# Poissons Ratio (x) = 0.15915 0.54827
# Poissons Ratio (y) = 0.14424 0.29629
# Poissons Ratio (z) = 0.31200 0.18604
#
# Static dielectric constant tensor:
#      x y z
#    x 1.696120 0.000000 0.000000 
#    y 0.000000 1.732320 0.000000 
#    z 0.000000 0.000000 1.718120 
# 
# From -- ./inp_files/14776.got.cif
#   From: 2010.05.17/outbox.cif.g08.bks.cpg/sg57_8_cif.got.tgz:14776.got - 2010.06.03 13:58:18.
