data_PCOD9439614
_publ_section_title
;
Structure prediction by ZEFSAII (Michael W. Deem and Ramdas Pophale) SiO2 
 PCOD9439614
Probable space group: P B C M
;
_chemical_formula_sum "Si O2"
_cell_formula_units_Z 40
_cell_length_a 10.717175
_cell_length_b 11.527096
_cell_length_c 15.064593
_cell_angle_alpha 90.000000
_cell_angle_beta 90.000000
_cell_angle_gamma 90.000000
_cell_volume 1861.048260
_symmetry_space_group_name_H-M "P B C M"
_symmetry_group_IT_number 57
_symmetry_cell_setting 'orthorhombic'
loop_
_space_group_symop_operation_xyz
x,y,z
-x,-y,1/2+z
x,1/2-y,-z
-x,1/2+y,1/2-z
-x,-y,-z
x,y,1/2-z
-x,1/2+y,z
x,1/2-y,1/2+z
loop_
_atom_site_type_symbol
_atom_site_label
_atom_site_fract_x
_atom_site_fract_y
_atom_site_fract_z
Si Si1 0.128485 0.006133 0.057892
Si Si2 0.410970 0.332670 0.250000
Si Si3 0.964153 0.207415 0.852645
Si Si4 0.256353 0.849571 0.568330
Si Si5 0.770312 0.750932 0.097348
Si Si6 0.593106 0.107301 0.250000
O O1 0.113236 0.909060 0.133237
O O2 0.175481 0.120886 0.106883
O O3 0.235201 0.963269 0.990199
O O4 0.000000 0.000000 0.000000
O O5 0.322510 0.306631 0.333878
O O6 0.505275 0.222474 0.250000
O O7 0.452273 0.469982 0.250000
O O8 0.982371 0.236443 0.750000
O O9 0.880949 0.303518 0.901674
O O10 0.097421 0.184056 0.897322
O O11 0.306225 0.750000 0.500000
O O12 0.329452 0.875585 0.658534
O O13 0.713411 0.750000 0.000000
#
# Coordination Sequence:
#
# PCOD9439614 Si02
#       6
#     8   4   8   8   8   4
#     4  11  21  36  64 103 148 180 219 278 354 444
#     4  12  32  49  76 100 136 197 253 320 353 416
#     4  11  21  35  63 106 146 181 218 274 361 440
#     4  10  22  43  72 106 143 190 224 294 364 438
#     4  12  23  43  67 104 143 178 235 285 359 431
#     4  12  28  53  74 100 140 191 263 304 365 418
#
# _framework density 21.493264
#
# number of rings (size 3 to 8) (size 9 to 14) (size 15 to 20)
#    0.000    0.800    6.000    1.800    1.400    4.000 
#    0.000    3.000    0.000    0.000    0.000    0.000 
#    0.000    0.000    0.000    0.000    0.000    0.000 
#
# Total GULP energy -222954.252845 kJ/mol
# GULP energy per Si atom -5573.856321 kJ/mol
# Density = 2.144434 g / cm^3
# Si number density = 21.493264 Si / 1000 Ang^3
#
#
#
# Elastic Constant Matrix: (Units=GPa)
#
#
# Indices 1 2 3 4 5 6 
#
# 1 55.6600 35.4990 18.1070 0.0000 0.0000 0.0000
# 2 35.4990 132.2045 31.0468 0.0000 0.0000 0.0000
# 3 18.1070 31.0468 123.0001 0.0000 0.0000 0.0000
# 4 0.0000 0.0000 0.0000 25.9054 0.0000 0.0000
# 5 0.0000 0.0000 0.0000 0.0000 -77.0134 0.0000
# 6 0.0000 0.0000 0.0000 0.0000 0.0000 14.7441
#
#
#
# Elastic Compliance Matrix: (Units=1/GPa)
#
#
# Indices 1 2 3 4 5 6 
#
# 1 0.022074 -0.005489 -0.001864 0.000000 0.000000 0.000000
# 2 -0.005489 0.009406 -0.001566 0.000000 0.000000 0.000000
# 3 -0.001864 -0.001566 0.008800 0.000000 0.000000 0.000000
# 4 0.000000 0.000000 0.000000 0.038602 0.000000 0.000000
# 5 0.000000 0.000000 0.000000 0.000000 -0.012985 0.000000
# 6 0.000000 0.000000 0.000000 0.000000 0.000000 0.067824
#
#
# Mechanical properties :
#
#
# Convention : Reuss Voigt Hill
#
# Bulk Modulus (GPa) = 44.56229 53.35224 48.95726
# Shear Modulus (GPa) = 31.43886 7.80803 19.62345
#
# Velocity S-wave (km/s) = 3.82872 1.90805 3.02487
# Velocity P-wave (km/s) = 6.35008 5.45260 5.91838
#
# Compressibility (1/GPa) = 0.02244050
#
# Stress axis : x y z
#
# Youngs Moduli (GPa) = 45.30299 106.31747 113.63958
#
# Poissons Ratio (x) = 0.58362 0.21181
# Poissons Ratio (y) = 0.24869 0.17796
# Poissons Ratio (z) = 0.08444 0.16650
#
# Static dielectric constant tensor:
#      x y z
#    x 1.778990 0.000000 0.000000 
#    y 0.000000 1.925740 0.000000 
#    z 0.000000 0.000000 1.786900 
# 
# From -- ./inp_files/17435.got.cif
#   From: 2010.05.17/outbox.cif.g08.bks.cpg/sg57_9_cif.got.tgz:17435.got - 2010.06.03 13:58:18.
