data_PCOD9439179
_publ_section_title
;
Structure prediction by ZEFSAII (Michael W. Deem and Ramdas Pophale) SiO2 
 PCOD9439179
Probable space group: P B C M
;
_chemical_formula_sum "Si O2"
_cell_formula_units_Z 40
_cell_length_a 6.091988
_cell_length_b 9.733773
_cell_length_c 28.604197
_cell_angle_alpha 90.000000
_cell_angle_beta 90.000000
_cell_angle_gamma 90.000000
_cell_volume 1696.172484
_symmetry_space_group_name_H-M "P B C M"
_symmetry_group_IT_number 57
_symmetry_cell_setting 'orthorhombic'
loop_
_space_group_symop_operation_xyz
x,y,z
-x,-y,1/2+z
x,1/2-y,-z
-x,1/2+y,1/2-z
-x,-y,-z
x,y,1/2-z
-x,1/2+y,z
x,1/2-y,1/2+z
loop_
_atom_site_type_symbol
_atom_site_label
_atom_site_fract_x
_atom_site_fract_y
_atom_site_fract_z
Si Si1 0.427821 0.593611 0.880315
Si Si2 0.049017 0.774022 0.058575
Si Si3 0.176683 0.235836 0.846416
Si Si4 0.698364 0.004934 0.462621
Si Si5 0.098909 0.997610 0.196339
O O1 0.244785 0.638020 0.918133
O O2 0.568901 0.718249 0.858699
O O3 0.592099 0.502027 0.911091
O O4 0.310311 0.528942 0.836022
O O5 0.928142 0.715173 0.104702
O O6 0.163726 0.854823 0.966922
O O7 0.862195 0.873448 0.036174
O O8 0.083417 0.338956 0.808013
O O9 0.091807 0.086959 0.829526
O O10 0.500000 0.000000 0.500000
O O11 0.119862 0.956385 0.250000
#
# Coordination Sequence:
#
# PCOD9439179 Si02
#       5
#     8   8   8   8   8
#     4  10  22  42  70  98 134 180 237 293 355 418
#     4  10  22  45  73 101 137 181 233 293 354 421
#     4  10  21  41  67  94 132 179 230 289 350 418
#     4  11  25  47  75 105 141 185 236 295 358 425
#     4  11  23  39  63  97 136 180 231 290 356 427
#
# _framework density 23.582507
#
# number of rings (size 3 to 8) (size 9 to 14) (size 15 to 20)
#    0.000    1.600    0.000    5.400    0.000    6.400 
#    0.000   11.000    0.000    0.000    0.000    0.000 
#    0.000    0.000    0.000    0.000    0.000    0.000 
#
# Total GULP energy -223492.747177 kJ/mol
# GULP energy per Si atom -5587.318679 kJ/mol
# Density = 2.352883 g / cm^3
# Si number density = 23.582507 Si / 1000 Ang^3
#
#
#
# Elastic Constant Matrix: (Units=GPa)
#
#
# Indices 1 2 3 4 5 6 
#
# 1 117.9495 52.5567 60.3675 0.0000 0.0000 0.0000
# 2 52.5567 108.5084 46.9871 0.0000 0.0000 0.0000
# 3 60.3675 46.9871 143.2349 0.0000 0.0000 0.0000
# 4 0.0000 0.0000 0.0000 39.2104 0.0000 0.0000
# 5 0.0000 0.0000 0.0000 0.0000 19.4262 0.0000
# 6 0.0000 0.0000 0.0000 0.0000 0.0000 31.0123
#
#
#
# Elastic Compliance Matrix: (Units=1/GPa)
#
#
# Indices 1 2 3 4 5 6 
#
# 1 0.012348 -0.004344 -0.003779 0.000000 0.000000 0.000000
# 2 -0.004344 0.012270 -0.002194 0.000000 0.000000 0.000000
# 3 -0.003779 -0.002194 0.009294 0.000000 0.000000 0.000000
# 4 0.000000 0.000000 0.000000 0.025503 0.000000 0.000000
# 5 0.000000 0.000000 0.000000 0.000000 0.051477 0.000000
# 6 0.000000 0.000000 0.000000 0.000000 0.000000 0.032245
#
#
# Mechanical properties :
#
#
# Convention : Reuss Voigt Hill
#
# Bulk Modulus (GPa) = 75.31766 76.61282 75.96524
# Shear Modulus (GPa) = 29.72663 31.91521 30.82092
#
# Velocity S-wave (km/s) = 3.55426 3.68277 3.61908
# Velocity P-wave (km/s) = 6.98934 7.11628 7.05310
#
# Compressibility (1/GPa) = 0.01327710
#
# Stress axis : x y z
#
# Youngs Moduli (GPa) = 80.98343 81.49769 107.59587
#
# Poissons Ratio (x) = 0.35407 0.40661
# Poissons Ratio (y) = 0.35183 0.23608
# Poissons Ratio (z) = 0.30604 0.17882
#
# Static dielectric constant tensor:
#      x y z
#    x 1.892810 0.000000 0.000000 
#    y 0.000000 2.008690 0.000000 
#    z 0.000000 0.000000 1.927730 
# 
# From -- ./inp_files/27798.got.cif
#   From: 2010.05.17/outbox.cif.g08.bks.cpg/sg57_14_cif.got.tgz:27798.got - 2010.06.03 13:58:18.
