data_PCOD9439610
_publ_section_title
;
Structure prediction by ZEFSAII (Michael W. Deem and Ramdas Pophale) SiO2 
 PCOD9439610
Probable space group: P B C M
;
_chemical_formula_sum "Si O2"
_cell_formula_units_Z 64
_cell_length_a 8.728998
_cell_length_b 9.915407
_cell_length_c 30.854009
_cell_angle_alpha 90.000000
_cell_angle_beta 90.000000
_cell_angle_gamma 90.000000
_cell_volume 2670.462854
_symmetry_space_group_name_H-M "P B C M"
_symmetry_group_IT_number 57
_symmetry_cell_setting 'orthorhombic'
loop_
_space_group_symop_operation_xyz
x,y,z
-x,-y,1/2+z
x,1/2-y,-z
-x,1/2+y,1/2-z
-x,-y,-z
x,y,1/2-z
-x,1/2+y,z
x,1/2-y,1/2+z
loop_
_atom_site_type_symbol
_atom_site_label
_atom_site_fract_x
_atom_site_fract_y
_atom_site_fract_z
Si Si1 0.714415 0.192783 0.451070
Si Si2 0.992238 0.311520 0.159851
Si Si3 0.616285 0.674415 0.045896
Si Si4 0.699426 0.408758 0.375678
Si Si5 0.304375 0.213150 0.370159
Si Si6 0.822038 0.447215 0.800461
Si Si7 0.040300 0.120860 0.030969
Si Si8 0.462288 0.376834 0.198100
O O1 0.727978 0.250000 0.500000
O O2 0.554611 0.108488 0.451409
O O3 0.682215 0.308065 0.415497
O O4 0.884248 0.134560 0.440211
O O5 0.879902 0.405364 0.132874
O O6 0.126965 0.246345 0.132073
O O7 0.073988 0.418350 0.192168
O O8 0.894937 0.184453 0.177552
O O9 0.633231 0.780945 0.086162
O O10 0.784209 0.601316 0.046770
O O11 0.612426 0.750000 0.000000
O O12 0.647140 0.561503 0.380081
O O13 0.615284 0.371014 0.330392
O O14 0.368355 0.254062 0.323451
O O15 0.816710 0.416793 0.750000
O O16 0.649538 0.495472 0.812887
O O17 0.049487 0.250000 0.000000
O O18 0.000000 0.000000 0.000000
O O19 0.482177 0.369216 0.250000
#
# Coordination Sequence:
#
# PCOD9439610 Si02
#       8
#     8   8   8   8   8   8   8   8
#     4  10  23  45  70 102 141 184 239 299 362 431
#     4  11  23  45  70 102 142 189 237 301 364 433
#     4  10  22  45  70 103 141 189 238 302 368 434
#     4  12  25  45  71 106 140 191 243 302 367 443
#     4  11  24  46  72 103 144 189 248 303 365 442
#     4  10  22  43  71 104 140 182 240 298 364 438
#     4  10  23  43  66 103 141 184 239 291 356 432
#     4  10  25  46  70 105 147 189 239 303 371 443
#
# _framework density 23.965882000000001
#
# number of rings (size 3 to 8) (size 9 to 14) (size 15 to 20)
#    0.000    1.500    2.500    1.125    5.250    2.500 
#    4.500    1.250    0.000    0.000    0.000    0.000 
#    0.000    0.000    0.000    0.000    0.000    0.000 
#
# Total GULP energy -356636.904720 kJ/mol
# GULP energy per Si atom -5572.451636 kJ/mol
# Density = 2.391133 g / cm^3
# Si number density = 23.965882 Si / 1000 Ang^3
#
#
#
# Elastic Constant Matrix: (Units=GPa)
#
#
# Indices 1 2 3 4 5 6 
#
# 1 178.9320 8.2686 23.4588 0.0000 0.0000 0.0000
# 2 8.2686 73.5885 9.1895 0.0000 0.0000 0.0000
# 3 23.4588 9.1895 101.9111 0.0000 0.0000 0.0000
# 4 0.0000 0.0000 0.0000 25.2308 0.0000 0.0000
# 5 0.0000 0.0000 0.0000 0.0000 50.3041 0.0000
# 6 0.0000 0.0000 0.0000 0.0000 0.0000 25.9107
#
#
#
# Elastic Compliance Matrix: (Units=1/GPa)
#
#
# Indices 1 2 3 4 5 6 
#
# 1 0.005780 -0.000489 -0.001286 0.000000 0.000000 0.000000
# 2 -0.000489 0.013785 -0.001131 0.000000 0.000000 0.000000
# 3 -0.001286 -0.001131 0.010211 0.000000 0.000000 0.000000
# 4 0.000000 0.000000 0.000000 0.039634 0.000000 0.000000
# 5 0.000000 0.000000 0.000000 0.000000 0.019879 0.000000
# 6 0.000000 0.000000 0.000000 0.000000 0.000000 0.038594
#
#
# Mechanical properties :
#
#
# Convention : Reuss Voigt Hill
#
# Bulk Modulus (GPa) = 41.72889 48.47392 45.10140
# Shear Modulus (GPa) = 35.29018 41.19011 38.24015
#
# Velocity S-wave (km/s) = 3.84150 4.15022 3.99884
# Velocity P-wave (km/s) = 6.09309 6.57540 6.33883
#
# Compressibility (1/GPa) = 0.02396421
#
# Stress axis : x y z
#
# Youngs Moduli (GPa) = 173.01167 72.54169 97.93811
#
# Poissons Ratio (x) = 0.03546 0.12599
# Poissons Ratio (y) = 0.08457 0.11072
# Poissons Ratio (z) = 0.22256 0.08201
#
# Static dielectric constant tensor:
#      x y z
#    x 2.008250 0.000000 0.000000 
#    y 0.000000 1.979790 0.000000 
#    z 0.000000 0.000000 1.971490 
# 
# From -- ./inp_files/29607.got.cif
#   From: 2010.05.17/outbox.cif.g08.bks.cpg/sg57_15_cif.got.tgz:29607.got - 2010.06.03 13:58:18.
