data_PCOD9439435
_publ_section_title
;
Structure prediction by ZEFSAII (Michael W. Deem and Ramdas Pophale) SiO2 
 PCOD9439435
Probable space group: P B C M
;
_chemical_formula_sum "Si O2"
_cell_formula_units_Z 56
_cell_length_a 12.698109
_cell_length_b 13.317352
_cell_length_c 15.316363
_cell_angle_alpha 90.000000
_cell_angle_beta 90.000000
_cell_angle_gamma 90.000000
_cell_volume 2590.076434
_symmetry_space_group_name_H-M "P B C M"
_symmetry_group_IT_number 57
_symmetry_cell_setting 'orthorhombic'
loop_
_space_group_symop_operation_xyz
x,y,z
-x,-y,1/2+z
x,1/2-y,-z
-x,1/2+y,1/2-z
-x,-y,-z
x,y,1/2-z
-x,1/2+y,z
x,1/2-y,1/2+z
loop_
_atom_site_type_symbol
_atom_site_label
_atom_site_fract_x
_atom_site_fract_y
_atom_site_fract_z
Si Si1 0.168056 0.778971 0.600271
Si Si2 0.942358 0.795832 0.148396
Si Si3 0.742595 0.807345 0.851477
Si Si4 0.363105 0.844516 0.347035
Si Si5 0.896866 0.498743 0.939474
Si Si6 0.596624 0.882759 0.152169
Si Si7 0.673568 0.973514 0.522806
O O1 0.183999 0.750000 0.500000
O O2 0.277273 0.743934 0.643536
O O3 0.064801 0.717647 0.628123
O O4 0.130264 0.893929 0.608207
O O5 0.928102 0.782067 0.250000
O O6 0.860739 0.712780 0.110591
O O7 0.909362 0.907179 0.123319
O O8 0.744841 0.843056 0.750000
O O9 0.689811 0.697754 0.852143
O O10 0.672696 0.879157 0.911756
O O11 0.344741 0.889034 0.250000
O O12 0.487106 0.820749 0.351774
O O13 0.351177 0.926902 0.422705
O O14 0.795023 0.516298 0.997639
O O15 0.000000 0.500000 0.000000
O O16 0.599522 0.930972 0.250000
O O17 0.610141 0.954119 0.067476
#
# Coordination Sequence:
#
# PCOD9439435 Si02
#       7
#     8   8   8   8   8   8   8
#     4  12  24  42  67  98 134 178 225 275 349 414
#     4  11  24  42  65  94 134 172 218 280 336 402
#     4  10  22  40  65 101 131 169 228 280 335 404
#     4  11  25  46  66  95 140 180 228 288 345 414
#     4  12  24  40  67 100 134 173 227 280 340 416
#     4  10  23  43  65  96 137 179 231 291 341 402
#     4  12  22  40  71  98 130 182 226 281 348 408
#
# _framework density 21.620982000000001
#
# number of rings (size 3 to 8) (size 9 to 14) (size 15 to 20)
#    0.000    0.857    4.286    2.571    0.000    2.286 
#    2.571    2.143    0.000    0.000    0.000    0.000 
#    0.000    0.000    0.000    0.000    0.000    0.000 
#
# Total GULP energy -312548.792590 kJ/mol
# GULP energy per Si atom -5581.228439 kJ/mol
# Density = 2.157177 g / cm^3
# Si number density = 21.620982 Si / 1000 Ang^3
#
#
#
# Elastic Constant Matrix: (Units=GPa)
#
#
# Indices 1 2 3 4 5 6 
#
# 1 128.9074 29.5699 23.5615 0.0000 0.0000 0.0000
# 2 29.5699 69.6984 30.6013 0.0000 0.0000 0.0000
# 3 23.5615 30.6013 84.5709 0.0000 0.0000 0.0000
# 4 0.0000 0.0000 0.0000 17.7333 0.0000 0.0000
# 5 0.0000 0.0000 0.0000 0.0000 14.7455 0.0000
# 6 0.0000 0.0000 0.0000 0.0000 0.0000 8.2148
#
#
#
# Elastic Compliance Matrix: (Units=1/GPa)
#
#
# Indices 1 2 3 4 5 6 
#
# 1 0.008712 -0.003127 -0.001296 0.000000 0.000000 0.000000
# 2 -0.003127 0.018180 -0.005707 0.000000 0.000000 0.000000
# 3 -0.001296 -0.005707 0.014250 0.000000 0.000000 0.000000
# 4 0.000000 0.000000 0.000000 0.056391 0.000000 0.000000
# 5 0.000000 0.000000 0.000000 0.000000 0.067817 0.000000
# 6 0.000000 0.000000 0.000000 0.000000 0.000000 0.121732
#
#
# Mechanical properties :
#
#
# Convention : Reuss Voigt Hill
#
# Bulk Modulus (GPa) = 47.88697 50.07135 48.97916
# Shear Modulus (GPa) = 15.90822 21.43497 18.67159
#
# Velocity S-wave (km/s) = 2.71546 3.15206 2.94187
# Velocity P-wave (km/s) = 5.65934 6.03790 5.85168
#
# Compressibility (1/GPa) = 0.02088251
#
# Stress axis : x y z
#
# Youngs Moduli (GPa) = 114.78898 55.00565 70.17358
#
# Poissons Ratio (x) = 0.17201 0.09091
# Poissons Ratio (y) = 0.35896 0.40048
# Poissons Ratio (z) = 0.14871 0.31392
#
# Static dielectric constant tensor:
#      x y z
#    x 1.715180 0.000000 0.000000 
#    y 0.000000 1.815530 0.000000 
#    z 0.000000 0.000000 1.862020 
# 
# From -- ./inp_files/17777.got.cif
#   From: 2010.05.17/outbox.cif.g08.bks.cpg/sg57_9_cif.got.tgz:17777.got - 2010.06.03 13:58:18.
