data_PCOD9439702
_publ_section_title
;
Structure prediction by ZEFSAII (Michael W. Deem and Ramdas Pophale) SiO2 
 PCOD9439702
Probable space group: P B C M
;
_chemical_formula_sum "Si O2"
_cell_formula_units_Z 32
_cell_length_a 17.274022
_cell_length_b 5.525530
_cell_length_c 14.309429
_cell_angle_alpha 90.000000
_cell_angle_beta 90.000000
_cell_angle_gamma 90.000000
_cell_volume 1365.808193
_symmetry_space_group_name_H-M "P B C M"
_symmetry_group_IT_number 57
_symmetry_cell_setting 'orthorhombic'
loop_
_space_group_symop_operation_xyz
x,y,z
-x,-y,1/2+z
x,1/2-y,-z
-x,1/2+y,1/2-z
-x,-y,-z
x,y,1/2-z
-x,1/2+y,z
x,1/2-y,1/2+z
loop_
_atom_site_type_symbol
_atom_site_label
_atom_site_fract_x
_atom_site_fract_y
_atom_site_fract_z
Si Si1 0.342535 0.394141 0.353981
Si Si2 0.788408 0.954540 0.859917
Si Si3 0.031138 0.016332 0.393995
Si Si4 0.453005 0.100845 0.250000
Si Si5 0.318559 0.750000 0.000000
O O1 0.345584 0.510883 0.250000
O O2 0.255397 0.302415 0.370570
O O3 0.396771 0.158751 0.337894
O O4 0.366625 0.558560 0.439424
O O5 0.784324 0.017042 0.750000
O O6 0.876948 0.951389 0.890405
O O7 0.738160 0.129684 0.924038
O O8 0.992568 0.257208 0.352351
O O9 0.000000 0.000000 0.500000
O O10 0.489573 0.835886 0.250000
#
# Coordination Sequence:
#
# PCOD9439702 Si02
#       5
#     8   8   8   4   4
#     4   9  24  42  71 107 141 194 244 292 375 439
#     4  11  25  43  68 102 146 195 250 313 366 447
#     4  10  23  41  64  97 140 188 243 300 378 420
#     4  10  24  48  80 108 154 194 234 306 378 448
#     4  12  22  40  72 102 144 184 258 300 358 440
#
# _framework density 23.429352000000002
#
# number of rings (size 3 to 8) (size 9 to 14) (size 15 to 20)
#    0.750    1.000    0.000    3.000   14.000    1.000 
#    0.000    1.250    0.000    0.000    0.000    0.000 
#    0.000    0.000    0.000    0.000    0.000    0.000 
#
# Total GULP energy -178701.259789 kJ/mol
# GULP energy per Si atom -5584.414368 kJ/mol
# Density = 2.337603 g / cm^3
# Si number density = 23.429352 Si / 1000 Ang^3
#
#
#
# Elastic Constant Matrix: (Units=GPa)
#
#
# Indices 1 2 3 4 5 6 
#
# 1 99.6453 44.9203 3.4974 0.0000 0.0000 0.0000
# 2 44.9203 128.6253 32.5215 0.0000 0.0000 0.0000
# 3 3.4974 32.5215 144.6427 0.0000 0.0000 0.0000
# 4 0.0000 0.0000 0.0000 23.0026 0.0000 0.0000
# 5 0.0000 0.0000 0.0000 0.0000 -299.4859 0.0000
# 6 0.0000 0.0000 0.0000 0.0000 0.0000 28.2750
#
#
#
# Elastic Compliance Matrix: (Units=1/GPa)
#
#
# Indices 1 2 3 4 5 6 
#
# 1 0.011975 -0.004357 0.000690 0.000000 0.000000 0.000000
# 2 -0.004357 0.009828 -0.002104 0.000000 0.000000 0.000000
# 3 0.000690 -0.002104 0.007370 0.000000 0.000000 0.000000
# 4 0.000000 0.000000 0.000000 0.043473 0.000000 0.000000
# 5 0.000000 0.000000 0.000000 0.000000 -0.003339 0.000000
# 6 0.000000 0.000000 0.000000 0.000000 0.000000 0.035367
#
#
# Mechanical properties :
#
#
# Convention : Reuss Voigt Hill
#
# Bulk Modulus (GPa) = 56.71709 59.42130 58.06919
# Shear Modulus (GPa) = 40.95205 -30.17672 5.38767
#
# Velocity S-wave (km/s) = 4.18532 -3.59275 1.51807
# Velocity P-wave (km/s) = 6.90044 2.86470 5.28312
#
# Compressibility (1/GPa) = 0.01763137
#
# Stress axis : x y z
#
# Youngs Moduli (GPa) = 83.50471 101.74919 135.68409
#
# Poissons Ratio (x) = 0.44329 -0.09362
# Poissons Ratio (y) = 0.36380 0.28553
# Poissons Ratio (z) = -0.05762 0.21412
#
# Static dielectric constant tensor:
#      x y z
#    x 1.845420 0.000000 0.000000 
#    y 0.000000 1.993820 0.000000 
#    z 0.000000 0.000000 1.878130 
# 
# From -- ./inp_files/18825.got.cif
#   From: 2010.05.17/outbox.cif.g08.bks.cpg/sg57_10_cif.got.tgz:18825.got - 2010.06.03 13:58:18.
