data_PCOD9439767
_publ_section_title
;
Structure prediction by ZEFSAII (Michael W. Deem and Ramdas Pophale) SiO2 
 PCOD9439767
Probable space group: P B C M
;
_chemical_formula_sum "Si O2"
_cell_formula_units_Z 52
_cell_length_a 11.489884
_cell_length_b 8.312182
_cell_length_c 26.360212
_cell_angle_alpha 90.000000
_cell_angle_beta 90.000000
_cell_angle_gamma 90.000000
_cell_volume 2517.558591
_symmetry_space_group_name_H-M "P B C M"
_symmetry_group_IT_number 57
_symmetry_cell_setting 'orthorhombic'
loop_
_space_group_symop_operation_xyz
x,y,z
-x,-y,1/2+z
x,1/2-y,-z
-x,1/2+y,1/2-z
-x,-y,-z
x,y,1/2-z
-x,1/2+y,z
x,1/2-y,1/2+z
loop_
_atom_site_type_symbol
_atom_site_label
_atom_site_fract_x
_atom_site_fract_y
_atom_site_fract_z
Si Si1 0.824313 0.438665 0.250000
Si Si2 0.130753 0.517537 0.477429
Si Si3 0.194191 0.646876 0.575202
Si Si4 0.166620 0.366337 0.374159
Si Si5 0.616002 0.569413 0.809484
Si Si6 0.963048 0.956097 0.652880
Si Si7 0.640741 0.192411 0.832376
O O1 0.920201 0.480828 0.293858
O O2 0.727957 0.396935 0.205637
O O3 0.213387 0.532154 0.526508
O O4 0.145637 0.687166 0.448050
O O5 0.163952 0.386384 0.434944
O O6 0.000000 0.500000 0.500000
O O7 0.095475 0.562216 0.608753
O O8 0.304280 0.676199 0.611422
O O9 0.290027 0.349634 0.346871
O O10 0.086726 0.220154 0.356106
O O11 0.101386 0.524478 0.351869
O O12 0.635157 0.613299 0.750000
O O13 0.632212 0.378607 0.816266
O O14 0.486841 0.617975 0.825962
#
# Coordination Sequence:
#
# PCOD9439767 Si02
#       7
#     4   8   8   8   8   8   8
#     4  10  24  44  70  94 140 190 226 286 366 410
#     4  11  22  41  73 101 135 183 233 291 361 427
#     4  10  23  43  68  98 139 183 228 293 359 416
#     4  12  27  43  67 107 140 183 241 287 364 430
#     4  12  26  43  72 102 139 189 241 291 348 430
#     4  11  26  41  67 100 147 180 229 291 354 436
#     4  11  24  46  71 100 140 187 241 293 354 420
#
# _framework density 20.654931999999999
#
# number of rings (size 3 to 8) (size 9 to 14) (size 15 to 20)
#    0.000    0.923    4.615    0.923   10.769    0.615 
#    0.000    0.769    0.000    0.000    0.000    0.000 
#    0.000    0.000    0.000    0.000    0.000    0.000 
#
# Total GULP energy -289673.520206 kJ/mol
# GULP energy per Si atom -5570.644619 kJ/mol
# Density = 2.060792 g / cm^3
# Si number density = 20.654932 Si / 1000 Ang^3
#
#
#
# Elastic Constant Matrix: (Units=GPa)
#
#
# Indices 1 2 3 4 5 6 
#
# 1 68.6123 19.2614 66.3798 0.0000 0.0000 0.0000
# 2 19.2614 17.2165 32.7250 0.0000 0.0000 0.0000
# 3 66.3798 32.7250 190.3740 0.0000 0.0000 0.0000
# 4 0.0000 0.0000 0.0000 17.6164 0.0000 0.0000
# 5 0.0000 0.0000 0.0000 0.0000 35.5513 0.0000
# 6 0.0000 0.0000 0.0000 0.0000 0.0000 20.7032
#
#
#
# Elastic Compliance Matrix: (Units=1/GPa)
#
#
# Indices 1 2 3 4 5 6 
#
# 1 0.024907 -0.016870 -0.005785 0.000000 0.000000 0.000000
# 2 -0.016870 0.097699 -0.010912 0.000000 0.000000 0.000000
# 3 -0.005785 -0.010912 0.009146 0.000000 0.000000 0.000000
# 4 0.000000 0.000000 0.000000 0.056765 0.000000 0.000000
# 5 0.000000 0.000000 0.000000 0.000000 0.028128 0.000000
# 6 0.000000 0.000000 0.000000 0.000000 0.000000 0.048302
#
#
# Mechanical properties :
#
#
# Convention : Reuss Voigt Hill
#
# Bulk Modulus (GPa) = 15.47550 56.99281 36.23415
# Shear Modulus (GPa) = 14.13948 25.29662 19.71805
#
# Velocity S-wave (km/s) = 2.61924 3.50340 3.09308
# Velocity P-wave (km/s) = 4.08117 6.63460 5.50789
#
# Compressibility (1/GPa) = 0.06461828
#
# Stress axis : x y z
#
# Youngs Moduli (GPa) = 40.14941 10.23552 109.34221
#
# Poissons Ratio (x) = 0.17267 0.63251
# Poissons Ratio (y) = 0.67731 1.19315
# Poissons Ratio (z) = 0.23225 0.11169
#
# Static dielectric constant tensor:
#      x y z
#    x 1.713960 0.000000 0.000000 
#    y 0.000000 1.852250 0.000000 
#    z 0.000000 0.000000 1.751090 
# 
# From -- ./inp_files/28572.got.cif
#   From: 2010.05.17/outbox.cif.g08.bks.cpg/sg57_15_cif.got.tgz:28572.got - 2010.06.03 13:58:18.
