data_PCOD9439530
_publ_section_title
;
Structure prediction by ZEFSAII (Michael W. Deem and Ramdas Pophale) SiO2 
 PCOD9439530
Probable space group: P B C M
;
_chemical_formula_sum "Si O2"
_cell_formula_units_Z 48
_cell_length_a 8.426881
_cell_length_b 8.629096
_cell_length_c 26.543716
_cell_angle_alpha 90.000000
_cell_angle_beta 90.000000
_cell_angle_gamma 90.000000
_cell_volume 1930.162545
_symmetry_space_group_name_H-M "P B C M"
_symmetry_group_IT_number 57
_symmetry_cell_setting 'orthorhombic'
loop_
_space_group_symop_operation_xyz
x,y,z
-x,-y,1/2+z
x,1/2-y,-z
-x,1/2+y,1/2-z
-x,-y,-z
x,y,1/2-z
-x,1/2+y,z
x,1/2-y,1/2+z
loop_
_atom_site_type_symbol
_atom_site_label
_atom_site_fract_x
_atom_site_fract_y
_atom_site_fract_z
Si Si1 0.982392 0.329017 0.051002
Si Si2 0.145917 0.438768 0.881926
Si Si3 0.179628 0.521908 0.330743
Si Si4 0.301632 0.013607 0.942329
Si Si5 0.345983 0.291685 0.697328
Si Si6 0.331184 0.769474 0.750000
Si Si7 0.510355 0.250000 0.500000
O O1 0.070306 0.207333 0.088316
O O2 0.123873 0.448758 0.039434
O O3 0.842807 0.419251 0.079510
O O4 0.935036 0.250000 0.000000
O O5 0.300322 0.391473 0.850982
O O6 0.005920 0.486177 0.843574
O O7 0.275882 0.525234 0.383638
O O8 0.241947 0.363404 0.305719
O O9 0.213817 0.664388 0.294371
O O10 0.386660 0.876405 0.971254
O O11 0.401345 0.165119 0.958127
O O12 0.307871 0.382597 0.750000
O O13 0.526719 0.242965 0.706670
#
# Coordination Sequence:
#
# PCOD9439530 Si02
#       7
#     8   8   8   8   8   4   4
#     4  11  23  46  69 104 140 189 238 311 342 434
#     4  11  23  46  73 101 142 191 236 291 363 417
#     4  11  23  46  67 102 142 182 236 293 350 431
#     4  10  22  41  70  98 151 177 248 286 361 419
#     4  10  23  44  69 103 141 182 234 294 356 419
#     4  10  24  44  70 100 134 184 222 298 358 428
#     4  10  22  42  68 106 132 208 222 294 358 440
#
# _framework density 24.868372999999998
#
# number of rings (size 3 to 8) (size 9 to 14) (size 15 to 20)
#    0.500    1.000    5.000    0.500    3.500    0.000 
#   18.000    0.000    0.000    0.000    0.000    0.000 
#    0.000    0.000    0.000    0.000    0.000    0.000 
#
# Total GULP energy -267670.998842 kJ/mol
# GULP energy per Si atom -5576.479143 kJ/mol
# Density = 2.481177 g / cm^3
# Si number density = 24.868373 Si / 1000 Ang^3
#
#
#
# Elastic Constant Matrix: (Units=GPa)
#
#
# Indices 1 2 3 4 5 6 
#
# 1 56.5450 13.9308 12.0200 0.0000 0.0000 0.0000
# 2 13.9308 56.6465 25.2669 0.0000 0.0000 0.0000
# 3 12.0200 25.2669 89.5503 0.0000 0.0000 0.0000
# 4 0.0000 0.0000 0.0000 29.6382 0.0000 0.0000
# 5 0.0000 0.0000 0.0000 0.0000 43.0978 0.0000
# 6 0.0000 0.0000 0.0000 0.0000 0.0000 14.2440
#
#
#
# Elastic Compliance Matrix: (Units=1/GPa)
#
#
# Indices 1 2 3 4 5 6 
#
# 1 0.018980 -0.004040 -0.001408 0.000000 0.000000 0.000000
# 2 -0.004040 0.021055 -0.005398 0.000000 0.000000 0.000000
# 3 -0.001408 -0.005398 0.012879 0.000000 0.000000 0.000000
# 4 0.000000 0.000000 0.000000 0.033740 0.000000 0.000000
# 5 0.000000 0.000000 0.000000 0.000000 0.023203 0.000000
# 6 0.000000 0.000000 0.000000 0.000000 0.000000 0.070205
#
#
# Mechanical properties :
#
#
# Convention : Reuss Voigt Hill
#
# Bulk Modulus (GPa) = 32.02903 33.90858 32.96881
# Shear Modulus (GPa) = 23.56704 27.49758 25.53231
#
# Velocity S-wave (km/s) = 3.08177 3.32885 3.20769
# Velocity P-wave (km/s) = 5.05672 5.33290 5.19665
#
# Compressibility (1/GPa) = 0.03122167
#
# Stress axis : x y z
#
# Youngs Moduli (GPa) = 52.68838 47.49519 77.64542
#
# Poissons Ratio (x) = 0.19186 0.10930
# Poissons Ratio (y) = 0.21284 0.41917
# Poissons Ratio (z) = 0.07417 0.25640
#
# Static dielectric constant tensor:
#      x y z
#    x 1.956940 0.000000 0.000000 
#    y 0.000000 2.089750 0.000000 
#    z 0.000000 0.000000 2.006370 
# 
# From -- ./inp_files/29520.got.cif
#   From: 2010.05.17/outbox.cif.g08.bks.cpg/sg57_15_cif.got.tgz:29520.got - 2010.06.03 13:58:18.
