data_PCOD9439919
_publ_section_title
;
Structure prediction by ZEFSAII (Michael W. Deem and Ramdas Pophale) SiO2 
 PCOD9439919
Probable space group: P B C M
;
_chemical_formula_sum "Si O2"
_cell_formula_units_Z 60
_cell_length_a 17.032577
_cell_length_b 5.242819
_cell_length_c 31.310001
_cell_angle_alpha 90.000000
_cell_angle_beta 90.000000
_cell_angle_gamma 90.000000
_cell_volume 2795.942960
_symmetry_space_group_name_H-M "P B C M"
_symmetry_group_IT_number 57
_symmetry_cell_setting 'orthorhombic'
loop_
_space_group_symop_operation_xyz
x,y,z
-x,-y,1/2+z
x,1/2-y,-z
-x,1/2+y,1/2-z
-x,-y,-z
x,y,1/2-z
-x,1/2+y,z
x,1/2-y,1/2+z
loop_
_atom_site_type_symbol
_atom_site_label
_atom_site_fract_x
_atom_site_fract_y
_atom_site_fract_z
Si Si1 0.947201 0.137248 0.039662
Si Si2 0.756617 0.815630 0.203858
Si Si3 0.299253 0.994367 0.883428
Si Si4 0.853953 0.329098 0.387788
Si Si5 0.226588 0.359702 0.545847
Si Si6 0.449345 0.528626 0.068833
Si Si7 0.340292 0.750000 0.000000
Si Si8 0.862858 0.182311 0.703855
O O1 0.899639 0.131537 0.083127
O O2 0.010916 0.365990 0.038359
O O3 0.895165 0.250000 0.000000
O O4 0.715841 0.850858 0.250000
O O5 0.707942 0.850725 0.160736
O O6 0.797049 0.539558 0.204373
O O7 0.823891 0.036488 0.202491
O O8 0.273361 0.159420 0.924747
O O9 0.234239 0.771860 0.879168
O O10 0.387710 0.916572 0.893124
O O11 0.841405 0.555488 0.421502
O O12 0.898600 0.365614 0.343107
O O13 0.199562 0.250000 0.500000
O O14 0.285292 0.587988 0.531919
O O15 0.484443 0.246247 0.070286
O O16 0.398639 0.568338 0.026004
O O17 0.905527 0.160760 0.750000
#
# Coordination Sequence:
#
# PCOD9439919 Si02
#       8
#     8   8   8   8   8   8   4   8
#     4  10  25  43  59  86 122 164 207 244 297 362
#     4   9  18  34  57  86 119 147 184 250 308 354
#     4  11  23  38  60  89 117 152 211 247 300 361
#     4  11  23  38  65  88 120 161 198 257 306 350
#     4  12  22  35  57  89 121 151 200 257 293 343
#     4  12  26  40  57  78 117 163 200 245 299 357
#     4  12  24  40  52  82 116 164 202 252 292 368
#     4   9  18  33  57  92 121 146 190 242 304 360
#
# _framework density 21.459667
#
# number of rings (size 3 to 8) (size 9 to 14) (size 15 to 20)
#    0.000    1.333    4.000    1.200    4.667    0.533 
#    0.000    0.000    0.000    1.600    0.000    0.000 
#    0.000    0.000    0.000    0.000    0.000    0.000 
#
# Total GULP energy -334690.994497 kJ/mol
# GULP energy per Si atom -5578.183242 kJ/mol
# Density = 2.141082 g / cm^3
# Si number density = 21.459667 Si / 1000 Ang^3
#
#
#
# Elastic Constant Matrix: (Units=GPa)
#
#
# Indices 1 2 3 4 5 6 
#
# 1 23.3618 14.5030 4.7036 0.0000 0.0000 0.0000
# 2 14.5030 81.5870 10.6410 0.0000 0.0000 0.0000
# 3 4.7036 10.6410 169.3908 0.0000 0.0000 0.0000
# 4 0.0000 0.0000 0.0000 24.0580 0.0000 0.0000
# 5 0.0000 0.0000 0.0000 0.0000 -0.9764 0.0000
# 6 0.0000 0.0000 0.0000 0.0000 0.0000 32.5820
#
#
#
# Elastic Compliance Matrix: (Units=1/GPa)
#
#
# Indices 1 2 3 4 5 6 
#
# 1 0.048224 -0.008467 -0.000807 0.000000 0.000000 0.000000
# 2 -0.008467 0.013845 -0.000635 0.000000 0.000000 0.000000
# 3 -0.000807 -0.000635 0.005966 0.000000 0.000000 0.000000
# 4 0.000000 0.000000 0.000000 0.041566 0.000000 0.000000
# 5 0.000000 0.000000 0.000000 0.000000 -1.024210 0.000000
# 6 0.000000 0.000000 0.000000 0.000000 0.000000 0.030692
#
#
# Mechanical properties :
#
#
# Convention : Reuss Voigt Hill
#
# Bulk Modulus (GPa) = 20.73970 37.11499 28.92735
# Shear Modulus (GPa) = -5.89603 27.43219 10.76808
#
# Velocity S-wave (km/s) = -1.65936 3.57923 2.24248
# Velocity P-wave (km/s) = 2.45239 5.86634 4.49601
#
# Compressibility (1/GPa) = 0.04821669
#
# Stress axis : x y z
#
# Youngs Moduli (GPa) = 20.73662 72.22964 167.62243
#
# Poissons Ratio (x) = 0.61157 0.13530
# Poissons Ratio (y) = 0.17558 0.10637
# Poissons Ratio (z) = 0.01674 0.04584
#
# Static dielectric constant tensor:
#      x y z
#    x 1.816100 0.000000 0.000000 
#    y 0.000000 1.910670 0.000000 
#    z 0.000000 0.000000 1.917350 
# 
# From -- ./inp_files/28872.got.cif
#   From: 2010.05.17/outbox.cif.g08.bks.cpg/sg57_15_cif.got.tgz:28872.got - 2010.06.03 13:58:18.
