data_PCOD9439029
_publ_section_title
;
Structure prediction by ZEFSAII (Michael W. Deem and Ramdas Pophale) SiO2 
 PCOD9439029
Probable space group: P B C M
;
_chemical_formula_sum "Si O2"
_cell_formula_units_Z 36
_cell_length_a 18.315173
_cell_length_b 4.980817
_cell_length_c 18.004958
_cell_angle_alpha 90.000000
_cell_angle_beta 90.000000
_cell_angle_gamma 90.000000
_cell_volume 1642.493742
_symmetry_space_group_name_H-M "P B C M"
_symmetry_group_IT_number 57
_symmetry_cell_setting 'orthorhombic'
loop_
_space_group_symop_operation_xyz
x,y,z
-x,-y,1/2+z
x,1/2-y,-z
-x,1/2+y,1/2-z
-x,-y,-z
x,y,1/2-z
-x,1/2+y,z
x,1/2-y,1/2+z
loop_
_atom_site_type_symbol
_atom_site_label
_atom_site_fract_x
_atom_site_fract_y
_atom_site_fract_z
Si Si1 0.256809 0.503232 0.051203
Si Si2 0.451476 0.078639 0.250000
Si Si3 0.671112 0.307170 0.329959
Si Si4 0.042668 0.815775 0.159838
Si Si5 0.181682 0.340124 0.835094
O O1 0.323847 0.610116 0.101140
O O2 0.196203 0.403457 0.109528
O O3 0.275251 0.250000 0.000000
O O4 0.232963 0.750000 0.000000
O O5 0.521043 0.880844 0.250000
O O6 0.400028 0.991043 0.180954
O O7 0.677491 0.157678 0.250000
O O8 0.742377 0.495251 0.334865
O O9 0.043544 0.806856 0.250000
O O10 0.117523 0.962199 0.139483
O O11 0.977680 0.017398 0.135710
O O12 0.166250 0.252028 0.750000
#
# Coordination Sequence:
#
# PCOD9439029 Si02
#       5
#     8   4   8   8   8
#     4  12  24  39  61  94 130 166 211 269 310 367
#     4  10  24  40  68 102 134 156 198 262 314 372
#     4   9  22  40  68  97 125 161 216 253 315 362
#     4   9  19  33  53  87 124 159 200 262 328 368
#     4  10  21  39  66  94 127 162 219 271 310 375
#
# _framework density 21.917891000000001
#
# number of rings (size 3 to 8) (size 9 to 14) (size 15 to 20)
#    0.667    1.333    2.222    0.667    6.222    0.000 
#    0.000    0.000    0.000    8.000    0.000    0.000 
#    0.000    0.000    0.000    0.000    0.000    0.000 
#
# Total GULP energy -201050.103677 kJ/mol
# GULP energy per Si atom -5584.725102 kJ/mol
# Density = 2.186800 g / cm^3
# Si number density = 21.917891 Si / 1000 Ang^3
#
#
#
# Elastic Constant Matrix: (Units=GPa)
#
#
# Indices 1 2 3 4 5 6 
#
# 1 91.9391 11.5614 6.0132 0.0000 0.0000 0.0000
# 2 11.5614 106.5512 35.7816 0.0000 0.0000 0.0000
# 3 6.0132 35.7816 93.8593 0.0000 0.0000 0.0000
# 4 0.0000 0.0000 0.0000 -43.5961 0.0000 0.0000
# 5 0.0000 0.0000 0.0000 0.0000 -0.8024 0.0000
# 6 0.0000 0.0000 0.0000 0.0000 0.0000 38.5873
#
#
#
# Elastic Compliance Matrix: (Units=1/GPa)
#
#
# Indices 1 2 3 4 5 6 
#
# 1 0.011034 -0.001101 -0.000287 0.000000 0.000000 0.000000
# 2 -0.001101 0.010873 -0.004074 0.000000 0.000000 0.000000
# 3 -0.000287 -0.004074 0.012226 0.000000 0.000000 0.000000
# 4 0.000000 0.000000 0.000000 -0.022938 0.000000 0.000000
# 5 0.000000 0.000000 0.000000 0.000000 -1.246232 0.000000
# 6 0.000000 0.000000 0.000000 0.000000 0.000000 0.025915
#
#
# Mechanical properties :
#
#
# Convention : Reuss Voigt Hill
#
# Bulk Modulus (GPa) = 43.08907 44.34021 43.71464
# Shear Modulus (GPa) = -4.20006 14.77065 5.28530
#
# Velocity S-wave (km/s) = -1.38580 2.59879 1.55456
# Velocity P-wave (km/s) = 4.14022 5.41101 4.81770
#
# Compressibility (1/GPa) = 0.02320774
#
# Stress axis : x y z
#
# Youngs Moduli (GPa) = 90.62916 91.97196 81.79319
#
# Poissons Ratio (x) = 0.10124 0.02350
# Poissons Ratio (y) = 0.09976 0.33327
# Poissons Ratio (z) = 0.02603 0.37474
#
# Static dielectric constant tensor:
#      x y z
#    x 1.822020 0.000000 0.000000 
#    y 0.000000 1.839220 0.000000 
#    z 0.000000 0.000000 1.834800 
# 
# From -- ./inp_files/22964.got.cif
#   From: 2010.05.17/outbox.cif.g08.bks.cpg/sg57_12_cif.got.tgz:22964.got - 2010.06.03 13:58:18.
