data_PCOD9439488
_publ_section_title
;
Structure prediction by ZEFSAII (Michael W. Deem and Ramdas Pophale) SiO2 
 PCOD9439488
Probable space group: P B C M
;
_chemical_formula_sum "Si O2"
_cell_formula_units_Z 56
_cell_length_a 5.614119
_cell_length_b 14.467635
_cell_length_c 27.333955
_cell_angle_alpha 90.000000
_cell_angle_beta 90.000000
_cell_angle_gamma 90.000000
_cell_volume 2220.146498
_symmetry_space_group_name_H-M "P B C M"
_symmetry_group_IT_number 57
_symmetry_cell_setting 'orthorhombic'
loop_
_space_group_symop_operation_xyz
x,y,z
-x,-y,1/2+z
x,1/2-y,-z
-x,1/2+y,1/2-z
-x,-y,-z
x,y,1/2-z
-x,1/2+y,z
x,1/2-y,1/2+z
loop_
_atom_site_type_symbol
_atom_site_label
_atom_site_fract_x
_atom_site_fract_y
_atom_site_fract_z
Si Si1 0.966911 0.866982 0.471403
Si Si2 0.943385 0.731281 0.118248
Si Si3 0.797761 0.363880 0.195866
Si Si4 0.523873 0.100725 0.478598
Si Si5 0.579732 0.496086 0.805715
Si Si6 0.176438 0.966256 0.600720
Si Si7 0.420744 0.292543 0.698042
O O1 0.731345 0.858192 0.505850
O O2 0.949507 0.785743 0.432129
O O3 0.226547 0.861832 0.497713
O O4 0.938914 0.963518 0.439501
O O5 0.070709 0.802778 0.155763
O O6 0.035360 0.626956 0.112019
O O7 0.699899 0.716578 0.146171
O O8 0.911392 0.369771 0.250000
O O9 0.683660 0.463143 0.182476
O O10 0.564426 0.300926 0.202096
O O11 0.582325 0.077847 0.422549
O O12 0.500000 0.000000 0.500000
O O13 0.634988 0.524609 0.750000
O O14 0.757541 0.520981 0.849654
O O15 0.576328 0.385094 0.804298
O O16 0.278310 0.303462 0.750000
#
# Coordination Sequence:
#
# PCOD9439488 Si02
#       7
#     8   8   8   8   8   8   8
#     4  11  27  48  75 105 147 187 247 302 362 432
#     4  12  26  39  70 106 136 188 239 304 367 432
#     4  10  22  43  65  96 142 186 233 291 361 434
#     4  10  24  49  75 104 141 195 238 302 367 427
#     4  10  22  41  71 102 138 185 234 293 359 437
#     4  11  24  45  74 104 140 192 237 297 368 435
#     4  10  22  41  63  98 143 187 236 295 360 437
#
# _framework density 25.223562999999999
#
# number of rings (size 3 to 8) (size 9 to 14) (size 15 to 20)
#    0.000    1.429    1.429    3.000    8.000    2.286 
#    0.000    3.571    0.000    0.000    0.000    0.000 
#    0.000    0.000    0.000    0.000    0.000    0.000 
#
# Total GULP energy -312587.804524 kJ/mol
# GULP energy per Si atom -5581.925081 kJ/mol
# Density = 2.516615 g / cm^3
# Si number density = 25.223563 Si / 1000 Ang^3
#
#
#
# Elastic Constant Matrix: (Units=GPa)
#
#
# Indices 1 2 3 4 5 6 
#
# 1 102.0153 26.5693 45.6188 0.0000 0.0000 0.0000
# 2 26.5693 109.9118 35.3741 0.0000 0.0000 0.0000
# 3 45.6188 35.3741 91.5468 0.0000 0.0000 0.0000
# 4 0.0000 0.0000 0.0000 7.8501 0.0000 0.0000
# 5 0.0000 0.0000 0.0000 0.0000 49.7797 0.0000
# 6 0.0000 0.0000 0.0000 0.0000 0.0000 35.8757
#
#
#
# Elastic Compliance Matrix: (Units=1/GPa)
#
#
# Indices 1 2 3 4 5 6 
#
# 1 0.012747 -0.001184 -0.005894 0.000000 0.000000 0.000000
# 2 -0.001184 0.010500 -0.003467 0.000000 0.000000 0.000000
# 3 -0.005894 -0.003467 0.015200 0.000000 0.000000 0.000000
# 4 0.000000 0.000000 0.000000 0.127386 0.000000 0.000000
# 5 0.000000 0.000000 0.000000 0.000000 0.020089 0.000000
# 6 0.000000 0.000000 0.000000 0.000000 0.000000 0.027874
#
#
# Mechanical properties :
#
#
# Convention : Reuss Voigt Hill
#
# Bulk Modulus (GPa) = 57.61743 57.62201 57.61972
# Shear Modulus (GPa) = 20.77508 31.76187 26.26848
#
# Velocity S-wave (km/s) = 2.87302 3.55239 3.23061
# Velocity P-wave (km/s) = 5.82220 6.30239 6.06704
#
# Compressibility (1/GPa) = 0.01735586
#
# Stress axis : x y z
#
# Youngs Moduli (GPa) = 78.45211 95.23453 65.78834
#
# Poissons Ratio (x) = 0.11279 0.38777
# Poissons Ratio (y) = 0.09291 0.22810
# Poissons Ratio (z) = 0.46241 0.33020
#
# Static dielectric constant tensor:
#      x y z
#    x 2.152430 0.000000 0.000000 
#    y 0.000000 1.925930 0.000000 
#    z 0.000000 0.000000 7.344510 
# 
# From -- ./inp_files/29153.got.cif
#   From: 2010.05.17/outbox.cif.g08.bks.cpg/sg57_15_cif.got.tgz:29153.got - 2010.06.03 13:58:18.
