data_PCOD9439766
_publ_section_title
;
Structure prediction by ZEFSAII (Michael W. Deem and Ramdas Pophale) SiO2 
 PCOD9439766
Probable space group: P B C M
;
_chemical_formula_sum "Si O2"
_cell_formula_units_Z 24
_cell_length_a 7.526649
_cell_length_b 9.990858
_cell_length_c 12.302343
_cell_angle_alpha 90.000000
_cell_angle_beta 90.000000
_cell_angle_gamma 90.000000
_cell_volume 925.107669
_symmetry_space_group_name_H-M "P B C M"
_symmetry_group_IT_number 57
_symmetry_cell_setting 'orthorhombic'
loop_
_space_group_symop_operation_xyz
x,y,z
-x,-y,1/2+z
x,1/2-y,-z
-x,1/2+y,1/2-z
-x,-y,-z
x,y,1/2-z
-x,1/2+y,z
x,1/2-y,1/2+z
loop_
_atom_site_type_symbol
_atom_site_label
_atom_site_fract_x
_atom_site_fract_y
_atom_site_fract_z
Si Si1 0.172288 0.311209 0.366732
Si Si2 0.679659 0.951171 0.943152
Si Si3 0.768406 0.272150 0.371045
O O1 0.201009 0.372443 0.250000
O O2 0.317635 0.194557 0.386940
O O3 0.188815 0.423851 0.456586
O O4 0.979353 0.243817 0.371602
O O5 0.743883 0.067846 0.866393
O O6 0.500000 0.000000 0.000000
O O7 0.709241 0.250000 0.500000
O O8 0.702714 0.220531 0.250000
#
# Coordination Sequence:
#
# PCOD9439766 Si02
#       3
#     8   8   8
#     4  10  23  43  68  97 134 182 238 291 348 419
#     4  11  24  43  64 100 143 179 231 285 355 419
#     4  11  24  44  72 102 137 183 235 288 343 415
#
# _framework density 25.942924999999999
#
# number of rings (size 3 to 8) (size 9 to 14) (size 15 to 20)
#    0.000    1.333    3.333    2.000    4.667    4.000 
#    0.000    0.000    0.000    0.000    0.000    0.000 
#    0.000    0.000    0.000    0.000    0.000    0.000 
#
# Total GULP energy -133775.636746 kJ/mol
# GULP energy per Si atom -5573.984864 kJ/mol
# Density = 2.588388 g / cm^3
# Si number density = 25.942925 Si / 1000 Ang^3
#
#
#
# Elastic Constant Matrix: (Units=GPa)
#
#
# Indices 1 2 3 4 5 6 
#
# 1 74.1502 25.8683 15.3253 0.0000 0.0000 0.0000
# 2 25.8683 69.4352 27.3384 0.0000 0.0000 0.0000
# 3 15.3253 27.3384 256.1324 0.0000 0.0000 0.0000
# 4 0.0000 0.0000 0.0000 21.4320 0.0000 0.0000
# 5 0.0000 0.0000 0.0000 0.0000 7.8972 0.0000
# 6 0.0000 0.0000 0.0000 0.0000 0.0000 36.9391
#
#
#
# Elastic Compliance Matrix: (Units=1/GPa)
#
#
# Indices 1 2 3 4 5 6 
#
# 1 0.015527 -0.005656 -0.000325 0.000000 0.000000 0.000000
# 2 -0.005656 0.017094 -0.001486 0.000000 0.000000 0.000000
# 3 -0.000325 -0.001486 0.004082 0.000000 0.000000 0.000000
# 4 0.000000 0.000000 0.000000 0.046659 0.000000 0.000000
# 5 0.000000 0.000000 0.000000 0.000000 0.126627 0.000000
# 6 0.000000 0.000000 0.000000 0.000000 0.000000 0.027072
#
#
# Mechanical properties :
#
#
# Convention : Reuss Voigt Hill
#
# Bulk Modulus (GPa) = 45.93967 59.64243 52.79105
# Shear Modulus (GPa) = 19.28622 35.33273 27.30947
#
# Velocity S-wave (km/s) = 2.72951 3.69445 3.24802
# Velocity P-wave (km/s) = 5.26118 6.42171 5.87020
#
# Compressibility (1/GPa) = 0.02176768
#
# Stress axis : x y z
#
# Youngs Moduli (GPa) = 64.40516 58.49876 244.95903
#
# Poissons Ratio (x) = 0.33090 0.07968
# Poissons Ratio (y) = 0.36430 0.36404
# Poissons Ratio (z) = 0.02095 0.08694
#
# Static dielectric constant tensor:
#      x y z
#    x 2.034080 0.000000 0.000000 
#    y 0.000000 2.138780 0.000000 
#    z 0.000000 0.000000 2.048060 
# 
# From -- ./inp_files/11142.got.cif
#   From: 2010.05.17/outbox.cif.g08.bks.cpg/sg57_6_cif.got.tgz:11142.got - 2010.06.03 13:58:18.
