data_PCOD9439714
_publ_section_title
;
Structure prediction by ZEFSAII (Michael W. Deem and Ramdas Pophale) SiO2 
 PCOD9439714
Probable space group: P B C M
;
_chemical_formula_sum "Si O2"
_cell_formula_units_Z 48
_cell_length_a 15.698698
_cell_length_b 18.177089
_cell_length_c 8.798138
_cell_angle_alpha 90.000000
_cell_angle_beta 90.000000
_cell_angle_gamma 90.000000
_cell_volume 2510.607016
_symmetry_space_group_name_H-M "P B C M"
_symmetry_group_IT_number 57
_symmetry_cell_setting 'orthorhombic'
loop_
_space_group_symop_operation_xyz
x,y,z
-x,-y,1/2+z
x,1/2-y,-z
-x,1/2+y,1/2-z
-x,-y,-z
x,y,1/2-z
-x,1/2+y,z
x,1/2-y,1/2+z
loop_
_atom_site_type_symbol
_atom_site_label
_atom_site_fract_x
_atom_site_fract_y
_atom_site_fract_z
Si Si1 0.996168 0.418442 0.932027
Si Si2 0.836146 0.168391 0.931271
Si Si3 0.666328 0.914328 0.067855
Si Si4 0.829303 0.668444 0.431826
Si Si5 0.326263 0.912674 0.567847
Si Si6 0.503555 0.668300 0.067869
O O1 0.986052 0.422167 0.750000
O O2 0.083817 0.375487 0.965640
O O3 0.000000 0.500000 0.000000
O O4 0.917344 0.374780 0.003359
O O5 0.841254 0.172231 0.750000
O O6 0.834283 0.250000 0.000000
O O7 0.751265 0.125739 0.982124
O O8 0.665250 0.906695 0.250000
O O9 0.668615 0.000973 0.030696
O O10 0.749322 0.874450 0.001631
O O11 0.582607 0.876691 0.999352
O O12 0.833630 0.750000 0.500000
O O13 0.819631 0.672811 0.250000
O O14 0.312294 0.905891 0.750000
O O15 0.415138 0.872793 0.531087
O O16 0.511534 0.672088 0.250000
O O17 0.502963 0.750000 0.000000
#
# Coordination Sequence:
#
# PCOD9439714 Si02
#       6
#     8   8   8   8   8   8
#     4  11  24  42  65  93 125 161 204 252 305 365
#     4  12  25  41  64  92 125 164 205 253 306 362
#     4  11  23  40  63  90 122 159 199 248 303 360
#     4  11  24  41  62  89 120 158 202 248 299 355
#     4  10  23  42  64  91 122 159 203 251 304 362
#     4  11  23  40  62  89 122 159 202 250 301 360
#
# _framework density 19.118881999999999
#
# number of rings (size 3 to 8) (size 9 to 14) (size 15 to 20)
#    0.000    1.000    0.000    6.500    0.000   10.667 
#    0.000    0.000    0.000    0.000    0.000    0.000 
#    0.000    0.000    0.000    0.000    0.000    0.000 
#
# Total GULP energy -268724.397328 kJ/mol
# GULP energy per Si atom -5598.424944 kJ/mol
# Density = 1.907537 g / cm^3
# Si number density = 19.118882 Si / 1000 Ang^3
#
#
#
# Elastic Constant Matrix: (Units=GPa)
#
#
# Indices 1 2 3 4 5 6 
#
# 1 260.1934 184.5277 147.8394 0.0000 0.0000 0.0000
# 2 184.5277 278.1796 141.1963 0.0000 0.0000 0.0000
# 3 147.8394 141.1963 129.8141 0.0000 0.0000 0.0000
# 4 0.0000 0.0000 0.0000 28.0546 0.0000 0.0000
# 5 0.0000 0.0000 0.0000 0.0000 -578.3820 0.0000
# 6 0.0000 0.0000 0.0000 0.0000 0.0000 42.0782
#
#
#
# Elastic Compliance Matrix: (Units=1/GPa)
#
#
# Indices 1 2 3 4 5 6 
#
# 1 0.011454 -0.002181 -0.010672 0.000000 0.000000 0.000000
# 2 -0.002181 0.008441 -0.006697 0.000000 0.000000 0.000000
# 3 -0.010672 -0.006697 0.027141 0.000000 0.000000 0.000000
# 4 0.000000 0.000000 0.000000 0.035645 0.000000 0.000000
# 5 0.000000 0.000000 0.000000 0.000000 -0.001729 0.000000
# 6 0.000000 0.000000 0.000000 0.000000 0.000000 0.023765
#
#
# Mechanical properties :
#
#
# Convention : Reuss Voigt Hill
#
# Bulk Modulus (GPa) = 126.00887 179.47931 152.74409
# Shear Modulus (GPa) = 34.13848 -88.67491 -27.26822
#
# Velocity S-wave (km/s) = 4.23021 -6.81773 -3.78066
# Velocity P-wave (km/s) = 9.48213 5.66603 7.81072
#
# Compressibility (1/GPa) = 0.00793595
#
# Stress axis : x y z
#
# Youngs Moduli (GPa) = 87.30818 118.47299 36.84395
#
# Poissons Ratio (x) = 0.25838 0.39320
# Poissons Ratio (y) = 0.19041 0.24675
# Poissons Ratio (z) = 0.93175 0.79343
#
# Static dielectric constant tensor:
#      x y z
#    x 1.624320 0.000000 0.000000 
#    y 0.000000 1.624050 0.000000 
#    z 0.000000 0.000000 1.762980 
# 
# From -- ./inp_files/4602.got.cif
#   From: 2010.05.17/outbox.cif.g08.bks.cpg/sg57_3_cif.got.tgz:4602.got - 2010.06.03 13:58:18.
