data_PCOD9439858
_publ_section_title
;
Structure prediction by ZEFSAII (Michael W. Deem and Ramdas Pophale) SiO2 
 PCOD9439858
Probable space group: P B C M
;
_chemical_formula_sum "Si O2"
_cell_formula_units_Z 44
_cell_length_a 15.920126
_cell_length_b 5.020931
_cell_length_c 27.007895
_cell_angle_alpha 90.000000
_cell_angle_beta 90.000000
_cell_angle_gamma 90.000000
_cell_volume 2158.845140
_symmetry_space_group_name_H-M "P B C M"
_symmetry_group_IT_number 57
_symmetry_cell_setting 'orthorhombic'
loop_
_space_group_symop_operation_xyz
x,y,z
-x,-y,1/2+z
x,1/2-y,-z
-x,1/2+y,1/2-z
-x,-y,-z
x,y,1/2-z
-x,1/2+y,z
x,1/2-y,1/2+z
loop_
_atom_site_type_symbol
_atom_site_label
_atom_site_fract_x
_atom_site_fract_y
_atom_site_fract_z
Si Si1 0.756398 0.542825 0.750000
Si Si2 0.183023 0.013078 0.642335
Si Si3 0.445919 0.630427 0.856096
Si Si4 0.728909 0.485391 0.403689
Si Si5 0.361827 0.542591 0.750000
Si Si6 0.054842 0.438584 0.436760
Si Si7 0.808972 0.250000 0.000000
O O1 0.808552 0.576126 0.800114
O O2 0.713914 0.253260 0.750000
O O3 0.679476 0.751695 0.750000
O O4 0.240793 0.222838 0.612159
O O5 0.091188 0.036173 0.618599
O O6 0.219481 0.721482 0.630815
O O7 0.523113 0.429819 0.863892
O O8 0.368235 0.556624 0.891148
O O9 0.414908 0.589051 0.799638
O O10 0.754541 0.407181 0.459360
O O11 0.130511 0.546326 0.470516
O O12 0.977662 0.641071 0.444757
#
# Coordination Sequence:
#
# PCOD9439858 Si02
#       7
#     4   8   8   8   4   8   4
#     4  12  20  39  64  91 120 168 212 246 292 377
#     4  11  22  40  63  89 127 165 204 251 302 380
#     4  12  23  39  59  92 130 158 201 266 315 361
#     4  11  23  42  61  91 121 166 213 252 311 371
#     4  12  22  37  64  91 124 158 216 254 306 367
#     4  11  23  40  64  97 125 152 198 261 319 357
#     4  10  24  42  70  90 122 166 214 264 308 378
#
# _framework density 20.381266
#
# number of rings (size 3 to 8) (size 9 to 14) (size 15 to 20)
#    0.000    0.727    3.636    5.455    0.000    5.818 
#    0.000    1.818    0.000    0.000    0.000    0.000 
#    0.000    0.000    0.000    0.000    0.000    0.000 
#
# Total GULP energy -246308.798337 kJ/mol
# GULP energy per Si atom -5597.927235 kJ/mol
# Density = 2.033488 g / cm^3
# Si number density = 20.381266 Si / 1000 Ang^3
#
#
#
# Elastic Constant Matrix: (Units=GPa)
#
#
# Indices 1 2 3 4 5 6 
#
# 1 65.4275 -8.2911 41.6227 0.0000 0.0000 0.0000
# 2 -8.2911 41.3848 -7.8772 0.0000 0.0000 0.0000
# 3 41.6227 -7.8772 105.0115 0.0000 0.0000 0.0000
# 4 0.0000 0.0000 0.0000 21.2055 0.0000 0.0000
# 5 0.0000 0.0000 0.0000 0.0000 37.5124 0.0000
# 6 0.0000 0.0000 0.0000 0.0000 0.0000 28.6022
#
#
#
# Elastic Compliance Matrix: (Units=1/GPa)
#
#
# Indices 1 2 3 4 5 6 
#
# 1 0.020715 0.002625 -0.008014 0.000000 0.000000 0.000000
# 2 0.002625 0.024846 0.000823 0.000000 0.000000 0.000000
# 3 -0.008014 0.000823 0.012761 0.000000 0.000000 0.000000
# 4 0.000000 0.000000 0.000000 0.047158 0.000000 0.000000
# 5 0.000000 0.000000 0.000000 0.000000 0.026658 0.000000
# 6 0.000000 0.000000 0.000000 0.000000 0.000000 0.034962
#
#
# Mechanical properties :
#
#
# Convention : Reuss Voigt Hill
#
# Bulk Modulus (GPa) = 20.32912 29.19252 24.76082
# Shear Modulus (GPa) = 25.95686 29.88865 27.92275
#
# Velocity S-wave (km/s) = 3.57258 3.83361 3.70539
# Velocity P-wave (km/s) = 5.19748 5.82664 5.52103
#
# Compressibility (1/GPa) = 0.04919052
#
# Stress axis : x y z
#
# Youngs Moduli (GPa) = 48.27489 40.24790 78.36467
#
# Poissons Ratio (x) = -0.10564 0.62799
# Poissons Ratio (y) = -0.12671 -0.06453
# Poissons Ratio (z) = 0.38686 -0.03314
#
# Static dielectric constant tensor:
#      x y z
#    x 1.705160 0.000000 0.000000 
#    y 0.000000 1.704880 0.000000 
#    z 0.000000 0.000000 1.745550 
# 
# From -- ./inp_files/28731.got.cif
#   From: 2010.05.17/outbox.cif.g08.bks.cpg/sg57_15_cif.got.tgz:28731.got - 2010.06.03 13:58:18.
