data_PCOD9439867
_publ_section_title
;
Structure prediction by ZEFSAII (Michael W. Deem and Ramdas Pophale) SiO2 
 PCOD9439867
Probable space group: P B C M
;
_chemical_formula_sum "Si O2"
_cell_formula_units_Z 28
_cell_length_a 20.644441
_cell_length_b 5.480858
_cell_length_c 10.664117
_cell_angle_alpha 90.000000
_cell_angle_beta 90.000000
_cell_angle_gamma 90.000000
_cell_volume 1206.636836
_symmetry_space_group_name_H-M "P B C M"
_symmetry_group_IT_number 57
_symmetry_cell_setting 'orthorhombic'
loop_
_space_group_symop_operation_xyz
x,y,z
-x,-y,1/2+z
x,1/2-y,-z
-x,1/2+y,1/2-z
-x,-y,-z
x,y,1/2-z
-x,1/2+y,z
x,1/2-y,1/2+z
loop_
_atom_site_type_symbol
_atom_site_label
_atom_site_fract_x
_atom_site_fract_y
_atom_site_fract_z
Si Si1 0.040405 0.413223 0.750000
Si Si2 0.541421 0.284608 0.750000
Si Si3 0.771706 0.066310 0.388426
Si Si4 0.115326 0.250000 0.000000
Si Si5 0.627105 0.603236 0.615758
O O1 0.076662 0.384903 0.886533
O O2 0.007550 0.679199 0.750000
O O3 0.505517 0.027288 0.750000
O O4 0.590692 0.345211 0.635324
O O5 0.764551 0.250000 0.500000
O O6 0.777102 0.178747 0.250000
O O7 0.836199 0.919489 0.420046
O O8 0.704281 0.921135 0.392070
O O9 0.600199 0.750000 0.500000
O O10 0.617064 0.732306 0.750000
#
# Coordination Sequence:
#
# PCOD9439867 Si02
#       5
#     4   4   8   4   8
#     4  12  30  51  75 110 158 204 246 300 358 438
#     4  10  24  43  67  98 138 196 248 296 362 456
#     4  11  25  43  71 111 143 190 245 314 381 437
#     4  12  26  46  78 106 148 194 256 296 372 446
#     4   9  21  42  64  99 136 179 237 305 369 427
#
# _framework density 23.204992000000001
#
# number of rings (size 3 to 8) (size 9 to 14) (size 15 to 20)
#    0.857    0.571    2.857    0.857    6.000    4.571 
#    0.000    0.000    0.000    0.000    0.000    0.000 
#    0.000    0.000    0.000    0.000    0.000    0.000 
#
# Total GULP energy -156044.630412 kJ/mol
# GULP energy per Si atom -5573.022515 kJ/mol
# Density = 2.315218 g / cm^3
# Si number density = 23.204992 Si / 1000 Ang^3
#
#
#
# Elastic Constant Matrix: (Units=GPa)
#
#
# Indices 1 2 3 4 5 6 
#
# 1 92.1052 16.8544 20.6050 0.0000 0.0000 0.0000
# 2 16.8544 37.2555 39.4689 0.0000 0.0000 0.0000
# 3 20.6050 39.4689 167.8207 0.0000 0.0000 0.0000
# 4 0.0000 0.0000 0.0000 55.6771 0.0000 0.0000
# 5 0.0000 0.0000 0.0000 0.0000 77.9930 0.0000
# 6 0.0000 0.0000 0.0000 0.0000 0.0000 23.1328
#
#
#
# Elastic Compliance Matrix: (Units=1/GPa)
#
#
# Indices 1 2 3 4 5 6 
#
# 1 0.011845 -0.005085 -0.000258 0.000000 0.000000 0.000000
# 2 -0.005085 0.037932 -0.008297 0.000000 0.000000 0.000000
# 3 -0.000258 -0.008297 0.007942 0.000000 0.000000 0.000000
# 4 0.000000 0.000000 0.000000 0.017961 0.000000 0.000000
# 5 0.000000 0.000000 0.000000 0.000000 0.012822 0.000000
# 6 0.000000 0.000000 0.000000 0.000000 0.000000 0.043229
#
#
# Mechanical properties :
#
#
# Convention : Reuss Voigt Hill
#
# Bulk Modulus (GPa) = 32.85301 50.11532 41.48417
# Shear Modulus (GPa) = 29.55841 46.04410 37.80126
#
# Velocity S-wave (km/s) = 3.57290 4.45931 4.04048
# Velocity P-wave (km/s) = 5.58653 6.93956 6.29948
#
# Compressibility (1/GPa) = 0.03043861
#
# Stress axis : x y z
#
# Youngs Moduli (GPa) = 84.42027 26.36314 125.91745
#
# Poissons Ratio (x) = 0.13406 0.03254
# Poissons Ratio (y) = 0.42929 1.04469
# Poissons Ratio (z) = 0.02182 0.21872
#
# Static dielectric constant tensor:
#      x y z
#    x 2.041150 0.000000 0.000000 
#    y 0.000000 1.928640 0.000000 
#    z 0.000000 0.000000 1.903320 
# 
# From -- ./inp_files/14267.got.cif
#   From: 2010.05.17/outbox.cif.g08.bks.cpg/sg57_8_cif.got.tgz:14267.got - 2010.06.03 13:58:18.
