data_PCOD9439161
_publ_section_title
;
Structure prediction by ZEFSAII (Michael W. Deem and Ramdas Pophale) SiO2 
 PCOD9439161
Probable space group: P B C M
;
_chemical_formula_sum "Si O2"
_cell_formula_units_Z 48
_cell_length_a 12.137219
_cell_length_b 12.086605
_cell_length_c 17.130304
_cell_angle_alpha 90.000000
_cell_angle_beta 90.000000
_cell_angle_gamma 90.000000
_cell_volume 2512.977428
_symmetry_space_group_name_H-M "P B C M"
_symmetry_group_IT_number 57
_symmetry_cell_setting 'orthorhombic'
loop_
_space_group_symop_operation_xyz
x,y,z
-x,-y,1/2+z
x,1/2-y,-z
-x,1/2+y,1/2-z
-x,-y,-z
x,y,1/2-z
-x,1/2+y,z
x,1/2-y,1/2+z
loop_
_atom_site_type_symbol
_atom_site_label
_atom_site_fract_x
_atom_site_fract_y
_atom_site_fract_z
Si Si1 0.269554 0.066702 0.602855
Si Si2 0.082666 0.214034 0.659905
Si Si3 0.778318 0.901312 0.579404
Si Si4 0.432424 0.259025 0.906696
Si Si5 0.331591 0.825356 0.657047
Si Si6 0.839500 0.366952 0.156109
O O1 0.168891 0.112954 0.653870
O O2 0.233288 0.088935 0.513619
O O3 0.375768 0.144073 0.619050
O O4 0.298460 0.940127 0.616818
O O5 0.077172 0.252571 0.750000
O O6 0.131472 0.311502 0.606443
O O7 0.962355 0.173011 0.635524
O O8 0.660856 0.852195 0.607618
O O9 0.807432 0.018876 0.615564
O O10 0.545855 0.288591 0.866031
O O11 0.450494 0.250000 0.000000
O O12 0.324666 0.841400 0.750000
O O13 0.246999 0.728463 0.634793
O O14 0.836384 0.382112 0.250000
#
# Coordination Sequence:
#
# PCOD9439161 Si02
#       6
#     8   8   8   8   8   8
#     4  10  23  42  63  92 124 160 205 255 310 367
#     4  10  21  41  65  87 124 166 203 254 308 364
#     4  10  22  42  64  92 122 161 209 253 306 370
#     4   9  22  41  64  87 122 162 204 252 310 364
#     4  11  25  40  60  93 126 160 207 255 307 367
#     4  10  24  40  60  91 125 163 209 256 306 363
#
# _framework density 19.100847999999999
#
# number of rings (size 3 to 8) (size 9 to 14) (size 15 to 20)
#    0.000    2.000    0.000    2.500    7.000    6.000 
#    3.000    0.000    0.000    0.000    0.000    0.000 
#    0.000    0.000    0.000    0.000    0.000    0.000 
#
# Total GULP energy -268204.311827 kJ/mol
# GULP energy per Si atom -5587.589830 kJ/mol
# Density = 1.905737 g / cm^3
# Si number density = 19.100848 Si / 1000 Ang^3
#
#
#
# Elastic Constant Matrix: (Units=GPa)
#
#
# Indices 1 2 3 4 5 6 
#
# 1 122.0492 85.9297 37.5664 0.0000 0.0000 0.0000
# 2 85.9297 165.5674 51.0085 0.0000 0.0000 0.0000
# 3 37.5664 51.0085 38.4618 0.0000 0.0000 0.0000
# 4 0.0000 0.0000 0.0000 35.9102 0.0000 0.0000
# 5 0.0000 0.0000 0.0000 0.0000 55.2492 0.0000
# 6 0.0000 0.0000 0.0000 0.0000 0.0000 21.7648
#
#
#
# Elastic Compliance Matrix: (Units=1/GPa)
#
#
# Indices 1 2 3 4 5 6 
#
# 1 0.013881 -0.005119 -0.006769 0.000000 0.000000 0.000000
# 2 -0.005119 0.012100 -0.011048 0.000000 0.000000 0.000000
# 3 -0.006769 -0.011048 0.047263 0.000000 0.000000 0.000000
# 4 0.000000 0.000000 0.000000 0.027847 0.000000 0.000000
# 5 0.000000 0.000000 0.000000 0.000000 0.018100 0.000000
# 6 0.000000 0.000000 0.000000 0.000000 0.000000 0.045946
#
#
# Mechanical properties :
#
#
# Convention : Reuss Voigt Hill
#
# Bulk Modulus (GPa) = 36.53272 75.00973 55.77123
# Shear Modulus (GPa) = 22.71361 32.68975 27.70168
#
# Velocity S-wave (km/s) = 3.45213 4.14143 3.81239
# Velocity P-wave (km/s) = 5.92093 7.88823 6.97430
#
# Compressibility (1/GPa) = 0.02737272
#
# Stress axis : x y z
#
# Youngs Moduli (GPa) = 72.04183 82.64426 21.15816
#
# Poissons Ratio (x) = 0.42303 0.14322
# Poissons Ratio (y) = 0.36876 0.23375
# Poissons Ratio (z) = 0.48767 0.91303
#
# Static dielectric constant tensor:
#      x y z
#    x 1.637130 0.000000 0.000000 
#    y 0.000000 1.633860 0.000000 
#    z 0.000000 0.000000 1.666240 
# 
# From -- ./inp_files/21791.got.cif
#   From: 2010.05.17/outbox.cif.g08.bks.cpg/sg57_11_cif.got.tgz:21791.got - 2010.06.03 13:58:18.
