data_PCOD9439102
_publ_section_title
;
Structure prediction by ZEFSAII (Michael W. Deem and Ramdas Pophale) SiO2 
 PCOD9439102
Probable space group: P B C M
;
_chemical_formula_sum "Si O2"
_cell_formula_units_Z 48
_cell_length_a 10.109892
_cell_length_b 29.294858
_cell_length_c 8.785093
_cell_angle_alpha 90.000000
_cell_angle_beta 90.000000
_cell_angle_gamma 90.000000
_cell_volume 2601.862111
_symmetry_space_group_name_H-M "P B C M"
_symmetry_group_IT_number 57
_symmetry_cell_setting 'orthorhombic'
loop_
_space_group_symop_operation_xyz
x,y,z
-x,-y,1/2+z
x,1/2-y,-z
-x,1/2+y,1/2-z
-x,-y,-z
x,y,1/2-z
-x,1/2+y,z
x,1/2-y,1/2+z
loop_
_atom_site_type_symbol
_atom_site_label
_atom_site_fract_x
_atom_site_fract_y
_atom_site_fract_z
Si Si1 0.219601 0.118416 0.433303
Si Si2 0.281381 0.699831 0.067465
Si Si3 0.132967 0.020898 0.568514
Si Si4 0.021519 0.300254 0.933149
Si Si5 0.620326 0.028037 0.570992
Si Si6 0.511065 0.129660 0.570977
O O1 0.218788 0.115196 0.250000
O O2 0.166642 0.070865 0.501696
O O3 0.124678 0.160595 0.479571
O O4 0.368482 0.126942 0.491028
O O5 0.289499 0.700802 0.250000
O O6 0.129854 0.686685 0.024997
O O7 0.302599 0.750000 0.000000
O O8 0.391634 0.666552 0.001565
O O9 0.124923 0.023913 0.750000
O O10 0.250230 0.987170 0.518308
O O11 0.000000 0.000000 0.500000
O O12 0.026546 0.296678 0.750000
O O13 0.049666 0.250000 0.000000
O O14 0.635644 0.017124 0.750000
O O15 0.583035 0.080855 0.556313
O O16 0.500000 0.000000 0.500000
O O17 0.491288 0.138885 0.750000
#
# Coordination Sequence:
#
# PCOD9439102 Si02
#       6
#     8   8   8   8   8   8
#     4  11  23  41  63  91 125 162 206 255 308 367
#     4  10  21  40  64  91 122 158 201 253 307 366
#     4  12  26  43  63  91 125 164 209 258 310 368
#     4   9  21  40  63  91 120 156 199 247 305 364
#     4  11  23  41  64  91 125 165 207 252 305 365
#     4  11  24  40  61  92 124 162 206 250 306 369
#
# _framework density 18.448325000000001
#
# number of rings (size 3 to 8) (size 9 to 14) (size 15 to 20)
#    0.000    1.333    1.667    3.500    2.333    4.667 
#    0.000    1.667    0.000    0.000    0.000    0.000 
#    0.000    0.000    0.000    0.000    0.000    0.000 
#
# Total GULP energy -268309.574010 kJ/mol
# GULP energy per Si atom -5589.782792 kJ/mol
# Density = 1.840634 g / cm^3
# Si number density = 18.448325 Si / 1000 Ang^3
#
#
#
# Elastic Constant Matrix: (Units=GPa)
#
#
# Indices 1 2 3 4 5 6 
#
# 1 175.6134 94.5616 80.1060 0.0000 0.0000 0.0000
# 2 94.5616 108.9957 73.9723 0.0000 0.0000 0.0000
# 3 80.1060 73.9723 119.5826 0.0000 0.0000 0.0000
# 4 0.0000 0.0000 0.0000 36.4013 0.0000 0.0000
# 5 0.0000 0.0000 0.0000 0.0000 32.2701 0.0000
# 6 0.0000 0.0000 0.0000 0.0000 0.0000 40.6151
#
#
#
# Elastic Compliance Matrix: (Units=1/GPa)
#
#
# Indices 1 2 3 4 5 6 
#
# 1 0.011121 -0.007916 -0.002553 0.000000 0.000000 0.000000
# 2 -0.007916 0.021447 -0.007965 0.000000 0.000000 0.000000
# 3 -0.002553 -0.007965 0.015000 0.000000 0.000000 0.000000
# 4 0.000000 0.000000 0.000000 0.027472 0.000000 0.000000
# 5 0.000000 0.000000 0.000000 0.000000 0.030988 0.000000
# 6 0.000000 0.000000 0.000000 0.000000 0.000000 0.024621
#
#
# Mechanical properties :
#
#
# Convention : Reuss Voigt Hill
#
# Bulk Modulus (GPa) = 93.44795 100.16349 96.80572
# Shear Modulus (GPa) = 29.22539 32.22744 30.72642
#
# Velocity S-wave (km/s) = 3.98449 4.18413 4.08553
# Velocity P-wave (km/s) = 8.48128 8.81785 8.65120
#
# Compressibility (1/GPa) = 0.01070114
#
# Stress axis : x y z
#
# Youngs Moduli (GPa) = 89.91699 46.62582 66.66782
#
# Poissons Ratio (x) = 0.36907 0.17024
# Poissons Ratio (y) = 0.71175 0.53098
# Poissons Ratio (z) = 0.22960 0.37135
#
# Static dielectric constant tensor:
#      x y z
#    x 1.598260 0.000000 0.000000 
#    y 0.000000 1.617660 0.000000 
#    z 0.000000 0.000000 1.636800 
# 
# From -- ./inp_files/2015.got.cif
#   From: 2010.05.17/outbox.cif.g08.bks.cpg/sg57_2_cif.got.tgz:2015.got - 2010.06.03 13:58:18.
