data_PCOD9439381
_publ_section_title
;
Structure prediction by ZEFSAII (Michael W. Deem and Ramdas Pophale) SiO2 
 PCOD9439381
Probable space group: P B C M
;
_chemical_formula_sum "Si O2"
_cell_formula_units_Z 40
_cell_length_a 5.630270
_cell_length_b 18.836505
_cell_length_c 17.200713
_cell_angle_alpha 90.000000
_cell_angle_beta 90.000000
_cell_angle_gamma 90.000000
_cell_volume 1824.214892
_symmetry_space_group_name_H-M "P B C M"
_symmetry_group_IT_number 57
_symmetry_cell_setting 'orthorhombic'
loop_
_space_group_symop_operation_xyz
x,y,z
-x,-y,1/2+z
x,1/2-y,-z
-x,1/2+y,1/2-z
-x,-y,-z
x,y,1/2-z
-x,1/2+y,z
x,1/2-y,1/2+z
loop_
_atom_site_type_symbol
_atom_site_label
_atom_site_fract_x
_atom_site_fract_y
_atom_site_fract_z
Si Si1 0.327088 0.555252 0.041971
Si Si2 0.975069 0.534450 0.162833
Si Si3 0.273179 0.177069 0.606719
Si Si4 0.296320 0.159115 0.080785
Si Si5 0.219560 0.607014 0.877164
O O1 0.456170 0.617307 0.089264
O O2 0.173229 0.510523 0.101691
O O3 0.500000 0.500000 0.000000
O O4 0.201004 0.592917 0.969894
O O5 0.058873 0.544938 0.250000
O O6 0.883242 0.606838 0.124375
O O7 0.785324 0.470890 0.160904
O O8 0.265609 0.163037 0.512944
O O9 0.287102 0.262161 0.613869
O O10 0.525153 0.144477 0.635856
O O11 0.025397 0.148371 0.643116
#
# Coordination Sequence:
#
# PCOD9439381 Si02
#       5
#     8   8   8   8   8
#     4  11  21  41  68  99 132 175 235 293 336 400
#     4  12  25  41  66  99 139 182 230 290 360 417
#     4  10  23  39  71  98 133 170 233 282 342 397
#     4  10  22  39  65 101 131 170 222 293 341 416
#     4  11  22  42  66  99 128 180 228 289 328 409
#
# _framework density 21.927240999999999
#
# number of rings (size 3 to 8) (size 9 to 14) (size 15 to 20)
#    0.000    1.200    4.000    3.000    2.800    2.400 
#    0.000    2.000    0.000    0.000    0.000    0.000 
#    0.000    0.000    0.000    0.000    0.000    0.000 
#
# Total GULP energy -223282.708695 kJ/mol
# GULP energy per Si atom -5582.067717 kJ/mol
# Density = 2.187733 g / cm^3
# Si number density = 21.927241 Si / 1000 Ang^3
#
#
#
# Elastic Constant Matrix: (Units=GPa)
#
#
# Indices 1 2 3 4 5 6 
#
# 1 136.4915 71.9617 29.4142 0.0000 0.0000 0.0000
# 2 71.9617 161.1726 8.6567 0.0000 0.0000 0.0000
# 3 29.4142 8.6567 59.1574 0.0000 0.0000 0.0000
# 4 0.0000 0.0000 0.0000 -3.3195 0.0000 0.0000
# 5 0.0000 0.0000 0.0000 0.0000 2.6989 0.0000
# 6 0.0000 0.0000 0.0000 0.0000 0.0000 38.2905
#
#
#
# Elastic Compliance Matrix: (Units=1/GPa)
#
#
# Indices 1 2 3 4 5 6 
#
# 1 0.010725 -0.004538 -0.004669 0.000000 0.000000 0.000000
# 2 -0.004538 0.008174 0.001060 0.000000 0.000000 0.000000
# 3 -0.004669 0.001060 0.019070 0.000000 0.000000 0.000000
# 4 0.000000 0.000000 0.000000 -0.301247 0.000000 0.000000
# 5 0.000000 0.000000 0.000000 0.000000 0.370520 0.000000
# 6 0.000000 0.000000 0.000000 0.000000 0.000000 0.026116
#
#
# Mechanical properties :
#
#
# Convention : Reuss Voigt Hill
#
# Bulk Modulus (GPa) = 46.13310 64.09852 55.11581
# Shear Modulus (GPa) = 31.87239 23.98656 27.92947
#
# Velocity S-wave (km/s) = 3.81668 3.31103 3.57281
# Velocity P-wave (km/s) = 6.36456 6.62669 6.49695
#
# Compressibility (1/GPa) = 0.02167641
#
# Stress axis : x y z
#
# Youngs Moduli (GPa) = 93.23975 122.34387 52.43768
#
# Poissons Ratio (x) = 0.55518 0.24481
# Poissons Ratio (y) = 0.42311 -0.05560
# Poissons Ratio (z) = 0.43530 -0.12971
#
# Static dielectric constant tensor:
#      x y z
#    x 1.933210 0.000000 0.000000 
#    y 0.000000 1.810710 0.000000 
#    z 0.000000 0.000000 1.783810 
# 
# From -- ./inp_files/20003.got.cif
#   From: 2010.05.17/outbox.cif.g08.bks.cpg/sg57_11_cif.got.tgz:20003.got - 2010.06.03 13:58:18.
