data_PCOD9439594
_publ_section_title
;
Structure prediction by ZEFSAII (Michael W. Deem and Ramdas Pophale) SiO2 
 PCOD9439594
Probable space group: P B C M
;
_chemical_formula_sum "Si O2"
_cell_formula_units_Z 48
_cell_length_a 26.763117
_cell_length_b 5.338525
_cell_length_c 14.600476
_cell_angle_alpha 90.000000
_cell_angle_beta 90.000000
_cell_angle_gamma 90.000000
_cell_volume 2086.051319
_symmetry_space_group_name_H-M "P B C M"
_symmetry_group_IT_number 57
_symmetry_cell_setting 'orthorhombic'
loop_
_space_group_symop_operation_xyz
x,y,z
-x,-y,1/2+z
x,1/2-y,-z
-x,1/2+y,1/2-z
-x,-y,-z
x,y,1/2-z
-x,1/2+y,z
x,1/2-y,1/2+z
loop_
_atom_site_type_symbol
_atom_site_label
_atom_site_fract_x
_atom_site_fract_y
_atom_site_fract_z
Si Si1 0.380384 0.628160 0.597593
Si Si2 0.181205 0.248145 0.110677
Si Si3 0.878160 0.248625 0.110681
Si Si4 0.528839 0.823198 0.860944
Si Si5 0.362813 0.542710 0.250000
Si Si6 0.966950 0.214916 0.250000
Si Si7 0.703225 0.722270 0.111037
O O1 0.377789 0.750000 0.500000
O O2 0.416435 0.388635 0.601080
O O3 0.326121 0.534428 0.631921
O O4 0.398261 0.825465 0.671607
O O5 0.155429 0.508600 0.137576
O O6 0.238915 0.224382 0.137690
O O7 0.149391 0.005786 0.138235
O O8 0.181550 0.250000 0.000000
O O9 0.930582 0.228109 0.162099
O O10 0.883851 0.250000 0.000000
O O11 0.534010 0.818401 0.750000
O O12 0.495984 0.064019 0.889610
O O13 0.326791 0.424712 0.330756
O O14 0.002929 0.455391 0.250000
O O15 0.699469 0.750000 0.000000
#
# Coordination Sequence:
#
# PCOD9439594 Si02
#       7
#     8   8   8   8   4   4   8
#     4  12  26  44  72 100 141 181 230 296 355 423
#     4   9  21  41  69  97 137 183 228 278 335 418
#     4  10  22  43  67  97 137 181 227 283 345 401
#     4  10  24  43  69  97 131 177 230 290 358 429
#     4  12  26  44  66  98 138 181 229 277 352 420
#     4  12  26  42  68 100 136 177 233 291 336 402
#     4  11  25  43  70 102 142 185 234 287 353 419
#
# _framework density 23.009982000000001
#
# number of rings (size 3 to 8) (size 9 to 14) (size 15 to 20)
#    0.000    1.333    2.500    1.500    4.667    3.333 
#    0.000    0.000    0.000    0.000    0.000    0.000 
#    0.000    0.000    0.000    0.000    0.000    0.000 
#
# Total GULP energy -267833.851996 kJ/mol
# GULP energy per Si atom -5579.871917 kJ/mol
# Density = 2.295761 g / cm^3
# Si number density = 23.009982 Si / 1000 Ang^3
#
#
#
# Elastic Constant Matrix: (Units=GPa)
#
#
# Indices 1 2 3 4 5 6 
#
# 1 131.7676 59.6383 30.1868 0.0000 0.0000 0.0000
# 2 59.6383 140.9992 31.6565 0.0000 0.0000 0.0000
# 3 30.1868 31.6565 128.0079 0.0000 0.0000 0.0000
# 4 0.0000 0.0000 0.0000 -0.9393 0.0000 0.0000
# 5 0.0000 0.0000 0.0000 0.0000 455.7413 0.0000
# 6 0.0000 0.0000 0.0000 0.0000 0.0000 42.9896
#
#
#
# Elastic Compliance Matrix: (Units=1/GPa)
#
#
# Indices 1 2 3 4 5 6 
#
# 1 0.009596 -0.003760 -0.001333 0.000000 0.000000 0.000000
# 2 -0.003760 0.008982 -0.001335 0.000000 0.000000 0.000000
# 3 -0.001333 -0.001335 0.008456 0.000000 0.000000 0.000000
# 4 0.000000 0.000000 0.000000 -1.064677 0.000000 0.000000
# 5 0.000000 0.000000 0.000000 0.000000 0.002194 0.000000
# 6 0.000000 0.000000 0.000000 0.000000 0.000000 0.023261
#
#
# Mechanical properties :
#
#
# Convention : Reuss Voigt Hill
#
# Bulk Modulus (GPa) = 70.52303 71.52644 71.02474
# Shear Modulus (GPa) = -5.02712 118.17789 56.57539
#
# Velocity S-wave (km/s) = -1.47970 7.17432 4.96394
# Velocity P-wave (km/s) = 5.27220 9.98901 7.98675
#
# Compressibility (1/GPa) = 0.01417977
#
# Stress axis : x y z
#
# Youngs Moduli (GPa) = 104.20879 111.33297 118.25242
#
# Poissons Ratio (x) = 0.41856 0.15766
# Poissons Ratio (y) = 0.39178 0.15783
# Poissons Ratio (z) = 0.13893 0.14860
#
# Static dielectric constant tensor:
#      x y z
#    x 1.825870 0.000000 0.000000 
#    y 0.000000 1.966410 0.000000 
#    z 0.000000 0.000000 1.851620 
# 
# From -- ./inp_files/19600.got.cif
#   From: 2010.05.17/outbox.cif.g08.bks.cpg/sg57_10_cif.got.tgz:19600.got - 2010.06.03 13:58:18.
