data_PCOD9439329
_publ_section_title
;
Structure prediction by ZEFSAII (Michael W. Deem and Ramdas Pophale) SiO2 
 PCOD9439329
Probable space group: P B C M
;
_chemical_formula_sum "Si O2"
_cell_formula_units_Z 48
_cell_length_a 14.702507
_cell_length_b 9.614703
_cell_length_c 15.889241
_cell_angle_alpha 90.000000
_cell_angle_beta 90.000000
_cell_angle_gamma 90.000000
_cell_volume 2246.106892
_symmetry_space_group_name_H-M "P B C M"
_symmetry_group_IT_number 57
_symmetry_cell_setting 'orthorhombic'
loop_
_space_group_symop_operation_xyz
x,y,z
-x,-y,1/2+z
x,1/2-y,-z
-x,1/2+y,1/2-z
-x,-y,-z
x,y,1/2-z
-x,1/2+y,z
x,1/2-y,1/2+z
loop_
_atom_site_type_symbol
_atom_site_label
_atom_site_fract_x
_atom_site_fract_y
_atom_site_fract_z
Si Si1 0.955907 0.441742 0.339559
Si Si2 0.523417 0.126732 0.440542
Si Si3 0.073534 0.839177 0.577080
Si Si4 0.289118 0.121042 0.750000
Si Si5 0.273751 0.619723 0.112514
Si Si6 0.678101 0.160475 0.750000
Si Si7 0.800928 0.586722 0.250000
Si Si8 0.480050 0.215570 0.250000
O O1 0.005767 0.456494 0.250000
O O2 0.935277 0.279711 0.351579
O O3 0.862687 0.529766 0.327163
O O4 0.017427 0.523516 0.404460
O O5 0.488346 0.250000 0.500000
O O6 0.632865 0.125860 0.437300
O O7 0.489525 0.136303 0.341949
O O8 0.500000 0.000000 0.500000
O O9 0.037377 0.750000 0.500000
O O10 0.178917 0.876773 0.564160
O O11 0.219751 0.250845 0.750000
O O12 0.389387 0.191046 0.750000
O O13 0.277056 0.017908 0.829068
O O14 0.279977 0.756380 0.171372
O O15 0.570553 0.187706 0.750000
O O16 0.708082 0.001424 0.750000
#
# Coordination Sequence:
#
# PCOD9439329 Si02
#       8
#     8   8   8   4   8   4   4   4
#     4  10  24  41  68  95 126 177 226 269 336 402
#     4  11  24  44  72 102 143 186 238 288 352 422
#     4  12  24  42  67  98 136 170 218 284 344 409
#     4  11  24  39  66  99 133 178 233 289 335 405
#     4  10  22  40  65  96 132 183 226 275 345 413
#     4   9  18  39  68  92 130 175 234 284 330 412
#     4  10  22  38  66  97 128 168 235 281 336 394
#     4  10  24  44  70 104 139 187 236 294 353 411
#
# _framework density 21.37031
#
# number of rings (size 3 to 8) (size 9 to 14) (size 15 to 20)
#    0.500    1.000    1.667    3.000    5.833    6.000 
#    3.000    0.000    0.000    0.000    0.000    0.000 
#    0.000    0.000    0.000    0.000    0.000    0.000 
#
# Total GULP energy -267601.369255 kJ/mol
# GULP energy per Si atom -5575.028526 kJ/mol
# Density = 2.132167 g / cm^3
# Si number density = 21.370310 Si / 1000 Ang^3
#
#
#
# Elastic Constant Matrix: (Units=GPa)
#
#
# Indices 1 2 3 4 5 6 
#
# 1 53.4460 5.9263 15.2792 0.0000 0.0000 0.0000
# 2 5.9263 124.8849 37.4188 0.0000 0.0000 0.0000
# 3 15.2792 37.4188 105.9806 0.0000 0.0000 0.0000
# 4 0.0000 0.0000 0.0000 26.2205 0.0000 0.0000
# 5 0.0000 0.0000 0.0000 0.0000 7.4867 0.0000
# 6 0.0000 0.0000 0.0000 0.0000 0.0000 32.1663
#
#
#
# Elastic Compliance Matrix: (Units=1/GPa)
#
#
# Indices 1 2 3 4 5 6 
#
# 1 0.019516 -0.000093 -0.002781 0.000000 0.000000 0.000000
# 2 -0.000093 0.008955 -0.003148 0.000000 0.000000 0.000000
# 3 -0.002781 -0.003148 0.010948 0.000000 0.000000 0.000000
# 4 0.000000 0.000000 0.000000 0.038138 0.000000 0.000000
# 5 0.000000 0.000000 0.000000 0.000000 0.133569 0.000000
# 6 0.000000 0.000000 0.000000 0.000000 0.000000 0.031088
#
#
# Mechanical properties :
#
#
# Convention : Reuss Voigt Hill
#
# Bulk Modulus (GPa) = 36.52983 44.61780 40.57382
# Shear Modulus (GPa) = 18.98367 28.22051 23.60209
#
# Velocity S-wave (km/s) = 2.98370 3.63788 3.32691
# Velocity P-wave (km/s) = 5.38524 6.21042 5.81249
#
# Compressibility (1/GPa) = 0.02737489
#
# Stress axis : x y z
#
# Youngs Moduli (GPa) = 51.24064 111.66779 91.33907
#
# Poissons Ratio (x) = 0.01037 0.25399
# Poissons Ratio (y) = 0.00476 0.28757
# Poissons Ratio (z) = 0.14249 0.35158
#
# Static dielectric constant tensor:
#      x y z
#    x 1.793450 0.000000 0.000000 
#    y 0.000000 1.754630 0.000000 
#    z 0.000000 0.000000 1.858010 
# 
# From -- ./inp_files/22546.got.cif
#   From: 2010.05.17/outbox.cif.g08.bks.cpg/sg57_12_cif.got.tgz:22546.got - 2010.06.03 13:58:18.
