data_PCOD9439808
_publ_section_title
;
Structure prediction by ZEFSAII (Michael W. Deem and Ramdas Pophale) SiO2 
 PCOD9439808
Probable space group: P B C M
;
_chemical_formula_sum "Si O2"
_cell_formula_units_Z 40
_cell_length_a 5.051669
_cell_length_b 17.200186
_cell_length_c 17.394069
_cell_angle_alpha 90.000000
_cell_angle_beta 90.000000
_cell_angle_gamma 90.000000
_cell_volume 1511.364505
_symmetry_space_group_name_H-M "P B C M"
_symmetry_group_IT_number 57
_symmetry_cell_setting 'orthorhombic'
loop_
_space_group_symop_operation_xyz
x,y,z
-x,-y,1/2+z
x,1/2-y,-z
-x,1/2+y,1/2-z
-x,-y,-z
x,y,1/2-z
-x,1/2+y,z
x,1/2-y,1/2+z
loop_
_atom_site_type_symbol
_atom_site_label
_atom_site_fract_x
_atom_site_fract_y
_atom_site_fract_z
Si Si1 0.849314 0.236370 0.250000
Si Si2 0.836471 0.678149 0.877339
Si Si3 0.185074 0.076442 0.750000
Si Si4 0.179730 0.901884 0.498919
Si Si5 0.154728 0.479210 0.875598
Si Si6 0.352531 0.126828 0.250000
Si Si7 0.465113 0.250000 0.500000
O O1 0.570565 0.193931 0.250000
O O2 0.926059 0.289642 0.323436
O O3 0.067309 0.167810 0.250000
O O4 0.667048 0.627994 0.817872
O O5 0.696279 0.748517 0.920467
O O6 0.931132 0.627969 0.948946
O O7 0.005551 0.033159 0.683617
O O8 0.365201 0.827907 0.502340
O O9 0.064439 0.928261 0.579895
O O10 0.285389 0.970926 0.444227
O O11 0.357869 0.429116 0.824542
#
# Coordination Sequence:
#
# PCOD9439808 Si02
#       7
#     4   8   4   8   8   4   4
#     4  11  28  47  75 114 153 206 266 333 395 465
#     4  10  24  45  72 107 153 200 259 332 396 471
#     4   8  18  48  72  95 153 202 252 315 395 474
#     4  10  23  45  76 111 158 202 265 329 403 476
#     4   9  21  48  75 112 153 209 258 326 400 485
#     4  11  26  47  79 111 158 206 266 322 394 483
#     4  12  26  42  78 110 152 206 268 334 400 476
#
# _framework density 26.466149999999999
#
# number of rings (size 3 to 8) (size 9 to 14) (size 15 to 20)
#    0.000    2.000    0.000    0.600    8.400    0.000 
#   10.800   10.000    0.000    1.200    0.000    0.000 
#    0.000    0.000    0.000    0.000    0.000    0.000 
#
# Total GULP energy -223215.045462 kJ/mol
# GULP energy per Si atom -5580.376137 kJ/mol
# Density = 2.640591 g / cm^3
# Si number density = 26.466150 Si / 1000 Ang^3
#
#
#
# Elastic Constant Matrix: (Units=GPa)
#
#
# Indices 1 2 3 4 5 6 
#
# 1 57.4249 29.1476 68.6470 0.0000 0.0000 0.0000
# 2 29.1476 106.9891 65.6228 0.0000 0.0000 0.0000
# 3 68.6470 65.6228 201.5086 0.0000 0.0000 0.0000
# 4 0.0000 0.0000 0.0000 75.4114 0.0000 0.0000
# 5 0.0000 0.0000 0.0000 0.0000 14.5171 0.0000
# 6 0.0000 0.0000 0.0000 0.0000 0.0000 -71.2530
#
#
#
# Elastic Compliance Matrix: (Units=1/GPa)
#
#
# Indices 1 2 3 4 5 6 
#
# 1 0.029850 -0.002368 -0.009398 0.000000 0.000000 0.000000
# 2 -0.002368 0.011868 -0.003058 0.000000 0.000000 0.000000
# 3 -0.009398 -0.003058 0.009160 0.000000 0.000000 0.000000
# 4 0.000000 0.000000 0.000000 0.013261 0.000000 0.000000
# 5 0.000000 0.000000 0.000000 0.000000 0.068884 0.000000
# 6 0.000000 0.000000 0.000000 0.000000 0.000000 -0.014034
#
#
# Mechanical properties :
#
#
# Convention : Reuss Voigt Hill
#
# Bulk Modulus (GPa) = 47.10303 76.97307 62.03805
# Shear Modulus (GPa) = 32.11034 17.23543 24.67288
#
# Velocity S-wave (km/s) = 3.48697 2.55468 3.05658
# Velocity P-wave (km/s) = 5.83507 6.15212 5.99569
#
# Compressibility (1/GPa) = 0.02123006
#
# Stress axis : x y z
#
# Youngs Moduli (GPa) = 33.50038 84.26321 109.17073
#
# Poissons Ratio (x) = 0.19954 1.02597
# Poissons Ratio (y) = 0.07933 0.33385
# Poissons Ratio (z) = 0.31483 0.25768
#
# Static dielectric constant tensor:
#      x y z
#    x 2.106790 0.000000 0.000000 
#    y 0.000000 2.247430 0.000000 
#    z 0.000000 0.000000 2.020950 
# 
# From -- ./inp_files/20068.got.cif
#   From: 2010.05.17/outbox.cif.g08.bks.cpg/sg57_11_cif.got.tgz:20068.got - 2010.06.03 13:58:18.
