data_PCOD9439373
_publ_section_title
;
Structure prediction by ZEFSAII (Michael W. Deem and Ramdas Pophale) SiO2 
 PCOD9439373
Probable space group: P B C M
;
_chemical_formula_sum "Si O2"
_cell_formula_units_Z 48
_cell_length_a 16.324254
_cell_length_b 8.154012
_cell_length_c 14.979738
_cell_angle_alpha 90.000000
_cell_angle_beta 90.000000
_cell_angle_gamma 90.000000
_cell_volume 1993.925408
_symmetry_space_group_name_H-M "P B C M"
_symmetry_group_IT_number 57
_symmetry_cell_setting 'orthorhombic'
loop_
_space_group_symop_operation_xyz
x,y,z
-x,-y,1/2+z
x,1/2-y,-z
-x,1/2+y,1/2-z
-x,-y,-z
x,y,1/2-z
-x,1/2+y,z
x,1/2-y,1/2+z
loop_
_atom_site_type_symbol
_atom_site_label
_atom_site_fract_x
_atom_site_fract_y
_atom_site_fract_z
Si Si1 0.899145 0.454335 0.750000
Si Si2 0.628367 0.783677 0.396837
Si Si3 0.218928 0.410654 0.610069
Si Si4 0.519209 0.029133 0.854117
Si Si5 0.914567 0.658168 0.250000
Si Si6 0.668230 0.269900 0.355035
Si Si7 0.809276 0.096953 0.060919
O O1 0.905522 0.648378 0.750000
O O2 0.855053 0.409094 0.843929
O O3 0.990673 0.384869 0.750000
O O4 0.638183 0.750000 0.500000
O O5 0.719760 0.739972 0.362564
O O6 0.565913 0.642369 0.363174
O O7 0.573315 0.945987 0.386067
O O8 0.135710 0.406380 0.665105
O O9 0.271882 0.570553 0.638455
O O10 0.194667 0.057319 0.493621
O O11 0.514541 0.063364 0.750000
O O12 0.582341 0.163877 0.892242
O O13 0.661117 0.223707 0.250000
O O14 0.715913 0.136727 0.412208
O O15 0.839913 0.250000 0.000000
#
# Coordination Sequence:
#
# PCOD9439373 Si02
#       7
#     4   8   8   8   4   8   8
#     4  12  30  50  78 113 145 190 234 303 371 450
#     4  11  24  41  66  96 146 187 241 296 361 411
#     4  10  24  45  72 103 145 196 230 309 357 437
#     4  10  22  39  63 101 135 190 244 295 352 417
#     4  12  30  50  78 107 155 180 248 295 383 442
#     4   9  17  38  71  98 140 186 241 292 359 415
#     4  10  23  44  77 110 147 187 249 290 370 442
#
# _framework density 24.073118999999998
#
# number of rings (size 3 to 8) (size 9 to 14) (size 15 to 20)
#    0.000    1.667    1.667    1.000    9.333    5.333 
#    0.000    0.000    0.000    0.000    0.000    0.000 
#    0.000    0.000    0.000    0.000    0.000    0.000 
#
# Total GULP energy -268316.703685 kJ/mol
# GULP energy per Si atom -5589.931327 kJ/mol
# Density = 2.401833 g / cm^3
# Si number density = 24.073119 Si / 1000 Ang^3
#
#
#
# Elastic Constant Matrix: (Units=GPa)
#
#
# Indices 1 2 3 4 5 6 
#
# 1 179.4440 43.1526 67.2080 0.0000 0.0000 0.0000
# 2 43.1526 64.4541 25.5112 0.0000 0.0000 0.0000
# 3 67.2080 25.5112 142.9847 0.0000 0.0000 0.0000
# 4 0.0000 0.0000 0.0000 30.1638 0.0000 0.0000
# 5 0.0000 0.0000 0.0000 0.0000 12.9673 0.0000
# 6 0.0000 0.0000 0.0000 0.0000 0.0000 5.4182
#
#
#
# Elastic Compliance Matrix: (Units=1/GPa)
#
#
# Indices 1 2 3 4 5 6 
#
# 1 0.007596 -0.003952 -0.002865 0.000000 0.000000 0.000000
# 2 -0.003952 0.018749 -0.001488 0.000000 0.000000 0.000000
# 3 -0.002865 -0.001488 0.008606 0.000000 0.000000 0.000000
# 4 0.000000 0.000000 0.000000 0.033152 0.000000 0.000000
# 5 0.000000 0.000000 0.000000 0.000000 0.077117 0.000000
# 6 0.000000 0.000000 0.000000 0.000000 0.000000 0.184563
#
#
# Mechanical properties :
#
#
# Convention : Reuss Voigt Hill
#
# Bulk Modulus (GPa) = 54.51991 73.18069 63.85030
# Shear Modulus (GPa) = 14.18407 26.44393 20.31400
#
# Velocity S-wave (km/s) = 2.42999 3.31793 2.90805
# Velocity P-wave (km/s) = 5.52901 6.71890 6.15279
#
# Compressibility (1/GPa) = 0.01834192
#
# Stress axis : x y z
#
# Youngs Moduli (GPa) = 131.64363 53.33496 116.19667
#
# Poissons Ratio (x) = 0.21076 0.33296
# Poissons Ratio (y) = 0.52020 0.17288
# Poissons Ratio (z) = 0.37722 0.07936
#
# Static dielectric constant tensor:
#      x y z
#    x 2.045310 0.000000 0.000000 
#    y 0.000000 1.737050 0.000000 
#    z 0.000000 0.000000 1.947600 
# 
# From -- ./inp_files/22506.got.cif
#   From: 2010.05.17/outbox.cif.g08.bks.cpg/sg57_12_cif.got.tgz:22506.got - 2010.06.03 13:58:18.
