data_PCOD9439784
_publ_section_title
;
Structure prediction by ZEFSAII (Michael W. Deem and Ramdas Pophale) SiO2 
 PCOD9439784
Probable space group: P B C M
;
_chemical_formula_sum "Si O2"
_cell_formula_units_Z 64
_cell_length_a 9.598627
_cell_length_b 18.084649
_cell_length_c 17.864722
_cell_angle_alpha 90.000000
_cell_angle_beta 90.000000
_cell_angle_gamma 90.000000
_cell_volume 3101.097793
_symmetry_space_group_name_H-M "P B C M"
_symmetry_group_IT_number 57
_symmetry_cell_setting 'orthorhombic'
loop_
_space_group_symop_operation_xyz
x,y,z
-x,-y,1/2+z
x,1/2-y,-z
-x,1/2+y,1/2-z
-x,-y,-z
x,y,1/2-z
-x,1/2+y,z
x,1/2-y,1/2+z
loop_
_atom_site_type_symbol
_atom_site_label
_atom_site_fract_x
_atom_site_fract_y
_atom_site_fract_z
Si Si1 0.440272 0.460226 0.925971
Si Si2 0.528766 0.815946 0.339347
Si Si3 0.672085 0.527294 0.839503
Si Si4 0.302306 0.301192 0.926747
Si Si5 0.063052 0.968445 0.576795
Si Si6 0.184815 0.527251 0.662274
Si Si7 0.786952 0.306466 0.338716
Si Si8 0.975383 0.302009 0.572689
O O1 0.561299 0.464849 0.863616
O O2 0.382053 0.378187 0.939463
O O3 0.312369 0.505339 0.890339
O O4 0.500000 0.500000 0.000000
O O5 0.518601 0.818449 0.250000
O O6 0.621622 0.747132 0.363940
O O7 0.371239 0.807657 0.370064
O O8 0.601659 0.893798 0.359644
O O9 0.701438 0.525740 0.750000
O O10 0.805769 0.512897 0.891192
O O11 0.139021 0.312939 0.909136
O O12 0.309805 0.250000 0.000000
O O13 0.091749 0.882443 0.562609
O O14 0.000000 0.000000 0.500000
O O15 0.945156 0.977307 0.640186
O O16 0.222618 0.520640 0.750000
O O17 0.148445 0.612692 0.646610
O O18 0.775280 0.298943 0.250000
O O19 0.885842 0.242681 0.367663
O O20 0.969627 0.250000 0.500000
#
# Coordination Sequence:
#
# PCOD9439784 Si02
#       8
#     8   8   8   8   8   8   8   8
#     4  12  24  44  72 100 136 184 231 288 347 407
#     4  10  23  44  68  98 136 178 224 277 339 413
#     4  11  25  45  72 104 139 180 231 290 349 412
#     4  11  26  44  65  99 136 178 228 283 339 410
#     4  12  26  45  71 101 136 182 236 288 343 409
#     4  11  23  44  70  99 135 179 229 286 346 413
#     4  10  23  44  68  97 135 179 223 274 342 417
#     4  11  26  46  66  97 139 180 226 281 341 406
#
# _framework density 20.637853
#
# number of rings (size 3 to 8) (size 9 to 14) (size 15 to 20)
#    0.000    1.000    2.500    3.000    7.000    3.000 
#    0.000    0.000    0.000    0.000    0.000    0.000 
#    0.000    0.000    0.000    0.000    0.000    0.000 
#
# Total GULP energy -357764.307671 kJ/mol
# GULP energy per Si atom -5590.067307 kJ/mol
# Density = 2.059088 g / cm^3
# Si number density = 20.637853 Si / 1000 Ang^3
#
#
#
# Elastic Constant Matrix: (Units=GPa)
#
#
# Indices 1 2 3 4 5 6 
#
# 1 105.1371 54.1642 40.1928 0.0000 0.0000 0.0000
# 2 54.1642 154.1872 61.7775 0.0000 0.0000 0.0000
# 3 40.1928 61.7775 66.9188 0.0000 0.0000 0.0000
# 4 0.0000 0.0000 0.0000 36.1421 0.0000 0.0000
# 5 0.0000 0.0000 0.0000 0.0000 7.0660 0.0000
# 6 0.0000 0.0000 0.0000 0.0000 0.0000 31.1617
#
#
#
# Elastic Compliance Matrix: (Units=1/GPa)
#
#
# Indices 1 2 3 4 5 6 
#
# 1 0.012820 -0.002251 -0.005622 0.000000 0.000000 0.000000
# 2 -0.002251 0.010688 -0.008515 0.000000 0.000000 0.000000
# 3 -0.005622 -0.008515 0.026181 0.000000 0.000000 0.000000
# 4 0.000000 0.000000 0.000000 0.027669 0.000000 0.000000
# 5 0.000000 0.000000 0.000000 0.000000 0.141524 0.000000
# 6 0.000000 0.000000 0.000000 0.000000 0.000000 0.032091
#
#
# Mechanical properties :
#
#
# Convention : Reuss Voigt Hill
#
# Bulk Modulus (GPa) = 59.12502 70.94581 65.03541
# Shear Modulus (GPa) = 17.27798 26.21452 21.74625
#
# Velocity S-wave (km/s) = 2.89658 3.56787 3.24961
# Velocity P-wave (km/s) = 6.31648 7.17106 6.75729
#
# Compressibility (1/GPa) = 0.01691331
#
# Stress axis : x y z
#
# Youngs Moduli (GPa) = 78.00106 93.56290 38.19593
#
# Poissons Ratio (x) = 0.21062 0.21474
# Poissons Ratio (y) = 0.17559 0.32523
# Poissons Ratio (z) = 0.43852 0.79667
#
# Static dielectric constant tensor:
#      x y z
#    x 1.757880 0.000000 0.000000 
#    y 0.000000 1.731160 0.000000 
#    z 0.000000 0.000000 1.764110 
# 
# From -- ./inp_files/24585.got.cif
#   From: 2010.05.17/outbox.cif.g08.bks.cpg/sg57_13_cif.got.tgz:24585.got - 2010.06.03 13:58:18.
