data_PCOD9439876
_publ_section_title
;
Structure prediction by ZEFSAII (Michael W. Deem and Ramdas Pophale) SiO2 
 PCOD9439876
Probable space group: P B C M
;
_chemical_formula_sum "Si O2"
_cell_formula_units_Z 48
_cell_length_a 9.952931
_cell_length_b 14.319978
_cell_length_c 16.825532
_cell_angle_alpha 90.000000
_cell_angle_beta 90.000000
_cell_angle_gamma 90.000000
_cell_volume 2398.071617
_symmetry_space_group_name_H-M "P B C M"
_symmetry_group_IT_number 57
_symmetry_cell_setting 'orthorhombic'
loop_
_space_group_symop_operation_xyz
x,y,z
-x,-y,1/2+z
x,1/2-y,-z
-x,1/2+y,1/2-z
-x,-y,-z
x,y,1/2-z
-x,1/2+y,z
x,1/2-y,1/2+z
loop_
_atom_site_type_symbol
_atom_site_label
_atom_site_fract_x
_atom_site_fract_y
_atom_site_fract_z
Si Si1 0.209191 0.763505 0.404817
Si Si2 0.325451 0.097676 0.158927
Si Si3 0.173867 0.934147 0.843977
Si Si4 0.900536 0.460413 0.153977
Si Si5 0.480260 0.228602 0.592859
Si Si6 0.440345 0.015042 0.588535
O O1 0.206747 0.750000 0.500000
O O2 0.141548 0.673433 0.364312
O O3 0.139925 0.861178 0.382622
O O4 0.365940 0.764933 0.376334
O O5 0.292209 0.114121 0.250000
O O6 0.377524 0.194876 0.124851
O O7 0.200661 0.041087 0.122790
O O8 0.451424 0.028808 0.147988
O O9 0.206442 0.941637 0.750000
O O10 0.301083 0.962754 0.897227
O O11 0.050125 0.002844 0.861246
O O12 0.883986 0.452709 0.250000
O O13 0.491861 0.250000 0.500000
O O14 0.427820 0.124396 0.604395
O O15 0.500000 0.000000 0.500000
#
# Coordination Sequence:
#
# PCOD9439876 Si02
#       6
#     8   8   8   8   8   8
#     4  11  22  40  66  96 125 173 222 270 329 392
#     4  11  23  39  63  95 127 166 217 267 318 385
#     4  11  25  44  66  94 131 175 218 265 324 400
#     4  10  24  44  64  92 136 176 213 270 334 393
#     4  11  22  38  65  93 131 168 213 274 331 380
#     4  12  22  41  67  96 128 165 217 273 323 382
#
# _framework density 20.016082000000001
#
# number of rings (size 3 to 8) (size 9 to 14) (size 15 to 20)
#    0.000    1.000    5.000    2.000    0.000    4.000 
#    0.000    5.000    0.000    0.000    0.000    0.000 
#    0.000    0.000    0.000    0.000    0.000    0.000 
#
# Total GULP energy -268191.193622 kJ/mol
# GULP energy per Si atom -5587.316534 kJ/mol
# Density = 1.997052 g / cm^3
# Si number density = 20.016082 Si / 1000 Ang^3
#
#
#
# Elastic Constant Matrix: (Units=GPa)
#
#
# Indices 1 2 3 4 5 6 
#
# 1 100.5397 42.7535 37.6824 0.0000 0.0000 0.0000
# 2 42.7535 153.9141 37.0496 0.0000 0.0000 0.0000
# 3 37.6824 37.0496 49.9119 0.0000 0.0000 0.0000
# 4 0.0000 0.0000 0.0000 25.3079 0.0000 0.0000
# 5 0.0000 0.0000 0.0000 0.0000 14.2874 0.0000
# 6 0.0000 0.0000 0.0000 0.0000 0.0000 30.1659
#
#
#
# Elastic Compliance Matrix: (Units=1/GPa)
#
#
# Indices 1 2 3 4 5 6 
#
# 1 0.014212 -0.001662 -0.009496 0.000000 0.000000 0.000000
# 2 -0.001662 0.008105 -0.004762 0.000000 0.000000 0.000000
# 3 -0.009496 -0.004762 0.030739 0.000000 0.000000 0.000000
# 4 0.000000 0.000000 0.000000 0.039513 0.000000 0.000000
# 5 0.000000 0.000000 0.000000 0.000000 0.069992 0.000000
# 6 0.000000 0.000000 0.000000 0.000000 0.000000 0.033150
#
#
# Mechanical properties :
#
#
# Convention : Reuss Voigt Hill
#
# Bulk Modulus (GPa) = 47.13219 59.92630 53.52925
# Shear Modulus (GPa) = 21.31071 26.41090 23.86081
#
# Velocity S-wave (km/s) = 3.26648 3.63641 3.45640
# Velocity P-wave (km/s) = 6.15019 6.90184 6.53683
#
# Compressibility (1/GPa) = 0.02121692
#
# Stress axis : x y z
#
# Youngs Moduli (GPa) = 70.36180 123.38121 32.53156
#
# Poissons Ratio (x) = 0.20505 0.30893
# Poissons Ratio (y) = 0.11693 0.15490
# Poissons Ratio (z) = 0.66818 0.58749
#
# Static dielectric constant tensor:
#      x y z
#    x 1.707960 0.000000 0.000000 
#    y 0.000000 1.685260 0.000000 
#    z 0.000000 0.000000 1.716080 
# 
# From -- ./inp_files/20918.got.cif
#   From: 2010.05.17/outbox.cif.g08.bks.cpg/sg57_11_cif.got.tgz:20918.got - 2010.06.03 13:58:18.
