data_PCOD9439639
_publ_section_title
;
Structure prediction by ZEFSAII (Michael W. Deem and Ramdas Pophale) SiO2 
 PCOD9439639
Probable space group: P B C M
;
_chemical_formula_sum "Si O2"
_cell_formula_units_Z 48
_cell_length_a 15.037937
_cell_length_b 17.264083
_cell_length_c 9.734382
_cell_angle_alpha 90.000000
_cell_angle_beta 90.000000
_cell_angle_gamma 90.000000
_cell_volume 2527.203191
_symmetry_space_group_name_H-M "P B C M"
_symmetry_group_IT_number 57
_symmetry_cell_setting 'orthorhombic'
loop_
_space_group_symop_operation_xyz
x,y,z
-x,-y,1/2+z
x,1/2-y,-z
-x,1/2+y,1/2-z
-x,-y,-z
x,y,1/2-z
-x,1/2+y,z
x,1/2-y,1/2+z
loop_
_atom_site_type_symbol
_atom_site_label
_atom_site_fract_x
_atom_site_fract_y
_atom_site_fract_z
Si Si1 0.305674 0.121286 0.407811
Si Si2 0.142361 0.999658 0.750000
Si Si3 0.791456 0.460985 0.457340
Si Si4 0.504431 0.081962 0.080564
Si Si5 0.656528 0.173229 0.587722
Si Si6 0.051830 0.543096 0.750000
Si Si7 0.914380 0.828623 0.250000
Si Si8 0.171760 0.250000 0.000000
O O1 0.299733 0.145130 0.250000
O O2 0.409143 0.122693 0.445366
O O3 0.237936 0.177636 0.482575
O O4 0.271349 0.033498 0.421340
O O5 0.148273 0.093850 0.750000
O O6 0.035314 0.988917 0.750000
O O7 0.187892 0.964961 0.617253
O O8 0.741186 0.383660 0.414002
O O9 0.884640 0.470145 0.378978
O O10 0.515805 0.074691 0.250000
O O11 0.580410 0.129891 0.001908
O O12 0.500000 0.000000 0.000000
O O13 0.675890 0.250000 0.500000
O O14 0.632452 0.186639 0.750000
O O15 0.010221 0.629670 0.750000
O O16 0.891990 0.775142 0.377603
#
# Coordination Sequence:
#
# PCOD9439639 Si02
#       8
#     8   4   8   8   8   4   4   4
#     4  11  22  39  68  97 131 180 220 272 337 399
#     4  10  24  38  67 109 124 170 231 283 335 406
#     4  12  22  44  73  97 135 177 229 278 338 416
#     4  11  24  43  68 102 134 177 231 279 339 410
#     4  12  27  48  69  98 141 186 234 293 350 409
#     4  10  22  45  68 101 128 174 226 280 343 410
#     4  10  24  41  65  98 136 172 221 277 338 398
#     4  12  22  44  62  98 142 172 216 282 338 400
#
# _framework density 18.993328000000002
#
# number of rings (size 3 to 8) (size 9 to 14) (size 15 to 20)
#    0.500    0.333    5.833    1.500    3.500    0.000 
#    6.000    0.833    0.000    0.000    0.000    0.000 
#    0.000    0.000    0.000    0.000    0.000    0.000 
#
# Total GULP energy -267670.890605 kJ/mol
# GULP energy per Si atom -5576.476888 kJ/mol
# Density = 1.895010 g / cm^3
# Si number density = 18.993328 Si / 1000 Ang^3
#
#
#
# Elastic Constant Matrix: (Units=GPa)
#
#
# Indices 1 2 3 4 5 6 
#
# 1 56.0234 -6.4958 13.1814 0.0000 0.0000 0.0000
# 2 -6.4958 72.4671 9.0820 0.0000 0.0000 0.0000
# 3 13.1814 9.0820 129.4888 0.0000 0.0000 0.0000
# 4 0.0000 0.0000 0.0000 20.2570 0.0000 0.0000
# 5 0.0000 0.0000 0.0000 0.0000 32.1750 0.0000
# 6 0.0000 0.0000 0.0000 0.0000 0.0000 17.9194
#
#
#
# Elastic Compliance Matrix: (Units=1/GPa)
#
#
# Indices 1 2 3 4 5 6 
#
# 1 0.018548 0.001916 -0.002022 0.000000 0.000000 0.000000
# 2 0.001916 0.014120 -0.001185 0.000000 0.000000 0.000000
# 3 -0.002022 -0.001185 0.008012 0.000000 0.000000 0.000000
# 4 0.000000 0.000000 0.000000 0.049366 0.000000 0.000000
# 5 0.000000 0.000000 0.000000 0.000000 0.031080 0.000000
# 6 0.000000 0.000000 0.000000 0.000000 0.000000 0.055806
#
#
# Mechanical properties :
#
#
# Convention : Reuss Voigt Hill
#
# Bulk Modulus (GPa) = 26.24980 32.16828 29.20904
# Shear Modulus (GPa) = 26.01289 30.21771 28.11530
#
# Velocity S-wave (km/s) = 3.70480 3.99302 3.85160
# Velocity P-wave (km/s) = 5.67021 6.18323 5.93227
#
# Compressibility (1/GPa) = 0.03809553
#
# Stress axis : x y z
#
# Youngs Moduli (GPa) = 53.91502 70.82314 124.81760
#
# Poissons Ratio (x) = -0.13570 0.25244
# Poissons Ratio (y) = -0.10330 0.14795
# Poissons Ratio (z) = 0.10904 0.08395
#
# Static dielectric constant tensor:
#      x y z
#    x 1.664930 0.000000 0.000000 
#    y 0.000000 1.661860 0.000000 
#    z 0.000000 0.000000 1.712740 
# 
# From -- ./inp_files/4794.got.cif
#   From: 2010.05.17/outbox.cif.g08.bks.cpg/sg57_3_cif.got.tgz:4794.got - 2010.06.03 13:58:18.
