data_PCOD9439742
_publ_section_title
;
Structure prediction by ZEFSAII (Michael W. Deem and Ramdas Pophale) SiO2 
 PCOD9439742
Probable space group: P B C M
;
_chemical_formula_sum "Si O2"
_cell_formula_units_Z 36
_cell_length_a 5.623380
_cell_length_b 9.063369
_cell_length_c 26.469722
_cell_angle_alpha 90.000000
_cell_angle_beta 90.000000
_cell_angle_gamma 90.000000
_cell_volume 1349.076179
_symmetry_space_group_name_H-M "P B C M"
_symmetry_group_IT_number 57
_symmetry_cell_setting 'orthorhombic'
loop_
_space_group_symop_operation_xyz
x,y,z
-x,-y,1/2+z
x,1/2-y,-z
-x,1/2+y,1/2-z
-x,-y,-z
x,y,1/2-z
-x,1/2+y,z
x,1/2-y,1/2+z
loop_
_atom_site_type_symbol
_atom_site_label
_atom_site_fract_x
_atom_site_fract_y
_atom_site_fract_z
Si Si1 0.057788 0.633752 0.250000
Si Si2 0.562979 0.529660 0.431744
Si Si3 0.816071 0.750000 0.500000
Si Si4 0.440136 0.121880 0.250000
Si Si5 0.817054 0.479163 0.335203
Si Si6 0.190451 0.749276 0.412236
O O1 0.803773 0.717618 0.250000
O O2 0.028822 0.532903 0.299862
O O3 0.313143 0.705251 0.250000
O O4 0.668115 0.608223 0.481014
O O5 0.752309 0.568358 0.386243
O O6 0.304200 0.588976 0.417058
O O7 0.586356 0.353963 0.429349
O O8 0.990644 0.784334 0.453118
O O9 0.405012 0.017187 0.201213
O O10 0.857883 0.315638 0.356879
#
# Coordination Sequence:
#
# PCOD9439742 Si02
#       6
#     4   8   4   4   8   8
#     4   8  16  36  62 102 126 176 212 280 328 410
#     4  10  23  43  62  93 128 173 218 271 333 393
#     4  12  24  36  64  94 130 168 226 270 330 396
#     4   8  16  36  66  94 136 164 228 266 342 396
#     4   7  20  37  61  94 124 175 213 274 333 396
#     4  10  23  43  62  93 128 173 218 271 333 393
#
# _framework density 26.684923999999999
#
# number of rings (size 3 to 8) (size 9 to 14) (size 15 to 20)
#    2.667    0.000    0.000    1.333    0.000    8.889 
#    0.000    4.444    0.000    8.000    0.000    0.000 
#    0.000    0.000    0.000    0.000    0.000    0.000 
#
# Total GULP energy -200824.627458 kJ/mol
# GULP energy per Si atom -5578.461874 kJ/mol
# Density = 2.662419 g / cm^3
# Si number density = 26.684924 Si / 1000 Ang^3
#
#
#
# Elastic Constant Matrix: (Units=GPa)
#
#
# Indices 1 2 3 4 5 6 
#
# 1 136.3642 28.5968 17.2744 0.0000 0.0000 0.0000
# 2 28.5968 66.1643 15.6612 0.0000 0.0000 0.0000
# 3 17.2744 15.6612 130.6531 0.0000 0.0000 0.0000
# 4 0.0000 0.0000 0.0000 36.8980 0.0000 0.0000
# 5 0.0000 0.0000 0.0000 0.0000 13.3311 0.0000
# 6 0.0000 0.0000 0.0000 0.0000 0.0000 37.0939
#
#
#
# Elastic Compliance Matrix: (Units=1/GPa)
#
#
# Indices 1 2 3 4 5 6 
#
# 1 0.008121 -0.003351 -0.000672 0.000000 0.000000 0.000000
# 2 -0.003351 0.016938 -0.001587 0.000000 0.000000 0.000000
# 3 -0.000672 -0.001587 0.007933 0.000000 0.000000 0.000000
# 4 0.000000 0.000000 0.000000 0.027102 0.000000 0.000000
# 5 0.000000 0.000000 0.000000 0.000000 0.075012 0.000000
# 6 0.000000 0.000000 0.000000 0.000000 0.000000 0.026959
#
#
# Mechanical properties :
#
#
# Convention : Reuss Voigt Hill
#
# Bulk Modulus (GPa) = 45.93170 50.69404 48.31287
# Shear Modulus (GPa) = 27.69429 35.57455 31.63442
#
# Velocity S-wave (km/s) = 3.22502 3.65517 3.44681
# Velocity P-wave (km/s) = 5.57832 6.07060 5.82966
#
# Compressibility (1/GPa) = 0.02177146
#
# Stress axis : x y z
#
# Youngs Moduli (GPa) = 123.13500 59.03912 126.05604
#
# Poissons Ratio (x) = 0.19784 0.08472
# Poissons Ratio (y) = 0.41262 0.20009
# Poissons Ratio (z) = 0.08276 0.09371
#
# Static dielectric constant tensor:
#      x y z
#    x 2.083160 0.000000 0.000000 
#    y 0.000000 2.058200 0.000000 
#    z 0.000000 0.000000 2.104620 
# 
# From -- ./inp_files/29072.got.cif
#   From: 2010.05.17/outbox.cif.g08.bks.cpg/sg57_15_cif.got.tgz:29072.got - 2010.06.03 13:58:18.
