data_PCOD9439255
_publ_section_title
;
Structure prediction by ZEFSAII (Michael W. Deem and Ramdas Pophale) SiO2 
 PCOD9439255
Probable space group: P B C M
;
_chemical_formula_sum "Si O2"
_cell_formula_units_Z 44
_cell_length_a 12.264153
_cell_length_b 17.064817
_cell_length_c 10.390825
_cell_angle_alpha 90.000000
_cell_angle_beta 90.000000
_cell_angle_gamma 90.000000
_cell_volume 2174.649282
_symmetry_space_group_name_H-M "P B C M"
_symmetry_group_IT_number 57
_symmetry_cell_setting 'orthorhombic'
loop_
_space_group_symop_operation_xyz
x,y,z
-x,-y,1/2+z
x,1/2-y,-z
-x,1/2+y,1/2-z
-x,-y,-z
x,y,1/2-z
-x,1/2+y,z
x,1/2-y,1/2+z
loop_
_atom_site_type_symbol
_atom_site_label
_atom_site_fract_x
_atom_site_fract_y
_atom_site_fract_z
Si Si1 0.369385 0.905205 0.994584
Si Si2 0.858616 0.832888 0.250000
Si Si3 0.242953 0.858074 0.750000
Si Si4 0.608844 0.585829 0.028266
Si Si5 0.623859 0.301982 0.250000
Si Si6 0.615141 0.840814 0.250000
Si Si7 0.987799 0.826764 0.750000
Si Si8 0.834527 0.656117 0.474945
O O1 0.281106 0.899988 0.881568
O O2 0.378664 0.993532 0.047519
O O3 0.488390 0.887269 0.931024
O O4 0.351454 0.849394 0.117755
O O5 0.733098 0.799747 0.250000
O O6 0.861622 0.878786 0.384211
O O7 0.949508 0.765036 0.250000
O O8 0.307401 0.776173 0.750000
O O9 0.115077 0.840588 0.750000
O O10 0.609015 0.605304 0.875725
O O11 0.716845 0.629348 0.075854
O O12 0.492918 0.288684 0.250000
O O13 0.928814 0.861244 0.625004
O O14 0.831388 0.750000 0.500000
#
# Coordination Sequence:
#
# PCOD9439255 Si02
#       8
#     8   4   4   8   4   4   4   8
#     4  10  22  37  58  86 117 151 178 219 290 345
#     4   8  16  31  54  79 103 138 179 226 280 321
#     4  12  25  40  55  77 114 156 192 229 272 326
#     4   9  18  35  60  88 118 142 177 228 282 345
#     4  10  22  37  56  84 115 148 189 229 273 343
#     4   8  15  32  56  86 115 138 175 232 290 336
#     4  10  22  36  51  78 111 144 191 240 275 314
#     4   9  18  33  57  84 108 140 185 236 280 322
#
# _framework density 20.233148
#
# number of rings (size 3 to 8) (size 9 to 14) (size 15 to 20)
#    0.000    2.545    0.000    1.091    0.000   13.818 
#    0.000    0.909    0.000    6.545    0.000    0.000 
#    0.000    0.000    0.000    0.000    0.000    0.000 
#
# Total GULP energy -245326.561430 kJ/mol
# GULP energy per Si atom -5575.603669 kJ/mol
# Density = 2.018710 g / cm^3
# Si number density = 20.233148 Si / 1000 Ang^3
#
#
#
# Elastic Constant Matrix: (Units=GPa)
#
#
# Indices 1 2 3 4 5 6 
#
# 1 136.4114 3.9536 41.6338 0.0000 0.0000 0.0000
# 2 3.9536 29.2637 2.8035 0.0000 0.0000 0.0000
# 3 41.6338 2.8035 84.4736 0.0000 0.0000 0.0000
# 4 0.0000 0.0000 0.0000 8.9545 0.0000 0.0000
# 5 0.0000 0.0000 0.0000 0.0000 -94.1042 0.0000
# 6 0.0000 0.0000 0.0000 0.0000 0.0000 8.4095
#
#
#
# Elastic Compliance Matrix: (Units=1/GPa)
#
#
# Indices 1 2 3 4 5 6 
#
# 1 0.008646 -0.000762 -0.004236 0.000000 0.000000 0.000000
# 2 -0.000762 0.034348 -0.000764 0.000000 0.000000 0.000000
# 3 -0.004236 -0.000764 0.013951 0.000000 0.000000 0.000000
# 4 0.000000 0.000000 0.000000 0.111675 0.000000 0.000000
# 5 0.000000 0.000000 0.000000 0.000000 -0.010627 0.000000
# 6 0.000000 0.000000 0.000000 0.000000 0.000000 0.118913
#
#
# Mechanical properties :
#
#
# Convention : Reuss Voigt Hill
#
# Bulk Modulus (GPa) = 22.01659 38.54785 30.28222
# Shear Modulus (GPa) = 16.47057 -1.89753 7.28652
#
# Velocity S-wave (km/s) = 2.85623 -0.96947 1.89976
# Velocity P-wave (km/s) = 4.66717 4.22375 4.45098
#
# Compressibility (1/GPa) = 0.04542030
#
# Stress axis : x y z
#
# Youngs Moduli (GPa) = 115.66489 29.11355 71.67918
#
# Poissons Ratio (x) = 0.02219 0.30362
# Poissons Ratio (y) = 0.08817 0.05478
# Poissons Ratio (z) = 0.48994 0.02225
#
# Static dielectric constant tensor:
#      x y z
#    x 1.714600 0.000000 0.000000 
#    y 0.000000 1.713300 0.000000 
#    z 0.000000 0.000000 1.798290 
# 
# From -- ./inp_files/12893.got.cif
#   From: 2010.05.17/outbox.cif.g08.bks.cpg/sg57_7_cif.got.tgz:12893.got - 2010.06.03 13:58:18.
