data_PCOD9439507
_publ_section_title
;
Structure prediction by ZEFSAII (Michael W. Deem and Ramdas Pophale) SiO2 
 PCOD9439507
Probable space group: P B C M
;
_chemical_formula_sum "Si O2"
_cell_formula_units_Z 64
_cell_length_a 8.864283
_cell_length_b 20.992382
_cell_length_c 14.512231
_cell_angle_alpha 90.000000
_cell_angle_beta 90.000000
_cell_angle_gamma 90.000000
_cell_volume 2700.470990
_symmetry_space_group_name_H-M "P B C M"
_symmetry_group_IT_number 57
_symmetry_cell_setting 'orthorhombic'
loop_
_space_group_symop_operation_xyz
x,y,z
-x,-y,1/2+z
x,1/2-y,-z
-x,1/2+y,1/2-z
-x,-y,-z
x,y,1/2-z
-x,1/2+y,z
x,1/2-y,1/2+z
loop_
_atom_site_type_symbol
_atom_site_label
_atom_site_fract_x
_atom_site_fract_y
_atom_site_fract_z
Si Si1 0.026964 0.751475 0.895999
Si Si2 0.433082 0.383025 0.860162
Si Si3 0.876888 0.878906 0.349550
Si Si4 0.161481 0.437563 0.965251
Si Si5 0.485958 0.122792 0.646720
Si Si6 0.373972 0.760099 0.856907
Si Si7 0.663395 0.063188 0.475824
Si Si8 0.919175 0.108401 0.147611
O O1 0.943549 0.692458 0.849195
O O2 0.209211 0.744070 0.896238
O O3 0.005122 0.821799 0.854724
O O4 0.970780 0.750000 0.000000
O O5 0.407205 0.383163 0.750000
O O6 0.283554 0.389794 0.920651
O O7 0.524842 0.319418 0.889137
O O8 0.539851 0.441200 0.893995
O O9 0.918341 0.908111 0.250000
O O10 0.925526 0.910771 0.445237
O O11 0.694859 0.882324 0.357690
O O12 0.038674 0.444140 0.884842
O O13 0.250908 0.499368 0.997003
O O14 0.533806 0.101751 0.750000
O O15 0.526975 0.197043 0.638075
O O16 0.575854 0.088699 0.565022
O O17 0.341114 0.775361 0.750000
O O18 0.789059 0.108198 0.428960
O O19 0.860430 0.095835 0.250000
#
# Coordination Sequence:
#
# PCOD9439507 Si02
#       8
#     8   8   8   8   8   8   8   8
#     4  12  23  41  70 101 141 183 229 295 363 428
#     4  11  24  43  72 105 139 182 239 304 367 430
#     4  11  25  44  66 101 143 186 231 288 360 427
#     4  12  27  47  68 104 145 194 242 301 365 440
#     4  10  24  43  68 101 140 184 231 294 361 430
#     4  10  22  41  66 100 135 177 233 290 353 426
#     4  12  25  48  71 102 142 191 248 300 362 440
#     4  12  26  47  73 103 141 187 245 305 369 438
#
# _framework density 23.699567999999999
#
# number of rings (size 3 to 8) (size 9 to 14) (size 15 to 20)
#    0.000    0.750    3.750    3.375    1.750    2.000 
#    0.000    0.000    0.000    0.000    0.000    0.000 
#    0.000    0.000    0.000    0.000    0.000    0.000 
#
# Total GULP energy -357828.252087 kJ/mol
# GULP energy per Si atom -5591.066439 kJ/mol
# Density = 2.364563 g / cm^3
# Si number density = 23.699568 Si / 1000 Ang^3
#
#
#
# Elastic Constant Matrix: (Units=GPa)
#
#
# Indices 1 2 3 4 5 6 
#
# 1 63.8047 21.1418 30.6996 0.0000 0.0000 0.0000
# 2 21.1418 70.2903 40.6361 0.0000 0.0000 0.0000
# 3 30.6996 40.6361 168.3214 0.0000 0.0000 0.0000
# 4 0.0000 0.0000 0.0000 16.5749 0.0000 0.0000
# 5 0.0000 0.0000 0.0000 0.0000 23.5400 0.0000
# 6 0.0000 0.0000 0.0000 0.0000 0.0000 42.7578
#
#
#
# Elastic Compliance Matrix: (Units=1/GPa)
#
#
# Indices 1 2 3 4 5 6 
#
# 1 0.018153 -0.004121 -0.002316 0.000000 0.000000 0.000000
# 2 -0.004121 0.017470 -0.003466 0.000000 0.000000 0.000000
# 3 -0.002316 -0.003466 0.007200 0.000000 0.000000 0.000000
# 4 0.000000 0.000000 0.000000 0.060332 0.000000 0.000000
# 5 0.000000 0.000000 0.000000 0.000000 0.042481 0.000000
# 6 0.000000 0.000000 0.000000 0.000000 0.000000 0.023388
#
#
# Mechanical properties :
#
#
# Convention : Reuss Voigt Hill
#
# Bulk Modulus (GPa) = 43.44630 54.15238 48.79934
# Shear Modulus (GPa) = 25.44508 30.57047 28.00778
#
# Velocity S-wave (km/s) = 3.28022 3.59544 3.44144
# Velocity P-wave (km/s) = 5.71999 6.33525 6.03547
#
# Compressibility (1/GPa) = 0.02301692
#
# Stress axis : x y z
#
# Youngs Moduli (GPa) = 55.08846 57.24102 138.88579
#
# Poissons Ratio (x) = 0.23589 0.32164
# Poissons Ratio (y) = 0.22702 0.48138
# Poissons Ratio (z) = 0.12758 0.19840
#
# Static dielectric constant tensor:
#      x y z
#    x 1.905900 0.000000 0.000000 
#    y 0.000000 1.922430 0.000000 
#    z 0.000000 0.000000 1.903930 
# 
# From -- ./inp_files/16937.got.cif
#   From: 2010.05.17/outbox.cif.g08.bks.cpg/sg57_9_cif.got.tgz:16937.got - 2010.06.03 13:58:18.
