data_PCOD9439041
_publ_section_title
;
Structure prediction by ZEFSAII (Michael W. Deem and Ramdas Pophale) SiO2 
 PCOD9439041
Probable space group: P B C M
;
_chemical_formula_sum "Si O2"
_cell_formula_units_Z 32
_cell_length_a 17.509645
_cell_length_b 7.445579
_cell_length_c 9.612548
_cell_angle_alpha 90.000000
_cell_angle_beta 90.000000
_cell_angle_gamma 90.000000
_cell_volume 1253.182549
_symmetry_space_group_name_H-M "P B C M"
_symmetry_group_IT_number 57
_symmetry_cell_setting 'orthorhombic'
loop_
_space_group_symop_operation_xyz
x,y,z
-x,-y,1/2+z
x,1/2-y,-z
-x,1/2+y,1/2-z
-x,-y,-z
x,y,1/2-z
-x,1/2+y,z
x,1/2-y,1/2+z
loop_
_atom_site_type_symbol
_atom_site_label
_atom_site_fract_x
_atom_site_fract_y
_atom_site_fract_z
Si Si1 0.953884 0.250000 0.500000
Si Si2 0.077708 0.266107 0.750000
Si Si3 0.565325 0.120173 0.250000
Si Si4 0.848461 0.912558 0.433464
Si Si5 0.319648 0.535312 0.476712
Si Si6 0.390885 0.040178 0.250000
O O1 0.900763 0.077968 0.484647
O O2 0.011285 0.246162 0.629010
O O3 0.141955 0.309020 0.608481
O O4 0.605524 0.025856 0.119591
O O5 0.592327 0.325917 0.250000
O O6 0.474600 0.123144 0.250000
O O7 0.877651 0.931783 0.250000
O O8 0.760352 0.964471 0.422562
O O9 0.308097 0.750000 0.500000
O O10 0.341185 0.428113 0.614801
#
# Coordination Sequence:
#
# PCOD9439041 Si02
#       6
#     4   4   4   8   8   4
#     4  12  28  50  72 102 152 174 246 314 358 436
#     4  12  27  49  73 103 137 192 233 303 373 428
#     4  10  21  39  67  97 141 182 231 285 352 410
#     4  12  27  45  74 105 138 193 239 292 370 431
#     4  10  22  44  64  98 143 185 229 292 355 416
#     4  10  22  38  68  98 136 188 230 284 349 412
#
# _framework density 25.534986
#
# number of rings (size 3 to 8) (size 9 to 14) (size 15 to 20)
#    0.000    1.000    2.500    3.000    3.500    4.000 
#    0.000    0.000    0.000    0.000    0.000    0.000 
#    0.000    0.000    0.000    0.000    0.000    0.000 
#
# Total GULP energy -178283.856548 kJ/mol
# GULP energy per Si atom -5571.370517 kJ/mol
# Density = 2.547687 g / cm^3
# Si number density = 25.534986 Si / 1000 Ang^3
#
#
#
# Elastic Constant Matrix: (Units=GPa)
#
#
# Indices 1 2 3 4 5 6 
#
# 1 211.8633 58.8372 54.1745 0.0000 0.0000 0.0000
# 2 58.8372 109.1051 41.6591 0.0000 0.0000 0.0000
# 3 54.1745 41.6591 174.5144 0.0000 0.0000 0.0000
# 4 0.0000 0.0000 0.0000 513.0600 0.0000 0.0000
# 5 0.0000 0.0000 0.0000 0.0000 -15.7839 0.0000
# 6 0.0000 0.0000 0.0000 0.0000 0.0000 51.0122
#
#
#
# Elastic Compliance Matrix: (Units=1/GPa)
#
#
# Indices 1 2 3 4 5 6 
#
# 1 0.005754 -0.002664 -0.001150 0.000000 0.000000 0.000000
# 2 -0.002664 0.011318 -0.001875 0.000000 0.000000 0.000000
# 3 -0.001150 -0.001875 0.006535 0.000000 0.000000 0.000000
# 4 0.000000 0.000000 0.000000 0.001949 0.000000 0.000000
# 5 0.000000 0.000000 0.000000 0.000000 -0.063356 0.000000
# 6 0.000000 0.000000 0.000000 0.000000 0.000000 0.019603
#
#
# Mechanical properties :
#
#
# Convention : Reuss Voigt Hill
#
# Bulk Modulus (GPa) = 81.77395 89.42494 85.59944
# Shear Modulus (GPa) = -1822.85848 132.37847 -845.24000
#
# Velocity S-wave (km/s) = -26.74728 7.20795 -18.21349
# Velocity P-wave (km/s) = 30.36108 10.21613 20.21665
#
# Compressibility (1/GPa) = 0.01222883
#
# Stress axis : x y z
#
# Youngs Moduli (GPa) = 173.79490 88.35657 153.02614
#
# Poissons Ratio (x) = 0.23535 0.17603
# Poissons Ratio (y) = 0.46294 0.28690
# Poissons Ratio (z) = 0.19992 0.16565
#
# Static dielectric constant tensor:
#      x y z
#    x 1.854840 0.000000 0.000000 
#    y 0.000000 2.009330 0.000000 
#    z 0.000000 0.000000 3.586100 
# 
# From -- ./inp_files/4080.got.cif
#   From: 2010.05.17/outbox.cif.g08.bks.cpg/sg57_3_cif.got.tgz:4080.got - 2010.06.03 13:58:18.
