data_PCOD9439044
_publ_section_title
;
Structure prediction by ZEFSAII (Michael W. Deem and Ramdas Pophale) SiO2 
 PCOD9439044
Probable space group: P B C M
;
_chemical_formula_sum "Si O2"
_cell_formula_units_Z 32
_cell_length_a 10.158989
_cell_length_b 8.744275
_cell_length_c 16.050618
_cell_angle_alpha 90.000000
_cell_angle_beta 90.000000
_cell_angle_gamma 90.000000
_cell_volume 1425.824445
_symmetry_space_group_name_H-M "P B C M"
_symmetry_group_IT_number 57
_symmetry_cell_setting 'orthorhombic'
loop_
_space_group_symop_operation_xyz
x,y,z
-x,-y,1/2+z
x,1/2-y,-z
-x,1/2+y,1/2-z
-x,-y,-z
x,y,1/2-z
-x,1/2+y,z
x,1/2-y,1/2+z
loop_
_atom_site_type_symbol
_atom_site_label
_atom_site_fract_x
_atom_site_fract_y
_atom_site_fract_z
Si Si1 0.105396 0.928098 0.896806
Si Si2 0.344381 0.133893 0.843229
Si Si3 0.845676 0.411517 0.096555
Si Si4 0.561925 0.945799 0.588120
O O1 0.138687 0.757933 0.866900
O O2 0.206388 0.060046 0.869956
O O3 0.123278 0.913890 0.997024
O O4 0.958730 0.975754 0.870597
O O5 0.334746 0.195549 0.750000
O O6 0.398686 0.269080 0.901828
O O7 0.449355 0.996563 0.848221
O O8 0.697146 0.465835 0.105367
O O9 0.500000 0.000000 0.500000
#
# Coordination Sequence:
#
# PCOD9439044 Si02
#       4
#     8   8   8   8
#     4  10  21  40  67  99 135 172 222 287 340 409
#     4  12  26  44  65  99 141 182 224 287 360 418
#     4  10  21  39  68 101 129 171 232 286 333 396
#     4  12  24  41  70 100 133 181 235 287 341 420
#
# _framework density 22.443155999999998
#
# number of rings (size 3 to 8) (size 9 to 14) (size 15 to 20)
#    0.000    1.000    2.500    4.500    3.500    2.000 
#    0.000    7.500    0.000    0.000    0.000    0.000 
#    0.000    0.000    0.000    0.000    0.000    0.000 
#
# Total GULP energy -178858.847812 kJ/mol
# GULP energy per Si atom -5589.338994 kJ/mol
# Density = 2.239207 g / cm^3
# Si number density = 22.443156 Si / 1000 Ang^3
#
#
#
# Elastic Constant Matrix: (Units=GPa)
#
#
# Indices 1 2 3 4 5 6 
#
# 1 153.9984 41.7201 4.6728 0.0000 0.0000 0.0000
# 2 41.7201 122.9268 25.3377 0.0000 0.0000 0.0000
# 3 4.6728 25.3377 75.6000 0.0000 0.0000 0.0000
# 4 0.0000 0.0000 0.0000 15.3001 0.0000 0.0000
# 5 0.0000 0.0000 0.0000 0.0000 -12.6214 0.0000
# 6 0.0000 0.0000 0.0000 0.0000 0.0000 43.6633
#
#
#
# Elastic Compliance Matrix: (Units=1/GPa)
#
#
# Indices 1 2 3 4 5 6 
#
# 1 0.007162 -0.002513 0.000400 0.000000 0.000000 0.000000
# 2 -0.002513 0.009620 -0.003069 0.000000 0.000000 0.000000
# 3 0.000400 -0.003069 0.014231 0.000000 0.000000 0.000000
# 4 0.000000 0.000000 0.000000 0.065359 0.000000 0.000000
# 5 0.000000 0.000000 0.000000 0.000000 -0.079231 0.000000
# 6 0.000000 0.000000 0.000000 0.000000 0.000000 0.022903
#
#
# Mechanical properties :
#
#
# Convention : Reuss Voigt Hill
#
# Bulk Modulus (GPa) = 48.42847 55.10959 51.76903
# Shear Modulus (GPa) = 87.27029 27.98804 57.62916
#
# Velocity S-wave (km/s) = 6.24255 3.53521 5.07283
# Velocity P-wave (km/s) = 8.57813 6.42434 7.57814
#
# Compressibility (1/GPa) = 0.02064901
#
# Stress axis : x y z
#
# Youngs Moduli (GPa) = 139.61998 103.94516 70.26714
#
# Poissons Ratio (x) = 0.26123 -0.02808
# Poissons Ratio (y) = 0.35089 0.21565
# Poissons Ratio (z) = -0.05579 0.31901
#
# Static dielectric constant tensor:
#      x y z
#    x 1.782530 0.000000 0.000000 
#    y 0.000000 1.841250 0.000000 
#    z 0.000000 0.000000 1.916940 
# 
# From -- ./inp_files/21540.got.cif
#   From: 2010.05.17/outbox.cif.g08.bks.cpg/sg57_11_cif.got.tgz:21540.got - 2010.06.03 13:58:18.
