data_PCOD9439425
_publ_section_title
;
Structure prediction by ZEFSAII (Michael W. Deem and Ramdas Pophale) SiO2 
 PCOD9439425
Probable space group: P B C M
;
_chemical_formula_sum "Si O2"
_cell_formula_units_Z 40
_cell_length_a 8.774859
_cell_length_b 10.743029
_cell_length_c 20.092699
_cell_angle_alpha 90.000000
_cell_angle_beta 90.000000
_cell_angle_gamma 90.000000
_cell_volume 1894.109896
_symmetry_space_group_name_H-M "P B C M"
_symmetry_group_IT_number 57
_symmetry_cell_setting 'orthorhombic'
loop_
_space_group_symop_operation_xyz
x,y,z
-x,-y,1/2+z
x,1/2-y,-z
-x,1/2+y,1/2-z
-x,-y,-z
x,y,1/2-z
-x,1/2+y,z
x,1/2-y,1/2+z
loop_
_atom_site_type_symbol
_atom_site_label
_atom_site_fract_x
_atom_site_fract_y
_atom_site_fract_z
Si Si1 0.409077 0.317743 0.827273
Si Si2 0.160487 0.576998 0.436113
Si Si3 0.764651 0.139422 0.572673
Si Si4 0.897999 0.958520 0.672210
Si Si5 0.548100 0.557544 0.600071
O O1 0.448804 0.322103 0.750000
O O2 0.229343 0.350676 0.834037
O O3 0.441559 0.181026 0.854903
O O4 0.497614 0.430916 0.862794
O O5 0.233477 0.713286 0.423861
O O6 0.121846 0.591563 0.514644
O O7 0.286052 0.469351 0.429138
O O8 0.035345 0.563795 0.378709
O O9 0.596055 0.090857 0.553576
O O10 0.813395 0.080421 0.642750
O O11 0.940264 0.970952 0.750000
#
# Coordination Sequence:
#
# PCOD9439425 Si02
#       5
#     8   8   8   8   8
#     4  10  22  40  63  94 133 169 216 270 327 391
#     4  11  23  41  68  95 129 171 217 266 339 388
#     4  10  23  44  65  95 131 166 222 276 322 390
#     4  10  24  43  64  95 131 173 217 268 326 393
#     4  11  21  42  65  97 124 173 221 270 328 385
#
# _framework density 21.118099000000001
#
# number of rings (size 3 to 8) (size 9 to 14) (size 15 to 20)
#    0.000    1.600    2.000    1.800    2.800    3.200 
#    0.000    0.000    0.000    0.000    0.000    0.000 
#    0.000    0.000    0.000    0.000    0.000    0.000 
#
# Total GULP energy -223130.790784 kJ/mol
# GULP energy per Si atom -5578.269770 kJ/mol
# Density = 2.107003 g / cm^3
# Si number density = 21.118099 Si / 1000 Ang^3
#
#
#
# Elastic Constant Matrix: (Units=GPa)
#
#
# Indices 1 2 3 4 5 6 
#
# 1 47.0113 17.8879 37.1865 0.0000 0.0000 0.0000
# 2 17.8879 103.9670 21.6066 0.0000 0.0000 0.0000
# 3 37.1865 21.6066 102.4689 0.0000 0.0000 0.0000
# 4 0.0000 0.0000 0.0000 29.3501 0.0000 0.0000
# 5 0.0000 0.0000 0.0000 0.0000 30.8941 0.0000
# 6 0.0000 0.0000 0.0000 0.0000 0.0000 19.3919
#
#
#
# Elastic Compliance Matrix: (Units=1/GPa)
#
#
# Indices 1 2 3 4 5 6 
#
# 1 0.030769 -0.003110 -0.010510 0.000000 0.000000 0.000000
# 2 -0.003110 0.010374 -0.001059 0.000000 0.000000 0.000000
# 3 -0.010510 -0.001059 0.013797 0.000000 0.000000 0.000000
# 4 0.000000 0.000000 0.000000 0.034071 0.000000 0.000000
# 5 0.000000 0.000000 0.000000 0.000000 0.032369 0.000000
# 6 0.000000 0.000000 0.000000 0.000000 0.000000 0.051568
#
#
# Mechanical properties :
#
#
# Convention : Reuss Voigt Hill
#
# Bulk Modulus (GPa) = 39.09151 45.20101 42.14626
# Shear Modulus (GPa) = 23.71566 27.71164 25.71365
#
# Velocity S-wave (km/s) = 3.35476 3.62639 3.49322
# Velocity P-wave (km/s) = 5.79284 6.24377 6.02253
#
# Compressibility (1/GPa) = 0.02558100
#
# Stress axis : x y z
#
# Youngs Moduli (GPa) = 32.50074 96.39941 72.48162
#
# Poissons Ratio (x) = 0.29976 0.76181
# Poissons Ratio (y) = 0.10106 0.07675
# Poissons Ratio (z) = 0.34159 0.10208
#
# Static dielectric constant tensor:
#      x y z
#    x 1.844540 0.000000 0.000000 
#    y 0.000000 1.723530 0.000000 
#    z 0.000000 0.000000 1.760830 
# 
# From -- ./inp_files/20512.got.cif
#   From: 2010.05.17/outbox.cif.g08.bks.cpg/sg57_11_cif.got.tgz:20512.got - 2010.06.03 13:58:18.
