data_PCOD9439310
_publ_section_title
;
Structure prediction by ZEFSAII (Michael W. Deem and Ramdas Pophale) SiO2 
 PCOD9439310
Probable space group: P B C M
;
_chemical_formula_sum "Si O2"
_cell_formula_units_Z 36
_cell_length_a 8.988411
_cell_length_b 8.340356
_cell_length_c 21.479750
_cell_angle_alpha 90.000000
_cell_angle_beta 90.000000
_cell_angle_gamma 90.000000
_cell_volume 1610.262701
_symmetry_space_group_name_H-M "P B C M"
_symmetry_group_IT_number 57
_symmetry_cell_setting 'orthorhombic'
loop_
_space_group_symop_operation_xyz
x,y,z
-x,-y,1/2+z
x,1/2-y,-z
-x,1/2+y,1/2-z
-x,-y,-z
x,y,1/2-z
-x,1/2+y,z
x,1/2-y,1/2+z
loop_
_atom_site_type_symbol
_atom_site_label
_atom_site_fract_x
_atom_site_fract_y
_atom_site_fract_z
Si Si1 0.647559 0.249620 0.100843
Si Si2 0.586616 0.750000 0.500000
Si Si3 0.204750 0.296699 0.894558
Si Si4 0.078724 0.957345 0.934158
Si Si5 0.430791 0.046762 0.178177
O O1 0.529706 0.317355 0.050074
O O2 0.797820 0.184127 0.069350
O O3 0.571019 0.099945 0.136607
O O4 0.652515 0.390116 0.151536
O O5 0.696979 0.650114 0.455425
O O6 0.311350 0.312772 0.835784
O O7 0.057680 0.401783 0.891205
O O8 0.156002 0.117578 0.909992
O O9 0.000000 0.000000 0.000000
O O10 0.467876 0.030377 0.250000
#
# Coordination Sequence:
#
# PCOD9439310 Si02
#       5
#     8   4   8   8   8
#     4  11  25  40  72 102 140 182 237 289 358 411
#     4  10  22  38  62 104 132 172 220 290 350 412
#     4  11  24  41  66  99 143 182 233 279 357 413
#     4  12  24  42  65 105 145 184 218 292 363 438
#     4  11  25  47  70 100 140 191 245 290 332 409
#
# _framework density 22.356601999999999
#
# number of rings (size 3 to 8) (size 9 to 14) (size 15 to 20)
#    0.000    0.889    2.222    4.667    6.222    2.667 
#    0.000    6.667    0.000    0.000    0.000    0.000 
#    0.000    0.000    0.000    0.000    0.000    0.000 
#
# Total GULP energy -201011.378115 kJ/mol
# GULP energy per Si atom -5583.649392 kJ/mol
# Density = 2.230572 g / cm^3
# Si number density = 22.356602 Si / 1000 Ang^3
#
#
#
# Elastic Constant Matrix: (Units=GPa)
#
#
# Indices 1 2 3 4 5 6 
#
# 1 138.6690 24.7840 32.4218 0.0000 0.0000 0.0000
# 2 24.7840 86.1277 20.7136 0.0000 0.0000 0.0000
# 3 32.4218 20.7136 88.8347 0.0000 0.0000 0.0000
# 4 0.0000 0.0000 0.0000 24.5409 0.0000 0.0000
# 5 0.0000 0.0000 0.0000 0.0000 17.0987 0.0000
# 6 0.0000 0.0000 0.0000 0.0000 0.0000 44.2819
#
#
#
# Elastic Compliance Matrix: (Units=1/GPa)
#
#
# Indices 1 2 3 4 5 6 
#
# 1 0.008118 -0.001720 -0.002562 0.000000 0.000000 0.000000
# 2 -0.001720 0.012665 -0.002325 0.000000 0.000000 0.000000
# 3 -0.002562 -0.002325 0.012734 0.000000 0.000000 0.000000
# 4 0.000000 0.000000 0.000000 0.040748 0.000000 0.000000
# 5 0.000000 0.000000 0.000000 0.000000 0.058484 0.000000
# 6 0.000000 0.000000 0.000000 0.000000 0.000000 0.022583
#
#
# Mechanical properties :
#
#
# Convention : Reuss Voigt Hill
#
# Bulk Modulus (GPa) = 49.25451 52.16339 50.70895
# Shear Modulus (GPa) = 28.52044 32.89843 30.70944
#
# Velocity S-wave (km/s) = 3.57558 3.84022 3.71026
# Velocity P-wave (km/s) = 6.25504 6.56095 6.40982
#
# Compressibility (1/GPa) = 0.02030271
#
# Stress axis : x y z
#
# Youngs Moduli (GPa) = 123.18690 78.95889 78.52992
#
# Poissons Ratio (x) = 0.13580 0.20117
# Poissons Ratio (y) = 0.21187 0.18261
# Poissons Ratio (z) = 0.31557 0.18361
#
# Static dielectric constant tensor:
#      x y z
#    x 1.844870 0.000000 0.000000 
#    y 0.000000 1.926880 0.000000 
#    z 0.000000 0.000000 1.805270 
# 
# From -- ./inp_files/23984.got.cif
#   From: 2010.05.17/outbox.cif.g08.bks.cpg/sg57_12_cif.got.tgz:23984.got - 2010.06.03 13:58:18.
