data_PCOD9439514
_publ_section_title
;
Structure prediction by ZEFSAII (Michael W. Deem and Ramdas Pophale) SiO2 
 PCOD9439514
Probable space group: P B C M
;
_chemical_formula_sum "Si O2"
_cell_formula_units_Z 40
_cell_length_a 18.619002
_cell_length_b 5.243736
_cell_length_c 17.694758
_cell_angle_alpha 90.000000
_cell_angle_beta 90.000000
_cell_angle_gamma 90.000000
_cell_volume 1727.594627
_symmetry_space_group_name_H-M "P B C M"
_symmetry_group_IT_number 57
_symmetry_cell_setting 'orthorhombic'
loop_
_space_group_symop_operation_xyz
x,y,z
-x,-y,1/2+z
x,1/2-y,-z
-x,1/2+y,1/2-z
-x,-y,-z
x,y,1/2-z
-x,1/2+y,z
x,1/2-y,1/2+z
loop_
_atom_site_type_symbol
_atom_site_label
_atom_site_fract_x
_atom_site_fract_y
_atom_site_fract_z
Si Si1 0.617174 0.500275 0.524010
Si Si2 0.965220 0.412155 0.840376
Si Si3 0.199586 0.416872 0.339404
Si Si4 0.453511 0.114493 0.662946
Si Si5 0.236127 0.599837 0.569437
O O1 0.577290 0.750000 0.500000
O O2 0.614972 0.536799 0.613107
O O3 0.689864 0.483797 0.473602
O O4 0.577522 0.250000 0.500000
O O5 0.978775 0.388213 0.750000
O O6 0.884000 0.504019 0.848015
O O7 0.982791 0.132776 0.871631
O O8 0.213573 0.369254 0.250000
O O9 0.240289 0.670746 0.369873
O O10 0.211060 0.159656 0.389394
O O11 0.432809 0.101357 0.750000
O O12 0.513763 0.895736 0.650162
O O13 0.195510 0.750000 0.500000
#
# Coordination Sequence:
#
# PCOD9439514 Si02
#       5
#     8   8   8   8   8
#     4  11  23  41  63  91 125 166 211 254 312 377
#     4   9  17  31  55  89 123 155 201 262 322 378
#     4  11  22  39  66  94 123 165 217 270 319 376
#     4  10  22  41  66  96 127 160 205 261 314 369
#     4  11  23  42  62  88 128 171 215 262 319 381
#
# _framework density 23.153580999999999
#
# number of rings (size 3 to 8) (size 9 to 14) (size 15 to 20)
#    0.000    1.600    0.000    6.000    0.000    5.600 
#    0.000   14.000    0.000   12.000    0.000    0.000 
#    0.000    0.000    0.000    0.000    0.000    0.000 
#
# Total GULP energy -222829.495921 kJ/mol
# GULP energy per Si atom -5570.737398 kJ/mol
# Density = 2.310088 g / cm^3
# Si number density = 23.153581 Si / 1000 Ang^3
#
#
#
# Elastic Constant Matrix: (Units=GPa)
#
#
# Indices 1 2 3 4 5 6 
#
# 1 35.3232 11.1708 6.3626 0.0000 0.0000 0.0000
# 2 11.1708 162.9659 14.7779 0.0000 0.0000 0.0000
# 3 6.3626 14.7779 87.1916 0.0000 0.0000 0.0000
# 4 0.0000 0.0000 0.0000 42.7286 0.0000 0.0000
# 5 0.0000 0.0000 0.0000 0.0000 -141.9247 0.0000
# 6 0.0000 0.0000 0.0000 0.0000 0.0000 5138.1209
#
#
#
# Elastic Compliance Matrix: (Units=1/GPa)
#
#
# Indices 1 2 3 4 5 6 
#
# 1 0.029219 -0.001838 -0.001821 0.000000 0.000000 0.000000
# 2 -0.001838 0.006348 -0.000942 0.000000 0.000000 0.000000
# 3 -0.001821 -0.000942 0.011761 0.000000 0.000000 0.000000
# 4 0.000000 0.000000 0.000000 0.023404 0.000000 0.000000
# 5 0.000000 0.000000 0.000000 0.000000 -0.007046 0.000000
# 6 0.000000 0.000000 0.000000 0.000000 0.000000 0.000195
#
#
# Mechanical properties :
#
#
# Convention : Reuss Voigt Hill
#
# Bulk Modulus (GPa) = 26.22762 38.90039 32.56400
# Shear Modulus (GPa) = 58.28181 1024.66295 541.47238
#
# Velocity S-wave (km/s) = 5.02260 21.05971 15.30911
# Velocity P-wave (km/s) = 6.70728 24.66142 18.07171
#
# Compressibility (1/GPa) = 0.03812774
#
# Stress axis : x y z
#
# Youngs Moduli (GPa) = 34.22418 157.53929 85.02336
#
# Poissons Ratio (x) = 0.28952 0.15480
# Poissons Ratio (y) = 0.06290 0.08007
# Poissons Ratio (z) = 0.06231 0.14836
#
# Static dielectric constant tensor:
#      x y z
#    x 1.938800 0.000000 0.000000 
#    y 0.000000 1.939360 0.000000 
#    z 0.000000 0.000000 1.969310 
# 
# From -- ./inp_files/22981.got.cif
#   From: 2010.05.17/outbox.cif.g08.bks.cpg/sg57_12_cif.got.tgz:22981.got - 2010.06.03 13:58:18.
