data_PCOD9439294
_publ_section_title
;
Structure prediction by ZEFSAII (Michael W. Deem and Ramdas Pophale) SiO2 
 PCOD9439294
Probable space group: P B C M
;
_chemical_formula_sum "Si O2"
_cell_formula_units_Z 40
_cell_length_a 5.122477
_cell_length_b 28.319225
_cell_length_c 14.115424
_cell_angle_alpha 90.000000
_cell_angle_beta 90.000000
_cell_angle_gamma 90.000000
_cell_volume 2047.648036
_symmetry_space_group_name_H-M "P B C M"
_symmetry_group_IT_number 57
_symmetry_cell_setting 'orthorhombic'
loop_
_space_group_symop_operation_xyz
x,y,z
-x,-y,1/2+z
x,1/2-y,-z
-x,1/2+y,1/2-z
-x,-y,-z
x,y,1/2-z
-x,1/2+y,z
x,1/2-y,1/2+z
loop_
_atom_site_type_symbol
_atom_site_label
_atom_site_fract_x
_atom_site_fract_y
_atom_site_fract_z
Si Si1 0.169743 0.851996 0.987556
Si Si2 0.987337 0.949107 0.953877
Si Si3 0.532367 0.086171 0.141851
Si Si4 0.834391 0.712716 0.359264
Si Si5 0.344113 0.778752 0.358145
O O1 0.931049 0.825806 0.934948
O O2 0.578626 0.756884 0.883563
O O3 0.072680 0.904183 0.019046
O O4 0.298602 0.820978 0.068710
O O5 0.206211 0.944960 0.871911
O O6 0.703353 0.937370 0.914266
O O7 0.000000 0.000000 0.000000
O O8 0.462624 0.091958 0.250000
O O9 0.620534 0.135434 0.094378
O O10 0.809263 0.694841 0.250000
O O11 0.077075 0.749152 0.359163
O O12 0.393908 0.795005 0.250000
#
# Coordination Sequence:
#
# PCOD9439294 Si02
#       5
#     8   8   8   8   8
#     4  10  24  37  69  91 133 170 219 266 335 383
#     4  10  23  41  65  92 132 166 216 271 331 391
#     4  10  22  39  66  97 129 165 211 270 328 385
#     4  10  22  38  59  88 125 166 215 262 314 380
#     4  10  23  40  58  88 130 171 214 258 310 387
#
# _framework density 19.534604999999999
#
# number of rings (size 3 to 8) (size 9 to 14) (size 15 to 20)
#    1.200    0.800    0.000    2.400    5.600    1.600 
#    0.000    2.000    0.000    0.000    0.000    0.000 
#    0.000    0.000    0.000    0.000    0.000    0.000 
#
# Total GULP energy -223188.031590 kJ/mol
# GULP energy per Si atom -5579.700790 kJ/mol
# Density = 1.949014 g / cm^3
# Si number density = 19.534605 Si / 1000 Ang^3
#
#
#
# Elastic Constant Matrix: (Units=GPa)
#
#
# Indices 1 2 3 4 5 6 
#
# 1 97.6681 37.6712 15.4985 0.0000 0.0000 0.0000
# 2 37.6712 150.4935 74.7837 0.0000 0.0000 0.0000
# 3 15.4985 74.7837 90.9384 0.0000 0.0000 0.0000
# 4 0.0000 0.0000 0.0000 15.0077 0.0000 0.0000
# 5 0.0000 0.0000 0.0000 0.0000 24.6638 0.0000
# 6 0.0000 0.0000 0.0000 0.0000 0.0000 23.9809
#
#
#
# Elastic Compliance Matrix: (Units=1/GPa)
#
#
# Indices 1 2 3 4 5 6 
#
# 1 0.011358 -0.003181 0.000680 0.000000 0.000000 0.000000
# 2 -0.003181 0.012128 -0.009431 0.000000 0.000000 0.000000
# 3 0.000680 -0.009431 0.018636 0.000000 0.000000 0.000000
# 4 0.000000 0.000000 0.000000 0.066633 0.000000 0.000000
# 5 0.000000 0.000000 0.000000 0.000000 0.040545 0.000000
# 6 0.000000 0.000000 0.000000 0.000000 0.000000 0.041700
#
#
# Mechanical properties :
#
#
# Convention : Reuss Voigt Hill
#
# Bulk Modulus (GPa) = 54.77090 66.11187 60.44138
# Shear Modulus (GPa) = 22.62966 26.80691 24.71828
#
# Velocity S-wave (km/s) = 3.40728 3.70845 3.56105
# Velocity P-wave (km/s) = 6.60137 7.22867 6.92213
#
# Compressibility (1/GPa) = 0.01825787
#
# Stress axis : x y z
#
# Youngs Moduli (GPa) = 88.04541 82.45661 53.65910
#
# Poissons Ratio (x) = 0.26230 -0.03651
# Poissons Ratio (y) = 0.28008 0.50606
# Poissons Ratio (z) = -0.05990 0.77765
#
# Static dielectric constant tensor:
#      x y z
#    x 1.711160 0.000000 0.000000 
#    y 0.000000 1.694750 0.000000 
#    z 0.000000 0.000000 1.700860 
# 
# From -- ./inp_files/15180.got.cif
#   From: 2010.05.17/outbox.cif.g08.bks.cpg/sg57_8_cif.got.tgz:15180.got - 2010.06.03 13:58:18.
