data_PCOD9439084
_publ_section_title
;
Structure prediction by ZEFSAII (Michael W. Deem and Ramdas Pophale) SiO2 
 PCOD9439084
Probable space group: P B C M
;
_chemical_formula_sum "Si O2"
_cell_formula_units_Z 48
_cell_length_a 5.122366
_cell_length_b 14.858777
_cell_length_c 25.454404
_cell_angle_alpha 90.000000
_cell_angle_beta 90.000000
_cell_angle_gamma 90.000000
_cell_volume 1937.387993
_symmetry_space_group_name_H-M "P B C M"
_symmetry_group_IT_number 57
_symmetry_cell_setting 'orthorhombic'
loop_
_space_group_symop_operation_xyz
x,y,z
-x,-y,1/2+z
x,1/2-y,-z
-x,1/2+y,1/2-z
-x,-y,-z
x,y,1/2-z
-x,1/2+y,z
x,1/2-y,1/2+z
loop_
_atom_site_type_symbol
_atom_site_label
_atom_site_fract_x
_atom_site_fract_y
_atom_site_fract_z
Si Si1 0.090835 0.164039 0.250000
Si Si2 0.545114 0.109357 0.941378
Si Si3 0.152232 0.190686 0.835723
Si Si4 0.076290 0.733910 0.060245
Si Si5 0.577897 0.446965 0.750000
Si Si6 0.804158 0.459725 0.541881
Si Si7 0.669509 0.079098 0.666545
O O1 0.063325 0.224880 0.198695
O O2 0.395468 0.139638 0.250000
O O3 0.878916 0.083520 0.250000
O O4 0.647892 0.211768 0.937500
O O5 0.714792 0.061299 0.895391
O O6 0.292106 0.048481 0.928888
O O7 0.589899 0.086530 0.002701
O O8 0.451255 0.159020 0.830087
O O9 0.099280 0.219247 0.895835
O O10 0.952966 0.112944 0.816130
O O11 0.094419 0.627886 0.071779
O O12 0.979570 0.750000 0.000000
O O13 0.469139 0.502049 0.800248
O O14 0.000000 0.500000 0.500000
#
# Coordination Sequence:
#
# PCOD9439084 Si02
#       7
#     4   8   8   8   4   8   8
#     4  12  26  44  70 106 138 166 236 278 366 394
#     4   9  22  40  61  94 132 176 228 282 343 416
#     4  11  24  46  69 101 136 185 225 292 338 429
#     4   9  21  42  63  99 135 182 238 275 357 412
#     4  12  26  44  72 104 134 180 220 300 338 430
#     4  10  21  40  63  94 135 179 229 291 339 408
#     4  11  24  44  72  92 137 178 232 268 357 408
#
# _framework density 24.775625999999999
#
# number of rings (size 3 to 8) (size 9 to 14) (size 15 to 20)
#    0.000    1.667    0.000    3.000    9.333    1.333 
#   21.000    0.000    0.000    0.000    0.000    0.000 
#    0.000    0.000    0.000    0.000    0.000    0.000 
#
# Total GULP energy -267480.074416 kJ/mol
# GULP energy per Si atom -5572.501550 kJ/mol
# Density = 2.471924 g / cm^3
# Si number density = 24.775626 Si / 1000 Ang^3
#
#
#
# Elastic Constant Matrix: (Units=GPa)
#
#
# Indices 1 2 3 4 5 6 
#
# 1 91.9754 15.5226 -8.6840 0.0000 0.0000 0.0000
# 2 15.5226 123.4974 4.6919 0.0000 0.0000 0.0000
# 3 -8.6840 4.6919 92.8656 0.0000 0.0000 0.0000
# 4 0.0000 0.0000 0.0000 14.5804 0.0000 0.0000
# 5 0.0000 0.0000 0.0000 0.0000 23.4186 0.0000
# 6 0.0000 0.0000 0.0000 0.0000 0.0000 49.4101
#
#
#
# Elastic Compliance Matrix: (Units=1/GPa)
#
#
# Indices 1 2 3 4 5 6 
#
# 1 0.011224 -0.001453 0.001123 0.000000 0.000000 0.000000
# 2 -0.001453 0.008301 -0.000555 0.000000 0.000000 0.000000
# 3 0.001123 -0.000555 0.010901 0.000000 0.000000 0.000000
# 4 0.000000 0.000000 0.000000 0.068585 0.000000 0.000000
# 5 0.000000 0.000000 0.000000 0.000000 0.042701 0.000000
# 6 0.000000 0.000000 0.000000 0.000000 0.000000 0.020239
#
#
# Mechanical properties :
#
#
# Convention : Reuss Voigt Hill
#
# Bulk Modulus (GPa) = 34.89821 36.82215 35.86018
# Shear Modulus (GPa) = 28.85594 37.26901 33.06248
#
# Velocity S-wave (km/s) = 3.41646 3.88269 3.65701
# Velocity P-wave (km/s) = 5.44786 5.91565 5.68657
#
# Compressibility (1/GPa) = 0.02865476
#
# Stress axis : x y z
#
# Youngs Moduli (GPa) = 89.09650 120.46579 91.73207
#
# Poissons Ratio (x) = 0.17508 -0.10301
# Poissons Ratio (y) = 0.12949 0.05094
# Poissons Ratio (z) = -0.10005 0.06690
#
# Static dielectric constant tensor:
#      x y z
#    x 2.080880 0.000000 0.000000 
#    y 0.000000 2.010720 0.000000 
#    z 0.000000 0.000000 2.078790 
# 
# From -- ./inp_files/27982.got.cif
#   From: 2010.05.17/outbox.cif.g08.bks.cpg/sg57_14_cif.got.tgz:27982.got - 2010.06.03 13:58:18.
