data_PCOD9439928
_publ_section_title
;
Structure prediction by ZEFSAII (Michael W. Deem and Ramdas Pophale) SiO2 
 PCOD9439928
Probable space group: P B C M
;
_chemical_formula_sum "Si O2"
_cell_formula_units_Z 32
_cell_length_a 28.727399
_cell_length_b 4.749977
_cell_length_c 9.115386
_cell_angle_alpha 90.000000
_cell_angle_beta 90.000000
_cell_angle_gamma 90.000000
_cell_volume 1243.835298
_symmetry_space_group_name_H-M "P B C M"
_symmetry_group_IT_number 57
_symmetry_cell_setting 'orthorhombic'
loop_
_space_group_symop_operation_xyz
x,y,z
-x,-y,1/2+z
x,1/2-y,-z
-x,1/2+y,1/2-z
-x,-y,-z
x,y,1/2-z
-x,1/2+y,z
x,1/2-y,1/2+z
loop_
_atom_site_type_symbol
_atom_site_label
_atom_site_fract_x
_atom_site_fract_y
_atom_site_fract_z
Si Si1 0.103434 0.504491 0.250000
Si Si2 0.165143 0.992170 0.250000
Si Si3 0.711393 0.930309 0.250000
Si Si4 0.227337 0.250000 0.500000
Si Si5 0.352026 0.937940 0.250000
Si Si6 0.469054 0.963696 0.750000
Si Si7 0.037518 0.750000 0.000000
Si Si8 0.590651 0.750000 0.000000
O O1 0.117139 0.177205 0.250000
O O2 0.073554 0.618389 0.384119
O O3 0.152300 0.667022 0.250000
O O4 0.194522 0.077150 0.391129
O O5 0.740961 0.952297 0.397924
O O6 0.696343 0.604199 0.250000
O O7 0.664243 0.115085 0.250000
O O8 0.379114 0.048028 0.393750
O O9 0.517503 0.137860 0.750000
O O10 0.440995 0.060516 0.607211
O O11 0.000000 0.500000 0.000000
#
# Coordination Sequence:
#
# PCOD9439928 Si02
#       8
#     4   4   4   4   4   4   4   4
#     4  12  24  42  66  95 131 174 222 278 340 407
#     4  11  24  43  67  98 132 173 225 282 343 411
#     4  11  26  45  70 100 138 182 229 285 350 418
#     4  10  25  45  70 100 136 178 228 286 348 417
#     4  11  26  45  68 101 140 183 233 285 346 416
#     4  11  24  43  69 102 139 184 233 288 347 412
#     4  12  24  41  64  94 131 174 221 274 336 407
#     4  10  25  44  70 102 141 186 235 290 348 414
#
# _framework density 25.726877999999999
#
# number of rings (size 3 to 8) (size 9 to 14) (size 15 to 20)
#    0.000    1.000    0.000    5.250    0.000   16.000 
#    0.000    3.750    0.000    0.000    0.000    0.000 
#    0.000    0.000    0.000    0.000    0.000    0.000 
#
# Total GULP energy -179397.969450 kJ/mol
# GULP energy per Si atom -5606.186545 kJ/mol
# Density = 2.566832 g / cm^3
# Si number density = 25.726878 Si / 1000 Ang^3
#
#
#
# Elastic Constant Matrix: (Units=GPa)
#
#
# Indices 1 2 3 4 5 6 
#
# 1 109.4114 18.7220 56.7909 0.0000 0.0000 0.0000
# 2 18.7220 108.6128 7.5407 0.0000 0.0000 0.0000
# 3 56.7909 7.5407 156.2130 0.0000 0.0000 0.0000
# 4 0.0000 0.0000 0.0000 17.3017 0.0000 0.0000
# 5 0.0000 0.0000 0.0000 0.0000 50.7270 0.0000
# 6 0.0000 0.0000 0.0000 0.0000 0.0000 56.2660
#
#
#
# Elastic Compliance Matrix: (Units=1/GPa)
#
#
# Indices 1 2 3 4 5 6 
#
# 1 0.011573 -0.001709 -0.004125 0.000000 0.000000 0.000000
# 2 -0.001709 0.009490 0.000163 0.000000 0.000000 0.000000
# 3 -0.004125 0.000163 0.007893 0.000000 0.000000 0.000000
# 4 0.000000 0.000000 0.000000 0.057798 0.000000 0.000000
# 5 0.000000 0.000000 0.000000 0.000000 0.019713 0.000000
# 6 0.000000 0.000000 0.000000 0.000000 0.000000 0.017773
#
#
# Mechanical properties :
#
#
# Convention : Reuss Voigt Hill
#
# Bulk Modulus (GPa) = 56.76727 60.03827 58.40277
# Shear Modulus (GPa) = 35.34733 44.27120 39.80926
#
# Velocity S-wave (km/s) = 3.71070 4.15277 3.93794
# Velocity P-wave (km/s) = 6.36178 6.81039 6.58991
#
# Compressibility (1/GPa) = 0.01761578
#
# Stress axis : x y z
#
# Youngs Moduli (GPa) = 86.40601 105.37180 126.69022
#
# Poissons Ratio (x) = 0.18003 0.52259
# Poissons Ratio (y) = 0.14763 -0.02065
# Poissons Ratio (z) = 0.35642 -0.01718
#
# Static dielectric constant tensor:
#      x y z
#    x 1.934230 0.000000 0.000000 
#    y 0.000000 1.930790 0.000000 
#    z 0.000000 0.000000 2.003550 
# 
# From -- ./inp_files/9619.got.cif
#   From: 2010.05.17/outbox.cif.g08.bks.cpg/sg57_5_cif.got.tgz:9619.got - 2010.06.03 13:58:18.
