data_PCOD9439105
_publ_section_title
;
Structure prediction by ZEFSAII (Michael W. Deem and Ramdas Pophale) SiO2 
 PCOD9439105
Probable space group: P B C M
;
_chemical_formula_sum "Si O2"
_cell_formula_units_Z 48
_cell_length_a 9.744534
_cell_length_b 17.150972
_cell_length_c 14.489110
_cell_angle_alpha 90.000000
_cell_angle_beta 90.000000
_cell_angle_gamma 90.000000
_cell_volume 2421.539305
_symmetry_space_group_name_H-M "P B C M"
_symmetry_group_IT_number 57
_symmetry_cell_setting 'orthorhombic'
loop_
_space_group_symop_operation_xyz
x,y,z
-x,-y,1/2+z
x,1/2-y,-z
-x,1/2+y,1/2-z
-x,-y,-z
x,y,1/2-z
-x,1/2+y,z
x,1/2-y,1/2+z
loop_
_atom_site_type_symbol
_atom_site_label
_atom_site_fract_x
_atom_site_fract_y
_atom_site_fract_z
Si Si1 0.933761 0.830973 0.051699
Si Si2 0.391000 0.668347 0.250000
Si Si3 0.751450 0.113370 0.950285
Si Si4 0.061290 0.135730 0.750000
Si Si5 0.722997 0.506585 0.750000
Si Si6 0.690529 0.552324 0.539006
Si Si7 0.490913 0.673180 0.450522
Si Si8 0.737600 0.337776 0.250000
O O1 0.894253 0.820212 0.158634
O O2 0.822985 0.893688 0.020248
O O3 0.087898 0.865358 0.047661
O O4 0.928355 0.750000 0.000000
O O5 0.304435 0.586849 0.250000
O O6 0.486434 0.672871 0.340611
O O7 0.294558 0.745426 0.250000
O O8 0.689242 0.127934 0.847960
O O9 0.668031 0.167475 0.020198
O O10 0.724076 0.027473 0.987341
O O11 0.125180 0.048081 0.750000
O O12 0.897638 0.139260 0.750000
O O13 0.668415 0.536450 0.649400
O O14 0.565112 0.598289 0.493418
O O15 0.550327 0.750000 0.500000
#
# Coordination Sequence:
#
# PCOD9439105 Si02
#       8
#     8   4   8   4   4   8   8   4
#     4  10  21  40  64  92 128 170 210 262 318 381
#     4  12  24  40  68  96 124 168 220 265 317 384
#     4  11  22  40  64  94 125 166 215 258 315 376
#     4   8  20  38  60  92 126 162 209 256 320 371
#     4  10  22  40  65  90 127 168 213 259 322 386
#     4  11  24  42  63  94 131 168 209 268 325 379
#     4  12  25  43  64  95 126 165 217 264 317 381
#     4  10  22  40  63  94 131 166 206 268 315 375
#
# _framework density 19.822102999999998
#
# number of rings (size 3 to 8) (size 9 to 14) (size 15 to 20)
#    0.000    1.333    3.333    2.000    2.333    2.000 
#    0.000    3.333    0.000    0.000    0.000    0.000 
#    0.000    0.000    0.000    0.000    0.000    0.000 
#
# Total GULP energy -267645.949852 kJ/mol
# GULP energy per Si atom -5575.957289 kJ/mol
# Density = 1.977699 g / cm^3
# Si number density = 19.822103 Si / 1000 Ang^3
#
#
#
# Elastic Constant Matrix: (Units=GPa)
#
#
# Indices 1 2 3 4 5 6 
#
# 1 68.2469 45.1472 37.3938 0.0000 0.0000 0.0000
# 2 45.1472 171.4976 83.4542 0.0000 0.0000 0.0000
# 3 37.3938 83.4542 163.3798 0.0000 0.0000 0.0000
# 4 0.0000 0.0000 0.0000 31.9301 0.0000 0.0000
# 5 0.0000 0.0000 0.0000 0.0000 17.7401 0.0000
# 6 0.0000 0.0000 0.0000 0.0000 0.0000 24.3029
#
#
#
# Elastic Compliance Matrix: (Units=1/GPa)
#
#
# Indices 1 2 3 4 5 6 
#
# 1 0.018374 -0.003714 -0.002308 0.000000 0.000000 0.000000
# 2 -0.003714 0.008510 -0.003497 0.000000 0.000000 0.000000
# 3 -0.002308 -0.003497 0.008435 0.000000 0.000000 0.000000
# 4 0.000000 0.000000 0.000000 0.031318 0.000000 0.000000
# 5 0.000000 0.000000 0.000000 0.000000 0.056369 0.000000
# 6 0.000000 0.000000 0.000000 0.000000 0.000000 0.041147
#
#
# Mechanical properties :
#
#
# Convention : Reuss Voigt Hill
#
# Bulk Modulus (GPa) = 61.41969 81.67942 71.54956
# Shear Modulus (GPa) = 26.50820 30.60324 28.55572
#
# Velocity S-wave (km/s) = 3.66089 3.93351 3.79964
# Velocity P-wave (km/s) = 6.99444 7.86928 7.44472
#
# Compressibility (1/GPa) = 0.01628142
#
# Stress axis : x y z
#
# Youngs Moduli (GPa) = 54.42395 117.50323 118.54818
#
# Poissons Ratio (x) = 0.43637 0.27367
# Poissons Ratio (y) = 0.20212 0.41458
# Poissons Ratio (z) = 0.12564 0.41092
#
# Static dielectric constant tensor:
#      x y z
#    x 1.719580 0.000000 0.000000 
#    y 0.000000 1.703900 0.000000 
#    z 0.000000 0.000000 1.794070 
# 
# From -- ./inp_files/16448.got.cif
#   From: 2010.05.17/outbox.cif.g08.bks.cpg/sg57_9_cif.got.tgz:16448.got - 2010.06.03 13:58:18.
