data_PCOD9439965
_publ_section_title
;
Structure prediction by ZEFSAII (Michael W. Deem and Ramdas Pophale) SiO2 
 PCOD9439965
Probable space group: P B C M
;
_chemical_formula_sum "Si O2"
_cell_formula_units_Z 40
_cell_length_a 9.695862
_cell_length_b 10.757845
_cell_length_c 17.077816
_cell_angle_alpha 90.000000
_cell_angle_beta 90.000000
_cell_angle_gamma 90.000000
_cell_volume 1781.328590
_symmetry_space_group_name_H-M "P B C M"
_symmetry_group_IT_number 57
_symmetry_cell_setting 'orthorhombic'
loop_
_space_group_symop_operation_xyz
x,y,z
-x,-y,1/2+z
x,1/2-y,-z
-x,1/2+y,1/2-z
-x,-y,-z
x,y,1/2-z
-x,1/2+y,z
x,1/2-y,1/2+z
loop_
_atom_site_type_symbol
_atom_site_label
_atom_site_fract_x
_atom_site_fract_y
_atom_site_fract_z
Si Si1 0.251805 0.263929 0.618603
Si Si2 0.449323 0.333306 0.750000
Si Si3 0.946091 0.692391 0.250000
Si Si4 0.169791 0.488796 0.417334
Si Si5 0.759372 0.103626 0.250000
Si Si6 0.760413 0.445391 0.250000
Si Si7 0.162329 0.541825 0.583291
O O1 0.385003 0.267442 0.674017
O O2 0.243729 0.143358 0.566070
O O3 0.226002 0.403233 0.590467
O O4 0.119696 0.243519 0.675492
O O5 0.611514 0.333430 0.750000
O O6 0.380887 0.472323 0.750000
O O7 0.107023 0.690230 0.250000
O O8 0.882696 0.552297 0.250000
O O9 0.224798 0.531656 0.332698
O O10 0.193973 0.578391 0.492883
O O11 0.003882 0.471425 0.412623
O O12 0.779412 0.391042 0.161669
#
# Coordination Sequence:
#
# PCOD9439965 Si02
#       7
#     8   4   4   8   4   4   8
#     4   9  17  36  52  77 110 154 182 232 284 357
#     4   8  19  31  54  69 108 153 189 221 281 328
#     4   8  15  29  52  71 104 142 178 226 294 300
#     4  11  19  29  60  87 111 146 201 225 297 347
#     4  12  18  33  52  83 113 150 186 246 268 336
#     4   8  14  35  50  71 107 145 173 227 289 326
#     4   9  18  32  54  91 109 141 186 254 276 336
#
# _framework density 22.45515
#
# number of rings (size 3 to 8) (size 9 to 14) (size 15 to 20)
#    0.000    3.200    4.000    1.800    0.000    0.000 
#    0.000    4.000   17.600    0.000   15.600    0.000 
#    0.000    0.000    0.000    0.000    0.000    0.000 
#
# Total GULP energy -222684.951861 kJ/mol
# GULP energy per Si atom -5567.123797 kJ/mol
# Density = 2.240404 g / cm^3
# Si number density = 22.455150 Si / 1000 Ang^3
#
#
#
# Elastic Constant Matrix: (Units=GPa)
#
#
# Indices 1 2 3 4 5 6 
#
# 1 135.7241 8.6759 21.2594 0.0000 0.0000 0.0000
# 2 8.6759 30.0510 16.8526 0.0000 0.0000 0.0000
# 3 21.2594 16.8526 142.5121 0.0000 0.0000 0.0000
# 4 0.0000 0.0000 0.0000 15.0265 0.0000 0.0000
# 5 0.0000 0.0000 0.0000 0.0000 -35.1665 0.0000
# 6 0.0000 0.0000 0.0000 0.0000 0.0000 52.0042
#
#
#
# Elastic Compliance Matrix: (Units=1/GPa)
#
#
# Indices 1 2 3 4 5 6 
#
# 1 0.007622 -0.001674 -0.000939 0.000000 0.000000 0.000000
# 2 -0.001674 0.036008 -0.004008 0.000000 0.000000 0.000000
# 3 -0.000939 -0.004008 0.007631 0.000000 0.000000 0.000000
# 4 0.000000 0.000000 0.000000 0.066549 0.000000 0.000000
# 5 0.000000 0.000000 0.000000 0.000000 -0.028436 0.000000
# 6 0.000000 0.000000 0.000000 0.000000 0.000000 0.019229
#
#
# Mechanical properties :
#
#
# Convention : Reuss Voigt Hill
#
# Bulk Modulus (GPa) = 26.30310 44.65144 35.47727
# Shear Modulus (GPa) = 37.16955 23.80613 30.48784
#
# Velocity S-wave (km/s) = 4.07293 3.25955 3.68872
# Velocity P-wave (km/s) = 5.81871 5.83901 5.82887
#
# Compressibility (1/GPa) = 0.03801834
#
# Stress axis : x y z
#
# Youngs Moduli (GPa) = 131.19946 27.77163 131.04366
#
# Poissons Ratio (x) = 0.04649 0.12306
# Poissons Ratio (y) = 0.21961 0.52527
# Poissons Ratio (z) = 0.12321 0.11132
#
# Static dielectric constant tensor:
#      x y z
#    x 1.761780 0.000000 0.000000 
#    y 0.000000 1.880300 0.000000 
#    z 0.000000 0.000000 1.939540 
# 
# From -- ./inp_files/20773.got.cif
#   From: 2010.05.17/outbox.cif.g08.bks.cpg/sg57_11_cif.got.tgz:20773.got - 2010.06.03 13:58:18.
