data_PCOD9439033
_publ_section_title
;
Structure prediction by ZEFSAII (Michael W. Deem and Ramdas Pophale) SiO2 
 PCOD9439033
Probable space group: P B C M
;
_chemical_formula_sum "Si O2"
_cell_formula_units_Z 56
_cell_length_a 15.666568
_cell_length_b 5.234812
_cell_length_c 28.541853
_cell_angle_alpha 90.000000
_cell_angle_beta 90.000000
_cell_angle_gamma 90.000000
_cell_volume 2340.761267
_symmetry_space_group_name_H-M "P B C M"
_symmetry_group_IT_number 57
_symmetry_cell_setting 'orthorhombic'
loop_
_space_group_symop_operation_xyz
x,y,z
-x,-y,1/2+z
x,1/2-y,-z
-x,1/2+y,1/2-z
-x,-y,-z
x,y,1/2-z
-x,1/2+y,z
x,1/2-y,1/2+z
loop_
_atom_site_type_symbol
_atom_site_label
_atom_site_fract_x
_atom_site_fract_y
_atom_site_fract_z
Si Si1 0.798545 0.978027 0.624439
Si Si2 0.109074 0.408431 0.195902
Si Si3 0.453743 0.691899 0.066163
Si Si4 0.714040 0.488023 0.471494
Si Si5 0.451541 0.617518 0.178662
Si Si6 0.275673 0.753466 0.200850
Si Si7 0.026609 0.611770 0.883745
O O1 0.843382 0.789397 0.661521
O O2 0.766178 0.910647 0.573621
O O3 0.720027 0.081032 0.654349
O O4 0.874532 0.183012 0.617526
O O5 0.088832 0.328932 0.250000
O O6 0.182409 0.623568 0.201122
O O7 0.022408 0.462000 0.165753
O O8 0.524889 0.901882 0.050980
O O9 0.368152 0.831161 0.048578
O O10 0.451008 0.649249 0.122213
O O11 0.697289 0.750000 0.500000
O O12 0.757872 0.250000 0.500000
O O13 0.513000 0.390917 0.194391
O O14 0.355749 0.566907 0.196376
O O15 0.282703 0.898494 0.250000
O O16 0.023047 0.337742 0.908245
#
# Coordination Sequence:
#
# PCOD9439033 Si02
#       7
#     8   8   8   8   8   8   8
#     4  11  24  44  68  96 146 181 228 284 358 411
#     4  10  23  40  69 107 140 180 232 285 350 419
#     4  10  21  40  67  96 130 169 219 288 362 414
#     4  12  28  44  71 102 133 182 237 289 352 428
#     4  10  23  41  64  93 132 185 228 275 333 403
#     4  11  23  40  67 101 136 185 232 278 340 418
#     4  10  21  39  66  98 134 180 216 273 346 405
#
# _framework density 23.923839999999998
#
# number of rings (size 3 to 8) (size 9 to 14) (size 15 to 20)
#    0.000    1.429    2.857    1.286    4.000    6.286 
#    0.000    0.000    0.000   10.286    0.000    0.000 
#    0.000    0.000    0.000    0.000    0.000    0.000 
#
# Total GULP energy -311863.448162 kJ/mol
# GULP energy per Si atom -5568.990146 kJ/mol
# Density = 2.386939 g / cm^3
# Si number density = 23.923840 Si / 1000 Ang^3
#
#
#
# Elastic Constant Matrix: (Units=GPa)
#
#
# Indices 1 2 3 4 5 6 
#
# 1 73.5862 -1.1071 20.0521 0.0000 0.0000 0.0000
# 2 -1.1071 96.1893 24.2685 0.0000 0.0000 0.0000
# 3 20.0521 24.2685 114.4558 0.0000 0.0000 0.0000
# 4 0.0000 0.0000 0.0000 11.3047 0.0000 0.0000
# 5 0.0000 0.0000 0.0000 0.0000 78.1363 0.0000
# 6 0.0000 0.0000 0.0000 0.0000 0.0000 27.2385
#
#
#
# Elastic Compliance Matrix: (Units=1/GPa)
#
#
# Indices 1 2 3 4 5 6 
#
# 1 0.014335 0.000844 -0.002690 0.000000 0.000000 0.000000
# 2 0.000844 0.011033 -0.002487 0.000000 0.000000 0.000000
# 3 -0.002690 -0.002487 0.009736 0.000000 0.000000 0.000000
# 4 0.000000 0.000000 0.000000 0.088459 0.000000 0.000000
# 5 0.000000 0.000000 0.000000 0.000000 0.012798 0.000000
# 6 0.000000 0.000000 0.000000 0.000000 0.000000 0.036713
#
#
# Mechanical properties :
#
#
# Convention : Reuss Voigt Hill
#
# Bulk Modulus (GPa) = 37.82623 41.18425 39.50524
# Shear Modulus (GPa) = 26.23926 39.40375 32.82151
#
# Velocity S-wave (km/s) = 3.31536 4.06279 3.70796
# Velocity P-wave (km/s) = 5.52277 6.26582 5.90599
#
# Compressibility (1/GPa) = 0.02643668
#
# Stress axis : x y z
#
# Youngs Moduli (GPa) = 69.75772 90.63376 102.71450
#
# Poissons Ratio (x) = -0.07647 0.27634
# Poissons Ratio (y) = -0.05886 0.25548
# Poissons Ratio (z) = 0.18768 0.22543
#
# Static dielectric constant tensor:
#      x y z
#    x 1.971970 0.000000 0.000000 
#    y 0.000000 2.026620 0.000000 
#    z 0.000000 0.000000 1.978970 
# 
# From -- ./inp_files/29858.got.cif
#   From: 2010.05.17/outbox.cif.g08.bks.cpg/sg57_15_cif.got.tgz:29858.got - 2010.06.03 13:58:18.
