data_PCOD9439472
_publ_section_title
;
Structure prediction by ZEFSAII (Michael W. Deem and Ramdas Pophale) SiO2 
 PCOD9439472
Probable space group: P B C M
;
_chemical_formula_sum "Si O2"
_cell_formula_units_Z 60
_cell_length_a 6.214363
_cell_length_b 26.785151
_cell_length_c 17.272893
_cell_angle_alpha 90.000000
_cell_angle_beta 90.000000
_cell_angle_gamma 90.000000
_cell_volume 2875.118836
_symmetry_space_group_name_H-M "P B C M"
_symmetry_group_IT_number 57
_symmetry_cell_setting 'orthorhombic'
loop_
_space_group_symop_operation_xyz
x,y,z
-x,-y,1/2+z
x,1/2-y,-z
-x,1/2+y,1/2-z
-x,-y,-z
x,y,1/2-z
-x,1/2+y,z
x,1/2-y,1/2+z
loop_
_atom_site_type_symbol
_atom_site_label
_atom_site_fract_x
_atom_site_fract_y
_atom_site_fract_z
Si Si1 0.860911 0.054091 0.250000
Si Si2 0.037240 0.374401 0.455552
Si Si3 0.270301 0.716567 0.563427
Si Si4 0.823072 0.613479 0.129905
Si Si5 0.058478 0.225520 0.335694
Si Si6 0.198151 0.530335 0.961434
Si Si7 0.464223 0.540826 0.115946
Si Si8 0.646434 0.823157 0.161875
O O1 0.708867 0.028690 0.318645
O O2 0.006601 0.083247 0.317883
O O3 0.129311 0.391324 0.538378
O O4 0.220332 0.358662 0.395304
O O5 0.885503 0.326460 0.469099
O O6 0.900053 0.420423 0.423356
O O7 0.395264 0.750000 0.500000
O O8 0.122195 0.757265 0.605232
O O9 0.418533 0.688642 0.624421
O O10 0.586780 0.590855 0.143406
O O11 0.840453 0.671940 0.148009
O O12 0.960668 0.223879 0.250000
O O13 0.231870 0.269800 0.337378
O O14 0.343595 0.498454 0.902302
O O15 0.348174 0.546859 0.033300
O O16 0.000000 0.500000 0.000000
O O17 0.635640 0.841513 0.250000
#
# Coordination Sequence:
#
# PCOD9439472 Si02
#       8
#     4   8   8   8   8   8   8   8
#     4  12  24  42  62 104 146 174 216 286 352 418
#     4  11  24  42  70  93 132 174 231 285 342 404
#     4  11  23  38  65  97 131 175 225 282 335 408
#     4  12  23  41  66 104 143 176 220 285 344 421
#     4  10  22  41  60  92 136 180 216 272 342 404
#     4  11  23  46  71  96 129 174 234 297 348 417
#     4  11  25  41  71 100 133 181 225 279 364 424
#     4  10  25  43  63  91 132 177 230 279 331 410
#
# _framework density 20.868701999999999
#
# number of rings (size 3 to 8) (size 9 to 14) (size 15 to 20)
#    0.000    1.067    4.667    0.800    3.733    1.600 
#    3.600    0.000    5.867    0.000    0.000    0.000 
#    0.000    0.000    0.000    0.000    0.000    0.000 
#
# Total GULP energy -334123.105903 kJ/mol
# GULP energy per Si atom -5568.718432 kJ/mol
# Density = 2.082120 g / cm^3
# Si number density = 20.868702 Si / 1000 Ang^3
#
#
#
# Elastic Constant Matrix: (Units=GPa)
#
#
# Indices 1 2 3 4 5 6 
#
# 1 50.2726 17.7769 20.3739 0.0000 0.0000 0.0000
# 2 17.7769 73.1592 18.5722 0.0000 0.0000 0.0000
# 3 20.3739 18.5722 84.5158 0.0000 0.0000 0.0000
# 4 0.0000 0.0000 0.0000 30.0085 0.0000 0.0000
# 5 0.0000 0.0000 0.0000 0.0000 14.4620 0.0000
# 6 0.0000 0.0000 0.0000 0.0000 0.0000 8.6784
#
#
#
# Elastic Compliance Matrix: (Units=1/GPa)
#
#
# Indices 1 2 3 4 5 6 
#
# 1 0.023364 -0.004498 -0.004644 0.000000 0.000000 0.000000
# 2 -0.004498 0.015342 -0.002287 0.000000 0.000000 0.000000
# 3 -0.004644 -0.002287 0.013454 0.000000 0.000000 0.000000
# 4 0.000000 0.000000 0.000000 0.033324 0.000000 0.000000
# 5 0.000000 0.000000 0.000000 0.000000 0.069147 0.000000
# 6 0.000000 0.000000 0.000000 0.000000 0.000000 0.115229
#
#
# Mechanical properties :
#
#
# Convention : Reuss Voigt Hill
#
# Bulk Modulus (GPa) = 34.12701 35.71041 34.91871
# Shear Modulus (GPa) = 16.52968 20.71142 18.62055
#
# Velocity S-wave (km/s) = 2.81744 3.15376 2.99033
# Velocity P-wave (km/s) = 5.19352 5.51459 5.35646
#
# Compressibility (1/GPa) = 0.02930230
#
# Stress axis : x y z
#
# Youngs Moduli (GPa) = 42.80053 65.17854 74.32652
#
# Poissons Ratio (x) = 0.29320 0.34516
# Poissons Ratio (y) = 0.19253 0.16999
# Poissons Ratio (z) = 0.19876 0.14907
#
# Static dielectric constant tensor:
#      x y z
#    x 1.774940 0.000000 0.000000 
#    y 0.000000 1.779380 0.000000 
#    z 0.000000 0.000000 1.764520 
# 
# From -- ./inp_files/20278.got.cif
#   From: 2010.05.17/outbox.cif.g08.bks.cpg/sg57_11_cif.got.tgz:20278.got - 2010.06.03 13:58:18.
