data_PCOD9439473
_publ_section_title
;
Structure prediction by ZEFSAII (Michael W. Deem and Ramdas Pophale) SiO2 
 PCOD9439473
Probable space group: P B C M
;
_chemical_formula_sum "Si O2"
_cell_formula_units_Z 64
_cell_length_a 12.286267
_cell_length_b 32.143327
_cell_length_c 8.754598
_cell_angle_alpha 90.000000
_cell_angle_beta 90.000000
_cell_angle_gamma 90.000000
_cell_volume 3457.378955
_symmetry_space_group_name_H-M "P B C M"
_symmetry_group_IT_number 57
_symmetry_cell_setting 'orthorhombic'
loop_
_space_group_symop_operation_xyz
x,y,z
-x,-y,1/2+z
x,1/2-y,-z
-x,1/2+y,1/2-z
-x,-y,-z
x,y,1/2-z
-x,1/2+y,z
x,1/2-y,1/2+z
loop_
_atom_site_type_symbol
_atom_site_label
_atom_site_fract_x
_atom_site_fract_y
_atom_site_fract_z
Si Si1 0.406937 0.627999 0.433408
Si Si2 0.607837 0.979463 0.570296
Si Si3 0.869785 0.875286 0.934817
Si Si4 0.990031 0.294714 0.934324
Si Si5 0.248991 0.559281 0.570878
Si Si6 0.637667 0.889606 0.431191
Si Si7 0.983565 0.046283 0.067082
Si Si8 0.261229 0.706034 0.066440
O O1 0.408340 0.624733 0.250000
O O2 0.341338 0.588920 0.501251
O O3 0.528969 0.629491 0.495656
O O4 0.338764 0.668562 0.479810
O O5 0.590420 0.970168 0.750000
O O6 0.634226 0.937885 0.480121
O O7 0.500000 0.000000 0.500000
O O8 0.705345 0.012447 0.558525
O O9 0.863558 0.875995 0.750000
O O10 0.940355 0.834926 0.980312
O O11 0.928455 0.918670 0.981547
O O12 0.749805 0.872063 0.002982
O O13 0.992935 0.292319 0.750000
O O14 0.864054 0.301103 0.982059
O O15 0.026113 0.250000 0.000000
O O16 0.234484 0.568724 0.750000
O O17 0.135009 0.562480 0.484215
O O18 0.633691 0.885514 0.250000
O O19 0.988338 0.043276 0.250000
O O20 0.000000 0.000000 0.000000
O O21 0.261697 0.708091 0.250000
O O22 0.297271 0.750000 0.000000
#
# Coordination Sequence:
#
# PCOD9439473 Si02
#       8
#     8   8   8   8   8   8   8   8
#     4  11  22  38  60  84 114 151 192 234 285 343
#     4  11  22  37  57  81 113 153 196 240 287 341
#     4  10  22  41  61  82 115 159 200 241 293 356
#     4   9  18  36  62  90 118 146 186 236 291 353
#     4  11  23  37  57  86 116 147 191 240 289 341
#     4  12  25  39  57  84 116 152 198 246 293 346
#     4  11  23  39  59  84 117 156 198 242 293 351
#     4   9  19  36  60  90 118 148 182 227 287 348
#
# _framework density 18.511132
#
# number of rings (size 3 to 8) (size 9 to 14) (size 15 to 20)
#    0.000    1.500    1.250    4.125    0.000    9.000 
#    0.000    3.125    0.000    0.000    0.000    0.000 
#    0.000    0.000    0.000    0.000    0.000    0.000 
#
# Total GULP energy -357661.291743 kJ/mol
# GULP energy per Si atom -5588.457683 kJ/mol
# Density = 1.846900 g / cm^3
# Si number density = 18.511132 Si / 1000 Ang^3
#
#
#
# Elastic Constant Matrix: (Units=GPa)
#
#
# Indices 1 2 3 4 5 6 
#
# 1 113.3844 59.9216 29.8155 0.0000 0.0000 0.0000
# 2 59.9216 126.8405 33.3240 0.0000 0.0000 0.0000
# 3 29.8155 33.3240 46.2380 0.0000 0.0000 0.0000
# 4 0.0000 0.0000 0.0000 31.3545 0.0000 0.0000
# 5 0.0000 0.0000 0.0000 0.0000 28.0983 0.0000
# 6 0.0000 0.0000 0.0000 0.0000 0.0000 31.9164
#
#
#
# Elastic Compliance Matrix: (Units=1/GPa)
#
#
# Indices 1 2 3 4 5 6 
#
# 1 0.012532 -0.004684 -0.004705 0.000000 0.000000 0.000000
# 2 -0.004684 0.011476 -0.005250 0.000000 0.000000 0.000000
# 3 -0.004705 -0.005250 0.028445 0.000000 0.000000 0.000000
# 4 0.000000 0.000000 0.000000 0.031893 0.000000 0.000000
# 5 0.000000 0.000000 0.000000 0.000000 0.035589 0.000000
# 6 0.000000 0.000000 0.000000 0.000000 0.000000 0.031332
#
#
# Mechanical properties :
#
#
# Convention : Reuss Voigt Hill
#
# Bulk Modulus (GPa) = 43.15173 59.17611 51.16392
# Shear Modulus (GPa) = 26.55714 29.16729 27.86221
#
# Velocity S-wave (km/s) = 3.79180 3.97377 3.88385
# Velocity P-wave (km/s) = 6.52167 7.28640 6.91462
#
# Compressibility (1/GPa) = 0.02317404
#
# Stress axis : x y z
#
# Youngs Moduli (GPa) = 79.79291 87.13593 35.15519
#
# Poissons Ratio (x) = 0.40818 0.16541
# Poissons Ratio (y) = 0.37378 0.18458
# Poissons Ratio (z) = 0.37544 0.45750
#
# Static dielectric constant tensor:
#      x y z
#    x 1.635080 0.000000 0.000000 
#    y 0.000000 1.611000 0.000000 
#    z 0.000000 0.000000 1.621990 
# 
# From -- ./inp_files/3806.got.cif
#   From: 2010.05.17/outbox.cif.g08.bks.cpg/sg57_2_cif.got.tgz:3806.got - 2010.06.03 13:58:18.
