data_PCOD9439157
_publ_section_title
;
Structure prediction by ZEFSAII (Michael W. Deem and Ramdas Pophale) SiO2 
 PCOD9439157
Probable space group: P B C M
;
_chemical_formula_sum "Si O2"
_cell_formula_units_Z 40
_cell_length_a 12.674672
_cell_length_b 9.433158
_cell_length_c 17.995997
_cell_angle_alpha 90.000000
_cell_angle_beta 90.000000
_cell_angle_gamma 90.000000
_cell_volume 2151.640697
_symmetry_space_group_name_H-M "P B C M"
_symmetry_group_IT_number 57
_symmetry_cell_setting 'orthorhombic'
loop_
_space_group_symop_operation_xyz
x,y,z
-x,-y,1/2+z
x,1/2-y,-z
-x,1/2+y,1/2-z
-x,-y,-z
x,y,1/2-z
-x,1/2+y,z
x,1/2-y,1/2+z
loop_
_atom_site_type_symbol
_atom_site_label
_atom_site_fract_x
_atom_site_fract_y
_atom_site_fract_z
Si Si1 0.709865 0.603060 0.859387
Si Si2 0.410865 0.192687 0.250000
Si Si3 0.745239 0.047486 0.750000
Si Si4 0.041445 0.152380 0.666812
Si Si5 0.893902 0.939407 0.618147
Si Si6 0.342893 0.855193 0.750000
Si Si7 0.769681 0.750000 0.500000
O O1 0.640530 0.722116 0.818378
O O2 0.834276 0.619487 0.840076
O O3 0.676662 0.454437 0.822517
O O4 0.704843 0.645885 0.945651
O O5 0.366683 0.033362 0.250000
O O6 0.535895 0.192797 0.250000
O O7 0.806411 0.992122 0.676884
O O8 0.729857 0.215969 0.750000
O O9 0.006235 0.112876 0.750000
O O10 0.033893 0.319981 0.656852
O O11 0.971459 0.071261 0.606402
O O12 0.840193 0.856459 0.550234
#
# Coordination Sequence:
#
# PCOD9439157 Si02
#       7
#     8   4   4   8   8   4   4
#     4  10  21  41  64  90 125 172 198 265 318 378
#     4  11  19  44  66  88 116 165 221 270 311 365
#     4  12  20  38  62  95 116 159 211 270 313 360
#     4  11  18  35  59  89 121 159 215 251 299 358
#     4  11  23  34  64  90 125 170 206 249 306 380
#     4  11  25  36  70  97 116 148 234 280 306 351
#     4  10  22  44  62  88 140 178 198 238 334 394
#
# _framework density 18.590464000000001
#
# number of rings (size 3 to 8) (size 9 to 14) (size 15 to 20)
#    0.000    1.200    8.000    1.200    2.800    3.200 
#    0.000    2.000    0.000    0.000    0.000    0.000 
#    0.000    0.000    0.000    0.000    0.000    0.000 
#
# Total GULP energy -222941.321786 kJ/mol
# GULP energy per Si atom -5573.533045 kJ/mol
# Density = 1.854815 g / cm^3
# Si number density = 18.590464 Si / 1000 Ang^3
#
#
#
# Elastic Constant Matrix: (Units=GPa)
#
#
# Indices 1 2 3 4 5 6 
#
# 1 39.8699 38.0736 29.3085 0.0000 0.0000 0.0000
# 2 38.0736 139.3989 48.2734 0.0000 0.0000 0.0000
# 3 29.3085 48.2734 115.8312 0.0000 0.0000 0.0000
# 4 0.0000 0.0000 0.0000 41.1811 0.0000 0.0000
# 5 0.0000 0.0000 0.0000 0.0000 7.3764 0.0000
# 6 0.0000 0.0000 0.0000 0.0000 0.0000 31.9171
#
#
#
# Elastic Compliance Matrix: (Units=1/GPa)
#
#
# Indices 1 2 3 4 5 6 
#
# 1 0.037247 -0.008075 -0.006059 0.000000 0.000000 0.000000
# 2 -0.008075 0.010134 -0.002180 0.000000 0.000000 0.000000
# 3 -0.006059 -0.002180 0.011075 0.000000 0.000000 0.000000
# 4 0.000000 0.000000 0.000000 0.024283 0.000000 0.000000
# 5 0.000000 0.000000 0.000000 0.000000 0.135567 0.000000
# 6 0.000000 0.000000 0.000000 0.000000 0.000000 0.031331
#
#
# Mechanical properties :
#
#
# Convention : Reuss Voigt Hill
#
# Bulk Modulus (GPa) = 38.71877 58.49008 48.60442
# Shear Modulus (GPa) = 17.18952 28.05790 22.62371
#
# Velocity S-wave (km/s) = 3.04409 3.88914 3.49227
# Velocity P-wave (km/s) = 5.76435 7.19013 6.51635
#
# Compressibility (1/GPa) = 0.02582727
#
# Stress axis : x y z
#
# Youngs Moduli (GPa) = 26.84797 98.67636 90.29293
#
# Poissons Ratio (x) = 0.79679 0.54711
# Poissons Ratio (y) = 0.21679 0.19687
# Poissons Ratio (z) = 0.16268 0.21515
#
# Static dielectric constant tensor:
#      x y z
#    x 1.633610 0.000000 0.000000 
#    y 0.000000 1.662190 0.000000 
#    z 0.000000 0.000000 1.697590 
# 
# From -- ./inp_files/21681.got.cif
#   From: 2010.05.17/outbox.cif.g08.bks.cpg/sg57_11_cif.got.tgz:21681.got - 2010.06.03 13:58:18.
