data_PCOD9439043
_publ_section_title
;
Structure prediction by ZEFSAII (Michael W. Deem and Ramdas Pophale) SiO2 
 PCOD9439043
Probable space group: P B C M
;
_chemical_formula_sum "Si O2"
_cell_formula_units_Z 64
_cell_length_a 15.213056
_cell_length_b 8.623704
_cell_length_c 23.633418
_cell_angle_alpha 90.000000
_cell_angle_beta 90.000000
_cell_angle_gamma 90.000000
_cell_volume 3100.536452
_symmetry_space_group_name_H-M "P B C M"
_symmetry_group_IT_number 57
_symmetry_cell_setting 'orthorhombic'
loop_
_space_group_symop_operation_xyz
x,y,z
-x,-y,1/2+z
x,1/2-y,-z
-x,1/2+y,1/2-z
-x,-y,-z
x,y,1/2-z
-x,1/2+y,z
x,1/2-y,1/2+z
loop_
_atom_site_type_symbol
_atom_site_label
_atom_site_fract_x
_atom_site_fract_y
_atom_site_fract_z
Si Si1 0.721189 0.477501 0.897260
Si Si2 0.098738 0.847074 0.558050
Si Si3 0.459898 0.504665 0.653008
Si Si4 0.109211 0.322966 0.684507
Si Si5 0.443013 0.396670 0.040314
Si Si6 0.625725 0.192957 0.310150
Si Si7 0.692961 0.776227 0.817864
Si Si8 0.993044 0.415847 0.121693
O O1 0.811717 0.436523 0.927339
O O2 0.648684 0.526497 0.942799
O O3 0.689626 0.327075 0.862832
O O4 0.712851 0.613927 0.849877
O O5 0.100235 0.750000 0.500000
O O6 0.076230 0.714454 0.603798
O O7 0.023850 0.977748 0.568764
O O8 0.497210 0.596324 0.597655
O O9 0.545054 0.425572 0.680408
O O10 0.415329 0.637526 0.689373
O O11 0.385265 0.369463 0.650249
O O12 0.095926 0.283933 0.750000
O O13 0.212415 0.359586 0.676954
O O14 0.050455 0.468229 0.666236
O O15 0.075791 0.177397 0.647400
O O16 0.426672 0.250000 0.000000
O O17 0.500000 0.500000 0.000000
O O18 0.669395 0.161191 0.250000
O O19 0.672490 0.760138 0.750000
#
# Coordination Sequence:
#
# PCOD9439043 Si02
#       8
#     8   8   8   8   8   8   8   8
#     4  11  24  42  62  97 128 166 218 269 324 394
#     4  11  24  45  68  96 127 175 221 280 328 382
#     4  11  23  39  64  91 130 170 222 266 317 391
#     4  10  21  39  67  99 133 171 209 262 331 403
#     4  11  23  43  63  88 124 171 212 265 317 372
#     4  11  22  38  61  91 126 170 210 260 324 387
#     4  11  22  40  63  94 133 171 211 267 328 391
#     4  10  22  44  68  95 132 169 223 267 332 395
#
# _framework density 20.641590999999998
#
# number of rings (size 3 to 8) (size 9 to 14) (size 15 to 20)
#    0.000    1.250    1.250    6.000    1.750    1.500 
#    2.250    1.875    0.000    0.000    0.000    0.000 
#    0.000    0.000    0.000    0.000    0.000    0.000 
#
# Total GULP energy -356923.913942 kJ/mol
# GULP energy per Si atom -5576.936155 kJ/mol
# Density = 2.059461 g / cm^3
# Si number density = 20.641591 Si / 1000 Ang^3
#
#
#
# Elastic Constant Matrix: (Units=GPa)
#
#
# Indices 1 2 3 4 5 6 
#
# 1 92.6668 19.2803 32.9261 0.0000 0.0000 0.0000
# 2 19.2803 74.7482 27.9879 0.0000 0.0000 0.0000
# 3 32.9261 27.9879 95.2329 0.0000 0.0000 0.0000
# 4 0.0000 0.0000 0.0000 28.6409 0.0000 0.0000
# 5 0.0000 0.0000 0.0000 0.0000 8.5485 0.0000
# 6 0.0000 0.0000 0.0000 0.0000 0.0000 29.4527
#
#
#
# Elastic Compliance Matrix: (Units=1/GPa)
#
#
# Indices 1 2 3 4 5 6 
#
# 1 0.012516 -0.001807 -0.003796 0.000000 0.000000 0.000000
# 2 -0.001807 0.015293 -0.003870 0.000000 0.000000 0.000000
# 3 -0.003796 -0.003870 0.012950 0.000000 0.000000 0.000000
# 4 0.000000 0.000000 0.000000 0.034915 0.000000 0.000000
# 5 0.000000 0.000000 0.000000 0.000000 0.116980 0.000000
# 6 0.000000 0.000000 0.000000 0.000000 0.000000 0.033953
#
#
# Mechanical properties :
#
#
# Convention : Reuss Voigt Hill
#
# Bulk Modulus (GPa) = 45.84261 47.00406 46.42333
# Shear Modulus (GPa) = 19.77650 25.49198 22.63424
#
# Velocity S-wave (km/s) = 3.09866 3.51804 3.31499
# Velocity P-wave (km/s) = 5.92109 6.27082 6.09846
#
# Compressibility (1/GPa) = 0.02181377
#
# Stress axis : x y z
#
# Youngs Moduli (GPa) = 79.89636 65.38817 77.21748
#
# Poissons Ratio (x) = 0.11815 0.29315
# Poissons Ratio (y) = 0.14437 0.29882
# Poissons Ratio (z) = 0.30332 0.25304
#
# Static dielectric constant tensor:
#      x y z
#    x 1.735320 0.000000 0.000000 
#    y 0.000000 1.752160 0.000000 
#    z 0.000000 0.000000 1.719170 
# 
# From -- ./inp_files/27462.got.cif
#   From: 2010.05.17/outbox.cif.g08.bks.cpg/sg57_14_cif.got.tgz:27462.got - 2010.06.03 13:58:18.
