data_PCOD9439462
_publ_section_title
;
Structure prediction by ZEFSAII (Michael W. Deem and Ramdas Pophale) SiO2 
 PCOD9439462
Probable space group: P B C M
;
_chemical_formula_sum "Si O2"
_cell_formula_units_Z 36
_cell_length_a 21.848233
_cell_length_b 5.316464
_cell_length_c 14.192695
_cell_angle_alpha 90.000000
_cell_angle_beta 90.000000
_cell_angle_gamma 90.000000
_cell_volume 1648.557373
_symmetry_space_group_name_H-M "P B C M"
_symmetry_group_IT_number 57
_symmetry_cell_setting 'orthorhombic'
loop_
_space_group_symop_operation_xyz
x,y,z
-x,-y,1/2+z
x,1/2-y,-z
-x,1/2+y,1/2-z
-x,-y,-z
x,y,1/2-z
-x,1/2+y,z
x,1/2-y,1/2+z
loop_
_atom_site_type_symbol
_atom_site_label
_atom_site_fract_x
_atom_site_fract_y
_atom_site_fract_z
Si Si1 0.616800 0.010736 0.438764
Si Si2 0.249906 0.925266 0.642275
Si Si3 0.538793 0.590952 0.750000
Si Si4 0.830673 0.750000 0.000000
Si Si5 0.961565 0.147116 0.250000
Si Si6 0.866072 0.349337 0.105619
O O1 0.592691 0.250000 0.500000
O O2 0.682348 0.105331 0.397867
O O3 0.576908 0.952005 0.346085
O O4 0.622108 0.750000 0.500000
O O5 0.252539 0.022041 0.750000
O O6 0.202913 0.689050 0.643679
O O7 0.215803 0.092350 0.564648
O O8 0.512810 0.873792 0.750000
O O9 0.873879 0.640507 0.082800
O O10 0.916799 0.211684 0.163870
O O11 0.012944 0.365919 0.250000
O O12 0.867732 0.250000 0.000000
#
# Coordination Sequence:
#
# PCOD9439462 Si02
#       6
#     8   8   4   4   4   8
#     4  12  26  47  74 110 149 186 237 301 361 423
#     4  11  22  41  70 105 141 180 222 291 363 433
#     4  12  28  51  73 106 142 202 258 290 346 412
#     4  10  22  40  68 100 138 172 228 274 374 436
#     4  12  30  47  69 100 134 182 244 284 338 416
#     4  10  24  44  69  99 137 180 223 290 357 422
#
# _framework density 21.837273
#
# number of rings (size 3 to 8) (size 9 to 14) (size 15 to 20)
#    0.000    0.889    3.333    3.333    7.778    3.556 
#    0.000    0.000    0.000    0.000    0.000    0.000 
#    0.000    0.000    0.000    0.000    0.000    0.000 
#
# Total GULP energy -200508.811954 kJ/mol
# GULP energy per Si atom -5569.689221 kJ/mol
# Density = 2.178757 g / cm^3
# Si number density = 21.837273 Si / 1000 Ang^3
#
#
#
# Elastic Constant Matrix: (Units=GPa)
#
#
# Indices 1 2 3 4 5 6 
#
# 1 53.8726 -2.3520 30.4942 0.0000 0.0000 0.0000
# 2 -2.3520 46.7464 16.1161 0.0000 0.0000 0.0000
# 3 30.4942 16.1161 162.7731 0.0000 0.0000 0.0000
# 4 0.0000 0.0000 0.0000 24.1754 0.0000 0.0000
# 5 0.0000 0.0000 0.0000 0.0000 98.3288 0.0000
# 6 0.0000 0.0000 0.0000 0.0000 0.0000 19.2687
#
#
#
# Elastic Compliance Matrix: (Units=1/GPa)
#
#
# Indices 1 2 3 4 5 6 
#
# 1 0.021043 0.002503 -0.004190 0.000000 0.000000 0.000000
# 2 0.002503 0.022446 -0.002691 0.000000 0.000000 0.000000
# 3 -0.004190 -0.002691 0.007195 0.000000 0.000000 0.000000
# 4 0.000000 0.000000 0.000000 0.041364 0.000000 0.000000
# 5 0.000000 0.000000 0.000000 0.000000 0.010170 0.000000
# 6 0.000000 0.000000 0.000000 0.000000 0.000000 0.051898
#
#
# Mechanical properties :
#
#
# Convention : Reuss Voigt Hill
#
# Bulk Modulus (GPa) = 23.85045 39.10097 31.47571
# Shear Modulus (GPa) = 28.27276 42.96348 35.61812
#
# Velocity S-wave (km/s) = 3.60210 4.44039 4.04303
# Velocity P-wave (km/s) = 5.31468 6.65086 6.01996
#
# Compressibility (1/GPa) = 0.04192793
#
# Stress axis : x y z
#
# Youngs Moduli (GPa) = 47.52082 44.55166 138.98576
#
# Poissons Ratio (x) = -0.11153 0.58237
# Poissons Ratio (y) = -0.11896 0.37406
# Poissons Ratio (z) = 0.19912 0.11990
#
# Static dielectric constant tensor:
#      x y z
#    x 1.792250 0.000000 0.000000 
#    y 0.000000 3.805510 0.000000 
#    z 0.000000 0.000000 1.869290 
# 
# From -- ./inp_files/19251.got.cif
#   From: 2010.05.17/outbox.cif.g08.bks.cpg/sg57_10_cif.got.tgz:19251.got - 2010.06.03 13:58:18.
