data_PCOD9439669
_publ_section_title
;
Structure prediction by ZEFSAII (Michael W. Deem and Ramdas Pophale) SiO2 
 PCOD9439669
Probable space group: P B C M
;
_chemical_formula_sum "Si O2"
_cell_formula_units_Z 32
_cell_length_a 7.420976
_cell_length_b 9.973900
_cell_length_c 19.718881
_cell_angle_alpha 90.000000
_cell_angle_beta 90.000000
_cell_angle_gamma 90.000000
_cell_volume 1459.514126
_symmetry_space_group_name_H-M "P B C M"
_symmetry_group_IT_number 57
_symmetry_cell_setting 'orthorhombic'
loop_
_space_group_symop_operation_xyz
x,y,z
-x,-y,1/2+z
x,1/2-y,-z
-x,1/2+y,1/2-z
-x,-y,-z
x,y,1/2-z
-x,1/2+y,z
x,1/2-y,1/2+z
loop_
_atom_site_type_symbol
_atom_site_label
_atom_site_fract_x
_atom_site_fract_y
_atom_site_fract_z
Si Si1 0.568009 0.214132 0.569499
Si Si2 0.065843 0.068289 0.899004
Si Si3 0.708050 0.557939 0.038890
Si Si4 0.859297 0.199114 0.329568
O O1 0.680594 0.250000 0.500000
O O2 0.392495 0.307406 0.563519
O O3 0.557481 0.056154 0.557109
O O4 0.675580 0.247608 0.636441
O O5 0.192876 0.072431 0.965462
O O6 0.876349 0.999407 0.919078
O O7 0.014153 0.212506 0.867522
O O8 0.139911 0.959112 0.846108
O O9 0.870517 0.223116 0.250000
#
# Coordination Sequence:
#
# PCOD9439669 Si02
#       4
#     8   8   8   8
#     4  11  22  40  64  98 128 168 217 272 325 381
#     4  10  23  42  66  97 126 171 219 267 320 386
#     4  10  23  39  69  98 128 164 220 276 322 375
#     4  11  24  43  64  92 133 174 214 265 327 393
#
# _framework density 21.925107000000001
#
# number of rings (size 3 to 8) (size 9 to 14) (size 15 to 20)
#    0.000    1.500    2.500    1.500    3.500    0.000 
#    0.000    6.250    0.000    0.000    0.000    0.000 
#    0.000    0.000    0.000    0.000    0.000    0.000 
#
# Total GULP energy -178291.675024 kJ/mol
# GULP energy per Si atom -5571.614845 kJ/mol
# Density = 2.187520 g / cm^3
# Si number density = 21.925107 Si / 1000 Ang^3
#
#
#
# Elastic Constant Matrix: (Units=GPa)
#
#
# Indices 1 2 3 4 5 6 
#
# 1 121.3301 37.8586 27.9528 0.0000 0.0000 0.0000
# 2 37.8586 108.8069 -11.6223 0.0000 0.0000 0.0000
# 3 27.9528 -11.6223 83.1458 0.0000 0.0000 0.0000
# 4 0.0000 0.0000 0.0000 19.5041 0.0000 0.0000
# 5 0.0000 0.0000 0.0000 0.0000 10.7648 0.0000
# 6 0.0000 0.0000 0.0000 0.0000 0.0000 38.6260
#
#
#
# Elastic Compliance Matrix: (Units=1/GPa)
#
#
# Indices 1 2 3 4 5 6 
#
# 1 0.010454 -0.004074 -0.004084 0.000000 0.000000 0.000000
# 2 -0.004074 0.010917 0.002896 0.000000 0.000000 0.000000
# 3 -0.004084 0.002896 0.013805 0.000000 0.000000 0.000000
# 4 0.000000 0.000000 0.000000 0.051271 0.000000 0.000000
# 5 0.000000 0.000000 0.000000 0.000000 0.092895 0.000000
# 6 0.000000 0.000000 0.000000 0.000000 0.000000 0.025889
#
#
# Mechanical properties :
#
#
# Convention : Reuss Voigt Hill
#
# Bulk Modulus (GPa) = 40.56464 46.85123 43.70793
# Shear Modulus (GPa) = 22.32410 31.05189 26.68800
#
# Velocity S-wave (km/s) = 3.19438 3.76742 3.49267
# Velocity P-wave (km/s) = 5.66984 6.35136 6.02025
#
# Compressibility (1/GPa) = 0.02465201
#
# Stress axis : x y z
#
# Youngs Moduli (GPa) = 95.65766 91.59804 72.43859
#
# Poissons Ratio (x) = 0.37313 0.29583
# Poissons Ratio (y) = 0.38967 -0.20975
# Poissons Ratio (z) = 0.39066 -0.26523
#
# Static dielectric constant tensor:
#      x y z
#    x 1.905330 0.000000 0.000000 
#    y 0.000000 1.937020 0.000000 
#    z 0.000000 0.000000 1.804080 
# 
# From -- ./inp_files/23940.got.cif
#   From: 2010.05.17/outbox.cif.g08.bks.cpg/sg57_12_cif.got.tgz:23940.got - 2010.06.03 13:58:18.
