data_PCOD9439583
_publ_section_title
;
Structure prediction by ZEFSAII (Michael W. Deem and Ramdas Pophale) SiO2 
 PCOD9439583
Probable space group: P B C M
;
_chemical_formula_sum "Si O2"
_cell_formula_units_Z 64
_cell_length_a 12.160638
_cell_length_b 31.626342
_cell_length_c 8.700512
_cell_angle_alpha 90.000000
_cell_angle_beta 90.000000
_cell_angle_gamma 90.000000
_cell_volume 3346.186431
_symmetry_space_group_name_H-M "P B C M"
_symmetry_group_IT_number 57
_symmetry_cell_setting 'orthorhombic'
loop_
_space_group_symop_operation_xyz
x,y,z
-x,-y,1/2+z
x,1/2-y,-z
-x,1/2+y,1/2-z
-x,-y,-z
x,y,1/2-z
-x,1/2+y,z
x,1/2-y,1/2+z
loop_
_atom_site_type_symbol
_atom_site_label
_atom_site_fract_x
_atom_site_fract_y
_atom_site_fract_z
Si Si1 0.004126 0.794730 0.934212
Si Si2 0.015945 0.953591 0.433746
Si Si3 0.470827 0.954226 0.566227
Si Si4 0.518396 0.293695 0.066559
Si Si5 0.128948 0.374360 0.064279
Si Si6 0.250253 0.819458 0.933735
Si Si7 0.613753 0.621779 0.935705
Si Si8 0.252243 0.586473 0.565844
O O1 0.999934 0.794200 0.750000
O O2 0.131999 0.801019 0.981765
O O3 0.964412 0.750000 0.000000
O O4 0.934253 0.834193 0.995608
O O5 0.004983 0.956279 0.250000
O O6 0.137738 0.936586 0.468199
O O7 0.929722 0.917853 0.487653
O O8 0.000000 0.000000 0.500000
O O9 0.465857 0.955599 0.750000
O O10 0.558058 0.918813 0.512611
O O11 0.354401 0.939816 0.496954
O O12 0.500000 0.000000 0.500000
O O13 0.516628 0.291788 0.250000
O O14 0.451338 0.335578 0.018637
O O15 0.472093 0.250000 0.000000
O O16 0.643686 0.298462 0.010060
O O17 0.119300 0.372119 0.250000
O O18 0.257735 0.374533 0.025332
O O19 0.259749 0.815943 0.750000
O O20 0.251908 0.868142 0.985299
O O21 0.604110 0.617477 0.750000
O O22 0.262195 0.592178 0.750000
#
# Coordination Sequence:
#
# PCOD9439583 Si02
#       8
#     8   8   8   8   8   8   8   8
#     4  11  24  40  62  92 125 163 208 258 311 370
#     4  10  23  40  63  93 126 165 206 254 308 367
#     4  12  26  43  66  94 127 166 209 258 309 368
#     4  11  23  39  62  90 124 163 204 257 311 370
#     4  10  22  43  65  89 123 165 208 255 311 367
#     4  11  22  38  62  94 126 162 206 255 314 370
#     4  10  23  43  65  91 125 165 209 258 311 367
#     4  11  22  40  65  95 128 164 205 254 314 369
#
# _framework density 19.126249999999999
#
# number of rings (size 3 to 8) (size 9 to 14) (size 15 to 20)
#    0.000    1.250    2.500    3.000    1.750    5.500 
#    0.000    1.250    0.000    0.000    0.000    0.000 
#    0.000    0.000    0.000    0.000    0.000    0.000 
#
# Total GULP energy -357888.867586 kJ/mol
# GULP energy per Si atom -5592.013556 kJ/mol
# Density = 1.908272 g / cm^3
# Si number density = 19.126250 Si / 1000 Ang^3
#
#
#
# Elastic Constant Matrix: (Units=GPa)
#
#
# Indices 1 2 3 4 5 6 
#
# 1 125.0624 65.9407 37.5729 0.0000 0.0000 0.0000
# 2 65.9407 175.2711 31.0891 0.0000 0.0000 0.0000
# 3 37.5729 31.0891 28.6059 0.0000 0.0000 0.0000
# 4 0.0000 0.0000 0.0000 38.8220 0.0000 0.0000
# 5 0.0000 0.0000 0.0000 0.0000 12.4469 0.0000
# 6 0.0000 0.0000 0.0000 0.0000 0.0000 38.5347
#
#
#
# Elastic Compliance Matrix: (Units=1/GPa)
#
#
# Indices 1 2 3 4 5 6 
#
# 1 0.014034 -0.002490 -0.015726 0.000000 0.000000 0.000000
# 2 -0.002490 0.007510 -0.004891 0.000000 0.000000 0.000000
# 3 -0.015726 -0.004891 0.060929 0.000000 0.000000 0.000000
# 4 0.000000 0.000000 0.000000 0.025759 0.000000 0.000000
# 5 0.000000 0.000000 0.000000 0.000000 0.080341 0.000000
# 6 0.000000 0.000000 0.000000 0.000000 0.000000 0.025951
#
#
# Mechanical properties :
#
#
# Convention : Reuss Voigt Hill
#
# Bulk Modulus (GPa) = 27.58024 66.46054 47.02039
# Shear Modulus (GPa) = 18.32680 30.91651 24.62165
#
# Velocity S-wave (km/s) = 3.09884 4.02486 3.59182
# Velocity P-wave (km/s) = 5.22065 7.51153 6.46832
#
# Compressibility (1/GPa) = 0.03625784
#
# Stress axis : x y z
#
# Youngs Moduli (GPa) = 71.25658 133.15792 16.41245
#
# Poissons Ratio (x) = 0.33160 0.25811
# Poissons Ratio (y) = 0.17745 0.08027
# Poissons Ratio (z) = 1.12061 0.65126
#
# Static dielectric constant tensor:
#      x y z
#    x 1.625260 0.000000 0.000000 
#    y 0.000000 1.628380 0.000000 
#    z 0.000000 0.000000 1.646820 
# 
# From -- ./inp_files/3825.got.cif
#   From: 2010.05.17/outbox.cif.g08.bks.cpg/sg57_2_cif.got.tgz:3825.got - 2010.06.03 13:58:18.
