data_PCOD9439194
_publ_section_title
;
Structure prediction by ZEFSAII (Michael W. Deem and Ramdas Pophale) SiO2 
 PCOD9439194
Probable space group: P B C M
;
_chemical_formula_sum "Si O2"
_cell_formula_units_Z 60
_cell_length_a 19.421426
_cell_length_b 17.176523
_cell_length_c 9.182835
_cell_angle_alpha 90.000000
_cell_angle_beta 90.000000
_cell_angle_gamma 90.000000
_cell_volume 3063.325531
_symmetry_space_group_name_H-M "P B C M"
_symmetry_group_IT_number 57
_symmetry_cell_setting 'orthorhombic'
loop_
_space_group_symop_operation_xyz
x,y,z
-x,-y,1/2+z
x,1/2-y,-z
-x,1/2+y,1/2-z
-x,-y,-z
x,y,1/2-z
-x,1/2+y,z
x,1/2-y,1/2+z
loop_
_atom_site_type_symbol
_atom_site_label
_atom_site_fract_x
_atom_site_fract_y
_atom_site_fract_z
Si Si1 0.023671 0.580554 0.424658
Si Si2 0.888937 0.670939 0.422673
Si Si3 0.162838 0.886037 0.414275
Si Si4 0.380090 0.870514 0.920817
Si Si5 0.467454 0.171129 0.073467
Si Si6 0.768978 0.549770 0.077629
Si Si7 0.260940 0.750000 0.500000
Si Si8 0.631210 0.548426 0.574482
O O1 0.023822 0.570334 0.250000
O O2 0.097774 0.609790 0.479434
O O3 0.000000 0.500000 0.500000
O O4 0.965217 0.643237 0.464518
O O5 0.868808 0.750000 0.500000
O O6 0.888326 0.683278 0.250000
O O7 0.835882 0.601503 0.453684
O O8 0.136636 0.898641 0.250000
O O9 0.208101 0.807614 0.417595
O O10 0.211090 0.959950 0.449839
O O11 0.390232 0.880428 0.750000
O O12 0.452602 0.837065 0.975350
O O13 0.315306 0.813046 0.936736
O O14 0.371126 0.958182 0.977190
O O15 0.462662 0.174034 0.250000
O O16 0.439966 0.250000 0.000000
O O17 0.426079 0.098519 0.007912
O O18 0.751962 0.557469 0.250000
O O19 0.706036 0.576144 0.978255
O O20 0.623737 0.553594 0.750000
#
# Coordination Sequence:
#
# PCOD9439194 Si02
#       8
#     8   8   8   8   8   8   4   8
#     4  11  23  42  67  94 129 171 217 269 324 389
#     4  10  23  42  63  90 123 162 214 267 317 375
#     4  11  24  41  64  95 133 174 215 263 325 388
#     4  10  22  40  63  94 131 169 215 265 321 391
#     4  11  23  42  66  95 128 168 217 270 325 388
#     4  10  21  42  64  88 123 166 211 263 319 381
#     4  12  22  42  66 100 134 172 218 268 328 394
#     4  11  23  41  64  95 131 169 213 265 324 392
#
# _framework density 19.586558
#
# number of rings (size 3 to 8) (size 9 to 14) (size 15 to 20)
#    0.000    1.333    3.333    2.000    0.933    3.733 
#    0.000    3.333    0.000    0.000    0.000    0.000 
#    0.000    0.000    0.000    0.000    0.000    0.000 
#
# Total GULP energy -334723.010677 kJ/mol
# GULP energy per Si atom -5578.716845 kJ/mol
# Density = 1.954198 g / cm^3
# Si number density = 19.586558 Si / 1000 Ang^3
#
#
#
# Elastic Constant Matrix: (Units=GPa)
#
#
# Indices 1 2 3 4 5 6 
#
# 1 100.0427 40.2781 42.3477 0.0000 0.0000 0.0000
# 2 40.2781 119.1459 31.1281 0.0000 0.0000 0.0000
# 3 42.3477 31.1281 53.0979 0.0000 0.0000 0.0000
# 4 0.0000 0.0000 0.0000 26.9994 0.0000 0.0000
# 5 0.0000 0.0000 0.0000 0.0000 25.8292 0.0000
# 6 0.0000 0.0000 0.0000 0.0000 0.0000 29.2822
#
#
#
# Elastic Compliance Matrix: (Units=1/GPa)
#
#
# Indices 1 2 3 4 5 6 
#
# 1 0.015649 -0.002397 -0.011076 0.000000 0.000000 0.000000
# 2 -0.002397 0.010278 -0.004114 0.000000 0.000000 0.000000
# 3 -0.011076 -0.004114 0.030078 0.000000 0.000000 0.000000
# 4 0.000000 0.000000 0.000000 0.037038 0.000000 0.000000
# 5 0.000000 0.000000 0.000000 0.000000 0.038716 0.000000
# 6 0.000000 0.000000 0.000000 0.000000 0.000000 0.034150
#
#
# Mechanical properties :
#
#
# Convention : Reuss Voigt Hill
#
# Bulk Modulus (GPa) = 48.00157 55.53269 51.76713
# Shear Modulus (GPa) = 24.03543 26.99101 25.51322
#
# Velocity S-wave (km/s) = 3.50686 3.71622 3.61305
# Velocity P-wave (km/s) = 6.39984 6.84308 6.62517
#
# Compressibility (1/GPa) = 0.02083265
#
# Stress axis : x y z
#
# Youngs Moduli (GPa) = 63.90226 97.29439 33.24662
#
# Poissons Ratio (x) = 0.23317 0.36823
# Poissons Ratio (y) = 0.15315 0.13678
# Poissons Ratio (z) = 0.70776 0.40027
#
# Static dielectric constant tensor:
#      x y z
#    x 1.695360 0.000000 0.000000 
#    y 0.000000 1.705380 0.000000 
#    z 0.000000 0.000000 1.686250 
# 
# From -- ./inp_files/6933.got.cif
#   From: 2010.05.17/outbox.cif.g08.bks.cpg/sg57_4_cif.got.tgz:6933.got - 2010.06.03 13:58:18.
