data_PCOD9439260
_publ_section_title
;
Structure prediction by ZEFSAII (Michael W. Deem and Ramdas Pophale) SiO2 
 PCOD9439260
Probable space group: P B C M
;
_chemical_formula_sum "Si O2"
_cell_formula_units_Z 40
_cell_length_a 11.369301
_cell_length_b 19.060997
_cell_length_c 10.196224
_cell_angle_alpha 90.000000
_cell_angle_beta 90.000000
_cell_angle_gamma 90.000000
_cell_volume 2209.625867
_symmetry_space_group_name_H-M "P B C M"
_symmetry_group_IT_number 57
_symmetry_cell_setting 'orthorhombic'
loop_
_space_group_symop_operation_xyz
x,y,z
-x,-y,1/2+z
x,1/2-y,-z
-x,1/2+y,1/2-z
-x,-y,-z
x,y,1/2-z
-x,1/2+y,z
x,1/2-y,1/2+z
loop_
_atom_site_type_symbol
_atom_site_label
_atom_site_fract_x
_atom_site_fract_y
_atom_site_fract_z
Si Si1 0.525130 0.067118 0.093129
Si Si2 0.833126 0.846608 0.250000
Si Si3 0.278961 0.390381 0.521806
Si Si4 0.867209 0.681704 0.250000
Si Si5 0.917578 0.426655 0.250000
Si Si6 0.051377 0.931829 0.750000
Si Si7 0.221461 0.945175 0.996436
O O1 0.523403 0.051184 0.250000
O O2 0.656316 0.089221 0.051270
O O3 0.416135 0.117572 0.059213
O O4 0.500000 0.000000 0.000000
O O5 0.756967 0.866738 0.122997
O O6 0.865308 0.764980 0.250000
O O7 0.956119 0.888965 0.250000
O O8 0.200879 0.347529 0.623551
O O9 0.249153 0.473411 0.530792
O O10 0.993950 0.644729 0.250000
O O11 0.840730 0.411264 0.378266
O O12 0.949701 0.509480 0.250000
O O13 0.130325 0.943909 0.877329
#
# Coordination Sequence:
#
# PCOD9439260 Si02
#       7
#     8   4   8   4   4   4   8
#     4  10  22  36  59  92 121 150 193 247 307 363
#     4  12  26  39  59  91 125 161 208 251 301 372
#     4  11  21  39  61  87 126 155 198 256 307 363
#     4  12  24  39  61  87 123 167 204 249 311 362
#     4  12  22  37  59  88 127 157 203 249 300 364
#     4  12  20  37  61  86 125 165 197 253 300 360
#     4  11  21  36  62  91 121 157 197 257 307 352
#
# _framework density 18.102612000000001
#
# number of rings (size 3 to 8) (size 9 to 14) (size 15 to 20)
#    0.000    0.800    6.000    2.400    8.400    0.000 
#    0.000    0.000    0.000    7.200    0.000    0.000 
#    0.000    0.000    0.000    0.000    0.000    0.000 
#
# Total GULP energy -223325.612697 kJ/mol
# GULP energy per Si atom -5583.140317 kJ/mol
# Density = 1.806141 g / cm^3
# Si number density = 18.102612 Si / 1000 Ang^3
#
#
#
# Elastic Constant Matrix: (Units=GPa)
#
#
# Indices 1 2 3 4 5 6 
#
# 1 124.0828 15.0540 65.2511 0.0000 0.0000 0.0000
# 2 15.0540 49.1274 4.1329 0.0000 0.0000 0.0000
# 3 65.2511 4.1329 171.9364 0.0000 0.0000 0.0000
# 4 0.0000 0.0000 0.0000 -21.2368 0.0000 0.0000
# 5 0.0000 0.0000 0.0000 0.0000 42.6448 0.0000
# 6 0.0000 0.0000 0.0000 0.0000 0.0000 9.5204
#
#
#
# Elastic Compliance Matrix: (Units=1/GPa)
#
#
# Indices 1 2 3 4 5 6 
#
# 1 0.010459 -0.002877 -0.003900 0.000000 0.000000 0.000000
# 2 -0.002877 0.021188 0.000582 0.000000 0.000000 0.000000
# 3 -0.003900 0.000582 0.007282 0.000000 0.000000 0.000000
# 4 0.000000 0.000000 0.000000 -0.047088 0.000000 0.000000
# 5 0.000000 0.000000 0.000000 0.000000 0.023450 0.000000
# 6 0.000000 0.000000 0.000000 0.000000 0.000000 0.105038
#
#
# Mechanical properties :
#
#
# Convention : Reuss Voigt Hill
#
# Bulk Modulus (GPa) = 37.67886 57.11363 47.39624
# Shear Modulus (GPa) = 35.31966 23.56623 29.44294
#
# Velocity S-wave (km/s) = 4.42190 3.61198 4.03730
# Velocity P-wave (km/s) = 6.85056 7.00097 6.92617
#
# Compressibility (1/GPa) = 0.02654008
#
# Stress axis : x y z
#
# Youngs Moduli (GPa) = 95.61018 47.19699 137.32029
#
# Poissons Ratio (x) = 0.13578 0.53557
# Poissons Ratio (y) = 0.27506 -0.07999
# Poissons Ratio (z) = 0.37290 -0.02749
#
# Static dielectric constant tensor:
#      x y z
#    x 1.650760 0.000000 0.000000 
#    y 0.000000 1.601060 0.000000 
#    z 0.000000 0.000000 1.641040 
# 
# From -- ./inp_files/2766.got.cif
#   From: 2010.05.17/outbox.cif.g08.bks.cpg/sg57_2_cif.got.tgz:2766.got - 2010.06.03 13:58:18.
