data_PCOD9439605
_publ_section_title
;
Structure prediction by ZEFSAII (Michael W. Deem and Ramdas Pophale) SiO2 
 PCOD9439605
Probable space group: P B C M
;
_chemical_formula_sum "Si O2"
_cell_formula_units_Z 48
_cell_length_a 9.369630
_cell_length_b 8.943923
_cell_length_c 23.033424
_cell_angle_alpha 90.000000
_cell_angle_beta 90.000000
_cell_angle_gamma 90.000000
_cell_volume 1930.229706
_symmetry_space_group_name_H-M "P B C M"
_symmetry_group_IT_number 57
_symmetry_cell_setting 'orthorhombic'
loop_
_space_group_symop_operation_xyz
x,y,z
-x,-y,1/2+z
x,1/2-y,-z
-x,1/2+y,1/2-z
-x,-y,-z
x,y,1/2-z
-x,1/2+y,z
x,1/2-y,1/2+z
loop_
_atom_site_type_symbol
_atom_site_label
_atom_site_fract_x
_atom_site_fract_y
_atom_site_fract_z
Si Si1 0.953324 0.411020 0.374374
Si Si2 0.527808 0.300890 0.817782
Si Si3 0.313629 0.092287 0.998494
Si Si4 0.181091 0.303020 0.683321
Si Si5 0.525871 0.043265 0.600572
Si Si6 0.891718 0.146659 0.447651
O O1 0.097846 0.327522 0.351838
O O2 0.996888 0.523046 0.426317
O O3 0.876991 0.530300 0.332272
O O4 0.865782 0.267400 0.396797
O O5 0.567202 0.313733 0.750000
O O6 0.353292 0.296364 0.821497
O O7 0.571297 0.435931 0.859764
O O8 0.581164 0.154627 0.850508
O O9 0.359908 0.049599 0.063436
O O10 0.234821 0.250000 0.000000
O O11 0.442434 0.121807 0.952548
O O12 0.239377 0.948890 0.971214
O O13 0.144519 0.274558 0.750000
O O14 0.939216 0.250000 0.500000
#
# Coordination Sequence:
#
# PCOD9439605 Si02
#       6
#     8   8   8   8   8   8
#     4  10  23  43  65  99 136 177 213 274 329 399
#     4  11  24  42  67  96 132 174 222 278 331 394
#     4  11  25  43  68  97 131 177 220 278 332 405
#     4  10  22  43  69  98 131 175 223 274 329 389
#     4  11  24  43  65  94 133 170 221 272 338 392
#     4  11  25  39  65  97 135 171 219 263 332 399
#
# _framework density 24.867508000000001
#
# number of rings (size 3 to 8) (size 9 to 14) (size 15 to 20)
#    0.000    1.333    1.667    2.500    4.667    2.000 
#    0.000    0.000    0.000    8.000    0.000    0.000 
#    0.000    0.000    0.000    0.000    0.000    0.000 
#
# Total GULP energy -268364.323812 kJ/mol
# GULP energy per Si atom -5590.923413 kJ/mol
# Density = 2.481091 g / cm^3
# Si number density = 24.867508 Si / 1000 Ang^3
#
#
#
# Elastic Constant Matrix: (Units=GPa)
#
#
# Indices 1 2 3 4 5 6 
#
# 1 55.8906 24.2104 20.1486 0.0000 0.0000 0.0000
# 2 24.2104 169.5959 52.7150 0.0000 0.0000 0.0000
# 3 20.1486 52.7150 169.7264 0.0000 0.0000 0.0000
# 4 0.0000 0.0000 0.0000 50.2954 0.0000 0.0000
# 5 0.0000 0.0000 0.0000 0.0000 17.9235 0.0000
# 6 0.0000 0.0000 0.0000 0.0000 0.0000 22.1091
#
#
#
# Elastic Compliance Matrix: (Units=1/GPa)
#
#
# Indices 1 2 3 4 5 6 
#
# 1 0.019457 -0.002280 -0.001602 0.000000 0.000000 0.000000
# 2 -0.002280 0.006794 -0.001839 0.000000 0.000000 0.000000
# 3 -0.001602 -0.001839 0.006653 0.000000 0.000000 0.000000
# 4 0.000000 0.000000 0.000000 0.019883 0.000000 0.000000
# 5 0.000000 0.000000 0.000000 0.000000 0.055793 0.000000
# 6 0.000000 0.000000 0.000000 0.000000 0.000000 0.045230
#
#
# Mechanical properties :
#
#
# Convention : Reuss Voigt Hill
#
# Bulk Modulus (GPa) = 46.59345 65.48452 56.03899
# Shear Modulus (GPa) = 29.00150 37.94153 33.47151
#
# Velocity S-wave (km/s) = 3.41873 3.91032 3.67276
# Velocity P-wave (km/s) = 5.86182 6.83944 6.36942
#
# Compressibility (1/GPa) = 0.02146224
#
# Stress axis : x y z
#
# Youngs Moduli (GPa) = 51.39525 147.19894 150.30219
#
# Poissons Ratio (x) = 0.33557 0.24075
# Poissons Ratio (y) = 0.11717 0.27646
# Poissons Ratio (z) = 0.08232 0.27075
#
# Static dielectric constant tensor:
#      x y z
#    x 2.041230 0.000000 0.000000 
#    y 0.000000 2.023950 0.000000 
#    z 0.000000 0.000000 1.924040 
# 
# From -- ./inp_files/27086.got.cif
#   From: 2010.05.17/outbox.cif.g08.bks.cpg/sg57_14_cif.got.tgz:27086.got - 2010.06.03 13:58:18.
