data_PCOD9439504
_publ_section_title
;
Structure prediction by ZEFSAII (Michael W. Deem and Ramdas Pophale) SiO2 
 PCOD9439504
Probable space group: P B C M
;
_chemical_formula_sum "Si O2"
_cell_formula_units_Z 48
_cell_length_a 17.057897
_cell_length_b 16.216612
_cell_length_c 8.495350
_cell_angle_alpha 90.000000
_cell_angle_beta 90.000000
_cell_angle_gamma 90.000000
_cell_volume 2349.994737
_symmetry_space_group_name_H-M "P B C M"
_symmetry_group_IT_number 57
_symmetry_cell_setting 'orthorhombic'
loop_
_space_group_symop_operation_xyz
x,y,z
-x,-y,1/2+z
x,1/2-y,-z
-x,1/2+y,1/2-z
-x,-y,-z
x,y,1/2-z
-x,1/2+y,z
x,1/2-y,1/2+z
loop_
_atom_site_type_symbol
_atom_site_label
_atom_site_fract_x
_atom_site_fract_y
_atom_site_fract_z
Si Si1 0.676632 0.664611 0.061370
Si Si2 0.156734 0.117231 0.566208
Si Si3 0.692399 0.158651 0.561027
Si Si4 0.588395 0.002903 0.940366
Si Si5 0.988488 0.339967 0.935750
Si Si6 0.152901 0.937581 0.063566
O O1 0.679131 0.665939 0.250000
O O2 0.632160 0.581328 0.010396
O O3 0.640111 0.750000 0.000000
O O4 0.764428 0.658852 0.994923
O O5 0.144954 0.134444 0.750000
O O6 0.079410 0.144668 0.473345
O O7 0.166982 0.020264 0.533335
O O8 0.675198 0.250000 0.500000
O O9 0.687561 0.161108 0.750000
O O10 0.780832 0.129454 0.520863
O O11 0.634529 0.085237 0.505852
O O12 0.589072 0.004082 0.750000
O O13 0.500000 0.000000 0.000000
O O14 0.974623 0.345794 0.750000
O O15 0.967497 0.250000 0.000000
O O16 0.933107 0.404271 0.025144
O O17 0.160736 0.955912 0.250000
#
# Coordination Sequence:
#
# PCOD9439504 Si02
#       6
#     8   8   8   8   8   8
#     4  11  23  43  67  95 131 170 214 266 322 382
#     4  12  24  40  63  92 124 167 217 264 320 381
#     4  10  22  41  65  94 129 168 210 258 316 375
#     4  10  23  44  67  94 130 168 207 260 321 382
#     4  12  25  41  59  87 125 167 216 267 319 377
#     4  11  22  41  64  89 126 168 212 266 321 377
#
# _framework density 20.425577000000001
#
# number of rings (size 3 to 8) (size 9 to 14) (size 15 to 20)
#    0.000    1.000    1.667    5.500    0.000    5.333 
#    0.000    3.333    0.000    0.000    0.000    0.000 
#    0.000    0.000    0.000    0.000    0.000    0.000 
#
# Total GULP energy -268536.905577 kJ/mol
# GULP energy per Si atom -5594.518866 kJ/mol
# Density = 2.037909 g / cm^3
# Si number density = 20.425577 Si / 1000 Ang^3
#
#
#
# Elastic Constant Matrix: (Units=GPa)
#
#
# Indices 1 2 3 4 5 6 
#
# 1 89.3042 21.4568 -4.4484 0.0000 0.0000 0.0000
# 2 21.4568 125.2276 -2.1481 0.0000 0.0000 0.0000
# 3 -4.4484 -2.1481 34.6679 0.0000 0.0000 0.0000
# 4 0.0000 0.0000 0.0000 37.7584 0.0000 0.0000
# 5 0.0000 0.0000 0.0000 0.0000 25.8457 0.0000
# 6 0.0000 0.0000 0.0000 0.0000 0.0000 7.5032
#
#
#
# Elastic Compliance Matrix: (Units=1/GPa)
#
#
# Indices 1 2 3 4 5 6 
#
# 1 0.011744 -0.001989 0.001384 0.000000 0.000000 0.000000
# 2 -0.001989 0.008331 0.000261 0.000000 0.000000 0.000000
# 3 0.001384 0.000261 0.029039 0.000000 0.000000 0.000000
# 4 0.000000 0.000000 0.000000 0.026484 0.000000 0.000000
# 5 0.000000 0.000000 0.000000 0.000000 0.038691 0.000000
# 6 0.000000 0.000000 0.000000 0.000000 0.000000 0.133276
#
#
# Mechanical properties :
#
#
# Convention : Reuss Voigt Hill
#
# Bulk Modulus (GPa) = 20.64991 30.99115 25.82053
# Shear Modulus (GPa) = 18.91112 29.84409 24.37760
#
# Velocity S-wave (km/s) = 3.04609 3.82660 3.45843
# Velocity P-wave (km/s) = 4.74377 5.89317 5.34943
#
# Compressibility (1/GPa) = 0.04842636
#
# Stress axis : x y z
#
# Youngs Moduli (GPa) = 85.14696 120.03838 34.43657
#
# Poissons Ratio (x) = 0.23871 -0.04765
# Poissons Ratio (y) = 0.16932 -0.00899
# Poissons Ratio (z) = -0.11782 -0.03133
#
# Static dielectric constant tensor:
#      x y z
#    x 1.705190 0.000000 0.000000 
#    y 0.000000 1.746820 0.000000 
#    z 0.000000 0.000000 1.687200 
# 
# From -- ./inp_files/6519.got.cif
#   From: 2010.05.17/outbox.cif.g08.bks.cpg/sg57_4_cif.got.tgz:6519.got - 2010.06.03 13:58:18.
