data_PCOD9439668
_publ_section_title
;
Structure prediction by ZEFSAII (Michael W. Deem and Ramdas Pophale) SiO2 
 PCOD9439668
Probable space group: P B C M
;
_chemical_formula_sum "Si O2"
_cell_formula_units_Z 24
_cell_length_a 14.266573
_cell_length_b 8.861958
_cell_length_c 8.275841
_cell_angle_alpha 90.000000
_cell_angle_beta 90.000000
_cell_angle_gamma 90.000000
_cell_volume 1046.312680
_symmetry_space_group_name_H-M "P B C M"
_symmetry_group_IT_number 57
_symmetry_cell_setting 'orthorhombic'
loop_
_space_group_symop_operation_xyz
x,y,z
-x,-y,1/2+z
x,1/2-y,-z
-x,1/2+y,1/2-z
-x,-y,-z
x,y,1/2-z
-x,1/2+y,z
x,1/2-y,1/2+z
loop_
_atom_site_type_symbol
_atom_site_label
_atom_site_fract_x
_atom_site_fract_y
_atom_site_fract_z
Si Si1 0.399013 0.794358 0.250000
Si Si2 0.903753 0.423557 0.556180
Si Si3 0.708743 0.963562 0.928523
Si Si4 0.606025 0.931366 0.250000
O O1 0.343486 0.876754 0.395381
O O2 0.504436 0.856495 0.250000
O O3 0.400589 0.614981 0.250000
O O4 0.902708 0.250000 0.500000
O O5 0.894143 0.430764 0.750000
O O6 0.816091 0.507034 0.473982
O O7 0.000000 0.500000 0.500000
O O8 0.701670 0.890435 0.750000
O O9 0.658860 0.894572 0.083642
#
# Coordination Sequence:
#
# PCOD9439668 Si02
#       4
#     4   8   8   4
#     4  10  24  36  67  84 130 160 215 254 315 368
#     4  12  24  43  69  98 131 169 217 268 325 389
#     4  10  23  39  66  92 124 168 214 255 313 385
#     4  12  20  44  57  96 120 170 207 266 307 374
#
# _framework density 22.937692999999999
#
# number of rings (size 3 to 8) (size 9 to 14) (size 15 to 20)
#    1.000    0.000    1.667    7.000    0.000    0.000 
#    0.000    3.333    0.000    0.000    0.000    0.000 
#    0.000    0.000    0.000    0.000    0.000    0.000 
#
# Total GULP energy -134254.568157 kJ/mol
# GULP energy per Si atom -5593.940340 kJ/mol
# Density = 2.288549 g / cm^3
# Si number density = 22.937693 Si / 1000 Ang^3
#
#
#
# Elastic Constant Matrix: (Units=GPa)
#
#
# Indices 1 2 3 4 5 6 
#
# 1 199.1657 33.1502 78.9165 0.0000 0.0000 0.0000
# 2 33.1502 98.4900 63.8589 0.0000 0.0000 0.0000
# 3 78.9165 63.8589 238.9781 0.0000 0.0000 0.0000
# 4 0.0000 0.0000 0.0000 43.3035 0.0000 0.0000
# 5 0.0000 0.0000 0.0000 0.0000 83.1245 0.0000
# 6 0.0000 0.0000 0.0000 0.0000 0.0000 -198.7403
#
#
#
# Elastic Compliance Matrix: (Units=1/GPa)
#
#
# Indices 1 2 3 4 5 6 
#
# 1 0.005837 -0.000865 -0.001696 0.000000 0.000000 0.000000
# 2 -0.000865 0.012409 -0.003030 0.000000 0.000000 0.000000
# 3 -0.001696 -0.003030 0.005554 0.000000 0.000000 0.000000
# 4 0.000000 0.000000 0.000000 0.023093 0.000000 0.000000
# 5 0.000000 0.000000 0.000000 0.000000 0.012030 0.000000
# 6 0.000000 0.000000 0.000000 0.000000 0.000000 -0.005032
#
#
# Mechanical properties :
#
#
# Convention : Reuss Voigt Hill
#
# Bulk Modulus (GPa) = 79.25444 98.72056 88.98750
# Shear Modulus (GPa) = 72.16974 9.58475 40.87724
#
# Velocity S-wave (km/s) = 5.61531 2.04638 4.22607
# Velocity P-wave (km/s) = 8.75610 6.97965 7.91786
#
# Compressibility (1/GPa) = 0.01261759
#
# Stress axis : x y z
#
# Youngs Moduli (GPa) = 171.31860 80.58527 180.03491
#
# Poissons Ratio (x) = 0.06968 0.30543
# Poissons Ratio (y) = 0.14814 0.54558
# Poissons Ratio (z) = 0.29064 0.24421
#
# Static dielectric constant tensor:
#      x y z
#    x 1.771570 0.000000 0.000000 
#    y 0.000000 1.837990 0.000000 
#    z 0.000000 0.000000 1.871480 
# 
# From -- ./inp_files/3951.got.cif
#   From: 2010.05.17/outbox.cif.g08.bks.cpg/sg57_2_cif.got.tgz:3951.got - 2010.06.03 13:58:18.
