data_PCOD9439546
_publ_section_title
;
Structure prediction by ZEFSAII (Michael W. Deem and Ramdas Pophale) SiO2 
 PCOD9439546
Probable space group: P B C M
;
_chemical_formula_sum "Si O2"
_cell_formula_units_Z 64
_cell_length_a 8.255609
_cell_length_b 12.395215
_cell_length_c 27.558503
_cell_angle_alpha 90.000000
_cell_angle_beta 90.000000
_cell_angle_gamma 90.000000
_cell_volume 2820.062949
_symmetry_space_group_name_H-M "P B C M"
_symmetry_group_IT_number 57
_symmetry_cell_setting 'orthorhombic'
loop_
_space_group_symop_operation_xyz
x,y,z
-x,-y,1/2+z
x,1/2-y,-z
-x,1/2+y,1/2-z
-x,-y,-z
x,y,1/2-z
-x,1/2+y,z
x,1/2-y,1/2+z
loop_
_atom_site_type_symbol
_atom_site_label
_atom_site_fract_x
_atom_site_fract_y
_atom_site_fract_z
Si Si1 0.911903 0.620382 0.883965
Si Si2 0.245820 0.289098 0.945465
Si Si3 0.931834 0.431816 0.545925
Si Si4 0.721571 0.339493 0.113179
Si Si5 0.451564 0.956178 0.194403
Si Si6 0.732123 0.780924 0.303420
Si Si7 0.598684 0.382472 0.493574
Si Si8 0.519247 0.644720 0.370758
O O1 0.770613 0.681546 0.913671
O O2 0.911366 0.502024 0.905704
O O3 0.869539 0.648354 0.829076
O O4 0.087931 0.669034 0.895316
O O5 0.392760 0.358712 0.923193
O O6 0.076688 0.350828 0.942737
O O7 0.255062 0.250000 0.000000
O O8 0.758594 0.391351 0.527357
O O9 0.000000 0.500000 0.500000
O O10 0.694906 0.415678 0.160271
O O11 0.645150 0.385446 0.063710
O O12 0.624690 0.230197 0.124756
O O13 0.415668 0.991773 0.250000
O O14 0.538682 0.041637 0.158823
O O15 0.574825 0.857007 0.199013
O O16 0.779327 0.745521 0.250000
O O17 0.669655 0.683558 0.336615
O O18 0.558342 0.250000 0.500000
O O19 0.500000 0.500000 0.500000
#
# Coordination Sequence:
#
# PCOD9439546 Si02
#       8
#     8   8   8   8   8   8   8   8
#     4  11  23  41  64  93 130 180 227 290 356 437
#     4  11  22  40  63  92 134 183 230 284 357 436
#     4  12  23  41  68  94 141 191 239 291 365 441
#     4  11  24  42  65 102 135 180 239 296 363 436
#     4  10  22  42  66  93 129 173 230 296 367 432
#     4   9  21  41  63  90 122 166 222 283 354 427
#     4  12  30  48  72 108 153 197 248 312 371 454
#     4  10  23  38  68  93 132 177 228 293 360 441
#
# _framework density 22.694528999999999
#
# number of rings (size 3 to 8) (size 9 to 14) (size 15 to 20)
#    0.000    1.250    2.500    2.250    7.000    2.500 
#    0.000    0.000    0.000    3.750    0.000    0.000 
#    0.000    0.000    0.000    0.000    0.000    0.000 
#
# Total GULP energy -356990.695879 kJ/mol
# GULP energy per Si atom -5577.979623 kJ/mol
# Density = 2.264288 g / cm^3
# Si number density = 22.694529 Si / 1000 Ang^3
#
#
#
# Elastic Constant Matrix: (Units=GPa)
#
#
# Indices 1 2 3 4 5 6 
#
# 1 55.9199 18.5661 -12.0071 0.0000 0.0000 0.0000
# 2 18.5661 73.4989 23.4528 0.0000 0.0000 0.0000
# 3 -12.0071 23.4528 105.5187 0.0000 0.0000 0.0000
# 4 0.0000 0.0000 0.0000 28.2290 0.0000 0.0000
# 5 0.0000 0.0000 0.0000 0.0000 30.1619 0.0000
# 6 0.0000 0.0000 0.0000 0.0000 0.0000 255.8365
#
#
#
# Elastic Compliance Matrix: (Units=1/GPa)
#
#
# Indices 1 2 3 4 5 6 
#
# 1 0.020855 -0.006485 0.003815 0.000000 0.000000 0.000000
# 2 -0.006485 0.016661 -0.004441 0.000000 0.000000 0.000000
# 3 0.003815 -0.004441 0.010898 0.000000 0.000000 0.000000
# 4 0.000000 0.000000 0.000000 0.035425 0.000000 0.000000
# 5 0.000000 0.000000 0.000000 0.000000 0.033154 0.000000
# 6 0.000000 0.000000 0.000000 0.000000 0.000000 0.003909
#
#
# Mechanical properties :
#
#
# Convention : Reuss Voigt Hill
#
# Bulk Modulus (GPa) = 29.24786 32.77345 31.01066
# Shear Modulus (GPa) = 34.12456 76.50720 55.31588
#
# Velocity S-wave (km/s) = 3.88190 5.81248 4.94237
# Velocity P-wave (km/s) = 5.74524 7.71486 6.80172
#
# Compressibility (1/GPa) = 0.03419054
#
# Stress axis : x y z
#
# Youngs Moduli (GPa) = 47.95023 60.02066 91.75882
#
# Poissons Ratio (x) = 0.38925 -0.35002
# Poissons Ratio (y) = 0.31097 0.40751
# Poissons Ratio (z) = -0.18291 0.26656
#
# Static dielectric constant tensor:
#      x y z
#    x 1.899560 0.000000 0.000000 
#    y 0.000000 1.966860 0.000000 
#    z 0.000000 0.000000 1.893040 
# 
# From -- ./inp_files/29629.got.cif
#   From: 2010.05.17/outbox.cif.g08.bks.cpg/sg57_15_cif.got.tgz:29629.got - 2010.06.03 13:58:18.
