data_PCOD9439027
_publ_section_title
;
Structure prediction by ZEFSAII (Michael W. Deem and Ramdas Pophale) SiO2 
 PCOD9439027
Probable space group: P B C M
;
_chemical_formula_sum "Si O2"
_cell_formula_units_Z 40
_cell_length_a 18.664164
_cell_length_b 5.292224
_cell_length_c 15.977632
_cell_angle_alpha 90.000000
_cell_angle_beta 90.000000
_cell_angle_gamma 90.000000
_cell_volume 1578.189589
_symmetry_space_group_name_H-M "P B C M"
_symmetry_group_IT_number 57
_symmetry_cell_setting 'orthorhombic'
loop_
_space_group_symop_operation_xyz
x,y,z
-x,-y,1/2+z
x,1/2-y,-z
-x,1/2+y,1/2-z
-x,-y,-z
x,y,1/2-z
-x,1/2+y,z
x,1/2-y,1/2+z
loop_
_atom_site_type_symbol
_atom_site_label
_atom_site_fract_x
_atom_site_fract_y
_atom_site_fract_z
Si Si1 0.029088 0.061726 0.594361
Si Si2 0.685992 0.787791 0.250000
Si Si3 0.820022 0.420449 0.919789
Si Si4 0.344883 0.080162 0.923064
Si Si5 0.779584 0.203895 0.750000
Si Si6 0.545953 0.253164 0.350349
O O1 0.988072 0.292871 0.635312
O O2 0.113889 0.110555 0.590569
O O3 0.000000 0.000000 0.500000
O O4 0.642964 0.771293 0.335604
O O5 0.743936 0.568442 0.250000
O O6 0.721929 0.064805 0.250000
O O7 0.740851 0.537198 0.930255
O O8 0.819442 0.250564 0.836570
O O9 0.835096 0.250000 0.000000
O O10 0.384130 0.814215 0.905369
O O11 0.369207 0.250000 0.000000
O O12 0.562030 0.250586 0.250000
O O13 0.495414 0.010480 0.368871
#
# Coordination Sequence:
#
# PCOD9439027 Si02
#       6
#     8   4   8   8   4   8
#     4  10  21  39  66  92 129 182 219 275 332 400
#     4  10  22  44  60  94 144 168 219 280 335 396
#     4  11  23  42  69 102 139 181 231 280 348 408
#     4  11  24  40  70 105 136 181 228 283 340 409
#     4  10  24  40  62  96 132 178 217 286 329 396
#     4  10  23  45  70  96 135 184 223 273 345 407
#
# _framework density 25.345497000000002
#
# number of rings (size 3 to 8) (size 9 to 14) (size 15 to 20)
#    0.000    1.600    3.000    1.200    2.800    8.800 
#    0.000    1.000    0.000    0.000    0.000    0.000 
#    0.000    0.000    0.000    0.000    0.000    0.000 
#
# Total GULP energy -223978.281342 kJ/mol
# GULP energy per Si atom -5599.457034 kJ/mol
# Density = 2.528781 g / cm^3
# Si number density = 25.345497 Si / 1000 Ang^3
#
#
#
# Elastic Constant Matrix: (Units=GPa)
#
#
# Indices 1 2 3 4 5 6 
#
# 1 152.2422 37.1095 -5.7151 0.0000 0.0000 0.0000
# 2 37.1095 103.8142 1.6382 0.0000 0.0000 0.0000
# 3 -5.7151 1.6382 135.0289 0.0000 0.0000 0.0000
# 4 0.0000 0.0000 0.0000 23.3746 0.0000 0.0000
# 5 0.0000 0.0000 0.0000 0.0000 -29.2959 0.0000
# 6 0.0000 0.0000 0.0000 0.0000 0.0000 40.7564
#
#
#
# Elastic Compliance Matrix: (Units=1/GPa)
#
#
# Indices 1 2 3 4 5 6 
#
# 1 0.007211 -0.002583 0.000337 0.000000 0.000000 0.000000
# 2 -0.002583 0.010560 -0.000237 0.000000 0.000000 0.000000
# 3 0.000337 -0.000237 0.007423 0.000000 0.000000 0.000000
# 4 0.000000 0.000000 0.000000 0.042781 0.000000 0.000000
# 5 0.000000 0.000000 0.000000 0.000000 -0.034134 0.000000
# 6 0.000000 0.000000 0.000000 0.000000 0.000000 0.024536
#
#
# Mechanical properties :
#
#
# Convention : Reuss Voigt Hill
#
# Bulk Modulus (GPa) = 49.44194 50.79450 50.11822
# Shear Modulus (GPa) = 71.34119 30.83719 51.08919
#
# Velocity S-wave (km/s) = 5.31118 3.49187 4.49454
# Velocity P-wave (km/s) = 7.56049 6.02842 6.83750
#
# Compressibility (1/GPa) = 0.02022574
#
# Stress axis : x y z
#
# Youngs Moduli (GPa) = 138.68296 94.70048 134.71741
#
# Poissons Ratio (x) = 0.24460 -0.04534
# Poissons Ratio (y) = 0.35820 0.03199
# Poissons Ratio (z) = -0.04667 0.02248
#
# Static dielectric constant tensor:
#      x y z
#    x 2.045660 0.000000 0.000000 
#    y 0.000000 2.155930 0.000000 
#    z 0.000000 0.000000 2.023270 
# 
# From -- ./inp_files/22785.got.cif
#   From: 2010.05.17/outbox.cif.g08.bks.cpg/sg57_12_cif.got.tgz:22785.got - 2010.06.03 13:58:18.
