data_PCOD9439911
_publ_section_title
;
Structure prediction by ZEFSAII (Michael W. Deem and Ramdas Pophale) SiO2 
 PCOD9439911
Probable space group: P B C M
;
_chemical_formula_sum "Si O2"
_cell_formula_units_Z 48
_cell_length_a 7.961317
_cell_length_b 15.700719
_cell_length_c 18.874332
_cell_angle_alpha 90.000000
_cell_angle_beta 90.000000
_cell_angle_gamma 90.000000
_cell_volume 2359.261322
_symmetry_space_group_name_H-M "P B C M"
_symmetry_group_IT_number 57
_symmetry_cell_setting 'orthorhombic'
loop_
_space_group_symop_operation_xyz
x,y,z
-x,-y,1/2+z
x,1/2-y,-z
-x,1/2+y,1/2-z
-x,-y,-z
x,y,1/2-z
-x,1/2+y,z
x,1/2-y,1/2+z
loop_
_atom_site_type_symbol
_atom_site_label
_atom_site_fract_x
_atom_site_fract_y
_atom_site_fract_z
Si Si1 0.202972 0.857844 0.386690
Si Si2 0.178389 0.528293 0.750000
Si Si3 0.688501 0.468701 0.978971
Si Si4 0.184517 0.371344 0.100546
Si Si5 0.623044 0.750000 0.500000
Si Si6 0.478061 0.100056 0.250000
Si Si7 0.227029 0.456877 0.250000
Si Si8 0.606298 0.322330 0.610112
O O1 0.229859 0.915530 0.317753
O O2 0.248945 0.915351 0.453995
O O3 0.298470 0.767606 0.384918
O O4 0.005292 0.842307 0.390012
O O5 0.297084 0.445544 0.750000
O O6 0.973585 0.515056 0.750000
O O7 0.793941 0.551269 0.955283
O O8 0.709864 0.406358 0.910726
O O9 0.500000 0.500000 0.000000
O O10 0.249394 0.402502 0.177453
O O11 0.279885 0.294613 0.063260
O O12 0.508646 0.682994 0.459442
O O13 0.504843 0.156990 0.319454
O O14 0.630848 0.030353 0.250000
#
# Coordination Sequence:
#
# PCOD9439911 Si02
#       8
#     8   4   8   8   4   4   4   8
#     4  11  24  44  67  97 143 178 226 289 346 404
#     4  10  25  45  69 101 134 179 239 272 342 425
#     4  12  21  41  68  98 132 177 230 279 333 419
#     4  11  25  44  70  99 135 183 225 286 351 408
#     4  12  26  42  66 104 138 172 236 278 342 426
#     4  12  25  44  75  98 137 190 224 285 353 400
#     4  10  24  47  70 101 131 181 231 283 335 417
#     4  12  24  42  67 102 135 179 231 282 340 417
#
# _framework density 20.34535
#
# number of rings (size 3 to 8) (size 9 to 14) (size 15 to 20)
#    0.000    0.667    5.000    2.000    4.667    0.667 
#    3.000    0.000    0.000    0.000    0.000    0.000 
#    0.000    0.000    0.000    0.000    0.000    0.000 
#
# Total GULP energy -267968.487057 kJ/mol
# GULP energy per Si atom -5582.676814 kJ/mol
# Density = 2.029904 g / cm^3
# Si number density = 20.345350 Si / 1000 Ang^3
#
#
#
# Elastic Constant Matrix: (Units=GPa)
#
#
# Indices 1 2 3 4 5 6 
#
# 1 46.4165 21.9808 23.2284 0.0000 0.0000 0.0000
# 2 21.9808 76.2318 9.9017 0.0000 0.0000 0.0000
# 3 23.2284 9.9017 113.3432 0.0000 0.0000 0.0000
# 4 0.0000 0.0000 0.0000 35.8738 0.0000 0.0000
# 5 0.0000 0.0000 0.0000 0.0000 20.8354 0.0000
# 6 0.0000 0.0000 0.0000 0.0000 0.0000 35.1981
#
#
#
# Elastic Compliance Matrix: (Units=1/GPa)
#
#
# Indices 1 2 3 4 5 6 
#
# 1 0.027492 -0.007278 -0.004998 0.000000 0.000000 0.000000
# 2 -0.007278 0.015195 0.000164 0.000000 0.000000 0.000000
# 3 -0.004998 0.000164 0.009833 0.000000 0.000000 0.000000
# 4 0.000000 0.000000 0.000000 0.027875 0.000000 0.000000
# 5 0.000000 0.000000 0.000000 0.000000 0.047995 0.000000
# 6 0.000000 0.000000 0.000000 0.000000 0.000000 0.028411
#
#
# Mechanical properties :
#
#
# Convention : Reuss Voigt Hill
#
# Bulk Modulus (GPa) = 35.34131 38.46814 36.90472
# Shear Modulus (GPa) = 26.25263 30.44016 28.34639
#
# Velocity S-wave (km/s) = 3.59604 3.87224 3.73669
# Velocity P-wave (km/s) = 5.88646 6.24027 6.06594
#
# Compressibility (1/GPa) = 0.02829550
#
# Stress axis : x y z
#
# Youngs Moduli (GPa) = 36.37446 65.81085 101.70060
#
# Poissons Ratio (x) = 0.47896 0.50834
# Poissons Ratio (y) = 0.26473 -0.01668
# Poissons Ratio (z) = 0.18181 -0.01080
#
# Static dielectric constant tensor:
#      x y z
#    x 1.758040 0.000000 0.000000 
#    y 0.000000 1.766280 0.000000 
#    z 0.000000 0.000000 1.685700 
# 
# From -- ./inp_files/21029.got.cif
#   From: 2010.05.17/outbox.cif.g08.bks.cpg/sg57_11_cif.got.tgz:21029.got - 2010.06.03 13:58:18.
