data_PCOD9439262
_publ_section_title
;
Structure prediction by ZEFSAII (Michael W. Deem and Ramdas Pophale) SiO2 
 PCOD9439262
Probable space group: P B C M
;
_chemical_formula_sum "Si O2"
_cell_formula_units_Z 60
_cell_length_a 9.502626
_cell_length_b 10.787268
_cell_length_c 26.315414
_cell_angle_alpha 90.000000
_cell_angle_beta 90.000000
_cell_angle_gamma 90.000000
_cell_volume 2697.523968
_symmetry_space_group_name_H-M "P B C M"
_symmetry_group_IT_number 57
_symmetry_cell_setting 'orthorhombic'
loop_
_space_group_symop_operation_xyz
x,y,z
-x,-y,1/2+z
x,1/2-y,-z
-x,1/2+y,1/2-z
-x,-y,-z
x,y,1/2-z
-x,1/2+y,z
x,1/2-y,1/2+z
loop_
_atom_site_type_symbol
_atom_site_label
_atom_site_fract_x
_atom_site_fract_y
_atom_site_fract_z
Si Si1 0.736751 0.602680 0.808040
Si Si2 0.667920 0.250000 0.500000
Si Si3 0.805714 0.187893 0.306966
Si Si4 0.813648 0.703985 0.912640
Si Si5 0.586149 0.404194 0.193406
Si Si6 0.127344 0.776552 0.081243
Si Si7 0.296844 0.474909 0.605648
Si Si8 0.459567 0.076159 0.549867
O O1 0.758397 0.648332 0.750000
O O2 0.769882 0.456706 0.808014
O O3 0.823331 0.663924 0.853477
O O4 0.573481 0.620296 0.823508
O O5 0.780927 0.304700 0.541145
O O6 0.555841 0.195996 0.540452
O O7 0.870986 0.213390 0.250000
O O8 0.666481 0.273296 0.308104
O O9 0.876075 0.221056 0.361402
O O10 0.756433 0.844083 0.912632
O O11 0.698603 0.615768 0.939613
O O12 0.968070 0.703001 0.935931
O O13 0.568763 0.451564 0.250000
O O14 0.690324 0.499381 0.165249
O O15 0.203768 0.911698 0.083659
O O16 0.460396 0.495621 0.591560
O O17 0.500000 0.000000 0.500000
#
# Coordination Sequence:
#
# PCOD9439262 Si02
#       8
#     8   4   8   8   8   8   8   8
#     4  10  22  36  62 100 135 175 225 281 336 399
#     4  10  24  44  66  94 130 176 220 272 344 398
#     4   9  20  40  65  93 136 187 231 278 345 411
#     4  12  26  41  69 101 135 174 228 278 338 410
#     4   9  18  35  61  93 128 172 218 271 332 394
#     4  10  25  44  69  95 138 183 225 278 342 412
#     4  10  23  42  61  96 130 170 219 270 332 400
#     4  11  24  42  66  95 125 168 217 279 338 393
#
# _framework density 22.242621
#
# number of rings (size 3 to 8) (size 9 to 14) (size 15 to 20)
#    0.000    1.867    1.333    0.800    5.600    2.667 
#    0.000    2.667    0.000    0.000    0.000    0.000 
#    0.000    0.000    0.000    0.000    0.000    0.000 
#
# Total GULP energy -334113.394748 kJ/mol
# GULP energy per Si atom -5568.556579 kJ/mol
# Density = 2.219200 g / cm^3
# Si number density = 22.242621 Si / 1000 Ang^3
#
#
#
# Elastic Constant Matrix: (Units=GPa)
#
#
# Indices 1 2 3 4 5 6 
#
# 1 80.2028 -9.6716 0.0589 0.0000 0.0000 0.0000
# 2 -9.6716 43.3479 -11.7898 0.0000 0.0000 0.0000
# 3 0.0589 -11.7898 64.9613 0.0000 0.0000 0.0000
# 4 0.0000 0.0000 0.0000 21.7196 0.0000 0.0000
# 5 0.0000 0.0000 0.0000 0.0000 20.7422 0.0000
# 6 0.0000 0.0000 0.0000 0.0000 0.0000 4.1887
#
#
#
# Elastic Compliance Matrix: (Units=1/GPa)
#
#
# Indices 1 2 3 4 5 6 
#
# 1 0.012831 0.003008 0.000534 0.000000 0.000000 0.000000
# 2 0.003008 0.024972 0.004529 0.000000 0.000000 0.000000
# 3 0.000534 0.004529 0.016215 0.000000 0.000000 0.000000
# 4 0.000000 0.000000 0.000000 0.046041 0.000000 0.000000
# 5 0.000000 0.000000 0.000000 0.000000 0.048211 0.000000
# 6 0.000000 0.000000 0.000000 0.000000 0.000000 0.238737
#
#
# Mechanical properties :
#
#
# Convention : Reuss Voigt Hill
#
# Bulk Modulus (GPa) = 14.25270 16.18964 15.22117
# Shear Modulus (GPa) = 12.68227 23.32441 18.00334
#
# Velocity S-wave (km/s) = 2.39043 3.24178 2.84809
# Velocity P-wave (km/s) = 3.74708 4.61591 4.20400
#
# Compressibility (1/GPa) = 0.07016212
#
# Stress axis : x y z
#
# Youngs Moduli (GPa) = 77.93780 40.04443 61.66990
#
# Poissons Ratio (x) = -0.12046 -0.03295
# Poissons Ratio (y) = -0.23444 -0.27933
# Poissons Ratio (z) = -0.04164 -0.18138
#
# Static dielectric constant tensor:
#      x y z
#    x 1.804240 0.000000 0.000000 
#    y 0.000000 1.888530 0.000000 
#    z 0.000000 0.000000 2.064550 
# 
# From -- ./inp_files/28405.got.cif
#   From: 2010.05.17/outbox.cif.g08.bks.cpg/sg57_15_cif.got.tgz:28405.got - 2010.06.03 13:58:18.
