data_PCOD9439204
_publ_section_title
;
Structure prediction by ZEFSAII (Michael W. Deem and Ramdas Pophale) SiO2 
 PCOD9439204
Probable space group: P B C M
;
_chemical_formula_sum "Si O2"
_cell_formula_units_Z 56
_cell_length_a 11.540921
_cell_length_b 11.316517
_cell_length_c 21.914915
_cell_angle_alpha 90.000000
_cell_angle_beta 90.000000
_cell_angle_gamma 90.000000
_cell_volume 2862.154273
_symmetry_space_group_name_H-M "P B C M"
_symmetry_group_IT_number 57
_symmetry_cell_setting 'orthorhombic'
loop_
_space_group_symop_operation_xyz
x,y,z
-x,-y,1/2+z
x,1/2-y,-z
-x,1/2+y,1/2-z
-x,-y,-z
x,y,1/2-z
-x,1/2+y,z
x,1/2-y,1/2+z
loop_
_atom_site_type_symbol
_atom_site_label
_atom_site_fract_x
_atom_site_fract_y
_atom_site_fract_z
Si Si1 0.819241 0.214803 0.928825
Si Si2 0.909441 0.755796 0.073452
Si Si3 0.587620 0.846794 0.682434
Si Si4 0.296636 0.115572 0.862045
Si Si5 0.316582 0.850469 0.678794
Si Si6 0.746321 0.947129 0.584503
Si Si7 0.567875 0.620391 0.514778
O O1 0.752249 0.287263 0.876227
O O2 0.955836 0.224772 0.914259
O O3 0.778992 0.080212 0.926153
O O4 0.801002 0.250000 0.000000
O O5 0.825090 0.851609 0.105148
O O6 0.859229 0.631351 0.097616
O O7 0.899489 0.750000 0.000000
O O8 0.591080 0.896612 0.750000
O O9 0.659962 0.725189 0.678353
O O10 0.453198 0.827352 0.667390
O O11 0.651173 0.934496 0.636904
O O12 0.391800 0.113463 0.915915
O O13 0.294659 0.990770 0.828736
O O14 0.290937 0.816240 0.750000
O O15 0.682167 0.887315 0.527142
O O16 0.513305 0.750000 0.500000
O O17 0.500000 0.500000 0.500000
#
# Coordination Sequence:
#
# PCOD9439204 Si02
#       7
#     8   8   8   8   8   8   8
#     4  11  27  41  69 102 132 175 228 279 334 400
#     4  10  21  42  67  95 131 173 217 272 333 396
#     4  10  23  42  66  91 125 174 221 266 334 407
#     4  11  21  41  67  93 126 172 222 265 337 400
#     4  11  26  45  64  96 136 174 219 282 345 410
#     4  11  22  42  64  95 129 173 218 267 342 393
#     4  12  23  37  63 102 144 171 213 279 345 410
#
# _framework density 19.565681999999999
#
# number of rings (size 3 to 8) (size 9 to 14) (size 15 to 20)
#    0.000    1.143    4.286    2.143    6.000    2.286 
#    0.000    3.571    0.000    0.000    0.000    0.000 
#    0.000    0.000    0.000    0.000    0.000    0.000 
#
# Total GULP energy -312674.974509 kJ/mol
# GULP energy per Si atom -5583.481688 kJ/mol
# Density = 1.952115 g / cm^3
# Si number density = 19.565682 Si / 1000 Ang^3
#
#
#
# Elastic Constant Matrix: (Units=GPa)
#
#
# Indices 1 2 3 4 5 6 
#
# 1 106.5064 36.8302 59.9581 0.0000 0.0000 0.0000
# 2 36.8302 107.1383 24.0427 0.0000 0.0000 0.0000
# 3 59.9581 24.0427 102.2519 0.0000 0.0000 0.0000
# 4 0.0000 0.0000 0.0000 16.5079 0.0000 0.0000
# 5 0.0000 0.0000 0.0000 0.0000 16.7706 0.0000
# 6 0.0000 0.0000 0.0000 0.0000 0.0000 24.9773
#
#
#
# Elastic Compliance Matrix: (Units=1/GPa)
#
#
# Indices 1 2 3 4 5 6 
#
# 1 0.015093 -0.003381 -0.008055 0.000000 0.000000 0.000000
# 2 -0.003381 0.010611 -0.000513 0.000000 0.000000 0.000000
# 3 -0.008055 -0.000513 0.014624 0.000000 0.000000 0.000000
# 4 0.000000 0.000000 0.000000 0.060577 0.000000 0.000000
# 5 0.000000 0.000000 0.000000 0.000000 0.059628 0.000000
# 6 0.000000 0.000000 0.000000 0.000000 0.000000 0.040036
#
#
# Mechanical properties :
#
#
# Convention : Reuss Voigt Hill
#
# Bulk Modulus (GPa) = 60.86259 61.95097 61.40678
# Shear Modulus (GPa) = 21.74454 24.65553 23.20004
#
# Velocity S-wave (km/s) = 3.33733 3.55370 3.44721
# Velocity P-wave (km/s) = 6.78415 6.96923 6.87731
#
# Compressibility (1/GPa) = 0.01643046
#
# Stress axis : x y z
#
# Youngs Moduli (GPa) = 66.25653 94.24247 68.38232
#
# Poissons Ratio (x) = 0.31861 0.55083
# Poissons Ratio (y) = 0.22399 0.03505
# Poissons Ratio (z) = 0.53371 0.04831
#
# Static dielectric constant tensor:
#      x y z
#    x 1.692940 0.000000 0.000000 
#    y 0.000000 1.693210 0.000000 
#    z 0.000000 0.000000 1.637940 
# 
# From -- ./inp_files/25054.got.cif
#   From: 2010.05.17/outbox.cif.g08.bks.cpg/sg57_13_cif.got.tgz:25054.got - 2010.06.03 13:58:18.
