data_PCOD9439491
_publ_section_title
;
Structure prediction by ZEFSAII (Michael W. Deem and Ramdas Pophale) SiO2 
 PCOD9439491
Probable space group: P B C M
;
_chemical_formula_sum "Si O2"
_cell_formula_units_Z 64
_cell_length_a 13.863669
_cell_length_b 9.718429
_cell_length_c 23.800873
_cell_angle_alpha 90.000000
_cell_angle_beta 90.000000
_cell_angle_gamma 90.000000
_cell_volume 3206.764994
_symmetry_space_group_name_H-M "P B C M"
_symmetry_group_IT_number 57
_symmetry_cell_setting 'orthorhombic'
loop_
_space_group_symop_operation_xyz
x,y,z
-x,-y,1/2+z
x,1/2-y,-z
-x,1/2+y,1/2-z
-x,-y,-z
x,y,1/2-z
-x,1/2+y,z
x,1/2-y,1/2+z
loop_
_atom_site_type_symbol
_atom_site_label
_atom_site_fract_x
_atom_site_fract_y
_atom_site_fract_z
Si Si1 0.472873 0.626963 0.036480
Si Si2 0.255510 0.898055 0.508624
Si Si3 0.102540 0.973565 0.595485
Si Si4 0.576669 0.246195 0.688519
Si Si5 0.773518 0.507231 0.115096
Si Si6 0.073685 0.277847 0.566544
Si Si7 0.566818 0.545787 0.149920
Si Si8 0.799957 0.271668 0.682243
O O1 0.526578 0.613009 0.093813
O O2 0.510539 0.750000 0.000000
O O3 0.500000 0.500000 0.000000
O O4 0.357208 0.631446 0.038805
O O5 0.206402 0.750000 0.500000
O O6 0.189373 0.983047 0.550378
O O7 0.266555 0.957928 0.446077
O O8 0.142798 0.894844 0.650935
O O9 0.021211 0.872446 0.570842
O O10 0.064049 0.130180 0.597826
O O11 0.585261 0.179112 0.750000
O O12 0.499459 0.367376 0.691447
O O13 0.684474 0.297122 0.674725
O O14 0.547875 0.117846 0.649676
O O15 0.846203 0.628968 0.098408
O O16 0.682066 0.558547 0.151491
O O17 0.815907 0.374112 0.148783
O O18 0.093329 0.250000 0.500000
O O19 0.818905 0.262649 0.750000
#
# Coordination Sequence:
#
# PCOD9439491 Si02
#       8
#     8   8   8   8   8   8   8   8
#     4  11  22  34  53  86 126 166 201 247 317 382
#     4  11  21  37  63  90 128 169 213 262 322 388
#     4  12  24  42  68  96 130 164 215 265 326 393
#     4  10  22  41  64  89 120 169 224 264 311 367
#     4  11  23  41  62  96 131 172 216 263 325 383
#     4  12  26  42  65 101 132 168 208 262 325 397
#     4  11  22  37  58  89 129 167 209 265 313 371
#     4  10  23  45  71  94 125 171 220 272 323 382
#
# _framework density 19.957808
#
# number of rings (size 3 to 8) (size 9 to 14) (size 15 to 20)
#    0.000    1.000    3.750    3.375    3.500    4.000 
#    0.000    3.125    0.000    0.000    0.000    0.000 
#    0.000    0.000    0.000    0.000    0.000    0.000 
#
# Total GULP energy -356831.531244 kJ/mol
# GULP energy per Si atom -5575.492676 kJ/mol
# Density = 1.991238 g / cm^3
# Si number density = 19.957808 Si / 1000 Ang^3
#
#
#
# Elastic Constant Matrix: (Units=GPa)
#
#
# Indices 1 2 3 4 5 6 
#
# 1 51.4128 41.6685 9.2195 0.0000 0.0000 0.0000
# 2 41.6685 131.5541 41.5263 0.0000 0.0000 0.0000
# 3 9.2195 41.5263 95.8300 0.0000 0.0000 0.0000
# 4 0.0000 0.0000 0.0000 41.4461 0.0000 0.0000
# 5 0.0000 0.0000 0.0000 0.0000 21.0617 0.0000
# 6 0.0000 0.0000 0.0000 0.0000 0.0000 37.0655
#
#
#
# Elastic Compliance Matrix: (Units=1/GPa)
#
#
# Indices 1 2 3 4 5 6 
#
# 1 0.026297 -0.008724 0.001250 0.000000 0.000000 0.000000
# 2 -0.008724 0.011700 -0.004231 0.000000 0.000000 0.000000
# 3 0.001250 -0.004231 0.012148 0.000000 0.000000 0.000000
# 4 0.000000 0.000000 0.000000 0.024128 0.000000 0.000000
# 5 0.000000 0.000000 0.000000 0.000000 0.047480 0.000000
# 6 0.000000 0.000000 0.000000 0.000000 0.000000 0.026979
#
#
# Mechanical properties :
#
#
# Convention : Reuss Voigt Hill
#
# Bulk Modulus (GPa) = 37.40207 51.51394 44.45801
# Shear Modulus (GPa) = 27.61636 32.34017 29.97826
#
# Velocity S-wave (km/s) = 3.72390 4.02982 3.87987
# Velocity P-wave (km/s) = 6.10501 6.89348 6.51119
#
# Compressibility (1/GPa) = 0.02673649
#
# Stress axis : x y z
#
# Youngs Moduli (GPa) = 38.02766 85.46911 82.31694
#
# Poissons Ratio (x) = 0.74563 -0.10293
# Poissons Ratio (y) = 0.33175 0.34826
# Poissons Ratio (z) = -0.04755 0.36160
#
# Static dielectric constant tensor:
#      x y z
#    x 1.692440 0.000000 0.000000 
#    y 0.000000 1.717150 0.000000 
#    z 0.000000 0.000000 1.661740 
# 
# From -- ./inp_files/27515.got.cif
#   From: 2010.05.17/outbox.cif.g08.bks.cpg/sg57_14_cif.got.tgz:27515.got - 2010.06.03 13:58:18.
