data_PCOD9439182
_publ_section_title
;
Structure prediction by ZEFSAII (Michael W. Deem and Ramdas Pophale) SiO2 
 PCOD9439182
Probable space group: P B C M
;
_chemical_formula_sum "Si O2"
_cell_formula_units_Z 56
_cell_length_a 12.489259
_cell_length_b 10.092620
_cell_length_c 22.596064
_cell_angle_alpha 90.000000
_cell_angle_beta 90.000000
_cell_angle_gamma 90.000000
_cell_volume 2848.219071
_symmetry_space_group_name_H-M "P B C M"
_symmetry_group_IT_number 57
_symmetry_cell_setting 'orthorhombic'
loop_
_space_group_symop_operation_xyz
x,y,z
-x,-y,1/2+z
x,1/2-y,-z
-x,1/2+y,1/2-z
-x,-y,-z
x,y,1/2-z
-x,1/2+y,z
x,1/2-y,1/2+z
loop_
_atom_site_type_symbol
_atom_site_label
_atom_site_fract_x
_atom_site_fract_y
_atom_site_fract_z
Si Si1 0.010420 0.133245 0.815858
Si Si2 0.398806 0.136638 0.181169
Si Si3 0.117883 0.490822 0.530099
Si Si4 0.571207 0.156664 0.680133
Si Si5 0.172131 0.011425 0.900357
Si Si6 0.818249 0.706442 0.369289
Si Si7 0.200441 0.796359 0.376427
O O1 0.030077 0.080837 0.750000
O O2 0.082419 0.266122 0.825377
O O3 0.887049 0.163251 0.827057
O O4 0.055562 0.041287 0.869320
O O5 0.378078 0.167151 0.250000
O O6 0.476876 0.249623 0.157609
O O7 0.282137 0.123749 0.152444
O O8 0.458860 0.997166 0.177056
O O9 0.184956 0.475863 0.470358
O O10 0.133899 0.363281 0.572412
O O11 0.158115 0.619774 0.566610
O O12 0.000000 0.500000 0.500000
O O13 0.591141 0.188237 0.750000
O O14 0.680124 0.172894 0.643926
O O15 0.197143 0.861502 0.884962
O O16 0.228818 0.143879 0.875986
#
# Coordination Sequence:
#
# PCOD9439182 Si02
#       7
#     8   8   8   8   8   8   8
#     4  10  23  38  58  92 135 173 208 262 338 410
#     4  10  21  41  67  97 132 178 226 276 337 405
#     4  12  21  42  65  92 128 172 227 268 327 404
#     4  10  23  40  66  98 133 178 227 280 338 403
#     4  10  25  37  62  92 125 173 216 267 324 398
#     4  10  22  41  64  94 129 172 215 273 329 399
#     4  12  23  41  62  99 132 172 221 282 333 400
#
# _framework density 19.661408999999999
#
# number of rings (size 3 to 8) (size 9 to 14) (size 15 to 20)
#    0.857    0.571    2.857    2.571    2.000    2.286 
#    0.000    0.000    0.000    5.143    0.000    0.000 
#    0.000    0.000    0.000    0.000    0.000    0.000 
#
# Total GULP energy -311769.768689 kJ/mol
# GULP energy per Si atom -5567.317298 kJ/mol
# Density = 1.961666 g / cm^3
# Si number density = 19.661409 Si / 1000 Ang^3
#
#
#
# Elastic Constant Matrix: (Units=GPa)
#
#
# Indices 1 2 3 4 5 6 
#
# 1 87.0967 12.5062 21.2316 0.0000 0.0000 0.0000
# 2 12.5062 68.3210 11.7693 0.0000 0.0000 0.0000
# 3 21.2316 11.7693 82.8765 0.0000 0.0000 0.0000
# 4 0.0000 0.0000 0.0000 26.4966 0.0000 0.0000
# 5 0.0000 0.0000 0.0000 0.0000 20.7747 0.0000
# 6 0.0000 0.0000 0.0000 0.0000 0.0000 28.9371
#
#
#
# Elastic Compliance Matrix: (Units=1/GPa)
#
#
# Indices 1 2 3 4 5 6 
#
# 1 0.012452 -0.001773 -0.002938 0.000000 0.000000 0.000000
# 2 -0.001773 0.015256 -0.001712 0.000000 0.000000 0.000000
# 3 -0.002938 -0.001712 0.013062 0.000000 0.000000 0.000000
# 4 0.000000 0.000000 0.000000 0.037741 0.000000 0.000000
# 5 0.000000 0.000000 0.000000 0.000000 0.048135 0.000000
# 6 0.000000 0.000000 0.000000 0.000000 0.000000 0.034558
#
#
# Mechanical properties :
#
#
# Convention : Reuss Voigt Hill
#
# Bulk Modulus (GPa) = 35.81255 36.58980 36.20118
# Shear Modulus (GPa) = 27.26879 28.09417 27.68148
#
# Velocity S-wave (km/s) = 3.72818 3.78418 3.75628
# Velocity P-wave (km/s) = 6.06519 6.14359 6.10452
#
# Compressibility (1/GPa) = 0.02792317
#
# Stress axis : x y z
#
# Youngs Moduli (GPa) = 80.30596 65.54645 76.55765
#
# Poissons Ratio (x) = 0.11623 0.22495
# Poissons Ratio (y) = 0.14240 0.13109
# Poissons Ratio (z) = 0.23596 0.11223
#
# Static dielectric constant tensor:
#      x y z
#    x 1.713130 0.000000 0.000000 
#    y 0.000000 1.759270 0.000000 
#    z 0.000000 0.000000 1.705950 
# 
# From -- ./inp_files/25009.got.cif
#   From: 2010.05.17/outbox.cif.g08.bks.cpg/sg57_13_cif.got.tgz:25009.got - 2010.06.03 13:58:18.
