data_PCOD9439506
_publ_section_title
;
Structure prediction by ZEFSAII (Michael W. Deem and Ramdas Pophale) SiO2 
 PCOD9439506
Probable space group: P B C M
;
_chemical_formula_sum "Si O2"
_cell_formula_units_Z 32
_cell_length_a 16.017874
_cell_length_b 8.653377
_cell_length_c 10.645668
_cell_angle_alpha 90.000000
_cell_angle_beta 90.000000
_cell_angle_gamma 90.000000
_cell_volume 1475.582228
_symmetry_space_group_name_H-M "P B C M"
_symmetry_group_IT_number 57
_symmetry_cell_setting 'orthorhombic'
loop_
_space_group_symop_operation_xyz
x,y,z
-x,-y,1/2+z
x,1/2-y,-z
-x,1/2+y,1/2-z
-x,-y,-z
x,y,1/2-z
-x,1/2+y,z
x,1/2-y,1/2+z
loop_
_atom_site_type_symbol
_atom_site_label
_atom_site_fract_x
_atom_site_fract_y
_atom_site_fract_z
Si Si1 0.926491 0.074821 0.250000
Si Si2 0.640085 0.569384 0.976773
Si Si3 0.532796 0.138680 0.881619
Si Si4 0.825868 0.936850 0.483767
Si Si5 0.889083 0.058537 0.750000
O O1 0.908486 0.258252 0.250000
O O2 0.887307 0.998227 0.375669
O O3 0.024404 0.036892 0.250000
O O4 0.606392 0.484063 0.100513
O O5 0.649900 0.750000 0.000000
O O6 0.558320 0.559906 0.889442
O O7 0.731842 0.516380 0.940227
O O8 0.540277 0.221418 0.750000
O O9 0.539341 0.250000 0.000000
O O10 0.833155 0.750000 0.500000
O O11 0.842720 0.011250 0.620664
#
# Coordination Sequence:
#
# PCOD9439506 Si02
#       5
#     4   8   8   8   4
#     4  12  26  46  72 103 136 177 218 275 340 407
#     4   9  22  40  62  91 128 177 222 269 322 386
#     4  10  22  41  65  96 135 178 224 276 330 388
#     4  11  24  45  70 101 136 178 227 278 336 403
#     4  12  26  46  72 101 138 173 220 275 340 409
#
# _framework density 21.686354999999999
#
# number of rings (size 3 to 8) (size 9 to 14) (size 15 to 20)
#    0.000    1.500    0.000    3.750    3.500   11.000 
#    4.500    0.000    0.000    0.000    0.000    0.000 
#    0.000    0.000    0.000    0.000    0.000    0.000 
#
# Total GULP energy -178568.678477 kJ/mol
# GULP energy per Si atom -5580.271202 kJ/mol
# Density = 2.163700 g / cm^3
# Si number density = 21.686355 Si / 1000 Ang^3
#
#
#
# Elastic Constant Matrix: (Units=GPa)
#
#
# Indices 1 2 3 4 5 6 
#
# 1 81.3281 19.1948 0.0349 0.0000 0.0000 0.0000
# 2 19.1948 120.9482 49.8735 0.0000 0.0000 0.0000
# 3 0.0349 49.8735 147.7754 0.0000 0.0000 0.0000
# 4 0.0000 0.0000 0.0000 35.0529 0.0000 0.0000
# 5 0.0000 0.0000 0.0000 0.0000 -134.5987 0.0000
# 6 0.0000 0.0000 0.0000 0.0000 0.0000 -49.5069
#
#
#
# Elastic Compliance Matrix: (Units=1/GPa)
#
#
# Indices 1 2 3 4 5 6 
#
# 1 0.012855 -0.002368 0.000796 0.000000 0.000000 0.000000
# 2 -0.002368 0.010041 -0.003388 0.000000 0.000000 0.000000
# 3 0.000796 -0.003388 0.007910 0.000000 0.000000 0.000000
# 4 0.000000 0.000000 0.000000 0.028528 0.000000 0.000000
# 5 0.000000 0.000000 0.000000 0.000000 -0.007429 0.000000
# 6 0.000000 0.000000 0.000000 0.000000 0.000000 -0.020199
#
#
# Mechanical properties :
#
#
# Convention : Reuss Voigt Hill
#
# Bulk Modulus (GPa) = 47.88082 54.25091 51.06587
# Shear Modulus (GPa) = 102.90611 -11.08065 45.91273
#
# Velocity S-wave (km/s) = 6.89602 -2.26287 4.60621
# Velocity P-wave (km/s) = 9.24843 4.27118 7.20335
#
# Compressibility (1/GPa) = 0.02088519
#
# Stress axis : x y z
#
# Youngs Moduli (GPa) = 77.79366 99.59140 126.41660
#
# Poissons Ratio (x) = 0.23587 -0.10066
# Poissons Ratio (y) = 0.18425 0.42833
# Poissons Ratio (z) = -0.06195 0.33744
#
# Static dielectric constant tensor:
#      x y z
#    x 1.791190 0.000000 0.000000 
#    y 0.000000 1.822860 0.000000 
#    z 0.000000 0.000000 1.806440 
# 
# From -- ./inp_files/13457.got.cif
#   From: 2010.05.17/outbox.cif.g08.bks.cpg/sg57_7_cif.got.tgz:13457.got - 2010.06.03 13:58:18.
