data_PCOD9439750
_publ_section_title
;
Structure prediction by ZEFSAII (Michael W. Deem and Ramdas Pophale) SiO2 
 PCOD9439750
Probable space group: P B C M
;
_chemical_formula_sum "Si O2"
_cell_formula_units_Z 40
_cell_length_a 6.086425
_cell_length_b 14.263065
_cell_length_c 22.771773
_cell_angle_alpha 90.000000
_cell_angle_beta 90.000000
_cell_angle_gamma 90.000000
_cell_volume 1976.842103
_symmetry_space_group_name_H-M "P B C M"
_symmetry_group_IT_number 57
_symmetry_cell_setting 'orthorhombic'
loop_
_space_group_symop_operation_xyz
x,y,z
-x,-y,1/2+z
x,1/2-y,-z
-x,1/2+y,1/2-z
-x,-y,-z
x,y,1/2-z
-x,1/2+y,z
x,1/2-y,1/2+z
loop_
_atom_site_type_symbol
_atom_site_label
_atom_site_fract_x
_atom_site_fract_y
_atom_site_fract_z
Si Si1 0.807608 0.297328 0.910677
Si Si2 0.180780 0.286390 0.680914
Si Si3 0.130747 0.402643 0.994629
Si Si4 0.442506 0.150323 0.601145
Si Si5 0.436373 0.439965 0.885859
O O1 0.636491 0.214748 0.925684
O O2 0.667753 0.387081 0.889421
O O3 0.959195 0.269616 0.855722
O O4 0.966197 0.331181 0.962629
O O5 0.151723 0.281192 0.750000
O O6 0.349070 0.209514 0.655423
O O7 0.282804 0.386661 0.660919
O O8 0.326088 0.421013 0.948847
O O9 0.246989 0.367361 0.054022
O O10 0.000000 0.500000 0.000000
O O11 0.533834 0.050167 0.620904
#
# Coordination Sequence:
#
# PCOD9439750 Si02
#       5
#     8   8   8   8   8
#     4  10  24  42  63  95 137 172 216 268 332 384
#     4  10  25  45  66  94 128 173 232 279 326 384
#     4  11  23  41  67  98 140 172 210 264 329 408
#     4  11  24  41  69 101 134 173 224 264 336 394
#     4  10  23  43  65  96 132 174 214 272 329 395
#
# _framework density 20.234290000000001
#
# number of rings (size 3 to 8) (size 9 to 14) (size 15 to 20)
#    0.000    1.600    2.000    0.600    2.800   12.800 
#    0.000    2.000    0.000    0.000    0.000    0.000 
#    0.000    0.000    0.000    0.000    0.000    0.000 
#
# Total GULP energy -223715.160782 kJ/mol
# GULP energy per Si atom -5592.879020 kJ/mol
# Density = 2.018824 g / cm^3
# Si number density = 20.234290 Si / 1000 Ang^3
#
#
#
# Elastic Constant Matrix: (Units=GPa)
#
#
# Indices 1 2 3 4 5 6 
#
# 1 87.2204 44.1128 35.5001 0.0000 0.0000 0.0000
# 2 44.1128 153.0821 43.7244 0.0000 0.0000 0.0000
# 3 35.5001 43.7244 127.3049 0.0000 0.0000 0.0000
# 4 0.0000 0.0000 0.0000 15.2025 0.0000 0.0000
# 5 0.0000 0.0000 0.0000 0.0000 15.7367 0.0000
# 6 0.0000 0.0000 0.0000 0.0000 0.0000 39.7935
#
#
#
# Elastic Compliance Matrix: (Units=1/GPa)
#
#
# Indices 1 2 3 4 5 6 
#
# 1 0.014298 -0.003306 -0.002852 0.000000 0.000000 0.000000
# 2 -0.003306 0.008007 -0.001828 0.000000 0.000000 0.000000
# 3 -0.002852 -0.001828 0.009278 0.000000 0.000000 0.000000
# 4 0.000000 0.000000 0.000000 0.065779 0.000000 0.000000
# 5 0.000000 0.000000 0.000000 0.000000 0.063546 0.000000
# 6 0.000000 0.000000 0.000000 0.000000 0.000000 0.025130
#
#
# Mechanical properties :
#
#
# Convention : Reuss Voigt Hill
#
# Bulk Modulus (GPa) = 64.05338 68.25358 66.15348
# Shear Modulus (GPa) = 24.12979 30.43121 27.28050
#
# Velocity S-wave (km/s) = 3.45703 3.88228 3.67581
# Velocity P-wave (km/s) = 6.90358 7.34173 7.12602
#
# Compressibility (1/GPa) = 0.01561198
#
# Stress axis : x y z
#
# Youngs Moduli (GPa) = 69.94109 124.88709 107.77760
#
# Poissons Ratio (x) = 0.41282 0.30735
# Poissons Ratio (y) = 0.23120 0.19706
# Poissons Ratio (z) = 0.19945 0.22834
#
# Static dielectric constant tensor:
#      x y z
#    x 1.755250 0.000000 0.000000 
#    y 0.000000 2.084990 0.000000 
#    z 0.000000 0.000000 1.685280 
# 
# From -- ./inp_files/26110.got.cif
#   From: 2010.05.17/outbox.cif.g08.bks.cpg/sg57_14_cif.got.tgz:26110.got - 2010.06.03 13:58:18.
