data_PCOD9439688
_publ_section_title
;
Structure prediction by ZEFSAII (Michael W. Deem and Ramdas Pophale) SiO2 
 PCOD9439688
Probable space group: P B C M
;
_chemical_formula_sum "Si O2"
_cell_formula_units_Z 56
_cell_length_a 5.611611
_cell_length_b 14.878492
_cell_length_c 31.387679
_cell_angle_alpha 90.000000
_cell_angle_beta 90.000000
_cell_angle_gamma 90.000000
_cell_volume 2620.629805
_symmetry_space_group_name_H-M "P B C M"
_symmetry_group_IT_number 57
_symmetry_cell_setting 'orthorhombic'
loop_
_space_group_symop_operation_xyz
x,y,z
-x,-y,1/2+z
x,1/2-y,-z
-x,1/2+y,1/2-z
-x,-y,-z
x,y,1/2-z
-x,1/2+y,z
x,1/2-y,1/2+z
loop_
_atom_site_type_symbol
_atom_site_label
_atom_site_fract_x
_atom_site_fract_y
_atom_site_fract_z
Si Si1 0.096129 0.156971 0.074000
Si Si2 0.523599 0.787251 0.872749
Si Si3 0.258216 0.788154 0.043290
Si Si4 0.088376 0.048961 0.797816
Si Si5 0.604207 0.013112 0.546938
Si Si6 0.409522 0.841680 0.203391
Si Si7 0.723560 0.464800 0.881672
O O1 0.198690 0.205859 0.115961
O O2 0.993221 0.236390 0.045789
O O3 0.883016 0.091103 0.085770
O O4 0.283195 0.084891 0.056282
O O5 0.404213 0.747045 0.915693
O O6 0.440161 0.727264 0.834400
O O7 0.451862 0.889688 0.862964
O O8 0.238849 0.895989 0.044394
O O9 0.375224 0.750000 0.000000
O O10 0.923631 0.505054 0.750000
O O11 0.343874 0.101178 0.797320
O O12 0.839113 0.103854 0.801090
O O13 0.115998 0.998319 0.842836
O O14 0.500000 0.000000 0.500000
O O15 0.425873 0.030079 0.587267
O O16 0.398683 0.797582 0.250000
#
# Coordination Sequence:
#
# PCOD9439688 Si02
#       7
#     8   8   8   8   8   8   8
#     4  10  24  42  62  97 132 170 236 283 352 430
#     4  10  23  41  63  95 131 176 226 284 354 422
#     4  11  24  41  65  96 133 180 227 291 358 421
#     4  10  23  42  66  98 133 177 232 288 350 422
#     4  11  24  44  65  96 136 180 230 294 360 430
#     4  10  23  42  66  98 136 176 231 290 350 423
#     4  10  23  40  65  93 130 176 226 287 352 432
#
# _framework density 21.368908000000001
#
# number of rings (size 3 to 8) (size 9 to 14) (size 15 to 20)
#    0.000    1.714    0.000    3.429   10.000    5.714 
#    0.000    0.714    0.000    0.000    0.000    0.000 
#    0.000    0.000    0.000    0.000    0.000    0.000 
#
# Total GULP energy -311906.087818 kJ/mol
# GULP energy per Si atom -5569.751568 kJ/mol
# Density = 2.132027 g / cm^3
# Si number density = 21.368908 Si / 1000 Ang^3
#
#
#
# Elastic Constant Matrix: (Units=GPa)
#
#
# Indices 1 2 3 4 5 6 
#
# 1 77.4575 31.3501 8.9335 0.0000 0.0000 0.0000
# 2 31.3501 91.5039 55.3179 0.0000 0.0000 0.0000
# 3 8.9335 55.3179 83.2120 0.0000 0.0000 0.0000
# 4 0.0000 0.0000 0.0000 37.1489 0.0000 0.0000
# 5 0.0000 0.0000 0.0000 0.0000 20.3300 0.0000
# 6 0.0000 0.0000 0.0000 0.0000 0.0000 29.2537
#
#
#
# Elastic Compliance Matrix: (Units=1/GPa)
#
#
# Indices 1 2 3 4 5 6 
#
# 1 0.015456 -0.007176 0.003111 0.000000 0.000000 0.000000
# 2 -0.007176 0.021604 -0.013591 0.000000 0.000000 0.000000
# 3 0.003111 -0.013591 0.020719 0.000000 0.000000 0.000000
# 4 0.000000 0.000000 0.000000 0.026919 0.000000 0.000000
# 5 0.000000 0.000000 0.000000 0.000000 0.049188 0.000000
# 6 0.000000 0.000000 0.000000 0.000000 0.000000 0.034184
#
#
# Mechanical properties :
#
#
# Convention : Reuss Voigt Hill
#
# Bulk Modulus (GPa) = 44.51195 49.26404 46.88800
# Shear Modulus (GPa) = 23.71124 27.78465 25.74795
#
# Velocity S-wave (km/s) = 3.33470 3.60979 3.47497
# Velocity P-wave (km/s) = 5.97515 6.36225 6.17174
#
# Compressibility (1/GPa) = 0.02246588
#
# Stress axis : x y z
#
# Youngs Moduli (GPa) = 64.69981 46.28834 48.26545
#
# Poissons Ratio (x) = 0.33218 -0.15017
# Poissons Ratio (y) = 0.46431 0.65599
# Poissons Ratio (z) = -0.20131 0.62912
#
# Static dielectric constant tensor:
#      x y z
#    x 1.881580 0.000000 0.000000 
#    y 0.000000 1.789530 0.000000 
#    z 0.000000 0.000000 1.787080 
# 
# From -- ./inp_files/29166.got.cif
#   From: 2010.05.17/outbox.cif.g08.bks.cpg/sg57_15_cif.got.tgz:29166.got - 2010.06.03 13:58:18.
