data_PCOD9439058
_publ_section_title
;
Structure prediction by ZEFSAII (Michael W. Deem and Ramdas Pophale) SiO2 
 PCOD9439058
Probable space group: P B C M
;
_chemical_formula_sum "Si O2"
_cell_formula_units_Z 48
_cell_length_a 11.262445
_cell_length_b 9.125133
_cell_length_c 25.091411
_cell_angle_alpha 90.000000
_cell_angle_beta 90.000000
_cell_angle_gamma 90.000000
_cell_volume 2578.677141
_symmetry_space_group_name_H-M "P B C M"
_symmetry_group_IT_number 57
_symmetry_cell_setting 'orthorhombic'
loop_
_space_group_symop_operation_xyz
x,y,z
-x,-y,1/2+z
x,1/2-y,-z
-x,1/2+y,1/2-z
-x,-y,-z
x,y,1/2-z
-x,1/2+y,z
x,1/2-y,1/2+z
loop_
_atom_site_type_symbol
_atom_site_label
_atom_site_fract_x
_atom_site_fract_y
_atom_site_fract_z
Si Si1 0.292579 0.942394 0.434446
Si Si2 0.493406 0.619809 0.636071
Si Si3 0.941682 0.615889 0.039646
Si Si4 0.184431 0.870517 0.592475
Si Si5 0.647832 0.384709 0.687905
Si Si6 0.657950 0.601902 0.533893
O O1 0.376896 0.968683 0.383926
O O2 0.248078 0.773982 0.432599
O O3 0.176775 0.045859 0.435906
O O4 0.365895 0.981237 0.487809
O O5 0.579418 0.535652 0.676029
O O6 0.440312 0.764319 0.662361
O O7 0.566465 0.638418 0.581055
O O8 0.044656 0.648247 0.082652
O O9 0.919531 0.750000 0.000000
O O10 0.000000 0.500000 0.000000
O O11 0.232455 0.878338 0.652697
O O12 0.232928 0.018769 0.564049
O O13 0.667352 0.360472 0.750000
O O14 0.673090 0.750000 0.500000
#
# Coordination Sequence:
#
# PCOD9439058 Si02
#       6
#     8   8   8   8   8   8
#     4  11  21  34  53  79 118 154 180 217 276 345
#     4  10  22  36  55  86 113 145 188 231 280 344
#     4  12  21  35  55  82 117 154 183 222 273 339
#     4  10  22  37  54  80 110 150 194 230 272 338
#     4  10  21  40  62  79 106 144 190 243 289 326
#     4  11  20  32  52  82 119 148 178 219 276 345
#
# _framework density 18.614196
#
# number of rings (size 3 to 8) (size 9 to 14) (size 15 to 20)
#    0.000    1.333    3.333    3.000    0.000    2.667 
#    0.000    1.667    0.000    5.000    0.000    0.000 
#    0.000    0.000    0.000    0.000    0.000    0.000 
#
# Total GULP energy -267625.247016 kJ/mol
# GULP energy per Si atom -5575.525980 kJ/mol
# Density = 1.857183 g / cm^3
# Si number density = 18.614196 Si / 1000 Ang^3
#
#
#
# Elastic Constant Matrix: (Units=GPa)
#
#
# Indices 1 2 3 4 5 6 
#
# 1 104.7526 33.4840 50.8434 0.0000 0.0000 0.0000
# 2 33.4840 84.2793 38.2759 0.0000 0.0000 0.0000
# 3 50.8434 38.2759 107.1753 0.0000 0.0000 0.0000
# 4 0.0000 0.0000 0.0000 19.2863 0.0000 0.0000
# 5 0.0000 0.0000 0.0000 0.0000 19.6355 0.0000
# 6 0.0000 0.0000 0.0000 0.0000 0.0000 21.5113
#
#
#
# Elastic Compliance Matrix: (Units=1/GPa)
#
#
# Indices 1 2 3 4 5 6 
#
# 1 0.012936 -0.002808 -0.005134 0.000000 0.000000 0.000000
# 2 -0.002808 0.014772 -0.003944 0.000000 0.000000 0.000000
# 3 -0.005134 -0.003944 0.013174 0.000000 0.000000 0.000000
# 4 0.000000 0.000000 0.000000 0.051850 0.000000 0.000000
# 5 0.000000 0.000000 0.000000 0.000000 0.050928 0.000000
# 6 0.000000 0.000000 0.000000 0.000000 0.000000 0.046487
#
#
# Mechanical properties :
#
#
# Convention : Reuss Voigt Hill
#
# Bulk Modulus (GPa) = 58.44013 60.15707 59.29860
# Shear Modulus (GPa) = 22.76645 23.66021 23.21333
#
# Velocity S-wave (km/s) = 3.50103 3.56909 3.53523
# Velocity P-wave (km/s) = 6.91423 7.02656 6.97062
#
# Compressibility (1/GPa) = 0.01711153
#
# Stress axis : x y z
#
# Youngs Moduli (GPa) = 77.30609 67.69661 75.90501
#
# Poissons Ratio (x) = 0.19007 0.38969
# Poissons Ratio (y) = 0.21705 0.29933
# Poissons Ratio (z) = 0.39688 0.26696
#
# Static dielectric constant tensor:
#      x y z
#    x 1.704770 0.000000 0.000000 
#    y 0.000000 1.708360 0.000000 
#    z 0.000000 0.000000 1.623160 
# 
# From -- ./inp_files/27087.got.cif
#   From: 2010.05.17/outbox.cif.g08.bks.cpg/sg57_14_cif.got.tgz:27087.got - 2010.06.03 13:58:18.
