data_PCOD9439906
_publ_section_title
;
Structure prediction by ZEFSAII (Michael W. Deem and Ramdas Pophale) SiO2 
 PCOD9439906
Probable space group: P B C M
;
_chemical_formula_sum "Si O2"
_cell_formula_units_Z 32
_cell_length_a 11.192503
_cell_length_b 11.284272
_cell_length_c 9.510131
_cell_angle_alpha 90.000000
_cell_angle_beta 90.000000
_cell_angle_gamma 90.000000
_cell_volume 1201.122396
_symmetry_space_group_name_H-M "P B C M"
_symmetry_group_IT_number 57
_symmetry_cell_setting 'orthorhombic'
loop_
_space_group_symop_operation_xyz
x,y,z
-x,-y,1/2+z
x,1/2-y,-z
-x,1/2+y,1/2-z
-x,-y,-z
x,y,1/2-z
-x,1/2+y,z
x,1/2-y,1/2+z
loop_
_atom_site_type_symbol
_atom_site_label
_atom_site_fract_x
_atom_site_fract_y
_atom_site_fract_z
Si Si1 0.844463 0.659329 0.250000
Si Si2 0.000468 0.750000 0.000000
Si Si3 0.948194 0.421964 0.250000
Si Si4 0.640645 0.495339 0.470029
Si Si5 0.655253 0.288528 0.250000
Si Si6 0.786520 0.039709 0.250000
Si Si7 0.381478 0.300239 0.750000
O O1 0.841847 0.515981 0.250000
O O2 0.744861 0.766394 0.250000
O O3 0.919999 0.680036 0.390257
O O4 0.061289 0.656245 0.892875
O O5 0.923214 0.992311 0.250000
O O6 0.500000 0.500000 0.500000
O O7 0.661077 0.373822 0.385154
O O8 0.719192 0.498855 0.608409
O O9 0.650163 0.615399 0.381024
O O10 0.751981 0.182539 0.250000
O O11 0.516588 0.240191 0.250000
#
# Coordination Sequence:
#
# PCOD9439906 Si02
#       7
#     4   4   4   8   4   4   4
#     4  11  24  47  69 110 140 189 238 301 357 430
#     4  10  24  46  74 106 138 194 238 290 370 414
#     4  11  25  48  76 107 148 182 248 300 355 443
#     4  11  23  42  64 102 142 181 238 292 360 420
#     4  11  24  43  65 102 139 194 238 281 363 428
#     4  12  23  43  67 103 140 183 229 301 354 426
#     4  11  24  43  73  96 145 184 235 297 349 429
#
# _framework density 26.641746000000001
#
# number of rings (size 3 to 8) (size 9 to 14) (size 15 to 20)
#    0.000    1.000    2.500    3.750    0.000    6.000 
#   13.500    0.000    0.000    0.000    0.000    0.000 
#    0.000    0.000    0.000    0.000    0.000    0.000 
#
# Total GULP energy -178927.828002 kJ/mol
# GULP energy per Si atom -5591.494625 kJ/mol
# Density = 2.658111 g / cm^3
# Si number density = 26.641746 Si / 1000 Ang^3
#
#
#
# Elastic Constant Matrix: (Units=GPa)
#
#
# Indices 1 2 3 4 5 6 
#
# 1 203.9114 64.8651 52.9291 0.0000 0.0000 0.0000
# 2 64.8651 149.9844 73.0066 0.0000 0.0000 0.0000
# 3 52.9291 73.0066 188.2689 0.0000 0.0000 0.0000
# 4 0.0000 0.0000 0.0000 13.2565 0.0000 0.0000
# 5 0.0000 0.0000 0.0000 0.0000 -22.8595 0.0000
# 6 0.0000 0.0000 0.0000 0.0000 0.0000 44.3749
#
#
#
# Elastic Compliance Matrix: (Units=1/GPa)
#
#
# Indices 1 2 3 4 5 6 
#
# 1 0.005785 -0.002108 -0.000809 0.000000 0.000000 0.000000
# 2 -0.002108 0.008987 -0.002892 0.000000 0.000000 0.000000
# 3 -0.000809 -0.002892 0.006661 0.000000 0.000000 0.000000
# 4 0.000000 0.000000 0.000000 0.075435 0.000000 0.000000
# 5 0.000000 0.000000 0.000000 0.000000 -0.043745 0.000000
# 6 0.000000 0.000000 0.000000 0.000000 0.000000 0.022535
#
#
# Mechanical properties :
#
#
# Convention : Reuss Voigt Hill
#
# Bulk Modulus (GPa) = 101.89773 102.64071 102.26922
# Shear Modulus (GPa) = 55.22065 30.37864 42.79964
#
# Velocity S-wave (km/s) = 4.55764 3.38044 4.01245
# Velocity P-wave (km/s) = 8.12567 7.33801 7.74187
#
# Compressibility (1/GPa) = 0.00981376
#
# Stress axis : x y z
#
# Youngs Moduli (GPa) = 172.87264 111.27325 150.13880
#
# Poissons Ratio (x) = 0.23457 0.12143
# Poissons Ratio (y) = 0.36442 0.43424
# Poissons Ratio (z) = 0.13982 0.32183
#
# Static dielectric constant tensor:
#      x y z
#    x 0.889430 0.000000 0.000000 
#    y 0.000000 2.351460 0.000000 
#    z 0.000000 0.000000 2.154160 
# 
# From -- ./inp_files/4158.got.cif
#   From: 2010.05.17/outbox.cif.g08.bks.cpg/sg57_3_cif.got.tgz:4158.got - 2010.06.03 13:58:18.
