data_PCOD9439239
_publ_section_title
;
Structure prediction by ZEFSAII (Michael W. Deem and Ramdas Pophale) SiO2 
 PCOD9439239
Probable space group: P B C M
;
_chemical_formula_sum "Si O2"
_cell_formula_units_Z 40
_cell_length_a 13.019880
_cell_length_b 10.120940
_cell_length_c 14.408917
_cell_angle_alpha 90.000000
_cell_angle_beta 90.000000
_cell_angle_gamma 90.000000
_cell_volume 1898.712333
_symmetry_space_group_name_H-M "P B C M"
_symmetry_group_IT_number 57
_symmetry_cell_setting 'orthorhombic'
loop_
_space_group_symop_operation_xyz
x,y,z
-x,-y,1/2+z
x,1/2-y,-z
-x,1/2+y,1/2-z
-x,-y,-z
x,y,1/2-z
-x,1/2+y,z
x,1/2-y,1/2+z
loop_
_atom_site_type_symbol
_atom_site_label
_atom_site_fract_x
_atom_site_fract_y
_atom_site_fract_z
Si Si1 0.437380 0.332230 0.250000
Si Si2 0.290952 0.161324 0.912723
Si Si3 0.063094 0.618350 0.457175
Si Si4 0.126252 0.325200 0.250000
Si Si5 0.298513 0.876111 0.950228
Si Si6 0.626190 0.358592 0.750000
Si Si7 0.993800 0.420135 0.750000
O O1 0.376779 0.285079 0.157981
O O2 0.427310 0.493902 0.250000
O O3 0.546007 0.261178 0.250000
O O4 0.194561 0.140835 0.841658
O O5 0.337046 0.025820 0.955810
O O6 0.262811 0.250000 0.000000
O O7 0.016927 0.750000 0.500000
O O8 0.181914 0.611621 0.485655
O O9 0.056781 0.621802 0.346599
O O10 0.000000 0.500000 0.500000
O O11 0.025063 0.419996 0.250000
O O12 0.097780 0.169194 0.250000
O O13 0.305180 0.848825 0.841114
O O14 0.348467 0.750000 0.000000
#
# Coordination Sequence:
#
# PCOD9439239 Si02
#       7
#     4   8   8   4   8   4   4
#     4   9  22  41  70  93 119 167 200 259 321 394
#     4  10  22  43  63  89 127 162 208 263 322 386
#     4  11  24  39  61  92 128 174 222 263 313 379
#     4  11  24  39  60  87 125 169 212 265 324 373
#     4  10  22  40  64  92 129 169 202 263 322 371
#     4  10  21  44  69  95 131 159 213 263 330 391
#     4  12  23  40  61  89 125 171 219 275 317 372
#
# _framework density 21.066908999999999
#
# number of rings (size 3 to 8) (size 9 to 14) (size 15 to 20)
#    0.000    1.600    2.000    2.400    2.800    2.400 
#    0.000    6.000    0.000    0.000    0.000    0.000 
#    0.000    0.000    0.000    0.000    0.000    0.000 
#
# Total GULP energy -222917.610476 kJ/mol
# GULP energy per Si atom -5572.940262 kJ/mol
# Density = 2.101896 g / cm^3
# Si number density = 21.066909 Si / 1000 Ang^3
#
#
#
# Elastic Constant Matrix: (Units=GPa)
#
#
# Indices 1 2 3 4 5 6 
#
# 1 51.4204 27.2703 -2.5075 0.0000 0.0000 0.0000
# 2 27.2703 105.6383 63.7046 0.0000 0.0000 0.0000
# 3 -2.5075 63.7046 119.7693 0.0000 0.0000 0.0000
# 4 0.0000 0.0000 0.0000 25.7378 0.0000 0.0000
# 5 0.0000 0.0000 0.0000 0.0000 12.2122 0.0000
# 6 0.0000 0.0000 0.0000 0.0000 0.0000 28.6479
#
#
#
# Elastic Compliance Matrix: (Units=1/GPa)
#
#
# Indices 1 2 3 4 5 6 
#
# 1 0.025022 -0.009975 0.005829 0.000000 0.000000 0.000000
# 2 -0.009975 0.017913 -0.009737 0.000000 0.000000 0.000000
# 3 0.005829 -0.009737 0.013650 0.000000 0.000000 0.000000
# 4 0.000000 0.000000 0.000000 0.038853 0.000000 0.000000
# 5 0.000000 0.000000 0.000000 0.000000 0.081885 0.000000
# 6 0.000000 0.000000 0.000000 0.000000 0.000000 0.034907
#
#
# Mechanical properties :
#
#
# Convention : Reuss Voigt Hill
#
# Bulk Modulus (GPa) = 34.69688 50.41810 42.55749
# Shear Modulus (GPa) = 20.03200 25.87695 22.95448
#
# Velocity S-wave (km/s) = 3.08697 3.50855 3.30449
# Velocity P-wave (km/s) = 5.40476 6.35590 5.89953
#
# Compressibility (1/GPa) = 0.02882103
#
# Stress axis : x y z
#
# Youngs Moduli (GPa) = 39.96521 55.82613 73.25884
#
# Poissons Ratio (x) = 0.55685 -0.42705
# Poissons Ratio (y) = 0.39864 0.71329
# Poissons Ratio (z) = -0.23297 0.54355
#
# Static dielectric constant tensor:
#      x y z
#    x 1.763090 0.000000 0.000000 
#    y 0.000000 1.788320 0.000000 
#    z 0.000000 0.000000 1.732880 
# 
# From -- ./inp_files/18310.got.cif
#   From: 2010.05.17/outbox.cif.g08.bks.cpg/sg57_10_cif.got.tgz:18310.got - 2010.06.03 13:58:18.
