data_PCOD9439405
_publ_section_title
;
Structure prediction by ZEFSAII (Michael W. Deem and Ramdas Pophale) SiO2 
 PCOD9439405
Probable space group: P B C M
;
_chemical_formula_sum "Si O2"
_cell_formula_units_Z 44
_cell_length_a 5.553220
_cell_length_b 23.166870
_cell_length_c 15.109398
_cell_angle_alpha 90.000000
_cell_angle_beta 90.000000
_cell_angle_gamma 90.000000
_cell_volume 1943.835019
_symmetry_space_group_name_H-M "P B C M"
_symmetry_group_IT_number 57
_symmetry_cell_setting 'orthorhombic'
loop_
_space_group_symop_operation_xyz
x,y,z
-x,-y,1/2+z
x,1/2-y,-z
-x,1/2+y,1/2-z
-x,-y,-z
x,y,1/2-z
-x,1/2+y,z
x,1/2-y,1/2+z
loop_
_atom_site_type_symbol
_atom_site_label
_atom_site_fract_x
_atom_site_fract_y
_atom_site_fract_z
Si Si1 0.852908 0.693170 0.938864
Si Si2 0.137931 0.027865 0.750000
Si Si3 0.018961 0.771450 0.250000
Si Si4 0.114829 0.643102 0.250000
Si Si5 0.654972 0.054188 0.114074
Si Si6 0.265175 0.067271 0.250000
Si Si7 0.760799 0.386579 0.250000
Si Si8 0.642683 0.119705 0.941481
O O1 0.867248 0.716603 0.838251
O O2 0.606049 0.656229 0.954313
O O3 0.105863 0.656912 0.951380
O O4 0.854439 0.750000 0.000000
O O5 0.905743 0.987160 0.750000
O O6 0.257914 0.005255 0.659283
O O7 0.038763 0.091839 0.750000
O O8 0.149437 0.709937 0.250000
O O9 0.232022 0.818104 0.250000
O O10 0.205273 0.606471 0.334365
O O11 0.831877 0.631957 0.250000
O O12 0.396699 0.061546 0.157185
O O13 0.659911 0.067703 0.011766
O O14 0.643973 0.404237 0.158455
#
# Coordination Sequence:
#
# PCOD9439405 Si02
#       8
#     8   4   4   4   8   4   4   8
#     4  11  24  41  62  94 131 173 217 259 313 390
#     4   9  20  42  66  90 127 163 214 272 328 375
#     4  10  22  40  62  88 129 177 206 252 324 390
#     4   9  18  36  64  92 129 155 205 268 322 371
#     4   9  20  37  65  97 118 159 214 278 316 376
#     4   8  18  36  60  98 120 148 212 268 330 361
#     4  10  24  46  60  88 135 177 215 256 316 407
#     4  11  24  42  64  91 132 168 218 264 323 378
#
# _framework density 22.635663999999998
#
# number of rings (size 3 to 8) (size 9 to 14) (size 15 to 20)
#    0.000    2.545    0.000    2.182    7.636    2.182 
#   19.636    0.909    0.000    0.000    0.000    0.000 
#    0.000    0.000    0.000    0.000    0.000    0.000 
#
# Total GULP energy -245228.075678 kJ/mol
# GULP energy per Si atom -5573.365356 kJ/mol
# Density = 2.258414 g / cm^3
# Si number density = 22.635664 Si / 1000 Ang^3
#
#
#
# Elastic Constant Matrix: (Units=GPa)
#
#
# Indices 1 2 3 4 5 6 
#
# 1 105.1064 36.9400 28.1569 0.0000 0.0000 0.0000
# 2 36.9400 100.5787 22.6788 0.0000 0.0000 0.0000
# 3 28.1569 22.6788 155.0396 0.0000 0.0000 0.0000
# 4 0.0000 0.0000 0.0000 80.0794 0.0000 0.0000
# 5 0.0000 0.0000 0.0000 0.0000 3.3297 0.0000
# 6 0.0000 0.0000 0.0000 0.0000 0.0000 34.9732
#
#
#
# Elastic Compliance Matrix: (Units=1/GPa)
#
#
# Indices 1 2 3 4 5 6 
#
# 1 0.011246 -0.003795 -0.001487 0.000000 0.000000 0.000000
# 2 -0.003795 0.011562 -0.001002 0.000000 0.000000 0.000000
# 3 -0.001487 -0.001002 0.006867 0.000000 0.000000 0.000000
# 4 0.000000 0.000000 0.000000 0.012488 0.000000 0.000000
# 5 0.000000 0.000000 0.000000 0.000000 0.300327 0.000000
# 6 0.000000 0.000000 0.000000 0.000000 0.000000 0.028593
#
#
# Mechanical properties :
#
#
# Convention : Reuss Voigt Hill
#
# Bulk Modulus (GPa) = 58.45807 59.58621 59.02214
# Shear Modulus (GPa) = 12.84177 41.87306 27.35742
#
# Velocity S-wave (km/s) = 2.38444 4.30568 3.48026
# Velocity P-wave (km/s) = 5.78468 7.14840 6.50239
#
# Compressibility (1/GPa) = 0.01710628
#
# Stress axis : x y z
#
# Youngs Moduli (GPa) = 88.91715 86.48817 145.63121
#
# Poissons Ratio (x) = 0.32824 0.21660
# Poissons Ratio (y) = 0.33745 0.14593
# Poissons Ratio (z) = 0.13225 0.08667
#
# Static dielectric constant tensor:
#      x y z
#    x 1.979960 0.000000 0.000000 
#    y 0.000000 1.838890 0.000000 
#    z 0.000000 0.000000 1.827780 
# 
# From -- ./inp_files/15080.got.cif
#   From: 2010.05.17/outbox.cif.g08.bks.cpg/sg57_8_cif.got.tgz:15080.got - 2010.06.03 13:58:18.
