data_PCOD9439986
_publ_section_title
;
Structure prediction by ZEFSAII (Michael W. Deem and Ramdas Pophale) SiO2 
 PCOD9439986
Probable space group: P B C M
;
_chemical_formula_sum "Si O2"
_cell_formula_units_Z 48
_cell_length_a 13.705798
_cell_length_b 19.388125
_cell_length_c 10.335467
_cell_angle_alpha 90.000000
_cell_angle_beta 90.000000
_cell_angle_gamma 90.000000
_cell_volume 2746.440802
_symmetry_space_group_name_H-M "P B C M"
_symmetry_group_IT_number 57
_symmetry_cell_setting 'orthorhombic'
loop_
_space_group_symop_operation_xyz
x,y,z
-x,-y,1/2+z
x,1/2-y,-z
-x,1/2+y,1/2-z
-x,-y,-z
x,y,1/2-z
-x,1/2+y,z
x,1/2-y,1/2+z
loop_
_atom_site_type_symbol
_atom_site_label
_atom_site_fract_x
_atom_site_fract_y
_atom_site_fract_z
Si Si1 0.413043 0.415962 0.750000
Si Si2 0.902275 0.574571 0.603033
Si Si3 0.360591 0.666127 0.750000
Si Si4 0.938256 0.408534 0.897290
Si Si5 0.313140 0.448712 0.484961
Si Si6 0.536459 0.942176 0.250000
Si Si7 0.277101 0.612938 0.485970
Si Si8 0.402062 0.826869 0.750000
O O1 0.348580 0.419124 0.621168
O O2 0.480973 0.484555 0.750000
O O3 0.486946 0.352293 0.750000
O O4 0.917361 0.599182 0.750000
O O5 0.922943 0.491840 0.603808
O O6 0.789966 0.581944 0.561254
O O7 0.976525 0.606291 0.499384
O O8 0.455003 0.616708 0.750000
O O9 0.299609 0.648582 0.621724
O O10 0.391928 0.745160 0.750000
O O11 0.961220 0.387830 0.750000
O O12 0.834533 0.378346 0.941561
O O13 0.395140 0.437849 0.375945
O O14 0.297826 0.531175 0.499451
O O15 0.347814 0.642235 0.375467
#
# Coordination Sequence:
#
# PCOD9439986 Si02
#       8
#     4   8   4   8   8   4   8   4
#     4  12  22  34  59  81 110 155 197 236 283 346
#     4   9  18  31  49  81 115 142 174 225 276 328
#     4  12  26  36  55  85 113 149 195 238 275 346
#     4   9  18  31  52  77 112 146 175 216 276 334
#     4  11  20  34  57  85 113 149 190 233 290 340
#     4  12  20  38  55  81 112 151 197 234 281 340
#     4  11  20  37  56  81 115 151 183 231 286 345
#     4  12  24  40  55  79 117 151 191 236 289 334
#
# _framework density 17.477164999999999
#
# number of rings (size 3 to 8) (size 9 to 14) (size 15 to 20)
#    0.000    1.333    5.000    2.000    2.333    0.000 
#    0.000    0.000    0.000    0.000    0.000    7.000 
#    0.000    0.000    0.000    0.000    0.000    0.000 
#
# Total GULP energy -268093.588004 kJ/mol
# GULP energy per Si atom -5585.283083 kJ/mol
# Density = 1.743739 g / cm^3
# Si number density = 17.477165 Si / 1000 Ang^3
#
#
#
# Elastic Constant Matrix: (Units=GPa)
#
#
# Indices 1 2 3 4 5 6 
#
# 1 102.1243 15.8478 77.2776 0.0000 0.0000 0.0000
# 2 15.8478 49.4865 22.8105 0.0000 0.0000 0.0000
# 3 77.2776 22.8105 190.3603 0.0000 0.0000 0.0000
# 4 0.0000 0.0000 0.0000 4.3562 0.0000 0.0000
# 5 0.0000 0.0000 0.0000 0.0000 23.4251 0.0000
# 6 0.0000 0.0000 0.0000 0.0000 0.0000 11.7335
#
#
#
# Elastic Compliance Matrix: (Units=1/GPa)
#
#
# Indices 1 2 3 4 5 6 
#
# 1 0.014322 -0.002018 -0.005572 0.000000 0.000000 0.000000
# 2 -0.002018 0.021673 -0.001778 0.000000 0.000000 0.000000
# 3 -0.005572 -0.001778 0.007728 0.000000 0.000000 0.000000
# 4 0.000000 0.000000 0.000000 0.229555 0.000000 0.000000
# 5 0.000000 0.000000 0.000000 0.000000 0.042689 0.000000
# 6 0.000000 0.000000 0.000000 0.000000 0.000000 0.085226
#
#
# Mechanical properties :
#
#
# Convention : Reuss Voigt Hill
#
# Bulk Modulus (GPa) = 40.02050 63.76035 51.89042
# Shear Modulus (GPa) = 11.67519 22.97198 17.32358
#
# Velocity S-wave (km/s) = 2.58742 3.62940 3.15177
# Velocity P-wave (km/s) = 5.64578 7.35695 6.55742
#
# Compressibility (1/GPa) = 0.02498719
#
# Stress axis : x y z
#
# Youngs Moduli (GPa) = 69.82487 46.13981 129.39549
#
# Poissons Ratio (x) = 0.09311 0.72100
# Poissons Ratio (y) = 0.14091 0.23005
# Poissons Ratio (z) = 0.38907 0.08203
#
# Static dielectric constant tensor:
#      x y z
#    x 1.579610 0.000000 0.000000 
#    y 0.000000 1.559660 0.000000 
#    z 0.000000 0.000000 1.588630 
# 
# From -- ./inp_files/4796.got.cif
#   From: 2010.05.17/outbox.cif.g08.bks.cpg/sg57_3_cif.got.tgz:4796.got - 2010.06.03 13:58:18.
