data_PCOD9439233
_publ_section_title
;
Structure prediction by ZEFSAII (Michael W. Deem and Ramdas Pophale) SiO2 
 PCOD9439233
Probable space group: P B C M
;
_chemical_formula_sum "Si O2"
_cell_formula_units_Z 60
_cell_length_a 11.748981
_cell_length_b 9.215652
_cell_length_c 25.808336
_cell_angle_alpha 90.000000
_cell_angle_beta 90.000000
_cell_angle_gamma 90.000000
_cell_volume 2794.385199
_symmetry_space_group_name_H-M "P B C M"
_symmetry_group_IT_number 57
_symmetry_cell_setting 'orthorhombic'
loop_
_space_group_symop_operation_xyz
x,y,z
-x,-y,1/2+z
x,1/2-y,-z
-x,1/2+y,1/2-z
-x,-y,-z
x,y,1/2-z
-x,1/2+y,z
x,1/2-y,1/2+z
loop_
_atom_site_type_symbol
_atom_site_label
_atom_site_fract_x
_atom_site_fract_y
_atom_site_fract_z
Si Si1 0.540342 0.692611 0.750000
Si Si2 0.448026 0.564613 0.331850
Si Si3 0.823584 0.905311 0.976231
Si Si4 0.056605 0.526279 0.307828
Si Si5 0.844257 0.725048 0.313090
Si Si6 0.077501 0.860914 0.952613
Si Si7 0.225036 0.721781 0.355268
Si Si8 0.685880 0.532359 0.376567
O O1 0.575520 0.573197 0.795336
O O2 0.492986 0.806686 0.705365
O O3 0.336380 0.623012 0.360375
O O4 0.551032 0.528620 0.370566
O O5 0.731506 0.959864 0.935143
O O6 0.945127 0.900548 0.945618
O O7 0.794835 0.750000 0.000000
O O8 0.850792 0.005228 0.025511
O O9 0.032152 0.475713 0.250000
O O10 0.107750 0.380417 0.332789
O O11 0.152243 0.650757 0.309305
O O12 0.941585 0.605387 0.324140
O O13 0.819576 0.729184 0.250000
O O14 0.736310 0.668161 0.344388
O O15 0.139354 0.794872 0.903407
O O16 0.076621 0.750000 0.000000
O O17 0.263879 0.886745 0.349970
#
# Coordination Sequence:
#
# PCOD9439233 Si02
#       8
#     4   8   8   8   8   8   8   8
#     4  10  24  46  64  90 132 180 226 280 312 392
#     4  11  26  42  67  96 131 175 233 268 337 381
#     4  10  23  41  69 102 127 166 213 265 336 402
#     4  10  23  39  60  92 129 168 210 259 328 398
#     4  10  23  39  60  91 129 168 208 263 328 393
#     4  10  21  43  69  96 132 165 209 268 330 400
#     4  12  25  41  66  93 128 173 219 273 328 390
#     4  12  25  42  64  94 131 167 222 277 323 390
#
# _framework density 21.471627000000002
#
# number of rings (size 3 to 8) (size 9 to 14) (size 15 to 20)
#    0.000    1.333    2.667    1.600    7.467    1.600 
#    0.000    1.333    0.000    0.000    0.000    0.000 
#    0.000    0.000    0.000    0.000    0.000    0.000 
#
# Total GULP energy -334187.970611 kJ/mol
# GULP energy per Si atom -5569.799510 kJ/mol
# Density = 2.142276 g / cm^3
# Si number density = 21.471627 Si / 1000 Ang^3
#
#
#
# Elastic Constant Matrix: (Units=GPa)
#
#
# Indices 1 2 3 4 5 6 
#
# 1 80.6976 -15.2231 10.9362 0.0000 0.0000 0.0000
# 2 -15.2231 68.5566 -6.6358 0.0000 0.0000 0.0000
# 3 10.9362 -6.6358 53.7351 0.0000 0.0000 0.0000
# 4 0.0000 0.0000 0.0000 18.6173 0.0000 0.0000
# 5 0.0000 0.0000 0.0000 0.0000 -24.1994 0.0000
# 6 0.0000 0.0000 0.0000 0.0000 0.0000 24.7975
#
#
#
# Elastic Compliance Matrix: (Units=1/GPa)
#
#
# Indices 1 2 3 4 5 6 
#
# 1 0.013222 0.002708 -0.002357 0.000000 0.000000 0.000000
# 2 0.002708 0.015318 0.001340 0.000000 0.000000 0.000000
# 3 -0.002357 0.001340 0.019255 0.000000 0.000000 0.000000
# 4 0.000000 0.000000 0.000000 0.053714 0.000000 0.000000
# 5 0.000000 0.000000 0.000000 0.000000 -0.041323 0.000000
# 6 0.000000 0.000000 0.000000 0.000000 0.000000 0.040327
#
#
# Mechanical properties :
#
#
# Convention : Reuss Voigt Hill
#
# Bulk Modulus (GPa) = 19.53956 20.12709 19.83332
# Shear Modulus (GPa) = 43.78772 18.10388 30.94580
#
# Velocity S-wave (km/s) = 4.52079 2.90686 3.80049
# Velocity P-wave (km/s) = 6.03076 4.54539 5.33997
#
# Compressibility (1/GPa) = 0.05117823
#
# Stress axis : x y z
#
# Youngs Moduli (GPa) = 75.63077 65.28465 51.93467
#
# Poissons Ratio (x) = -0.17678 0.12239
# Poissons Ratio (y) = -0.20480 -0.06962
# Poissons Ratio (z) = 0.17823 -0.08751
#
# Static dielectric constant tensor:
#      x y z
#    x 1.804340 0.000000 0.000000 
#    y 0.000000 1.844200 0.000000 
#    z 0.000000 0.000000 1.778810 
# 
# From -- ./inp_files/28612.got.cif
#   From: 2010.05.17/outbox.cif.g08.bks.cpg/sg57_15_cif.got.tgz:28612.got - 2010.06.03 13:58:18.
