data_PCOD9439090
_publ_section_title
;
Structure prediction by ZEFSAII (Michael W. Deem and Ramdas Pophale) SiO2 
 PCOD9439090
Probable space group: P B C M
;
_chemical_formula_sum "Si O2"
_cell_formula_units_Z 40
_cell_length_a 6.716432
_cell_length_b 18.994648
_cell_length_c 14.188291
_cell_angle_alpha 90.000000
_cell_angle_beta 90.000000
_cell_angle_gamma 90.000000
_cell_volume 1810.089125
_symmetry_space_group_name_H-M "P B C M"
_symmetry_group_IT_number 57
_symmetry_cell_setting 'orthorhombic'
loop_
_space_group_symop_operation_xyz
x,y,z
-x,-y,1/2+z
x,1/2-y,-z
-x,1/2+y,1/2-z
-x,-y,-z
x,y,1/2-z
-x,1/2+y,z
x,1/2-y,1/2+z
loop_
_atom_site_type_symbol
_atom_site_label
_atom_site_fract_x
_atom_site_fract_y
_atom_site_fract_z
Si Si1 0.288604 0.120084 0.750000
Si Si2 0.409598 0.813708 0.750000
Si Si3 0.536845 0.909816 0.444063
Si Si4 0.975662 0.757458 0.750000
Si Si5 0.800783 0.453530 0.750000
Si Si6 0.709469 0.694763 0.415568
Si Si7 0.816548 0.039990 0.453396
O O1 0.417970 0.128130 0.845067
O O2 0.113422 0.178031 0.750000
O O3 0.211541 0.038856 0.750000
O O4 0.385746 0.899276 0.750000
O O5 0.526342 0.795192 0.655461
O O6 0.207424 0.770716 0.750000
O O7 0.668041 0.877132 0.528474
O O8 0.305335 0.909072 0.475939
O O9 0.633299 0.986888 0.428708
O O10 0.890726 0.794127 0.655589
O O11 0.891785 0.434061 0.648353
O O12 0.720113 0.750000 0.500000
O O13 0.000000 0.000000 0.500000
#
# Coordination Sequence:
#
# PCOD9439090 Si02
#       7
#     4   4   8   4   4   8   8
#     4  10  21  43  65  93 130 168 220 273 334 400
#     4  11  25  44  66 101 130 171 222 282 324 395
#     4  10  21  40  64  88 126 166 212 267 326 389
#     4  11  25  42  66  96 132 175 220 268 341 399
#     4  10  21  41  63  92 130 158 216 275 313 392
#     4  11  23  43  67  92 130 173 220 267 330 402
#     4  10  22  39  62  94 126 168 212 268 329 385
#
# _framework density 22.09836
#
# number of rings (size 3 to 8) (size 9 to 14) (size 15 to 20)
#    0.000    1.600    4.000    0.000    2.800    1.600 
#    7.200    1.000    0.000    0.000    0.000    0.000 
#    0.000    0.000    0.000    0.000    0.000    0.000 
#
# Total GULP energy -222868.211051 kJ/mol
# GULP energy per Si atom -5571.705276 kJ/mol
# Density = 2.204806 g / cm^3
# Si number density = 22.098360 Si / 1000 Ang^3
#
#
#
# Elastic Constant Matrix: (Units=GPa)
#
#
# Indices 1 2 3 4 5 6 
#
# 1 66.7893 16.7766 48.0864 0.0000 0.0000 0.0000
# 2 16.7766 98.4970 19.4858 0.0000 0.0000 0.0000
# 3 48.0864 19.4858 188.7977 0.0000 0.0000 0.0000
# 4 0.0000 0.0000 0.0000 71.9998 0.0000 0.0000
# 5 0.0000 0.0000 0.0000 0.0000 -29.4111 0.0000
# 6 0.0000 0.0000 0.0000 0.0000 0.0000 36.6154
#
#
#
# Elastic Compliance Matrix: (Units=1/GPa)
#
#
# Indices 1 2 3 4 5 6 
#
# 1 0.018834 -0.002306 -0.004559 0.000000 0.000000 0.000000
# 2 -0.002306 0.010647 -0.000511 0.000000 0.000000 0.000000
# 3 -0.004559 -0.000511 0.006511 0.000000 0.000000 0.000000
# 4 0.000000 0.000000 0.000000 0.013889 0.000000 0.000000
# 5 0.000000 0.000000 0.000000 0.000000 -0.034001 0.000000
# 6 0.000000 0.000000 0.000000 0.000000 0.000000 0.027311
#
#
# Mechanical properties :
#
#
# Convention : Reuss Voigt Hill
#
# Bulk Modulus (GPa) = 47.08491 58.08686 52.58589
# Shear Modulus (GPa) = 76.89620 33.82317 55.35969
#
# Velocity S-wave (km/s) = 5.90532 3.91650 5.01058
# Velocity P-wave (km/s) = 8.23713 6.84066 7.57116
#
# Compressibility (1/GPa) = 0.02123823
#
# Stress axis : x y z
#
# Youngs Moduli (GPa) = 53.09532 93.92706 153.59492
#
# Poissons Ratio (x) = 0.21660 0.70024
# Poissons Ratio (y) = 0.12244 0.07856
# Poissons Ratio (z) = 0.24206 0.04804
#
# Static dielectric constant tensor:
#      x y z
#    x 1.780580 0.000000 0.000000 
#    y 0.000000 1.936410 0.000000 
#    z 0.000000 0.000000 1.864770 
# 
# From -- ./inp_files/15007.got.cif
#   From: 2010.05.17/outbox.cif.g08.bks.cpg/sg57_8_cif.got.tgz:15007.got - 2010.06.03 13:58:18.
