data_PCOD9439218
_publ_section_title
;
Structure prediction by ZEFSAII (Michael W. Deem and Ramdas Pophale) SiO2 
 PCOD9439218
Probable space group: P B C M
;
_chemical_formula_sum "Si O2"
_cell_formula_units_Z 48
_cell_length_a 9.217438
_cell_length_b 9.119273
_cell_length_c 26.283258
_cell_angle_alpha 90.000000
_cell_angle_beta 90.000000
_cell_angle_gamma 90.000000
_cell_volume 2209.274299
_symmetry_space_group_name_H-M "P B C M"
_symmetry_group_IT_number 57
_symmetry_cell_setting 'orthorhombic'
loop_
_space_group_symop_operation_xyz
x,y,z
-x,-y,1/2+z
x,1/2-y,-z
-x,1/2+y,1/2-z
-x,-y,-z
x,y,1/2-z
-x,1/2+y,z
x,1/2-y,1/2+z
loop_
_atom_site_type_symbol
_atom_site_label
_atom_site_fract_x
_atom_site_fract_y
_atom_site_fract_z
Si Si1 0.593445 0.139663 0.046749
Si Si2 0.091509 0.006134 0.117813
Si Si3 0.728005 0.596754 0.477255
Si Si4 0.684098 0.830139 0.687669
Si Si5 0.602547 0.994611 0.309144
Si Si6 0.811411 0.316240 0.865600
O O1 0.422470 0.117175 0.054136
O O2 0.681196 0.198655 0.094072
O O3 0.604809 0.250000 0.000000
O O4 0.673695 0.995673 0.025775
O O5 0.160054 0.023129 0.061407
O O6 0.178259 0.109454 0.157389
O O7 0.928409 0.064494 0.116515
O O8 0.111872 0.840559 0.137560
O O9 0.782821 0.750000 0.500000
O O10 0.703456 0.832255 0.750000
O O11 0.645483 0.664688 0.669750
O O12 0.549600 0.936596 0.673880
O O13 0.583238 0.968278 0.250000
O O14 0.729014 0.113454 0.317803
#
# Coordination Sequence:
#
# PCOD9439218 Si02
#       6
#     8   8   8   8   8   8
#     4  10  21  43  63  91 122 160 209 258 311 367
#     4  12  26  42  60  93 127 171 211 255 316 372
#     4  10  23  39  67  92 121 161 208 261 312 373
#     4  10  22  42  69  97 126 160 206 257 309 369
#     4  10  22  42  69  98 125 161 205 256 311 369
#     4  12  26  41  63  89 130 169 210 259 311 376
#
# _framework density 21.726590999999999
#
# number of rings (size 3 to 8) (size 9 to 14) (size 15 to 20)
#    0.000    1.333    1.667    3.000    4.667    4.000 
#    0.000    0.000    0.000    0.000    0.000    0.000 
#    0.000    0.000    0.000    0.000    0.000    0.000 
#
# Total GULP energy -268245.139832 kJ/mol
# GULP energy per Si atom -5588.440413 kJ/mol
# Density = 2.167714 g / cm^3
# Si number density = 21.726591 Si / 1000 Ang^3
#
#
#
# Elastic Constant Matrix: (Units=GPa)
#
#
# Indices 1 2 3 4 5 6 
#
# 1 60.7493 -18.1797 -2.3874 0.0000 0.0000 0.0000
# 2 -18.1797 77.8814 -2.5299 0.0000 0.0000 0.0000
# 3 -2.3874 -2.5299 32.0912 0.0000 0.0000 0.0000
# 4 0.0000 0.0000 0.0000 23.0771 0.0000 0.0000
# 5 0.0000 0.0000 0.0000 0.0000 14.1138 0.0000
# 6 0.0000 0.0000 0.0000 0.0000 0.0000 19.3030
#
#
#
# Elastic Compliance Matrix: (Units=1/GPa)
#
#
# Indices 1 2 3 4 5 6 
#
# 1 0.017785 0.004205 0.001655 0.000000 0.000000 0.000000
# 2 0.004205 0.013867 0.001406 0.000000 0.000000 0.000000
# 3 0.001655 0.001406 0.031395 0.000000 0.000000 0.000000
# 4 0.000000 0.000000 0.000000 0.043333 0.000000 0.000000
# 5 0.000000 0.000000 0.000000 0.000000 0.070853 0.000000
# 6 0.000000 0.000000 0.000000 0.000000 0.000000 0.051805
#
#
# Mechanical properties :
#
#
# Convention : Reuss Voigt Hill
#
# Bulk Modulus (GPa) = 12.89016 13.83643 13.36329
# Shear Modulus (GPa) = 20.80161 24.22003 22.51082
#
# Velocity S-wave (km/s) = 3.09759 3.34243 3.22234
# Velocity P-wave (km/s) = 4.32888 4.61281 4.47310
#
# Compressibility (1/GPa) = 0.07757857
#
# Stress axis : x y z
#
# Youngs Moduli (GPa) = 56.22854 72.11198 31.85208
#
# Poissons Ratio (x) = -0.30324 -0.05270
# Poissons Ratio (y) = -0.23645 -0.04479
# Poissons Ratio (z) = -0.09303 -0.10139
#
# Static dielectric constant tensor:
#      x y z
#    x 1.759360 0.000000 0.000000 
#    y 0.000000 1.866620 0.000000 
#    z 0.000000 0.000000 1.924680 
# 
# From -- ./inp_files/29472.got.cif
#   From: 2010.05.17/outbox.cif.g08.bks.cpg/sg57_15_cif.got.tgz:29472.got - 2010.06.03 13:58:18.
