data_PCOD9439745
_publ_section_title
;
Structure prediction by ZEFSAII (Michael W. Deem and Ramdas Pophale) SiO2 
 PCOD9439745
Probable space group: P B C M
;
_chemical_formula_sum "Si O2"
_cell_formula_units_Z 48
_cell_length_a 9.816982
_cell_length_b 11.391046
_cell_length_c 16.740360
_cell_angle_alpha 90.000000
_cell_angle_beta 90.000000
_cell_angle_gamma 90.000000
_cell_volume 1872.002367
_symmetry_space_group_name_H-M "P B C M"
_symmetry_group_IT_number 57
_symmetry_cell_setting 'orthorhombic'
loop_
_space_group_symop_operation_xyz
x,y,z
-x,-y,1/2+z
x,1/2-y,-z
-x,1/2+y,1/2-z
-x,-y,-z
x,y,1/2-z
-x,1/2+y,z
x,1/2-y,1/2+z
loop_
_atom_site_type_symbol
_atom_site_label
_atom_site_fract_x
_atom_site_fract_y
_atom_site_fract_z
Si Si1 0.784921 0.573251 0.618075
Si Si2 0.912540 0.091826 0.835324
Si Si3 0.513884 0.366392 0.340613
Si Si4 0.147171 0.120335 0.061155
Si Si5 0.586366 0.873053 0.846683
Si Si6 0.834824 0.193329 0.082070
O O1 0.648046 0.610123 0.660397
O O2 0.798209 0.624043 0.528427
O O3 0.780251 0.432441 0.606731
O O4 0.924808 0.605779 0.661915
O O5 0.877300 0.035686 0.750000
O O6 0.830291 0.210740 0.848154
O O7 0.880227 0.013702 0.912091
O O8 0.565597 0.361654 0.250000
O O9 0.515884 0.232312 0.374876
O O10 0.566126 0.491302 0.376311
O O11 0.263682 0.160183 0.121865
O O12 0.998392 0.175320 0.069860
O O13 0.578081 0.874338 0.750000
O O14 0.781028 0.250000 0.000000
#
# Coordination Sequence:
#
# PCOD9439745 Si02
#       6
#     8   8   8   8   8   8
#     4  11  22  38  62  88 124 165 205 260 318 387
#     4  11  22  36  58  91 125 162 210 259 312 379
#     4  10  23  43  64  90 123 165 213 267 320 376
#     4  11  22  37  62  88 123 165 206 256 318 382
#     4  10  23  43  65  90 125 165 215 269 323 378
#     4  11  20  38  59  88 127 167 202 251 317 376
#
# _framework density 25.640993000000002
#
# number of rings (size 3 to 8) (size 9 to 14) (size 15 to 20)
#    0.000    1.333    3.333    3.000    0.000    7.333 
#    0.000    1.667    0.000    0.000    0.000    0.000 
#    0.000    0.000    0.000    0.000    0.000    0.000 
#
# Total GULP energy -268453.456849 kJ/mol
# GULP energy per Si atom -5592.780351 kJ/mol
# Density = 2.558263 g / cm^3
# Si number density = 25.640993 Si / 1000 Ang^3
#
#
#
# Elastic Constant Matrix: (Units=GPa)
#
#
# Indices 1 2 3 4 5 6 
#
# 1 81.4048 -2.1815 7.4297 0.0000 0.0000 0.0000
# 2 -2.1815 134.6235 8.9766 0.0000 0.0000 0.0000
# 3 7.4297 8.9766 89.5801 0.0000 0.0000 0.0000
# 4 0.0000 0.0000 0.0000 23.0188 0.0000 0.0000
# 5 0.0000 0.0000 0.0000 0.0000 27.1892 0.0000
# 6 0.0000 0.0000 0.0000 0.0000 0.0000 39.4300
#
#
#
# Elastic Compliance Matrix: (Units=1/GPa)
#
#
# Indices 1 2 3 4 5 6 
#
# 1 0.012388 0.000271 -0.001055 0.000000 0.000000 0.000000
# 2 0.000271 0.007484 -0.000772 0.000000 0.000000 0.000000
# 3 -0.001055 -0.000772 0.011328 0.000000 0.000000 0.000000
# 4 0.000000 0.000000 0.000000 0.043443 0.000000 0.000000
# 5 0.000000 0.000000 0.000000 0.000000 0.036779 0.000000
# 6 0.000000 0.000000 0.000000 0.000000 0.000000 0.025361
#
#
# Mechanical properties :
#
#
# Convention : Reuss Voigt Hill
#
# Bulk Modulus (GPa) = 35.60245 37.11754 36.35999
# Shear Modulus (GPa) = 33.49903 37.35316 35.42610
#
# Velocity S-wave (km/s) = 3.61843 3.82091 3.72105
# Velocity P-wave (km/s) = 5.60111 5.82865 5.71601
#
# Compressibility (1/GPa) = 0.02808795
#
# Stress axis : x y z
#
# Youngs Moduli (GPa) = 80.72453 133.61799 88.27637
#
# Poissons Ratio (x) = -0.03622 0.09310
# Poissons Ratio (y) = -0.02188 0.06819
# Poissons Ratio (z) = 0.08513 0.10321
#
# Static dielectric constant tensor:
#      x y z
#    x 2.003360 0.000000 0.000000 
#    y 0.000000 2.183150 0.000000 
#    z 0.000000 0.000000 1.942830 
# 
# From -- ./inp_files/21808.got.cif
#   From: 2010.05.17/outbox.cif.g08.bks.cpg/sg57_11_cif.got.tgz:21808.got - 2010.06.03 13:58:18.
