data_PCOD9439108
_publ_section_title
;
Structure prediction by ZEFSAII (Michael W. Deem and Ramdas Pophale) SiO2 
 PCOD9439108
Probable space group: P B C M
;
_chemical_formula_sum "Si O2"
_cell_formula_units_Z 56
_cell_length_a 4.996367
_cell_length_b 31.326754
_cell_length_c 14.785579
_cell_angle_alpha 90.000000
_cell_angle_beta 90.000000
_cell_angle_gamma 90.000000
_cell_volume 2314.238232
_symmetry_space_group_name_H-M "P B C M"
_symmetry_group_IT_number 57
_symmetry_cell_setting 'orthorhombic'
loop_
_space_group_symop_operation_xyz
x,y,z
-x,-y,1/2+z
x,1/2-y,-z
-x,1/2+y,1/2-z
-x,-y,-z
x,y,1/2-z
-x,1/2+y,z
x,1/2-y,1/2+z
loop_
_atom_site_type_symbol
_atom_site_label
_atom_site_fract_x
_atom_site_fract_y
_atom_site_fract_z
Si Si1 0.273621 0.361070 0.542210
Si Si2 0.235848 0.546195 0.597677
Si Si3 0.726121 0.998885 0.153670
Si Si4 0.965101 0.363268 0.354752
Si Si5 0.347255 0.778757 0.358611
Si Si6 0.794028 0.085577 0.086560
Si Si7 0.155661 0.273592 0.639765
O O1 0.180303 0.364911 0.436857
O O2 0.560379 0.382349 0.557431
O O3 0.254344 0.313755 0.582748
O O4 0.057955 0.387337 0.602881
O O5 0.532618 0.527748 0.589018
O O6 0.133153 0.555250 0.497597
O O7 0.035469 0.512604 0.641729
O O8 0.194730 0.592008 0.644783
O O9 0.635373 0.981013 0.250000
O O10 0.690799 0.049522 0.153290
O O11 0.062555 0.355943 0.250000
O O12 0.769108 0.324606 0.383536
O O13 0.339328 0.778875 0.250000
O O14 0.141056 0.741545 0.386353
O O15 0.646255 0.765744 0.382613
O O16 0.166547 0.281019 0.750000
#
# Coordination Sequence:
#
# PCOD9439108 Si02
#       7
#     8   8   8   8   8   8   8
#     4  11  24  41  65  93 124 169 209 251 314 369
#     4  11  23  41  63  88 123 164 202 251 311 371
#     4  12  24  40  64  93 121 158 207 255 311 371
#     4  10  22  42  64  92 127 162 209 260 308 368
#     4   9  20  38  63  91 123 162 202 255 312 361
#     4  11  24  42  62  89 126 162 205 256 309 368
#     4  10  21  40  64  93 126 162 207 253 306 371
#
# _framework density 24.198028999999998
#
# number of rings (size 3 to 8) (size 9 to 14) (size 15 to 20)
#    0.000    1.429    0.000    5.571    0.000    5.143 
#    0.000   10.714    0.000    0.000    0.000    0.000 
#    0.000    0.000    0.000    0.000    0.000    0.000 
#
# Total GULP energy -313121.443143 kJ/mol
# GULP energy per Si atom -5591.454342 kJ/mol
# Density = 2.414295 g / cm^3
# Si number density = 24.198029 Si / 1000 Ang^3
#
#
#
# Elastic Constant Matrix: (Units=GPa)
#
#
# Indices 1 2 3 4 5 6 
#
# 1 85.4153 14.3988 -6.3822 0.0000 0.0000 0.0000
# 2 14.3988 95.6576 26.2176 0.0000 0.0000 0.0000
# 3 -6.3822 26.2176 76.3149 0.0000 0.0000 0.0000
# 4 0.0000 0.0000 0.0000 32.9884 0.0000 0.0000
# 5 0.0000 0.0000 0.0000 0.0000 3.7808 0.0000
# 6 0.0000 0.0000 0.0000 0.0000 0.0000 39.4047
#
#
#
# Elastic Compliance Matrix: (Units=1/GPa)
#
#
# Indices 1 2 3 4 5 6 
#
# 1 0.012239 -0.002343 0.001829 0.000000 0.000000 0.000000
# 2 -0.002343 0.011989 -0.004315 0.000000 0.000000 0.000000
# 3 0.001829 -0.004315 0.014739 0.000000 0.000000 0.000000
# 4 0.000000 0.000000 0.000000 0.030314 0.000000 0.000000
# 5 0.000000 0.000000 0.000000 0.000000 0.264494 0.000000
# 6 0.000000 0.000000 0.000000 0.000000 0.000000 0.025378
#
#
# Mechanical properties :
#
#
# Convention : Reuss Voigt Hill
#
# Bulk Modulus (GPa) = 34.12038 36.20625 35.16331
# Shear Modulus (GPa) = 13.20719 30.11167 21.65943
#
# Velocity S-wave (km/s) = 2.33876 3.53141 2.99505
# Velocity P-wave (km/s) = 4.62863 5.62341 5.15009
#
# Compressibility (1/GPa) = 0.02930800
#
# Stress axis : x y z
#
# Youngs Moduli (GPa) = 81.70472 83.40761 67.84776
#
# Poissons Ratio (x) = 0.19547 -0.12407
# Poissons Ratio (y) = 0.19147 0.29275
# Poissons Ratio (z) = -0.14941 0.35989
#
# Static dielectric constant tensor:
#      x y z
#    x 1.883630 0.000000 0.000000 
#    y 0.000000 1.944220 0.000000 
#    z 0.000000 0.000000 2.053890 
# 
# From -- ./inp_files/15280.got.cif
#   From: 2010.05.17/outbox.cif.g08.bks.cpg/sg57_8_cif.got.tgz:15280.got - 2010.06.03 13:58:18.
