data_PCOD9439386
_publ_section_title
;
Structure prediction by ZEFSAII (Michael W. Deem and Ramdas Pophale) SiO2 
 PCOD9439386
Probable space group: P B C M
;
_chemical_formula_sum "Si O2"
_cell_formula_units_Z 40
_cell_length_a 4.748876
_cell_length_b 10.665977
_cell_length_c 28.207248
_cell_angle_alpha 90.000000
_cell_angle_beta 90.000000
_cell_angle_gamma 90.000000
_cell_volume 1428.736663
_symmetry_space_group_name_H-M "P B C M"
_symmetry_group_IT_number 57
_symmetry_cell_setting 'orthorhombic'
loop_
_space_group_symop_operation_xyz
x,y,z
-x,-y,1/2+z
x,1/2-y,-z
-x,1/2+y,1/2-z
-x,-y,-z
x,y,1/2-z
-x,1/2+y,z
x,1/2-y,1/2+z
loop_
_atom_site_type_symbol
_atom_site_label
_atom_site_fract_x
_atom_site_fract_y
_atom_site_fract_z
Si Si1 0.084083 0.149282 0.650297
Si Si2 0.568950 0.854413 0.750000
Si Si3 0.079005 0.685136 0.750000
Si Si4 0.705632 0.382158 0.499196
Si Si5 0.113119 0.035736 0.080304
Si Si6 0.426345 0.663066 0.355495
O O1 0.997612 0.114765 0.703086
O O2 0.878556 0.269070 0.638044
O O3 0.388098 0.208650 0.647378
O O4 0.074050 0.019138 0.622452
O O5 0.402086 0.721745 0.750000
O O6 0.480511 0.901239 0.696868
O O7 0.896343 0.814751 0.750000
O O8 0.553638 0.250000 0.500000
O O9 0.500000 0.500000 0.500000
O O10 0.840130 0.404875 0.448138
O O11 0.939820 0.387837 0.540490
O O12 0.399243 0.092543 0.102132
#
# Coordination Sequence:
#
# PCOD9439386 Si02
#       6
#     8   4   4   8   8   8
#     4  10  22  39  68 100 148 186 244 292 368 443
#     4   8  16  35  58  95 142 189 228 286 354 437
#     4   8  16  35  58  97 140 193 226 292 352 437
#     4  11  28  50  75 105 147 192 255 327 404 470
#     4  11  26  43  71 104 136 190 251 317 380 457
#     4  10  22  39  67 101 145 188 239 294 365 443
#
# _framework density 27.996760999999999
#
# number of rings (size 3 to 8) (size 9 to 14) (size 15 to 20)
#    0.000    2.000    0.000    1.200    8.400    4.000 
#    0.000    0.000    0.000   14.400    0.000    0.000 
#    0.000    0.000    0.000    0.000    0.000    0.000 
#
# Total GULP energy -223639.317631 kJ/mol
# GULP energy per Si atom -5590.982941 kJ/mol
# Density = 2.793304 g / cm^3
# Si number density = 27.996761 Si / 1000 Ang^3
#
#
#
# Elastic Constant Matrix: (Units=GPa)
#
#
# Indices 1 2 3 4 5 6 
#
# 1 104.8000 13.1778 -1.2044 0.0000 0.0000 0.0000
# 2 13.1778 125.7110 17.6461 0.0000 0.0000 0.0000
# 3 -1.2044 17.6461 163.2489 0.0000 0.0000 0.0000
# 4 0.0000 0.0000 0.0000 33.7399 0.0000 0.0000
# 5 0.0000 0.0000 0.0000 0.0000 35.8804 0.0000
# 6 0.0000 0.0000 0.0000 0.0000 0.0000 32.6282
#
#
#
# Elastic Compliance Matrix: (Units=1/GPa)
#
#
# Indices 1 2 3 4 5 6 
#
# 1 0.009675 -0.001040 0.000184 0.000000 0.000000 0.000000
# 2 -0.001040 0.008189 -0.000893 0.000000 0.000000 0.000000
# 3 0.000184 -0.000893 0.006223 0.000000 0.000000 0.000000
# 4 0.000000 0.000000 0.000000 0.029639 0.000000 0.000000
# 5 0.000000 0.000000 0.000000 0.000000 0.027870 0.000000
# 6 0.000000 0.000000 0.000000 0.000000 0.000000 0.030648
#
#
# Mechanical properties :
#
#
# Convention : Reuss Voigt Hill
#
# Bulk Modulus (GPa) = 48.56878 50.33322 49.45100
# Shear Modulus (GPa) = 40.78105 44.72570 42.75338
#
# Velocity S-wave (km/s) = 3.82073 4.00125 3.91203
# Velocity P-wave (km/s) = 6.07039 6.27407 6.17307
#
# Compressibility (1/GPa) = 0.02058936
#
# Stress axis : x y z
#
# Youngs Moduli (GPa) = 103.36060 122.11346 160.68172
#
# Poissons Ratio (x) = 0.12700 -0.02953
# Poissons Ratio (y) = 0.10749 0.14347
# Poissons Ratio (z) = -0.01900 0.10903
#
# Static dielectric constant tensor:
#      x y z
#    x 2.330810 0.000000 0.000000 
#    y 0.000000 2.164440 0.000000 
#    z 0.000000 0.000000 2.614360 
# 
# From -- ./inp_files/27836.got.cif
#   From: 2010.05.17/outbox.cif.g08.bks.cpg/sg57_14_cif.got.tgz:27836.got - 2010.06.03 13:58:18.
