data_PCOD9439318
_publ_section_title
;
Structure prediction by ZEFSAII (Michael W. Deem and Ramdas Pophale) SiO2 
 PCOD9439318
Probable space group: P B C M
;
_chemical_formula_sum "Si O2"
_cell_formula_units_Z 56
_cell_length_a 5.267024
_cell_length_b 30.446712
_cell_length_c 15.751765
_cell_angle_alpha 90.000000
_cell_angle_beta 90.000000
_cell_angle_gamma 90.000000
_cell_volume 2526.009156
_symmetry_space_group_name_H-M "P B C M"
_symmetry_group_IT_number 57
_symmetry_cell_setting 'orthorhombic'
loop_
_space_group_symop_operation_xyz
x,y,z
-x,-y,1/2+z
x,1/2-y,-z
-x,1/2+y,1/2-z
-x,-y,-z
x,y,1/2-z
-x,1/2+y,z
x,1/2-y,1/2+z
loop_
_atom_site_type_symbol
_atom_site_label
_atom_site_fract_x
_atom_site_fract_y
_atom_site_fract_z
Si Si1 0.730929 0.641295 0.347421
Si Si2 0.114111 0.705354 0.908259
Si Si3 0.305675 0.069657 0.657291
Si Si4 0.699943 0.473594 0.056605
Si Si5 0.607464 0.672500 0.842202
Si Si6 0.911867 0.936717 0.532448
Si Si7 0.775792 0.195956 0.392797
O O1 0.699856 0.625602 0.250000
O O2 0.784556 0.601580 0.413899
O O3 0.486497 0.671338 0.370541
O O4 0.986365 0.670268 0.353721
O O5 0.308889 0.673208 0.861376
O O6 0.197719 0.752583 0.871049
O O7 0.813279 0.696912 0.901060
O O8 0.187494 0.698425 0.005882
O O9 0.209300 0.054668 0.750000
O O10 0.580021 0.048148 0.638974
O O11 0.316992 0.121937 0.659393
O O12 0.170884 0.061059 0.567062
O O13 0.789775 0.435502 0.990245
O O14 0.500000 0.500000 0.000000
O O15 0.878845 0.515662 0.076542
O O16 0.650884 0.692714 0.750000
#
# Coordination Sequence:
#
# PCOD9439318 Si02
#       7
#     8   8   8   8   8   8   8
#     4  12  27  44  69 102 138 185 241 297 348 417
#     4  11  23  43  67  93 132 185 226 286 353 415
#     4  10  22  38  63  99 134 170 220 278 344 416
#     4   9  21  41  65  95 126 174 222 276 343 417
#     4  11  24  38  62  99 134 173 219 272 342 414
#     4  10  22  42  68  93 133 177 226 279 352 420
#     4  11  25  44  67  97 130 176 241 287 350 416
#
# _framework density 22.169359
#
# number of rings (size 3 to 8) (size 9 to 14) (size 15 to 20)
#    0.000    1.429    0.000    4.286    8.000    6.857 
#    0.000    5.714    0.000    0.000    0.000    0.000 
#    0.000    0.000    0.000    0.000    0.000    0.000 
#
# Total GULP energy -311784.783010 kJ/mol
# GULP energy per Si atom -5567.585411 kJ/mol
# Density = 2.211890 g / cm^3
# Si number density = 22.169359 Si / 1000 Ang^3
#
#
#
# Elastic Constant Matrix: (Units=GPa)
#
#
# Indices 1 2 3 4 5 6 
#
# 1 70.4558 8.9391 14.5381 0.0000 0.0000 0.0000
# 2 8.9391 64.9808 32.2469 0.0000 0.0000 0.0000
# 3 14.5381 32.2469 108.9434 0.0000 0.0000 0.0000
# 4 0.0000 0.0000 0.0000 2.4530 0.0000 0.0000
# 5 0.0000 0.0000 0.0000 0.0000 21.7721 0.0000
# 6 0.0000 0.0000 0.0000 0.0000 0.0000 32.6753
#
#
#
# Elastic Compliance Matrix: (Units=1/GPa)
#
#
# Indices 1 2 3 4 5 6 
#
# 1 0.014678 -0.001227 -0.001595 0.000000 0.000000 0.000000
# 2 -0.001227 0.018142 -0.005206 0.000000 0.000000 0.000000
# 3 -0.001595 -0.005206 0.010933 0.000000 0.000000 0.000000
# 4 0.000000 0.000000 0.000000 0.407662 0.000000 0.000000
# 5 0.000000 0.000000 0.000000 0.000000 0.045930 0.000000
# 6 0.000000 0.000000 0.000000 0.000000 0.000000 0.030604
#
#
# Mechanical properties :
#
#
# Convention : Reuss Voigt Hill
#
# Bulk Modulus (GPa) = 36.10782 39.53647 37.82214
# Shear Modulus (GPa) = 9.03769 23.95714 16.49741
#
# Velocity S-wave (km/s) = 2.02126 3.29088 2.73088
# Velocity P-wave (km/s) = 4.66583 5.68440 5.20011
#
# Compressibility (1/GPa) = 0.02769484
#
# Stress axis : x y z
#
# Youngs Moduli (GPa) = 68.12801 55.12214 91.46657
#
# Poissons Ratio (x) = 0.06766 0.14593
# Poissons Ratio (y) = 0.08363 0.47618
# Poissons Ratio (z) = 0.10869 0.28697
#
# Static dielectric constant tensor:
#      x y z
#    x 2.247270 0.000000 0.000000 
#    y 0.000000 1.875180 0.000000 
#    z 0.000000 0.000000 1.820530 
# 
# From -- ./inp_files/15283.got.cif
#   From: 2010.05.17/outbox.cif.g08.bks.cpg/sg57_8_cif.got.tgz:15283.got - 2010.06.03 13:58:18.
