data_PCOD9439780
_publ_section_title
;
Structure prediction by ZEFSAII (Michael W. Deem and Ramdas Pophale) SiO2 
 PCOD9439780
Probable space group: P B C M
;
_chemical_formula_sum "Si O2"
_cell_formula_units_Z 28
_cell_length_a 8.418423
_cell_length_b 11.039167
_cell_length_c 14.087065
_cell_angle_alpha 90.000000
_cell_angle_beta 90.000000
_cell_angle_gamma 90.000000
_cell_volume 1309.144441
_symmetry_space_group_name_H-M "P B C M"
_symmetry_group_IT_number 57
_symmetry_cell_setting 'orthorhombic'
loop_
_space_group_symop_operation_xyz
x,y,z
-x,-y,1/2+z
x,1/2-y,-z
-x,1/2+y,1/2-z
-x,-y,-z
x,y,1/2-z
-x,1/2+y,z
x,1/2-y,1/2+z
loop_
_atom_site_type_symbol
_atom_site_label
_atom_site_fract_x
_atom_site_fract_y
_atom_site_fract_z
Si Si1 0.602399 0.951047 0.912603
Si Si2 0.378683 0.627788 0.250000
Si Si3 0.239787 0.612385 0.750000
Si Si4 0.054155 0.374134 0.950873
Si Si5 0.058506 0.956429 0.750000
O O1 0.487452 0.877774 0.842547
O O2 0.754780 0.877478 0.948213
O O3 0.677962 0.053290 0.843055
O O4 0.500000 0.000000 0.000000
O O5 0.275801 0.747913 0.250000
O O6 0.247020 0.520886 0.250000
O O7 0.055613 0.573821 0.750000
O O8 0.989698 0.384267 0.844300
O O9 0.998410 0.250000 0.000000
O O10 0.000000 0.500000 0.000000
#
# Coordination Sequence:
#
# PCOD9439780 Si02
#       5
#     8   4   4   8   4
#     4  10  23  44  65 101 136 177 231 289 355 422
#     4  11  23  43  72  96 133 187 220 302 358 415
#     4   9  23  41  64  98 135 175 233 281 355 429
#     4  11  26  45  72 106 141 191 240 292 363 437
#     4  10  24  46  66  98 142 180 239 297 353 428
#
# _framework density 21.388013999999998
#
# number of rings (size 3 to 8) (size 9 to 14) (size 15 to 20)
#    0.000    1.714    0.000    2.571   12.000    0.000 
#    0.000    0.000    0.000    0.000    0.000    0.000 
#    0.000    0.000    0.000    0.000    0.000    0.000 
#
# Total GULP energy -156525.902951 kJ/mol
# GULP energy per Si atom -5590.210820 kJ/mol
# Density = 2.133933 g / cm^3
# Si number density = 21.388014 Si / 1000 Ang^3
#
#
#
# Elastic Constant Matrix: (Units=GPa)
#
#
# Indices 1 2 3 4 5 6 
#
# 1 127.3224 38.8301 25.3215 0.0000 0.0000 0.0000
# 2 38.8301 122.4067 59.2096 0.0000 0.0000 0.0000
# 3 25.3215 59.2096 149.2669 0.0000 0.0000 0.0000
# 4 0.0000 0.0000 0.0000 20.8680 0.0000 0.0000
# 5 0.0000 0.0000 0.0000 0.0000 31.3331 0.0000
# 6 0.0000 0.0000 0.0000 0.0000 0.0000 19.9203
#
#
#
# Elastic Compliance Matrix: (Units=1/GPa)
#
#
# Indices 1 2 3 4 5 6 
#
# 1 0.008722 -0.002538 -0.000473 0.000000 0.000000 0.000000
# 2 -0.002538 0.010848 -0.003872 0.000000 0.000000 0.000000
# 3 -0.000473 -0.003872 0.008316 0.000000 0.000000 0.000000
# 4 0.000000 0.000000 0.000000 0.047920 0.000000 0.000000
# 5 0.000000 0.000000 0.000000 0.000000 0.031915 0.000000
# 6 0.000000 0.000000 0.000000 0.000000 0.000000 0.050200
#
#
# Mechanical properties :
#
#
# Convention : Reuss Voigt Hill
#
# Bulk Modulus (GPa) = 70.82716 71.74649 71.28682
# Shear Modulus (GPa) = 28.34562 32.79995 30.57279
#
# Velocity S-wave (km/s) = 3.64442 3.92033 3.78489
# Velocity P-wave (km/s) = 7.13417 7.35595 7.24591
#
# Compressibility (1/GPa) = 0.01411888
#
# Stress axis : x y z
#
# Youngs Moduli (GPa) = 114.65019 92.18482 120.25474
#
# Poissons Ratio (x) = 0.23398 0.05686
# Poissons Ratio (y) = 0.29100 0.46568
# Poissons Ratio (z) = 0.05421 0.35698
#
# Static dielectric constant tensor:
#      x y z
#    x 1.790840 0.000000 0.000000 
#    y 0.000000 1.784340 0.000000 
#    z 0.000000 0.000000 1.759830 
# 
# From -- ./inp_files/15461.got.cif
#   From: 2010.05.17/outbox.cif.g08.bks.cpg/sg57_8_cif.got.tgz:15461.got - 2010.06.03 13:58:18.
