data_PCOD9439006
_publ_section_title
;
Structure prediction by ZEFSAII (Michael W. Deem and Ramdas Pophale) SiO2 
 PCOD9439006
Probable space group: P B C M
;
_chemical_formula_sum "Si O2"
_cell_formula_units_Z 64
_cell_length_a 7.046984
_cell_length_b 17.473483
_cell_length_c 26.026063
_cell_angle_alpha 90.000000
_cell_angle_beta 90.000000
_cell_angle_gamma 90.000000
_cell_volume 3204.728510
_symmetry_space_group_name_H-M "P B C M"
_symmetry_group_IT_number 57
_symmetry_cell_setting 'orthorhombic'
loop_
_space_group_symop_operation_xyz
x,y,z
-x,-y,1/2+z
x,1/2-y,-z
-x,1/2+y,1/2-z
-x,-y,-z
x,y,1/2-z
-x,1/2+y,z
x,1/2-y,1/2+z
loop_
_atom_site_type_symbol
_atom_site_label
_atom_site_fract_x
_atom_site_fract_y
_atom_site_fract_z
Si Si1 0.143099 0.854751 0.310744
Si Si2 0.790218 0.912947 0.861060
Si Si3 0.872543 0.520419 0.859603
Si Si4 0.532534 0.473040 0.190237
Si Si5 0.961680 0.761965 0.886057
Si Si6 0.102527 0.380429 0.043836
Si Si7 0.415456 0.069609 0.466435
Si Si8 0.772400 0.329326 0.527109
O O1 0.146487 0.840356 0.250000
O O2 0.978595 0.915465 0.325266
O O3 0.090942 0.779894 0.343416
O O4 0.337289 0.899775 0.325317
O O5 0.808666 0.821637 0.864165
O O6 0.698158 0.946179 0.913866
O O7 0.662067 0.951881 0.817686
O O8 0.002961 0.944705 0.853678
O O9 0.656019 0.517526 0.842867
O O10 0.889325 0.547623 0.918406
O O11 0.483229 0.463926 0.250000
O O12 0.872891 0.693981 0.920315
O O13 0.092404 0.808188 0.925757
O O14 0.266882 0.386339 0.002445
O O15 0.901849 0.373674 0.014687
O O16 0.594334 0.122853 0.454675
O O17 0.500000 0.000000 0.500000
O O18 0.712778 0.250000 0.500000
#
# Coordination Sequence:
#
# PCOD9439006 Si02
#       8
#     8   8   8   8   8   8   8   8
#     4   9  20  42  66  88 114 152 206 256 307 376
#     4  11  24  37  61  92 128 161 202 255 314 370
#     4  10  21  39  65  89 119 157 203 257 312 360
#     4  10  22  42  65  92 120 157 212 267 319 374
#     4  10  22  41  60  88 129 167 197 254 316 376
#     4  10  22  40  59  87 125 164 209 250 302 370
#     4  12  25  37  63  91 124 169 216 258 297 366
#     4  10  23  39  59  86 126 169 206 247 311 361
#
# _framework density 19.970489000000001
#
# number of rings (size 3 to 8) (size 9 to 14) (size 15 to 20)
#    0.000    1.750    1.250    1.875    5.250    6.000 
#    2.250    0.000    0.000    0.000    0.000    0.000 
#    0.000    0.000    0.000    0.000    0.000    0.000 
#
# Total GULP energy -357508.250388 kJ/mol
# GULP energy per Si atom -5586.066412 kJ/mol
# Density = 1.992504 g / cm^3
# Si number density = 19.970489 Si / 1000 Ang^3
#
#
#
# Elastic Constant Matrix: (Units=GPa)
#
#
# Indices 1 2 3 4 5 6 
#
# 1 79.6315 25.6702 14.3730 0.0000 0.0000 0.0000
# 2 25.6702 25.9027 11.4276 0.0000 0.0000 0.0000
# 3 14.3730 11.4276 67.8736 0.0000 0.0000 0.0000
# 4 0.0000 0.0000 0.0000 21.4151 0.0000 0.0000
# 5 0.0000 0.0000 0.0000 0.0000 16.2926 0.0000
# 6 0.0000 0.0000 0.0000 0.0000 0.0000 22.6808
#
#
#
# Elastic Compliance Matrix: (Units=1/GPa)
#
#
# Indices 1 2 3 4 5 6 
#
# 1 0.018503 -0.017941 -0.000898 0.000000 0.000000 0.000000
# 2 -0.017941 0.059100 -0.006151 0.000000 0.000000 0.000000
# 3 -0.000898 -0.006151 0.015959 0.000000 0.000000 0.000000
# 4 0.000000 0.000000 0.000000 0.046696 0.000000 0.000000
# 5 0.000000 0.000000 0.000000 0.000000 0.061378 0.000000
# 6 0.000000 0.000000 0.000000 0.000000 0.000000 0.044090
#
#
# Mechanical properties :
#
#
# Convention : Reuss Voigt Hill
#
# Bulk Modulus (GPa) = 22.94512 30.70550 26.82531
# Shear Modulus (GPa) = 16.11686 20.20684 18.16185
#
# Velocity S-wave (km/s) = 2.84392 3.18439 3.01895
# Velocity P-wave (km/s) = 4.72210 5.37859 5.06100
#
# Compressibility (1/GPa) = 0.04358225
#
# Stress axis : x y z
#
# Youngs Moduli (GPa) = 54.04393 16.92044 62.66062
#
# Poissons Ratio (x) = 0.30358 0.05624
# Poissons Ratio (y) = 0.96962 0.38544
# Poissons Ratio (z) = 0.04851 0.10408
#
# Static dielectric constant tensor:
#      x y z
#    x 1.684760 0.000000 0.000000 
#    y 0.000000 1.727950 0.000000 
#    z 0.000000 0.000000 1.701190 
# 
# From -- ./inp_files/29272.got.cif
#   From: 2010.05.17/outbox.cif.g08.bks.cpg/sg57_15_cif.got.tgz:29272.got - 2010.06.03 13:58:18.
