data_PCOD9439538
_publ_section_title
;
Structure prediction by ZEFSAII (Michael W. Deem and Ramdas Pophale) SiO2 
 PCOD9439538
Probable space group: P B C M
;
_chemical_formula_sum "Si O2"
_cell_formula_units_Z 40
_cell_length_a 5.017418
_cell_length_b 16.196061
_cell_length_c 20.928111
_cell_angle_alpha 90.000000
_cell_angle_beta 90.000000
_cell_angle_gamma 90.000000
_cell_volume 1700.668695
_symmetry_space_group_name_H-M "P B C M"
_symmetry_group_IT_number 57
_symmetry_cell_setting 'orthorhombic'
loop_
_space_group_symop_operation_xyz
x,y,z
-x,-y,1/2+z
x,1/2-y,-z
-x,1/2+y,1/2-z
-x,-y,-z
x,y,1/2-z
-x,1/2+y,z
x,1/2-y,1/2+z
loop_
_atom_site_type_symbol
_atom_site_label
_atom_site_fract_x
_atom_site_fract_y
_atom_site_fract_z
Si Si1 0.328506 0.086413 0.680438
Si Si2 0.571180 0.922283 0.872282
Si Si3 0.069835 0.920194 0.541864
Si Si4 0.089109 0.186378 0.926076
Si Si5 0.577158 0.248038 0.863908
O O1 0.198966 0.079364 0.750000
O O2 0.133603 0.106893 0.621142
O O3 0.512210 0.168723 0.679162
O O4 0.496166 0.004766 0.665361
O O5 0.870670 0.920381 0.897966
O O6 0.498071 0.837010 0.836787
O O7 0.372277 0.921189 0.933773
O O8 0.008913 0.844841 0.493901
O O9 0.000000 0.000000 0.500000
O O10 0.373281 0.231191 0.922882
O O11 0.873751 0.241613 0.889527
#
# Coordination Sequence:
#
# PCOD9439538 Si02
#       5
#     8   8   8   8   8
#     4  10  25  46  67  91 132 175 219 270 324 386
#     4  12  25  40  70  99 131 173 219 266 329 389
#     4  12  22  40  67  99 139 168 212 273 324 396
#     4  10  22  42  64  92 132 170 209 265 334 374
#     4  10  23  43  63  99 128 166 223 263 320 391
#
# _framework density 23.520157000000001
#
# number of rings (size 3 to 8) (size 9 to 14) (size 15 to 20)
#    1.200    0.000    2.000    4.200    0.000    6.400 
#    0.000    0.000    0.000    0.000    0.000    0.000 
#    0.000    0.000    0.000    0.000    0.000    0.000 
#
# Total GULP energy -223556.130565 kJ/mol
# GULP energy per Si atom -5588.903264 kJ/mol
# Density = 2.346662 g / cm^3
# Si number density = 23.520157 Si / 1000 Ang^3
#
#
#
# Elastic Constant Matrix: (Units=GPa)
#
#
# Indices 1 2 3 4 5 6 
#
# 1 68.1814 -1.3871 -6.6107 0.0000 0.0000 0.0000
# 2 -1.3871 179.1374 16.9999 0.0000 0.0000 0.0000
# 3 -6.6107 16.9999 82.5957 0.0000 0.0000 0.0000
# 4 0.0000 0.0000 0.0000 -22.5255 0.0000 0.0000
# 5 0.0000 0.0000 0.0000 0.0000 9.8814 0.0000
# 6 0.0000 0.0000 0.0000 0.0000 0.0000 35.1540
#
#
#
# Elastic Compliance Matrix: (Units=1/GPa)
#
#
# Indices 1 2 3 4 5 6 
#
# 1 0.014781 0.000002 0.001183 0.000000 0.000000 0.000000
# 2 0.000002 0.005694 -0.001172 0.000000 0.000000 0.000000
# 3 0.001183 -0.001172 0.012443 0.000000 0.000000 0.000000
# 4 0.000000 0.000000 0.000000 -0.044394 0.000000 0.000000
# 5 0.000000 0.000000 0.000000 0.000000 0.101200 0.000000
# 6 0.000000 0.000000 0.000000 0.000000 0.000000 0.028446
#
#
# Mechanical properties :
#
#
# Convention : Reuss Voigt Hill
#
# Bulk Modulus (GPa) = 30.35426 38.65762 34.50594
# Shear Modulus (GPa) = 38.72211 25.89614 32.30912
#
# Velocity S-wave (km/s) = 4.06191 3.32176 3.71034
# Velocity P-wave (km/s) = 5.91037 5.58424 5.74962
#
# Compressibility (1/GPa) = 0.03294431
#
# Stress axis : x y z
#
# Youngs Moduli (GPa) = 67.65228 175.63847 80.36664
#
# Poissons Ratio (x) = -0.00039 -0.09504
# Poissons Ratio (y) = -0.00015 0.09416
# Poissons Ratio (z) = -0.08001 0.20579
#
# Static dielectric constant tensor:
#      x y z
#    x 1.819460 0.000000 0.000000 
#    y 0.000000 1.987520 0.000000 
#    z 0.000000 0.000000 1.843710 
# 
# From -- ./inp_files/26122.got.cif
#   From: 2010.05.17/outbox.cif.g08.bks.cpg/sg57_14_cif.got.tgz:26122.got - 2010.06.03 13:58:18.
