data_PCOD9439131
_publ_section_title
;
Structure prediction by ZEFSAII (Michael W. Deem and Ramdas Pophale) SiO2 
 PCOD9439131
Probable space group: P B C M
;
_chemical_formula_sum "Si O2"
_cell_formula_units_Z 40
_cell_length_a 5.491587
_cell_length_b 20.002903
_cell_length_c 15.216010
_cell_angle_alpha 90.000000
_cell_angle_beta 90.000000
_cell_angle_gamma 90.000000
_cell_volume 1671.443429
_symmetry_space_group_name_H-M "P B C M"
_symmetry_group_IT_number 57
_symmetry_cell_setting 'orthorhombic'
loop_
_space_group_symop_operation_xyz
x,y,z
-x,-y,1/2+z
x,1/2-y,-z
-x,1/2+y,1/2-z
-x,-y,-z
x,y,1/2-z
-x,1/2+y,z
x,1/2-y,1/2+z
loop_
_atom_site_type_symbol
_atom_site_label
_atom_site_fract_x
_atom_site_fract_y
_atom_site_fract_z
Si Si1 0.938488 0.369764 0.154124
Si Si2 0.514932 0.315365 0.557390
Si Si3 0.608088 0.007829 0.649715
Si Si4 0.267768 0.063017 0.516014
Si Si5 0.004257 0.711036 0.349610
O O1 0.067105 0.382942 0.250000
O O2 0.701319 0.416095 0.159689
O O3 0.926150 0.290078 0.147724
O O4 0.065934 0.395272 0.066448
O O5 0.565183 0.250000 0.500000
O O6 0.474779 0.382218 0.503191
O O7 0.752685 0.324666 0.616618
O O8 0.250880 0.301689 0.601638
O O9 0.590381 0.980850 0.750000
O O10 0.366097 0.011653 0.589872
O O11 0.783719 0.969258 0.579630
O O12 0.959662 0.691496 0.250000
#
# Coordination Sequence:
#
# PCOD9439131 Si02
#       5
#     8   8   8   8   8
#     4  10  21  40  66  96 131 176 230 282 340 415
#     4  12  24  42  69 100 140 177 232 281 350 418
#     4  10  23  42  65  96 131 175 234 287 346 413
#     4  11  23  40  69  94 135 178 229 286 352 404
#     4  11  25  43  67  99 139 183 228 287 347 417
#
# _framework density 23.93141
#
# number of rings (size 3 to 8) (size 9 to 14) (size 15 to 20)
#    0.000    1.200    2.000    3.600    2.800    1.600 
#    0.000    0.000    0.000    0.000    0.000    0.000 
#    0.000    0.000    0.000    0.000    0.000    0.000 
#
# Total GULP energy -223214.208637 kJ/mol
# GULP energy per Si atom -5580.355216 kJ/mol
# Density = 2.387694 g / cm^3
# Si number density = 23.931410 Si / 1000 Ang^3
#
#
#
# Elastic Constant Matrix: (Units=GPa)
#
#
# Indices 1 2 3 4 5 6 
#
# 1 66.9554 7.5638 49.9847 0.0000 0.0000 0.0000
# 2 7.5638 40.7863 41.9366 0.0000 0.0000 0.0000
# 3 49.9847 41.9366 211.0942 0.0000 0.0000 0.0000
# 4 0.0000 0.0000 0.0000 36.1328 0.0000 0.0000
# 5 0.0000 0.0000 0.0000 0.0000 24.5851 0.0000
# 6 0.0000 0.0000 0.0000 0.0000 0.0000 -12.9540
#
#
#
# Elastic Compliance Matrix: (Units=1/GPa)
#
#
# Indices 1 2 3 4 5 6 
#
# 1 0.018199 0.001327 -0.004573 0.000000 0.000000 0.000000
# 2 0.001327 0.030909 -0.006455 0.000000 0.000000 0.000000
# 3 -0.004573 -0.006455 0.007102 0.000000 0.000000 0.000000
# 4 0.000000 0.000000 0.000000 0.027676 0.000000 0.000000
# 5 0.000000 0.000000 0.000000 0.000000 0.040675 0.000000
# 6 0.000000 0.000000 0.000000 0.000000 0.000000 -0.077196
#
#
# Mechanical properties :
#
#
# Convention : Reuss Voigt Hill
#
# Bulk Modulus (GPa) = 27.16732 57.53400 42.35066
# Shear Modulus (GPa) = 63.26230 24.17615 43.71923
#
# Velocity S-wave (km/s) = 5.14706 3.18185 4.27881
# Velocity P-wave (km/s) = 6.83372 6.13126 6.49200
#
# Compressibility (1/GPa) = 0.03680893
#
# Stress axis : x y z
#
# Youngs Moduli (GPa) = 54.94710 32.35346 140.79849
#
# Poissons Ratio (x) = -0.04293 0.64387
# Poissons Ratio (y) = -0.07291 0.90880
# Poissons Ratio (z) = 0.25127 0.20883
#
# Static dielectric constant tensor:
#      x y z
#    x 1.939710 0.000000 0.000000 
#    y 0.000000 1.914220 0.000000 
#    z 0.000000 0.000000 1.965270 
# 
# From -- ./inp_files/14941.got.cif
#   From: 2010.05.17/outbox.cif.g08.bks.cpg/sg57_8_cif.got.tgz:14941.got - 2010.06.03 13:58:18.
