data_PCOD9439991
_publ_section_title
;
Structure prediction by ZEFSAII (Michael W. Deem and Ramdas Pophale) SiO2 
 PCOD9439991
Probable space group: P B C M
;
_chemical_formula_sum "Si O2"
_cell_formula_units_Z 40
_cell_length_a 10.294479
_cell_length_b 8.033493
_cell_length_c 20.861118
_cell_angle_alpha 90.000000
_cell_angle_beta 90.000000
_cell_angle_gamma 90.000000
_cell_volume 1725.227496
_symmetry_space_group_name_H-M "P B C M"
_symmetry_group_IT_number 57
_symmetry_cell_setting 'orthorhombic'
loop_
_space_group_symop_operation_xyz
x,y,z
-x,-y,1/2+z
x,1/2-y,-z
-x,1/2+y,1/2-z
-x,-y,-z
x,y,1/2-z
-x,1/2+y,z
x,1/2-y,1/2+z
loop_
_atom_site_type_symbol
_atom_site_label
_atom_site_fract_x
_atom_site_fract_y
_atom_site_fract_z
Si Si1 0.337044 0.577996 0.631724
Si Si2 0.800169 0.279176 0.250000
Si Si3 0.087884 0.033097 0.437527
Si Si4 0.129166 0.352665 0.367889
Si Si5 0.396963 0.197163 0.827491
Si Si6 0.952729 0.876018 0.750000
O O1 0.280835 0.698512 0.686347
O O2 0.224352 0.564119 0.577008
O O3 0.482518 0.648848 0.626832
O O4 0.358668 0.390861 0.660187
O O5 0.891935 0.120575 0.250000
O O6 0.888603 0.445500 0.250000
O O7 0.125782 0.224591 0.427623
O O8 0.000000 0.000000 0.500000
O O9 0.983906 0.981854 0.382407
O O10 0.274063 0.409249 0.352339
O O11 0.092973 0.234566 0.309198
O O12 0.419403 0.173054 0.750000
#
# Coordination Sequence:
#
# PCOD9439991 Si02
#       6
#     8   4   8   8   8   4
#     4  11  22  39  60  92 132 166 206 257 321 389
#     4  12  20  37  59  95 139 157 201 270 322 390
#     4  11  24  42  63  87 123 174 221 263 302 369
#     4  11  21  38  63  92 125 159 210 265 320 374
#     4  11  20  37  59  93 132 162 194 257 332 392
#     4  12  18  37  61  97 129 157 203 268 330 368
#
# _framework density 23.185348000000001
#
# number of rings (size 3 to 8) (size 9 to 14) (size 15 to 20)
#    0.000    0.800    9.000    0.600    0.000    1.600 
#    3.600    1.000    0.000    2.400    0.000    0.000 
#    0.000    0.000    0.000    0.000    0.000    0.000 
#
# Total GULP energy -223281.499404 kJ/mol
# GULP energy per Si atom -5582.037485 kJ/mol
# Density = 2.313258 g / cm^3
# Si number density = 23.185348 Si / 1000 Ang^3
#
#
#
# Elastic Constant Matrix: (Units=GPa)
#
#
# Indices 1 2 3 4 5 6 
#
# 1 201.4715 32.8175 45.3131 0.0000 0.0000 0.0000
# 2 32.8175 56.0682 12.3700 0.0000 0.0000 0.0000
# 3 45.3131 12.3700 106.7380 0.0000 0.0000 0.0000
# 4 0.0000 0.0000 0.0000 22.9405 0.0000 0.0000
# 5 0.0000 0.0000 0.0000 0.0000 37.8406 0.0000
# 6 0.0000 0.0000 0.0000 0.0000 0.0000 40.4539
#
#
#
# Elastic Compliance Matrix: (Units=1/GPa)
#
#
# Indices 1 2 3 4 5 6 
#
# 1 0.005941 -0.002997 -0.002175 0.000000 0.000000 0.000000
# 2 -0.002997 0.019816 -0.001024 0.000000 0.000000 0.000000
# 3 -0.002175 -0.001024 0.010411 0.000000 0.000000 0.000000
# 4 0.000000 0.000000 0.000000 0.043591 0.000000 0.000000
# 5 0.000000 0.000000 0.000000 0.000000 0.026427 0.000000
# 6 0.000000 0.000000 0.000000 0.000000 0.000000 0.024720
#
#
# Mechanical properties :
#
#
# Convention : Reuss Voigt Hill
#
# Bulk Modulus (GPa) = 42.06090 60.58653 51.32372
# Shear Modulus (GPa) = 33.06406 38.49880 35.78143
#
# Velocity S-wave (km/s) = 3.78044 4.07932 3.93272
# Velocity P-wave (km/s) = 6.10214 6.95528 6.54263
#
# Compressibility (1/GPa) = 0.02377505
#
# Stress axis : x y z
#
# Youngs Moduli (GPa) = 168.32625 50.46475 96.05591
#
# Poissons Ratio (x) = 0.15127 0.20889
# Poissons Ratio (y) = 0.50455 0.09836
# Poissons Ratio (z) = 0.36605 0.05167
#
# Static dielectric constant tensor:
#      x y z
#    x 1.998190 0.000000 0.000000 
#    y 0.000000 1.922320 0.000000 
#    z 0.000000 0.000000 2.077450 
# 
# From -- ./inp_files/24160.got.cif
#   From: 2010.05.17/outbox.cif.g08.bks.cpg/sg57_13_cif.got.tgz:24160.got - 2010.06.03 13:58:18.
