data_PCOD9439879
_publ_section_title
;
Structure prediction by ZEFSAII (Michael W. Deem and Ramdas Pophale) SiO2 
 PCOD9439879
Probable space group: P B C M
;
_chemical_formula_sum "Si O2"
_cell_formula_units_Z 40
_cell_length_a 12.324378
_cell_length_b 9.109296
_cell_length_c 16.850725
_cell_angle_alpha 90.000000
_cell_angle_beta 90.000000
_cell_angle_gamma 90.000000
_cell_volume 1891.770355
_symmetry_space_group_name_H-M "P B C M"
_symmetry_group_IT_number 57
_symmetry_cell_setting 'orthorhombic'
loop_
_space_group_symop_operation_xyz
x,y,z
-x,-y,1/2+z
x,1/2-y,-z
-x,1/2+y,1/2-z
-x,-y,-z
x,y,1/2-z
-x,1/2+y,z
x,1/2-y,1/2+z
loop_
_atom_site_type_symbol
_atom_site_label
_atom_site_fract_x
_atom_site_fract_y
_atom_site_fract_z
Si Si1 0.955842 0.874130 0.057578
Si Si2 0.626159 0.010926 0.843612
Si Si3 0.566384 0.801985 0.409720
Si Si4 0.757155 0.995756 0.343758
Si Si5 0.831566 0.322329 0.343221
O O1 0.060310 0.816190 0.105365
O O2 0.866726 0.931095 0.118710
O O3 0.908572 0.750000 0.000000
O O4 0.000000 0.000000 0.000000
O O5 0.616672 0.043199 0.750000
O O6 0.547146 0.121353 0.889465
O O7 0.750791 0.045468 0.866326
O O8 0.591172 0.844360 0.859341
O O9 0.570636 0.750000 0.500000
O O10 0.656951 0.922834 0.388748
O O11 0.749050 0.962715 0.250000
O O12 0.765259 0.171130 0.352743
O O13 0.859835 0.337079 0.250000
#
# Coordination Sequence:
#
# PCOD9439879 Si02
#       5
#     8   8   8   8   8
#     4  12  25  43  66  97 133 172 217 279 336 392
#     4  11  24  44  69  97 132 178 222 269 331 404
#     4  12  26  43  68 102 136 171 224 278 338 390
#     4  11  24  44  67  94 133 178 223 272 331 403
#     4  10  24  44  67  94 131 176 224 269 326 397
#
# _framework density 21.144217000000001
#
# number of rings (size 3 to 8) (size 9 to 14) (size 15 to 20)
#    0.000    0.800    2.000    4.800    5.600    2.400 
#    0.000    0.000    0.000    0.000    0.000    0.000 
#    0.000    0.000    0.000    0.000    0.000    0.000 
#
# Total GULP energy -223927.937231 kJ/mol
# GULP energy per Si atom -5598.198431 kJ/mol
# Density = 2.109609 g / cm^3
# Si number density = 21.144217 Si / 1000 Ang^3
#
#
#
# Elastic Constant Matrix: (Units=GPa)
#
#
# Indices 1 2 3 4 5 6 
#
# 1 64.4201 -14.2990 20.1337 0.0000 0.0000 0.0000
# 2 -14.2990 42.1908 -4.9476 0.0000 0.0000 0.0000
# 3 20.1337 -4.9476 68.1804 0.0000 0.0000 0.0000
# 4 0.0000 0.0000 0.0000 36.8314 0.0000 0.0000
# 5 0.0000 0.0000 0.0000 0.0000 49.2224 0.0000
# 6 0.0000 0.0000 0.0000 0.0000 0.0000 6.8194
#
#
#
# Elastic Compliance Matrix: (Units=1/GPa)
#
#
# Indices 1 2 3 4 5 6 
#
# 1 0.018337 0.005628 -0.005007 0.000000 0.000000 0.000000
# 2 0.005628 0.025632 0.000198 0.000000 0.000000 0.000000
# 3 -0.005007 0.000198 0.016160 0.000000 0.000000 0.000000
# 4 0.000000 0.000000 0.000000 0.027151 0.000000 0.000000
# 5 0.000000 0.000000 0.000000 0.000000 0.020316 0.000000
# 6 0.000000 0.000000 0.000000 0.000000 0.000000 0.146642
#
#
# Mechanical properties :
#
#
# Convention : Reuss Voigt Hill
#
# Bulk Modulus (GPa) = 16.18974 19.61838 17.90406
# Shear Modulus (GPa) = 18.30241 30.16824 24.23533
#
# Velocity S-wave (km/s) = 2.94530 3.78138 3.38922
# Velocity P-wave (km/s) = 4.38632 5.32575 4.87870
#
# Compressibility (1/GPa) = 0.06176751
#
# Stress axis : x y z
#
# Youngs Moduli (GPa) = 54.53467 39.01324 61.88197
#
# Poissons Ratio (x) = -0.21955 0.30981
# Poissons Ratio (y) = -0.30690 -0.01227
# Poissons Ratio (z) = 0.27303 -0.00773
#
# Static dielectric constant tensor:
#      x y z
#    x 1.728060 0.000000 0.000000 
#    y 0.000000 1.769980 0.000000 
#    z 0.000000 0.000000 1.742230 
# 
# From -- ./inp_files/21587.got.cif
#   From: 2010.05.17/outbox.cif.g08.bks.cpg/sg57_11_cif.got.tgz:21587.got - 2010.06.03 13:58:18.
