data_PCOD9439998
_publ_section_title
;
Structure prediction by ZEFSAII (Michael W. Deem and Ramdas Pophale) SiO2 
 PCOD9439998
Probable space group: P B C M
;
_chemical_formula_sum "Si O2"
_cell_formula_units_Z 56
_cell_length_a 7.834530
_cell_length_b 20.999687
_cell_length_c 16.913167
_cell_angle_alpha 90.000000
_cell_angle_beta 90.000000
_cell_angle_gamma 90.000000
_cell_volume 2782.599525
_symmetry_space_group_name_H-M "P B C M"
_symmetry_group_IT_number 57
_symmetry_cell_setting 'orthorhombic'
loop_
_space_group_symop_operation_xyz
x,y,z
-x,-y,1/2+z
x,1/2-y,-z
-x,1/2+y,1/2-z
-x,-y,-z
x,y,1/2-z
-x,1/2+y,z
x,1/2-y,1/2+z
loop_
_atom_site_type_symbol
_atom_site_label
_atom_site_fract_x
_atom_site_fract_y
_atom_site_fract_z
Si Si1 0.552337 0.648214 0.948473
Si Si2 0.140903 0.844625 0.841230
Si Si3 0.493665 0.733264 0.159417
Si Si4 0.368814 0.559927 0.424075
Si Si5 0.200442 0.342447 0.580007
Si Si6 0.170180 0.489119 0.950365
Si Si7 0.416025 0.959202 0.341887
O O1 0.487189 0.711713 0.906394
O O2 0.533741 0.595001 0.880885
O O3 0.445585 0.616265 0.020899
O O4 0.732830 0.665268 0.989707
O O5 0.085172 0.852132 0.750000
O O6 0.312082 0.802295 0.841769
O O7 0.208326 0.910874 0.878187
O O8 0.984725 0.817870 0.893172
O O9 0.520526 0.756067 0.250000
O O10 0.652552 0.687802 0.135104
O O11 0.313381 0.503907 0.483602
O O12 0.497421 0.527133 0.363163
O O13 0.180181 0.418891 0.584910
O O14 0.228915 0.538509 0.882858
O O15 0.000000 0.500000 0.000000
O O16 0.402088 0.949893 0.250000
#
# Coordination Sequence:
#
# PCOD9439998 Si02
#       7
#     8   8   8   8   8   8   8
#     4  11  22  43  65  93 127 172 217 264 324 390
#     4  11  24  40  65  97 130 167 210 268 327 379
#     4  11  25  46  66  93 132 172 221 274 325 382
#     4  11  20  40  66  93 128 168 216 260 325 398
#     4  12  22  41  69  96 129 167 219 266 321 386
#     4  11  21  39  62  92 134 167 207 271 320 393
#     4  11  22  39  67  96 127 170 215 268 332 391
#
# _framework density 20.125066
#
# number of rings (size 3 to 8) (size 9 to 14) (size 15 to 20)
#    0.000    0.857    5.714    2.571    0.000    2.286 
#    5.143    0.000    0.000    0.000    0.000    0.000 
#    0.000    0.000    0.000    0.000    0.000    0.000 
#
# Total GULP energy -312162.308429 kJ/mol
# GULP energy per Si atom -5574.326936 kJ/mol
# Density = 2.007926 g / cm^3
# Si number density = 20.125066 Si / 1000 Ang^3
#
#
#
# Elastic Constant Matrix: (Units=GPa)
#
#
# Indices 1 2 3 4 5 6 
#
# 1 122.8322 24.8243 48.3843 0.0000 0.0000 0.0000
# 2 24.8243 64.7478 26.5346 0.0000 0.0000 0.0000
# 3 48.3843 26.5346 139.7574 0.0000 0.0000 0.0000
# 4 0.0000 0.0000 0.0000 30.8321 0.0000 0.0000
# 5 0.0000 0.0000 0.0000 0.0000 30.3257 0.0000
# 6 0.0000 0.0000 0.0000 0.0000 0.0000 12.7825
#
#
#
# Elastic Compliance Matrix: (Units=1/GPa)
#
#
# Indices 1 2 3 4 5 6 
#
# 1 0.009805 -0.002568 -0.002907 0.000000 0.000000 0.000000
# 2 -0.002568 0.017420 -0.002418 0.000000 0.000000 0.000000
# 3 -0.002907 -0.002418 0.008621 0.000000 0.000000 0.000000
# 4 0.000000 0.000000 0.000000 0.032434 0.000000 0.000000
# 5 0.000000 0.000000 0.000000 0.000000 0.032975 0.000000
# 6 0.000000 0.000000 0.000000 0.000000 0.000000 0.078232
#
#
# Mechanical properties :
#
#
# Convention : Reuss Voigt Hill
#
# Bulk Modulus (GPa) = 49.85177 58.53597 54.19387
# Shear Modulus (GPa) = 24.75730 29.96101 27.35915
#
# Velocity S-wave (km/s) = 3.51119 3.86261 3.69108
# Velocity P-wave (km/s) = 6.42360 7.00301 6.71956
#
# Compressibility (1/GPa) = 0.02005947
#
# Stress axis : x y z
#
# Youngs Moduli (GPa) = 101.98588 57.40468 115.99799
#
# Poissons Ratio (x) = 0.14741 0.33721
# Poissons Ratio (y) = 0.26190 0.28053
# Poissons Ratio (z) = 0.29648 0.13883
#
# Static dielectric constant tensor:
#      x y z
#    x 1.771480 0.000000 0.000000 
#    y 0.000000 1.750760 0.000000 
#    z 0.000000 0.000000 1.715710 
# 
# From -- ./inp_files/21330.got.cif
#   From: 2010.05.17/outbox.cif.g08.bks.cpg/sg57_11_cif.got.tgz:21330.got - 2010.06.03 13:58:18.
