data_PCOD9439174
_publ_section_title
;
Structure prediction by ZEFSAII (Michael W. Deem and Ramdas Pophale) SiO2 
 PCOD9439174
Probable space group: P B C M
;
_chemical_formula_sum "Si O2"
_cell_formula_units_Z 56
_cell_length_a 14.914858
_cell_length_b 22.002340
_cell_length_c 8.074553
_cell_angle_alpha 90.000000
_cell_angle_beta 90.000000
_cell_angle_gamma 90.000000
_cell_volume 2649.759659
_symmetry_space_group_name_H-M "P B C M"
_symmetry_group_IT_number 57
_symmetry_cell_setting 'orthorhombic'
loop_
_space_group_symop_operation_xyz
x,y,z
-x,-y,1/2+z
x,1/2-y,-z
-x,1/2+y,1/2-z
-x,-y,-z
x,y,1/2-z
-x,1/2+y,z
x,1/2-y,1/2+z
loop_
_atom_site_type_symbol
_atom_site_label
_atom_site_fract_x
_atom_site_fract_y
_atom_site_fract_z
Si Si1 0.869075 0.683220 0.554724
Si Si2 0.910832 0.033634 0.944276
Si Si3 0.558628 0.559078 0.947884
Si Si4 0.454641 0.679007 0.448082
Si Si5 0.071333 0.663304 0.436165
Si Si6 0.735463 0.183429 0.448554
Si Si7 0.234569 0.062546 0.547886
O O1 0.838734 0.750000 0.500000
O O2 0.861081 0.680773 0.750000
O O3 0.811398 0.626086 0.490095
O O4 0.974775 0.676381 0.512826
O O5 0.915924 0.050729 0.750000
O O6 0.912531 0.091792 0.060599
O O7 0.825995 0.991486 0.977335
O O8 0.000000 0.000000 0.000000
O O9 0.558920 0.558955 0.750000
O O10 0.662454 0.555061 0.003519
O O11 0.500000 0.500000 0.000000
O O12 0.522438 0.625499 0.002629
O O13 0.475369 0.750000 0.500000
O O14 0.449675 0.682183 0.250000
O O15 0.356277 0.651239 0.504216
O O16 0.067213 0.688718 0.250000
O O17 0.164686 0.681125 0.523246
O O18 0.706211 0.250000 0.500000
O O19 0.745625 0.174098 0.250000
O O20 0.229847 0.060431 0.750000
#
# Coordination Sequence:
#
# PCOD9439174 Si02
#       7
#     8   8   8   8   8   8   8
#     4  11  23  40  62  89 123 165 208 258 312 367
#     4  12  24  39  62  91 123 161 204 249 304 365
#     4  11  25  45  68  97 130 168 214 274 334 391
#     4  10  21  41  66  94 127 169 215 269 329 393
#     4  11  22  37  59  89 125 165 206 253 305 361
#     4   9  20  36  57  86 122 161 201 247 303 361
#     4  10  24  45  65  88 124 165 209 259 314 375
#
# _framework density 21.133993
#
# number of rings (size 3 to 8) (size 9 to 14) (size 15 to 20)
#    0.000    1.429    1.429    3.429    2.000    5.143 
#    0.000    1.429    0.000    0.000    0.000    0.000 
#    0.000    0.000    0.000    0.000    0.000    0.000 
#
# Total GULP energy -311953.047365 kJ/mol
# GULP energy per Si atom -5570.590132 kJ/mol
# Density = 2.108589 g / cm^3
# Si number density = 21.133993 Si / 1000 Ang^3
#
#
#
# Elastic Constant Matrix: (Units=GPa)
#
#
# Indices 1 2 3 4 5 6 
#
# 1 133.6300 36.3683 13.1644 0.0000 0.0000 0.0000
# 2 36.3683 96.5303 2.7668 0.0000 0.0000 0.0000
# 3 13.1644 2.7668 45.4498 0.0000 0.0000 0.0000
# 4 0.0000 0.0000 0.0000 31.6512 0.0000 0.0000
# 5 0.0000 0.0000 0.0000 0.0000 21.9775 0.0000
# 6 0.0000 0.0000 0.0000 0.0000 0.0000 33.0606
#
#
#
# Elastic Compliance Matrix: (Units=1/GPa)
#
#
# Indices 1 2 3 4 5 6 
#
# 1 0.008570 -0.003163 -0.002290 0.000000 0.000000 0.000000
# 2 -0.003163 0.011545 0.000213 0.000000 0.000000 0.000000
# 3 -0.002290 0.000213 0.022653 0.000000 0.000000 0.000000
# 4 0.000000 0.000000 0.000000 0.031594 0.000000 0.000000
# 5 0.000000 0.000000 0.000000 0.000000 0.045501 0.000000
# 6 0.000000 0.000000 0.000000 0.000000 0.000000 0.030247
#
#
# Mechanical properties :
#
#
# Convention : Reuss Voigt Hill
#
# Bulk Modulus (GPa) = 30.97071 42.24546 36.60808
# Shear Modulus (GPa) = 29.17973 32.22522 30.70248
#
# Velocity S-wave (km/s) = 3.71981 3.90911 3.81563
# Velocity P-wave (km/s) = 5.75635 6.35670 6.06396
#
# Compressibility (1/GPa) = 0.03228857
#
# Stress axis : x y z
#
# Youngs Moduli (GPa) = 116.68929 86.61728 44.14522
#
# Poissons Ratio (x) = 0.27398 0.10108
# Poissons Ratio (y) = 0.36910 -0.00942
# Poissons Ratio (z) = 0.26718 -0.01848
#
# Static dielectric constant tensor:
#      x y z
#    x 1.892590 0.000000 0.000000 
#    y 0.000000 -15.092520 0.000000 
#    z 0.000000 0.000000 1.771070 
# 
# From -- ./inp_files/5280.got.cif
#   From: 2010.05.17/outbox.cif.g08.bks.cpg/sg57_3_cif.got.tgz:5280.got - 2010.06.03 13:58:18.
