data_PCOD9439823
_publ_section_title
;
Structure prediction by ZEFSAII (Michael W. Deem and Ramdas Pophale) SiO2 
 PCOD9439823
Probable space group: P B C M
;
_chemical_formula_sum "Si O2"
_cell_formula_units_Z 56
_cell_length_a 9.213056
_cell_length_b 13.930510
_cell_length_c 23.145516
_cell_angle_alpha 90.000000
_cell_angle_beta 90.000000
_cell_angle_gamma 90.000000
_cell_volume 2970.554978
_symmetry_space_group_name_H-M "P B C M"
_symmetry_group_IT_number 57
_symmetry_cell_setting 'orthorhombic'
loop_
_space_group_symop_operation_xyz
x,y,z
-x,-y,1/2+z
x,1/2-y,-z
-x,1/2+y,1/2-z
-x,-y,-z
x,y,1/2-z
-x,1/2+y,z
x,1/2-y,1/2+z
loop_
_atom_site_type_symbol
_atom_site_label
_atom_site_fract_x
_atom_site_fract_y
_atom_site_fract_z
Si Si1 0.675202 0.351680 0.907542
Si Si2 0.938497 0.392093 0.994229
Si Si3 0.879064 0.250045 0.318004
Si Si4 0.394801 0.236796 0.566143
Si Si5 0.126652 0.344585 0.608892
Si Si6 0.820498 0.068952 0.612660
Si Si7 0.495141 0.469017 0.068141
O O1 0.791188 0.380091 0.957105
O O2 0.760312 0.312898 0.852487
O O3 0.560304 0.272541 0.928172
O O4 0.577211 0.444538 0.897463
O O5 0.054409 0.336730 0.955045
O O6 0.900319 0.372289 0.060596
O O7 0.000000 0.500000 0.000000
O O8 0.876350 0.234823 0.250000
O O9 0.843221 0.360856 0.333605
O O10 0.030395 0.214090 0.345765
O O11 0.352395 0.250000 0.500000
O O12 0.286614 0.299977 0.604396
O O13 0.395755 0.123919 0.576902
O O14 0.124103 0.459534 0.621337
O O15 0.655856 0.053994 0.590724
O O16 0.500000 0.500000 0.000000
#
# Coordination Sequence:
#
# PCOD9439823 Si02
#       7
#     8   8   8   8   8   8   8
#     4  11  22  40  64  92 134 170 211 264 329 393
#     4   9  20  34  57  95 131 167 194 253 328 411
#     4  11  27  47  65  87 126 181 236 270 309 375
#     4  12  22  34  63 101 136 167 200 260 334 408
#     4  10  24  39  63  98 132 165 214 270 335 387
#     4  11  20  40  66  94 129 168 216 264 335 392
#     4  12  21  36  64 102 138 166 204 257 337 413
#
# _framework density 18.851694999999999
#
# number of rings (size 3 to 8) (size 9 to 14) (size 15 to 20)
#    0.000    1.143    5.714    0.000    4.000    4.000 
#    0.000    1.429    0.000    0.000    0.000    0.000 
#    0.000    0.000    0.000    0.000    0.000    0.000 
#
# Total GULP energy -312568.403402 kJ/mol
# GULP energy per Si atom -5581.578632 kJ/mol
# Density = 1.880879 g / cm^3
# Si number density = 18.851695 Si / 1000 Ang^3
#
#
#
# Elastic Constant Matrix: (Units=GPa)
#
#
# Indices 1 2 3 4 5 6 
#
# 1 95.4126 32.8363 39.3992 0.0000 0.0000 0.0000
# 2 32.8363 123.6684 39.1301 0.0000 0.0000 0.0000
# 3 39.3992 39.1301 102.6129 0.0000 0.0000 0.0000
# 4 0.0000 0.0000 0.0000 20.1549 0.0000 0.0000
# 5 0.0000 0.0000 0.0000 0.0000 13.0955 0.0000
# 6 0.0000 0.0000 0.0000 0.0000 0.0000 27.7968
#
#
#
# Elastic Compliance Matrix: (Units=1/GPa)
#
#
# Indices 1 2 3 4 5 6 
#
# 1 0.012925 -0.002117 -0.004155 0.000000 0.000000 0.000000
# 2 -0.002117 0.009542 -0.002826 0.000000 0.000000 0.000000
# 3 -0.004155 -0.002826 0.012419 0.000000 0.000000 0.000000
# 4 0.000000 0.000000 0.000000 0.049616 0.000000 0.000000
# 5 0.000000 0.000000 0.000000 0.000000 0.076362 0.000000
# 6 0.000000 0.000000 0.000000 0.000000 0.000000 0.035975
#
#
# Mechanical properties :
#
#
# Convention : Reuss Voigt Hill
#
# Bulk Modulus (GPa) = 59.91903 60.49169 60.20536
# Shear Modulus (GPa) = 22.66544 26.23130 24.44837
#
# Velocity S-wave (km/s) = 3.47119 3.73427 3.60513
# Velocity P-wave (km/s) = 6.92235 7.12396 7.02388
#
# Compressibility (1/GPa) = 0.01668919
#
# Stress axis : x y z
#
# Youngs Moduli (GPa) = 77.36741 104.79486 80.52454
#
# Poissons Ratio (x) = 0.22186 0.33462
# Poissons Ratio (y) = 0.16379 0.22756
# Poissons Ratio (z) = 0.32150 0.29615
#
# Static dielectric constant tensor:
#      x y z
#    x 1.703070 0.000000 0.000000 
#    y 0.000000 1.449400 0.000000 
#    z 0.000000 0.000000 1.602060 
# 
# From -- ./inp_files/24402.got.cif
#   From: 2010.05.17/outbox.cif.g08.bks.cpg/sg57_13_cif.got.tgz:24402.got - 2010.06.03 13:58:18.
