data_PCOD9439070
_publ_section_title
;
Structure prediction by ZEFSAII (Michael W. Deem and Ramdas Pophale) SiO2 
 PCOD9439070
Probable space group: P B C M
;
_chemical_formula_sum "Si O2"
_cell_formula_units_Z 64
_cell_length_a 19.686038
_cell_length_b 8.272352
_cell_length_c 16.063388
_cell_angle_alpha 90.000000
_cell_angle_beta 90.000000
_cell_angle_gamma 90.000000
_cell_volume 2615.920099
_symmetry_space_group_name_H-M "P B C M"
_symmetry_group_IT_number 57
_symmetry_cell_setting 'orthorhombic'
loop_
_space_group_symop_operation_xyz
x,y,z
-x,-y,1/2+z
x,1/2-y,-z
-x,1/2+y,1/2-z
-x,-y,-z
x,y,1/2-z
-x,1/2+y,z
x,1/2-y,1/2+z
loop_
_atom_site_type_symbol
_atom_site_label
_atom_site_fract_x
_atom_site_fract_y
_atom_site_fract_z
Si Si1 0.150141 0.178260 0.091764
Si Si2 0.771882 0.986052 0.152163
Si Si3 0.600485 0.653911 0.148520
Si Si4 0.097171 0.831486 0.653962
Si Si5 0.341830 0.683818 0.406924
Si Si6 0.265247 0.505391 0.847302
Si Si7 0.021552 0.517421 0.904174
Si Si8 0.526230 0.175545 0.850295
O O1 0.191216 0.314549 0.141456
O O2 0.199065 0.022154 0.097600
O O3 0.076700 0.118982 0.120443
O O4 0.142806 0.250000 0.000000
O O5 0.758561 0.008829 0.250000
O O6 0.829308 0.113911 0.122453
O O7 0.701629 0.021702 0.105207
O O8 0.603483 0.659703 0.250000
O O9 0.677658 0.624199 0.123498
O O10 0.559954 0.491699 0.123432
O O11 0.550078 0.793542 0.119109
O O12 0.105261 0.783833 0.750000
O O13 0.058990 0.686921 0.608246
O O14 0.046807 0.985173 0.646973
O O15 0.340609 0.750000 0.500000
O O16 0.419395 0.687538 0.376289
O O17 0.301130 0.821202 0.354884
O O18 0.248245 0.480823 0.750000
O O19 0.000000 0.500000 0.000000
O O20 0.524098 0.174623 0.750000
#
# Coordination Sequence:
#
# PCOD9439070 Si02
#       8
#     8   8   8   8   8   8   8   8
#     4  12  25  41  62  91 124 156 194 244 300 358
#     4  11  24  41  62  91 122 157 203 255 305 361
#     4   8  16  31  54  82 112 151 202 251 299 357
#     4  11  24  41  64  91 119 152 198 250 294 343
#     4  11  22  38  59  87 122 162 207 256 311 366
#     4  10  21  40  63  87 119 163 208 251 302 366
#     4  12  25  43  66  90 122 163 198 235 296 367
#     4   9  17  33  56  81 113 156 203 252 302 364
#
# _framework density 24.465579999999999
#
# number of rings (size 3 to 8) (size 9 to 14) (size 15 to 20)
#    0.000    1.500    0.000    6.750    0.000    6.000 
#    0.000    5.625    0.000    0.000    0.000    0.000 
#    0.000    0.000    0.000    0.000    0.000    0.000 
#
# Total GULP energy -358079.761626 kJ/mol
# GULP energy per Si atom -5594.996275 kJ/mol
# Density = 2.440989 g / cm^3
# Si number density = 24.465580 Si / 1000 Ang^3
#
#
#
# Elastic Constant Matrix: (Units=GPa)
#
#
# Indices 1 2 3 4 5 6 
#
# 1 105.2901 3.1675 -16.7947 0.0000 0.0000 0.0000
# 2 3.1675 68.6970 -3.9015 0.0000 0.0000 0.0000
# 3 -16.7947 -3.9015 22.4892 0.0000 0.0000 0.0000
# 4 0.0000 0.0000 0.0000 30.3927 0.0000 0.0000
# 5 0.0000 0.0000 0.0000 0.0000 11.7118 0.0000
# 6 0.0000 0.0000 0.0000 0.0000 0.0000 41.3705
#
#
#
# Elastic Compliance Matrix: (Units=1/GPa)
#
#
# Indices 1 2 3 4 5 6 
#
# 1 0.010782 -0.000040 0.008045 0.000000 0.000000 0.000000
# 2 -0.000040 0.014702 0.002520 0.000000 0.000000 0.000000
# 3 0.008045 0.002520 0.050911 0.000000 0.000000 0.000000
# 4 0.000000 0.000000 0.000000 0.032903 0.000000 0.000000
# 5 0.000000 0.000000 0.000000 0.000000 0.085384 0.000000
# 6 0.000000 0.000000 0.000000 0.000000 0.000000 0.024172
#
#
# Mechanical properties :
#
#
# Convention : Reuss Voigt Hill
#
# Bulk Modulus (GPa) = 10.26221 17.93543 14.09882
# Shear Modulus (GPa) = 21.71228 30.96200 26.33714
#
# Velocity S-wave (km/s) = 2.98226 3.56129 3.28456
# Velocity P-wave (km/s) = 4.00776 4.92516 4.48995
#
# Compressibility (1/GPa) = 0.09744489
#
# Stress axis : x y z
#
# Youngs Moduli (GPa) = 92.74701 68.01949 19.64214
#
# Poissons Ratio (x) = 0.00274 -0.15802
# Poissons Ratio (y) = 0.00373 -0.04951
# Poissons Ratio (z) = -0.74614 -0.17144
#
# Static dielectric constant tensor:
#      x y z
#    x 1.909680 0.000000 0.000000 
#    y 0.000000 2.044810 0.000000 
#    z 0.000000 0.000000 1.903660 
# 
# From -- ./inp_files/23077.got.cif
#   From: 2010.05.17/outbox.cif.g08.bks.cpg/sg57_12_cif.got.tgz:23077.got - 2010.06.03 13:58:18.
