data_PCOD9439378
_publ_section_title
;
Structure prediction by ZEFSAII (Michael W. Deem and Ramdas Pophale) SiO2 
 PCOD9439378
Probable space group: P B C M
;
_chemical_formula_sum "Si O2"
_cell_formula_units_Z 60
_cell_length_a 19.251476
_cell_length_b 9.310736
_cell_length_c 16.609281
_cell_angle_alpha 90.000000
_cell_angle_beta 90.000000
_cell_angle_gamma 90.000000
_cell_volume 2977.137393
_symmetry_space_group_name_H-M "P B C M"
_symmetry_group_IT_number 57
_symmetry_cell_setting 'orthorhombic'
loop_
_space_group_symop_operation_xyz
x,y,z
-x,-y,1/2+z
x,1/2-y,-z
-x,1/2+y,1/2-z
-x,-y,-z
x,y,1/2-z
-x,1/2+y,z
x,1/2-y,1/2+z
loop_
_atom_site_type_symbol
_atom_site_label
_atom_site_fract_x
_atom_site_fract_y
_atom_site_fract_z
Si Si1 0.452429 0.921681 0.064410
Si Si2 0.823962 0.882245 0.442727
Si Si3 0.328170 0.750000 0.500000
Si Si4 0.947183 0.032998 0.348056
Si Si5 0.293133 0.282376 0.845634
Si Si6 0.769421 0.428896 0.085692
Si Si7 0.919342 0.358843 0.153610
Si Si8 0.551101 0.793232 0.845111
O O1 0.382369 0.878779 0.017080
O O2 0.492015 0.785265 0.102808
O O3 0.444658 0.037860 0.135206
O O4 0.500000 0.000000 0.000000
O O5 0.847239 0.750000 0.500000
O O6 0.886450 0.941927 0.389433
O O7 0.762924 0.817754 0.388089
O O8 0.790800 0.004465 0.499294
O O9 0.275409 0.715563 0.573217
O O10 0.941796 0.023849 0.250000
O O11 0.021857 0.970560 0.373530
O O12 0.938573 0.198289 0.373072
O O13 0.288291 0.270928 0.750000
O O14 0.273823 0.445512 0.870588
O O15 0.371699 0.240136 0.869170
O O16 0.842139 0.399165 0.128134
O O17 0.921701 0.358830 0.250000
O O18 0.540113 0.769727 0.750000
#
# Coordination Sequence:
#
# PCOD9439378 Si02
#       8
#     8   8   4   8   8   8   8   8
#     4  12  24  42  68  95 130 176 216 269 333 400
#     4  10  23  38  61  95 127 166 215 265 320 376
#     4  12  24  40  64  90 128 168 216 260 324 392
#     4  10  22  42  65  91 125 168 216 263 316 384
#     4  10  22  39  64  90 126 171 215 264 322 388
#     4  11  23  40  61  93 129 168 210 268 323 382
#     4  10  23  42  66  93 127 171 217 263 321 387
#     4  11  24  43  66  99 133 170 222 278 328 387
#
# _framework density 20.153587999999999
#
# number of rings (size 3 to 8) (size 9 to 14) (size 15 to 20)
#    0.000    1.333    2.667    2.000    5.600    1.600 
#    1.200    0.000    0.000    1.600    0.000    0.000 
#    0.000    0.000    0.000    0.000    0.000    0.000 
#
# Total GULP energy -334874.388309 kJ/mol
# GULP energy per Si atom -5581.239805 kJ/mol
# Density = 2.010772 g / cm^3
# Si number density = 20.153588 Si / 1000 Ang^3
#
#
#
# Elastic Constant Matrix: (Units=GPa)
#
#
# Indices 1 2 3 4 5 6 
#
# 1 89.4077 24.1076 12.8662 0.0000 0.0000 0.0000
# 2 24.1076 71.5508 7.9537 0.0000 0.0000 0.0000
# 3 12.8662 7.9537 24.0431 0.0000 0.0000 0.0000
# 4 0.0000 0.0000 0.0000 42.0086 0.0000 0.0000
# 5 0.0000 0.0000 0.0000 0.0000 26.3543 0.0000
# 6 0.0000 0.0000 0.0000 0.0000 0.0000 21.8031
#
#
#
# Elastic Compliance Matrix: (Units=1/GPa)
#
#
# Indices 1 2 3 4 5 6 
#
# 1 0.013020 -0.003750 -0.005727 0.000000 0.000000 0.000000
# 2 -0.003750 0.015590 -0.003150 0.000000 0.000000 0.000000
# 3 -0.005727 -0.003150 0.045699 0.000000 0.000000 0.000000
# 4 0.000000 0.000000 0.000000 0.023805 0.000000 0.000000
# 5 0.000000 0.000000 0.000000 0.000000 0.037944 0.000000
# 6 0.000000 0.000000 0.000000 0.000000 0.000000 0.045865
#
#
# Mechanical properties :
#
#
# Convention : Reuss Voigt Hill
#
# Bulk Modulus (GPa) = 20.38580 30.53963 25.46272
# Shear Modulus (GPa) = 22.36845 27.37148 24.86996
#
# Velocity S-wave (km/s) = 3.33513 3.68930 3.51668
# Velocity P-wave (km/s) = 4.99680 5.77358 5.39918
#
# Compressibility (1/GPa) = 0.04905375
#
# Stress axis : x y z
#
# Youngs Moduli (GPa) = 76.80473 64.14420 21.88241
#
# Poissons Ratio (x) = 0.24056 0.12532
# Poissons Ratio (y) = 0.28804 0.06894
# Poissons Ratio (z) = 0.43985 0.20208
#
# Static dielectric constant tensor:
#      x y z
#    x 1.703630 0.000000 0.000000 
#    y 0.000000 1.740240 0.000000 
#    z 0.000000 0.000000 1.714740 
# 
# From -- ./inp_files/22871.got.cif
#   From: 2010.05.17/outbox.cif.g08.bks.cpg/sg57_12_cif.got.tgz:22871.got - 2010.06.03 13:58:18.
