data_PCOD9439433
_publ_section_title
;
Structure prediction by ZEFSAII (Michael W. Deem and Ramdas Pophale) SiO2 
 PCOD9439433
Probable space group: P B C M
;
_chemical_formula_sum "Si O2"
_cell_formula_units_Z 40
_cell_length_a 12.728023
_cell_length_b 10.083937
_cell_length_c 15.399742
_cell_angle_alpha 90.000000
_cell_angle_beta 90.000000
_cell_angle_gamma 90.000000
_cell_volume 1976.535050
_symmetry_space_group_name_H-M "P B C M"
_symmetry_group_IT_number 57
_symmetry_cell_setting 'orthorhombic'
loop_
_space_group_symop_operation_xyz
x,y,z
-x,-y,1/2+z
x,1/2-y,-z
-x,1/2+y,1/2-z
-x,-y,-z
x,y,1/2-z
-x,1/2+y,z
x,1/2-y,1/2+z
loop_
_atom_site_type_symbol
_atom_site_label
_atom_site_fract_x
_atom_site_fract_y
_atom_site_fract_z
Si Si1 0.934033 0.234830 0.396851
Si Si2 0.235363 0.980606 0.907417
Si Si3 0.393336 0.931404 0.750000
Si Si4 0.827325 0.741636 0.151425
Si Si5 0.755153 0.053629 0.606714
Si Si6 0.413416 0.629184 0.750000
O O1 0.953151 0.250000 0.500000
O O2 0.854708 0.352671 0.370934
O O3 0.046487 0.238162 0.352893
O O4 0.871205 0.098147 0.382789
O O5 0.212799 0.137043 0.906718
O O6 0.321222 0.947361 0.835234
O O7 0.265407 0.932471 0.003809
O O8 0.440064 0.783938 0.750000
O O9 0.484178 0.039486 0.750000
O O10 0.793674 0.770665 0.250000
O O11 0.784475 0.598472 0.124884
O O12 0.658670 0.096644 0.666429
#
# Coordination Sequence:
#
# PCOD9439433 Si02
#       6
#     8   8   4   8   8   4
#     4  10  22  40  64  97 136 183 224 262 318 393
#     4  11  24  45  68  96 138 179 220 271 328 392
#     4  12  28  48  73  99 130 166 223 283 339 394
#     4  12  24  36  66 104 141 180 220 265 321 389
#     4  11  24  45  68  96 138 179 220 271 328 392
#     4  12  28  48  73  99 130 166 223 283 339 394
#
# _framework density 20.237435999999999
#
# number of rings (size 3 to 8) (size 9 to 14) (size 15 to 20)
#    0.000    0.800    4.000    3.000    5.600    5.600 
#    0.000    0.000    0.000    0.000    0.000    0.000 
#    0.000    0.000    0.000    0.000    0.000    0.000 
#
# Total GULP energy -223864.601135 kJ/mol
# GULP energy per Si atom -5596.615028 kJ/mol
# Density = 2.019138 g / cm^3
# Si number density = 20.237436 Si / 1000 Ang^3
#
#
#
# Elastic Constant Matrix: (Units=GPa)
#
#
# Indices 1 2 3 4 5 6 
#
# 1 56.7459 7.8086 28.8248 0.0000 0.0000 0.0000
# 2 7.8086 114.6810 -12.7808 0.0000 0.0000 0.0000
# 3 28.8248 -12.7808 81.3866 0.0000 0.0000 0.0000
# 4 0.0000 0.0000 0.0000 23.9693 0.0000 0.0000
# 5 0.0000 0.0000 0.0000 0.0000 -1.2842 0.0000
# 6 0.0000 0.0000 0.0000 0.0000 0.0000 36.4262
#
#
#
# Elastic Compliance Matrix: (Units=1/GPa)
#
#
# Indices 1 2 3 4 5 6 
#
# 1 0.022130 -0.002423 -0.008218 0.000000 0.000000 0.000000
# 2 -0.002423 0.009140 0.002293 0.000000 0.000000 0.000000
# 3 -0.008218 0.002293 0.015558 0.000000 0.000000 0.000000
# 4 0.000000 0.000000 0.000000 0.041720 0.000000 0.000000
# 5 0.000000 0.000000 0.000000 0.000000 -0.778711 0.000000
# 6 0.000000 0.000000 0.000000 0.000000 0.000000 0.027453
#
#
# Mechanical properties :
#
#
# Convention : Reuss Voigt Hill
#
# Bulk Modulus (GPa) = 33.18586 33.39096 33.28841
# Shear Modulus (GPa) = -7.86201 27.08633 9.61216
#
# Velocity S-wave (km/s) = -1.97315 3.66242 2.18174
# Velocity P-wave (km/s) = 3.35302 5.86684 4.77821
#
# Compressibility (1/GPa) = 0.03013331
#
# Stress axis : x y z
#
# Youngs Moduli (GPa) = 45.18651 109.40435 64.27585
#
# Poissons Ratio (x) = 0.26506 0.52825
# Poissons Ratio (y) = 0.10948 -0.14742
# Poissons Ratio (z) = 0.37136 -0.25092
#
# Static dielectric constant tensor:
#      x y z
#    x 1.661600 0.000000 0.000000 
#    y 0.000000 1.712700 0.000000 
#    z 0.000000 0.000000 1.715340 
# 
# From -- ./inp_files/18201.got.cif
#   From: 2010.05.17/outbox.cif.g08.bks.cpg/sg57_10_cif.got.tgz:18201.got - 2010.06.03 13:58:18.
