data_PCOD9439943
_publ_section_title
;
Structure prediction by ZEFSAII (Michael W. Deem and Ramdas Pophale) SiO2 
 PCOD9439943
Probable space group: P B C M
;
_chemical_formula_sum "Si O2"
_cell_formula_units_Z 40
_cell_length_a 6.419214
_cell_length_b 13.266076
_cell_length_c 19.679452
_cell_angle_alpha 90.000000
_cell_angle_beta 90.000000
_cell_angle_gamma 90.000000
_cell_volume 1675.858459
_symmetry_space_group_name_H-M "P B C M"
_symmetry_group_IT_number 57
_symmetry_cell_setting 'orthorhombic'
loop_
_space_group_symop_operation_xyz
x,y,z
-x,-y,1/2+z
x,1/2-y,-z
-x,1/2+y,1/2-z
-x,-y,-z
x,y,1/2-z
-x,1/2+y,z
x,1/2-y,1/2+z
loop_
_atom_site_type_symbol
_atom_site_label
_atom_site_fract_x
_atom_site_fract_y
_atom_site_fract_z
Si Si1 0.502261 0.014835 0.131365
Si Si2 0.822230 0.920599 0.977236
Si Si3 0.818125 0.343342 0.605166
Si Si4 0.040054 0.739551 0.250000
Si Si5 0.509851 0.750000 0.500000
Si Si6 0.348950 0.360969 0.750000
Si Si7 0.695062 0.427828 0.250000
O O1 0.730136 0.040816 0.105898
O O2 0.332931 0.018530 0.072743
O O3 0.450380 0.926363 0.183538
O O4 0.468578 0.113826 0.181197
O O5 0.963675 0.842441 0.934317
O O6 0.659044 0.846608 0.016868
O O7 0.000000 0.000000 0.000000
O O8 0.873689 0.308805 0.680889
O O9 0.644784 0.281832 0.561784
O O10 0.791404 0.734618 0.250000
O O11 0.126051 0.850272 0.250000
O O12 0.199845 0.460815 0.750000
#
# Coordination Sequence:
#
# PCOD9439943 Si02
#       7
#     8   8   8   4   4   4   4
#     4   8  19  40  57  85 129 159 201 273 318 387
#     4  11  23  41  65  91 126 176 216 267 328 391
#     4  11  22  41  68  91 133 175 216 273 338 390
#     4  12  20  36  74  92 118 182 212 268 341 383
#     4  10  26  44  60  98 132 168 224 268 324 408
#     4   8  17  40  55  90 132 154 208 272 326 389
#     4   8  19  34  57  90 122 154 208 256 321 396
#
# _framework density 23.868364
#
# number of rings (size 3 to 8) (size 9 to 14) (size 15 to 20)
#    1.200    0.800    2.000    1.800    0.000    8.000 
#    0.000    0.000   13.200    0.000    0.000    0.000 
#    0.000    0.000    0.000    0.000    0.000    0.000 
#
# Total GULP energy -222677.145030 kJ/mol
# GULP energy per Si atom -5566.928626 kJ/mol
# Density = 2.381404 g / cm^3
# Si number density = 23.868364 Si / 1000 Ang^3
#
#
#
# Elastic Constant Matrix: (Units=GPa)
#
#
# Indices 1 2 3 4 5 6 
#
# 1 64.7437 14.1044 19.5608 0.0000 0.0000 0.0000
# 2 14.1044 44.8536 12.7809 0.0000 0.0000 0.0000
# 3 19.5608 12.7809 86.8993 0.0000 0.0000 0.0000
# 4 0.0000 0.0000 0.0000 18.5439 0.0000 0.0000
# 5 0.0000 0.0000 0.0000 0.0000 108.3752 0.0000
# 6 0.0000 0.0000 0.0000 0.0000 0.0000 32.5969
#
#
#
# Elastic Compliance Matrix: (Units=1/GPa)
#
#
# Indices 1 2 3 4 5 6 
#
# 1 0.017419 -0.004551 -0.003252 0.000000 0.000000 0.000000
# 2 -0.004551 0.024459 -0.002573 0.000000 0.000000 0.000000
# 3 -0.003252 -0.002573 0.012618 0.000000 0.000000 0.000000
# 4 0.000000 0.000000 0.000000 0.053926 0.000000 0.000000
# 5 0.000000 0.000000 0.000000 0.000000 0.009227 0.000000
# 6 0.000000 0.000000 0.000000 0.000000 0.000000 0.030678
#
#
# Mechanical properties :
#
#
# Convention : Reuss Voigt Hill
#
# Bulk Modulus (GPa) = 29.63406 32.15433 30.89419
# Shear Modulus (GPa) = 27.72738 41.90656 34.81697
#
# Velocity S-wave (km/s) = 3.41204 4.19470 3.82345
# Velocity P-wave (km/s) = 5.28822 6.07959 5.69766
#
# Compressibility (1/GPa) = 0.03374496
#
# Stress axis : x y z
#
# Youngs Moduli (GPa) = 57.40731 40.88479 79.25220
#
# Poissons Ratio (x) = 0.18607 0.25771
# Poissons Ratio (y) = 0.26126 0.20391
# Poissons Ratio (z) = 0.18667 0.10519
#
# Static dielectric constant tensor:
#      x y z
#    x 1.949390 0.000000 0.000000 
#    y 0.000000 2.019700 0.000000 
#    z 0.000000 0.000000 2.014950 
# 
# From -- ./inp_files/26169.got.cif
#   From: 2010.05.17/outbox.cif.g08.bks.cpg/sg57_14_cif.got.tgz:26169.got - 2010.06.03 13:58:18.
