data_PCOD9439873
_publ_section_title
;
Structure prediction by ZEFSAII (Michael W. Deem and Ramdas Pophale) SiO2 
 PCOD9439873
Probable space group: P B C M
;
_chemical_formula_sum "Si O2"
_cell_formula_units_Z 28
_cell_length_a 8.485489
_cell_length_b 9.456718
_cell_length_c 13.899785
_cell_angle_alpha 90.000000
_cell_angle_beta 90.000000
_cell_angle_gamma 90.000000
_cell_volume 1115.386532
_symmetry_space_group_name_H-M "P B C M"
_symmetry_group_IT_number 57
_symmetry_cell_setting 'orthorhombic'
loop_
_space_group_symop_operation_xyz
x,y,z
-x,-y,1/2+z
x,1/2-y,-z
-x,1/2+y,1/2-z
-x,-y,-z
x,y,1/2-z
-x,1/2+y,z
x,1/2-y,1/2+z
loop_
_atom_site_type_symbol
_atom_site_label
_atom_site_fract_x
_atom_site_fract_y
_atom_site_fract_z
Si Si1 0.924925 0.053076 0.250000
Si Si2 0.697108 0.036826 0.425782
Si Si3 0.510981 0.717200 0.860781
Si Si4 0.831589 0.865058 0.917516
O O1 0.042084 0.114722 0.335075
O O2 0.805014 0.996734 0.334555
O O3 0.554834 0.922854 0.418901
O O4 0.793558 0.007686 0.522641
O O5 0.631723 0.191085 0.402139
O O6 0.476320 0.684065 0.750000
O O7 0.667570 0.812323 0.871344
O O8 0.874843 0.750000 0.000000
#
# Coordination Sequence:
#
# PCOD9439873 Si02
#       4
#     4   8   8   8
#     4  12  22  44  72 104 154 190 244 304 368 446
#     4  11  24  43  76 107 145 187 248 299 367 429
#     4  11  20  45  70 105 142 188 239 303 353 433
#     4  10  24  43  71 107 147 193 242 304 370 435
#
# _framework density 25.103404000000001
#
# number of rings (size 3 to 8) (size 9 to 14) (size 15 to 20)
#    0.000    1.143    4.286    1.714    0.000    0.000 
#    0.000   18.571    0.000    0.000    0.000    0.000 
#    0.000    0.000    0.000    0.000    0.000    0.000 
#
# Total GULP energy -155919.075049 kJ/mol
# GULP energy per Si atom -5568.538395 kJ/mol
# Density = 2.504627 g / cm^3
# Si number density = 25.103404 Si / 1000 Ang^3
#
#
#
# Elastic Constant Matrix: (Units=GPa)
#
#
# Indices 1 2 3 4 5 6 
#
# 1 45.7538 33.7439 23.5593 0.0000 0.0000 0.0000
# 2 33.7439 65.3777 31.0306 0.0000 0.0000 0.0000
# 3 23.5593 31.0306 171.2077 0.0000 0.0000 0.0000
# 4 0.0000 0.0000 0.0000 21.2184 0.0000 0.0000
# 5 0.0000 0.0000 0.0000 0.0000 38.1542 0.0000
# 6 0.0000 0.0000 0.0000 0.0000 0.0000 13.9756
#
#
#
# Elastic Compliance Matrix: (Units=1/GPa)
#
#
# Indices 1 2 3 4 5 6 
#
# 1 0.035748 -0.017633 -0.001723 0.000000 0.000000 0.000000
# 2 -0.017633 0.025433 -0.002183 0.000000 0.000000 0.000000
# 3 -0.001723 -0.002183 0.006474 0.000000 0.000000 0.000000
# 4 0.000000 0.000000 0.000000 0.047129 0.000000 0.000000
# 5 0.000000 0.000000 0.000000 0.000000 0.026209 0.000000
# 6 0.000000 0.000000 0.000000 0.000000 0.000000 0.071553
#
#
# Mechanical properties :
#
#
# Convention : Reuss Voigt Hill
#
# Bulk Modulus (GPa) = 40.69044 51.00076 45.84560
# Shear Modulus (GPa) = 18.95254 27.60335 23.27795
#
# Velocity S-wave (km/s) = 2.75067 3.31960 3.04843
# Velocity P-wave (km/s) = 5.13153 5.92059 5.54012
#
# Compressibility (1/GPa) = 0.02457580
#
# Stress axis : x y z
#
# Youngs Moduli (GPa) = 27.97362 39.31900 154.47151
#
# Poissons Ratio (x) = 0.69331 0.26619
# Poissons Ratio (y) = 0.49326 0.33724
# Poissons Ratio (z) = 0.04821 0.08584
#
# Static dielectric constant tensor:
#      x y z
#    x 2.001010 0.000000 0.000000 
#    y 0.000000 2.031150 0.000000 
#    z 0.000000 0.000000 1.926540 
# 
# From -- ./inp_files/15414.got.cif
#   From: 2010.05.17/outbox.cif.g08.bks.cpg/sg57_8_cif.got.tgz:15414.got - 2010.06.03 13:58:18.
