data_PCOD9439574
_publ_section_title
;
Structure prediction by ZEFSAII (Michael W. Deem and Ramdas Pophale) SiO2 
 PCOD9439574
Probable space group: P B C M
;
_chemical_formula_sum "Si O2"
_cell_formula_units_Z 56
_cell_length_a 9.974379
_cell_length_b 11.801172
_cell_length_c 21.094389
_cell_angle_alpha 90.000000
_cell_angle_beta 90.000000
_cell_angle_gamma 90.000000
_cell_volume 2483.007075
_symmetry_space_group_name_H-M "P B C M"
_symmetry_group_IT_number 57
_symmetry_cell_setting 'orthorhombic'
loop_
_space_group_symop_operation_xyz
x,y,z
-x,-y,1/2+z
x,1/2-y,-z
-x,1/2+y,1/2-z
-x,-y,-z
x,y,1/2-z
-x,1/2+y,z
x,1/2-y,1/2+z
loop_
_atom_site_type_symbol
_atom_site_label
_atom_site_fract_x
_atom_site_fract_y
_atom_site_fract_z
Si Si1 0.239879 0.805285 0.936176
Si Si2 0.343150 0.156709 0.821062
Si Si3 0.049841 0.052364 0.681851
Si Si4 0.705419 0.900956 0.871076
Si Si5 0.972037 0.584904 0.441443
Si Si6 0.556180 0.003777 0.071769
Si Si7 0.223089 0.649066 0.680031
O O1 0.576615 0.605256 0.881813
O O2 0.272862 0.729152 0.875680
O O3 0.304311 0.928640 0.930236
O O4 0.296338 0.750000 0.000000
O O5 0.403834 0.139650 0.750000
O O6 0.200757 0.093143 0.820931
O O7 0.303153 0.287398 0.830658
O O8 0.028352 0.993653 0.750000
O O9 0.016186 0.975914 0.622976
O O10 0.741953 0.017897 0.665127
O O11 0.060535 0.652058 0.820469
O O12 0.556095 0.919910 0.895405
O O13 0.815952 0.887395 0.927890
O O14 0.000000 0.500000 0.500000
O O15 0.920451 0.314853 0.555451
O O16 0.500000 0.000000 0.000000
O O17 0.269922 0.681435 0.750000
#
# Coordination Sequence:
#
# PCOD9439574 Si02
#       7
#     8   8   8   8   8   8   8
#     4  12  25  44  71  99 143 185 237 290 353 425
#     4  11  25  47  75 105 141 189 246 301 363 441
#     4   9  19  40  68 103 140 177 229 295 357 417
#     4  11  26  44  72 105 143 187 237 300 361 426
#     4  11  22  43  71 108 144 185 243 292 358 430
#     4  12  28  49  69 100 143 191 242 294 366 431
#     4  10  22  42  70 104 142 182 229 289 360 427
#
# _framework density 22.553298999999999
#
# number of rings (size 3 to 8) (size 9 to 14) (size 15 to 20)
#    0.000    1.143    1.429    4.714    4.000    2.857 
#    0.000    0.000    0.000    0.000    0.000    0.000 
#    0.000    0.000    0.000    0.000    0.000    0.000 
#
# Total GULP energy -312631.387989 kJ/mol
# GULP energy per Si atom -5582.703357 kJ/mol
# Density = 2.250197 g / cm^3
# Si number density = 22.553299 Si / 1000 Ang^3
#
#
#
# Elastic Constant Matrix: (Units=GPa)
#
#
# Indices 1 2 3 4 5 6 
#
# 1 68.5756 -10.3845 2.3625 0.0000 0.0000 0.0000
# 2 -10.3845 77.1161 61.3010 0.0000 0.0000 0.0000
# 3 2.3625 61.3010 191.3470 0.0000 0.0000 0.0000
# 4 0.0000 0.0000 0.0000 32.8904 0.0000 0.0000
# 5 0.0000 0.0000 0.0000 0.0000 17.8571 0.0000
# 6 0.0000 0.0000 0.0000 0.0000 0.0000 27.4987
#
#
#
# Elastic Compliance Matrix: (Units=1/GPa)
#
#
# Indices 1 2 3 4 5 6 
#
# 1 0.015063 0.002920 -0.001121 0.000000 0.000000 0.000000
# 2 0.002920 0.017964 -0.005791 0.000000 0.000000 0.000000
# 3 -0.001121 -0.005791 0.007095 0.000000 0.000000 0.000000
# 4 0.000000 0.000000 0.000000 0.030404 0.000000 0.000000
# 5 0.000000 0.000000 0.000000 0.000000 0.056000 0.000000
# 6 0.000000 0.000000 0.000000 0.000000 0.000000 0.036365
#
#
# Mechanical properties :
#
#
# Convention : Reuss Voigt Hill
#
# Bulk Modulus (GPa) = 31.11657 49.28853 40.20255
# Shear Modulus (GPa) = 27.53459 34.56657 31.05058
#
# Velocity S-wave (km/s) = 3.49788 3.91917 3.71450
# Velocity P-wave (km/s) = 5.49003 6.51011 6.02171
#
# Compressibility (1/GPa) = 0.03213722
#
# Stress axis : x y z
#
# Youngs Moduli (GPa) = 66.38682 55.66648 140.93969
#
# Poissons Ratio (x) = -0.16254 0.15805
# Poissons Ratio (y) = -0.19384 0.81620
# Poissons Ratio (z) = 0.07445 0.32237
#
# Static dielectric constant tensor:
#      x y z
#    x 1.876700 0.000000 0.000000 
#    y 0.000000 1.889850 0.000000 
#    z 0.000000 0.000000 1.873940 
# 
# From -- ./inp_files/24429.got.cif
#   From: 2010.05.17/outbox.cif.g08.bks.cpg/sg57_13_cif.got.tgz:24429.got - 2010.06.03 13:58:18.
