data_PCOD9439341
_publ_section_title
;
Structure prediction by ZEFSAII (Michael W. Deem and Ramdas Pophale) SiO2 
 PCOD9439341
Probable space group: P B C M
;
_chemical_formula_sum "Si O2"
_cell_formula_units_Z 40
_cell_length_a 26.408491
_cell_length_b 9.136547
_cell_length_c 8.585330
_cell_angle_alpha 90.000000
_cell_angle_beta 90.000000
_cell_angle_gamma 90.000000
_cell_volume 2071.489192
_symmetry_space_group_name_H-M "P B C M"
_symmetry_group_IT_number 57
_symmetry_cell_setting 'orthorhombic'
loop_
_space_group_symop_operation_xyz
x,y,z
-x,-y,1/2+z
x,1/2-y,-z
-x,1/2+y,1/2-z
-x,-y,-z
x,y,1/2-z
-x,1/2+y,z
x,1/2-y,1/2+z
loop_
_atom_site_type_symbol
_atom_site_label
_atom_site_fract_x
_atom_site_fract_y
_atom_site_fract_z
Si Si1 0.548787 0.085297 0.062779
Si Si2 0.248792 0.585495 0.062076
Si Si3 0.951058 0.085005 0.563581
Si Si4 0.650459 0.914591 0.438146
Si Si5 0.146732 0.085003 0.937612
O O1 0.547103 0.088045 0.250000
O O2 0.599870 0.000795 0.013564
O O3 0.549254 0.250000 0.000000
O O4 0.500000 0.000000 0.000000
O O5 0.249658 0.590700 0.250000
O O6 0.299335 0.500951 0.009379
O O7 0.198547 0.496866 0.015546
O O8 0.247616 0.750000 0.000000
O O9 0.951125 0.250000 0.500000
O O10 0.952190 0.086831 0.750000
O O11 0.901025 0.002091 0.504934
O O12 0.000000 0.000000 0.500000
O O13 0.650192 0.750000 0.500000
O O14 0.651076 0.909942 0.250000
O O15 0.143664 0.086465 0.750000
O O16 0.146761 0.250000 0.000000
#
# Coordination Sequence:
#
# PCOD9439341 Si02
#       5
#     8   8   8   8   8
#     4  11  23  39  60  86 118 154 197 244 296 353
#     4  10  22  39  60  87 119 154 196 242 293 350
#     4  12  25  43  65  91 123 159 200 246 296 351
#     4  10  22  39  59  86 117 153 195 242 293 350
#     4  11  23  40  62  90 122 158 199 244 295 352
#
# _framework density 19.30978
#
# number of rings (size 3 to 8) (size 9 to 14) (size 15 to 20)
#    0.000    1.200    0.000    6.000    0.000    7.200 
#    0.000    0.000    0.000    0.000    0.000    0.000 
#    0.000    0.000    0.000    0.000    0.000    0.000 
#
# Total GULP energy -223835.414340 kJ/mol
# GULP energy per Si atom -5595.885358 kJ/mol
# Density = 1.926583 g / cm^3
# Si number density = 19.309780 Si / 1000 Ang^3
#
#
#
# Elastic Constant Matrix: (Units=GPa)
#
#
# Indices 1 2 3 4 5 6 
#
# 1 243.9098 148.7313 67.2858 0.0000 0.0000 0.0000
# 2 148.7313 244.3702 60.0010 0.0000 0.0000 0.0000
# 3 67.2858 60.0010 76.1656 0.0000 0.0000 0.0000
# 4 0.0000 0.0000 0.0000 43.9866 0.0000 0.0000
# 5 0.0000 0.0000 0.0000 0.0000 27.9810 0.0000
# 6 0.0000 0.0000 0.0000 0.0000 0.0000 46.5222
#
#
#
# Elastic Compliance Matrix: (Units=1/GPa)
#
#
# Indices 1 2 3 4 5 6 
#
# 1 0.007248 -0.003520 -0.003630 0.000000 0.000000 0.000000
# 2 -0.003520 0.006783 -0.002234 0.000000 0.000000 0.000000
# 3 -0.003630 -0.002234 0.018096 0.000000 0.000000 0.000000
# 4 0.000000 0.000000 0.000000 0.022734 0.000000 0.000000
# 5 0.000000 0.000000 0.000000 0.000000 0.035739 0.000000
# 6 0.000000 0.000000 0.000000 0.000000 0.000000 0.021495
#
#
# Mechanical properties :
#
#
# Convention : Reuss Voigt Hill
#
# Bulk Modulus (GPa) = 74.85521 124.05354 99.45438
# Shear Modulus (GPa) = 36.95108 42.92644 39.93876
#
# Velocity S-wave (km/s) = 4.37921 4.72003 4.55281
# Velocity P-wave (km/s) = 8.02618 9.69991 8.90247
#
# Compressibility (1/GPa) = 0.01335912
#
# Stress axis : x y z
#
# Youngs Moduli (GPa) = 137.97825 147.42874 55.26192
#
# Poissons Ratio (x) = 0.51893 0.20059
# Poissons Ratio (y) = 0.48566 0.12345
# Poissons Ratio (z) = 0.50082 0.32934
#
# Static dielectric constant tensor:
#      x y z
#    x 1.655260 0.000000 0.000000 
#    y 0.000000 1.614350 0.000000 
#    z 0.000000 0.000000 1.658340 
# 
# From -- ./inp_files/8867.got.cif
#   From: 2010.05.17/outbox.cif.g08.bks.cpg/sg57_5_cif.got.tgz:8867.got - 2010.06.03 13:58:18.
