data_PCOD9439308
_publ_section_title
;
Structure prediction by ZEFSAII (Michael W. Deem and Ramdas Pophale) SiO2 
 PCOD9439308
Probable space group: P B C M
;
_chemical_formula_sum "Si O2"
_cell_formula_units_Z 56
_cell_length_a 5.702005
_cell_length_b 27.688704
_cell_length_c 15.666286
_cell_angle_alpha 90.000000
_cell_angle_beta 90.000000
_cell_angle_gamma 90.000000
_cell_volume 2473.410915
_symmetry_space_group_name_H-M "P B C M"
_symmetry_group_IT_number 57
_symmetry_cell_setting 'orthorhombic'
loop_
_space_group_symop_operation_xyz
x,y,z
-x,-y,1/2+z
x,1/2-y,-z
-x,1/2+y,1/2-z
-x,-y,-z
x,y,1/2-z
-x,1/2+y,z
x,1/2-y,1/2+z
loop_
_atom_site_type_symbol
_atom_site_label
_atom_site_fract_x
_atom_site_fract_y
_atom_site_fract_z
Si Si1 0.859628 0.350775 0.656361
Si Si2 0.750200 0.934210 0.656365
Si Si3 0.408857 0.300088 0.347198
Si Si4 0.485561 0.413598 0.153136
Si Si5 0.639784 0.079507 0.469542
Si Si6 0.915300 0.243296 0.901027
Si Si7 0.139341 0.000111 0.652380
O O1 0.740033 0.353334 0.750000
O O2 0.715672 0.370236 0.575045
O O3 0.933739 0.295951 0.642327
O O4 0.067244 0.390028 0.659505
O O5 0.630699 0.932247 0.750000
O O6 0.618168 0.927438 0.568216
O O7 0.865942 0.987295 0.651697
O O8 0.372541 0.284535 0.250000
O O9 0.411430 0.357936 0.352580
O O10 0.673656 0.282402 0.369792
O O11 0.170427 0.281974 0.392431
O O12 0.579782 0.421318 0.250000
O O13 0.259824 0.448468 0.142180
O O14 0.649967 0.421476 0.070818
O O15 0.768855 0.035642 0.421181
O O16 0.873135 0.250000 0.000000
O O17 0.203746 0.984807 0.750000
#
# Coordination Sequence:
#
# PCOD9439308 Si02
#       7
#     8   8   8   8   8   8   8
#     4  10  22  38  61  95 129 165 209 276 347 406
#     4   9  19  34  58  92 125 158 203 264 334 403
#     4  11  25  47  68  96 137 186 235 287 341 414
#     4  10  23  42  62  87 129 177 226 277 336 402
#     4  11  20  36  65  91 126 164 218 273 337 406
#     4  12  26  44  72 102 138 179 235 291 356 419
#     4   9  19  39  60  92 131 165 213 275 338 408
#
# _framework density 22.640801
#
# number of rings (size 3 to 8) (size 9 to 14) (size 15 to 20)
#    0.000    1.714    0.000    5.143    4.000    0.571 
#    2.571    0.000    0.000    0.000    0.000    0.000 
#    0.000    0.000    0.000    0.000    0.000    0.000 
#
# Total GULP energy -312124.181908 kJ/mol
# GULP energy per Si atom -5573.646106 kJ/mol
# Density = 2.258927 g / cm^3
# Si number density = 22.640801 Si / 1000 Ang^3
#
#
#
# Elastic Constant Matrix: (Units=GPa)
#
#
# Indices 1 2 3 4 5 6 
#
# 1 50.3072 32.8576 8.1584 0.0000 0.0000 0.0000
# 2 32.8576 113.1143 36.6713 0.0000 0.0000 0.0000
# 3 8.1584 36.6713 146.6152 0.0000 0.0000 0.0000
# 4 0.0000 0.0000 0.0000 28.9430 0.0000 0.0000
# 5 0.0000 0.0000 0.0000 0.0000 -89.0933 0.0000
# 6 0.0000 0.0000 0.0000 0.0000 0.0000 22.1784
#
#
#
# Elastic Compliance Matrix: (Units=1/GPa)
#
#
# Indices 1 2 3 4 5 6 
#
# 1 0.024560 -0.007282 0.000455 0.000000 0.000000 0.000000
# 2 -0.007282 0.011780 -0.002541 0.000000 0.000000 0.000000
# 3 0.000455 -0.002541 0.007431 0.000000 0.000000 0.000000
# 4 0.000000 0.000000 0.000000 0.034551 0.000000 0.000000
# 5 0.000000 0.000000 0.000000 0.000000 -0.011224 0.000000
# 6 0.000000 0.000000 0.000000 0.000000 0.000000 0.045089
#
#
# Mechanical properties :
#
#
# Convention : Reuss Voigt Hill
#
# Bulk Modulus (GPa) = 39.94518 51.71236 45.82877
# Shear Modulus (GPa) = 35.90223 7.89556 21.89890
#
# Velocity S-wave (km/s) = 3.98644 1.86946 3.11341
# Velocity P-wave (km/s) = 6.23460 5.24879 5.76281
#
# Compressibility (1/GPa) = 0.02503431
#
# Stress axis : x y z
#
# Youngs Moduli (GPa) = 40.71646 84.89234 134.57390
#
# Poissons Ratio (x) = 0.61816 -0.06118
# Poissons Ratio (y) = 0.29648 0.34197
# Poissons Ratio (z) = -0.01851 0.21572
#
# Static dielectric constant tensor:
#      x y z
#    x 1.954190 0.000000 0.000000 
#    y 0.000000 1.821290 0.000000 
#    z 0.000000 0.000000 1.774070 
# 
# From -- ./inp_files/15230.got.cif
#   From: 2010.05.17/outbox.cif.g08.bks.cpg/sg57_8_cif.got.tgz:15230.got - 2010.06.03 13:58:18.
