data_PCOD9439091
_publ_section_title
;
Structure prediction by ZEFSAII (Michael W. Deem and Ramdas Pophale) SiO2 
 PCOD9439091
Probable space group: P B C M
;
_chemical_formula_sum "Si O2"
_cell_formula_units_Z 48
_cell_length_a 9.317942
_cell_length_b 14.321296
_cell_length_c 18.591665
_cell_angle_alpha 90.000000
_cell_angle_beta 90.000000
_cell_angle_gamma 90.000000
_cell_volume 2480.964838
_symmetry_space_group_name_H-M "P B C M"
_symmetry_group_IT_number 57
_symmetry_cell_setting 'orthorhombic'
loop_
_space_group_symop_operation_xyz
x,y,z
-x,-y,1/2+z
x,1/2-y,-z
-x,1/2+y,1/2-z
-x,-y,-z
x,y,1/2-z
-x,1/2+y,z
x,1/2-y,1/2+z
loop_
_atom_site_type_symbol
_atom_site_label
_atom_site_fract_x
_atom_site_fract_y
_atom_site_fract_z
Si Si1 0.848381 0.173253 0.333358
Si Si2 0.116112 0.305809 0.930130
Si Si3 0.789855 0.638098 0.665562
Si Si4 0.625589 0.034742 0.400406
Si Si5 0.304422 0.482509 0.939790
Si Si6 0.875626 0.395160 0.331106
O O1 0.877155 0.148418 0.250000
O O2 0.710294 0.117806 0.361170
O O3 0.834766 0.285612 0.336852
O O4 0.985206 0.152802 0.383731
O O5 0.202751 0.233366 0.879737
O O6 0.219988 0.387438 0.955344
O O7 0.061040 0.250000 0.000000
O O8 0.763686 0.655888 0.750000
O O9 0.681180 0.561808 0.634753
O O10 0.952667 0.598788 0.659162
O O11 0.454054 0.039275 0.400018
O O12 0.666222 0.032730 0.484643
O O13 0.207215 0.546095 0.889425
O O14 0.841549 0.426543 0.250000
#
# Coordination Sequence:
#
# PCOD9439091 Si02
#       6
#     8   8   8   8   8   8
#     4  10  23  42  64  94 123 155 205 258 307 361
#     4  11  22  40  65  94 120 161 204 257 307 363
#     4  10  21  40  64  90 121 158 203 254 304 358
#     4  11  24  40  59  88 126 166 198 251 300 364
#     4  11  25  40  58  90 126 161 207 243 302 365
#     4   9  21  40  63  89 119 154 201 256 299 357
#
# _framework density 19.347311999999999
#
# number of rings (size 3 to 8) (size 9 to 14) (size 15 to 20)
#    0.000    1.667    1.667    3.000    4.667    6.667 
#    0.000    1.667    0.000    0.000    0.000    0.000 
#    0.000    0.000    0.000    0.000    0.000    0.000 
#
# Total GULP energy -268256.073740 kJ/mol
# GULP energy per Si atom -5588.668203 kJ/mol
# Density = 1.930328 g / cm^3
# Si number density = 19.347312 Si / 1000 Ang^3
#
#
#
# Elastic Constant Matrix: (Units=GPa)
#
#
# Indices 1 2 3 4 5 6 
#
# 1 45.0560 15.7275 22.0606 0.0000 0.0000 0.0000
# 2 15.7275 19.7796 5.7242 0.0000 0.0000 0.0000
# 3 22.0606 5.7242 71.5014 0.0000 0.0000 0.0000
# 4 0.0000 0.0000 0.0000 36.8786 0.0000 0.0000
# 5 0.0000 0.0000 0.0000 0.0000 15.4215 0.0000
# 6 0.0000 0.0000 0.0000 0.0000 0.0000 3.1421
#
#
#
# Elastic Compliance Matrix: (Units=1/GPa)
#
#
# Indices 1 2 3 4 5 6 
#
# 1 0.035510 -0.025659 -0.008902 0.000000 0.000000 0.000000
# 2 -0.025659 0.070297 0.002289 0.000000 0.000000 0.000000
# 3 -0.008902 0.002289 0.016549 0.000000 0.000000 0.000000
# 4 0.000000 0.000000 0.000000 0.027116 0.000000 0.000000
# 5 0.000000 0.000000 0.000000 0.000000 0.064844 0.000000
# 6 0.000000 0.000000 0.000000 0.000000 0.000000 0.318254
#
#
# Mechanical properties :
#
#
# Convention : Reuss Voigt Hill
#
# Bulk Modulus (GPa) = 17.29743 24.81796 21.05769
# Shear Modulus (GPa) = 8.11182 17.27677 12.69430
#
# Velocity S-wave (km/s) = 2.04984 2.99152 2.56428
# Velocity P-wave (km/s) = 3.81606 4.97873 4.43565
#
# Compressibility (1/GPa) = 0.05781207
#
# Stress axis : x y z
#
# Youngs Moduli (GPa) = 28.16123 14.22536 60.42665
#
# Poissons Ratio (x) = 0.36501 0.53791
# Poissons Ratio (y) = 0.72259 -0.13831
# Poissons Ratio (z) = 0.25069 -0.03256
#
# Static dielectric constant tensor:
#      x y z
#    x 1.648570 0.000000 0.000000 
#    y 0.000000 1.665340 0.000000 
#    z 0.000000 0.000000 1.668330 
# 
# From -- ./inp_files/20947.got.cif
#   From: 2010.05.17/outbox.cif.g08.bks.cpg/sg57_11_cif.got.tgz:20947.got - 2010.06.03 13:58:18.
