data_PCOD9439500
_publ_section_title
;
Structure prediction by ZEFSAII (Michael W. Deem and Ramdas Pophale) SiO2 
 PCOD9439500
Probable space group: P B C M
;
_chemical_formula_sum "Si O2"
_cell_formula_units_Z 32
_cell_length_a 6.609835
_cell_length_b 8.002634
_cell_length_c 26.857302
_cell_angle_alpha 90.000000
_cell_angle_beta 90.000000
_cell_angle_gamma 90.000000
_cell_volume 1420.646272
_symmetry_space_group_name_H-M "P B C M"
_symmetry_group_IT_number 57
_symmetry_cell_setting 'orthorhombic'
loop_
_space_group_symop_operation_xyz
x,y,z
-x,-y,1/2+z
x,1/2-y,-z
-x,1/2+y,1/2-z
-x,-y,-z
x,y,1/2-z
-x,1/2+y,z
x,1/2-y,1/2+z
loop_
_atom_site_type_symbol
_atom_site_label
_atom_site_fract_x
_atom_site_fract_y
_atom_site_fract_z
Si Si1 0.051017 0.753530 0.558934
Si Si2 0.265765 0.065756 0.611600
Si Si3 0.265849 0.562397 0.638391
Si Si4 0.949048 0.125412 0.191061
O O1 0.047087 0.750000 0.500000
O O2 0.158895 0.594657 0.585111
O O3 0.825037 0.723212 0.581280
O O4 0.189569 0.906563 0.578520
O O5 0.499958 0.064063 0.624997
O O6 0.158795 0.033458 0.664882
O O7 0.189595 0.721637 0.671433
O O8 0.175072 0.405039 0.668754
O O9 0.952954 0.122625 0.250000
#
# Coordination Sequence:
#
# PCOD9439500 Si02
#       4
#     8   8   8   8
#     4  10  22  41  66  94 129 171 220 271 323 388
#     4  10  23  41  64  97 133 168 215 272 326 386
#     4  10  23  41  63  95 131 167 212 268 324 381
#     4  10  22  41  65  92 124 165 215 266 318 384
#
# _framework density 22.524958000000002
#
# number of rings (size 3 to 8) (size 9 to 14) (size 15 to 20)
#    0.000    2.000    0.000    1.500    0.000   20.000 
#    0.000    0.000    0.000    4.500    0.000    0.000 
#    0.000    0.000    0.000    0.000    0.000    0.000 
#
# Total GULP energy -178259.450609 kJ/mol
# GULP energy per Si atom -5570.607832 kJ/mol
# Density = 2.247369 g / cm^3
# Si number density = 22.524958 Si / 1000 Ang^3
#
#
#
# Elastic Constant Matrix: (Units=GPa)
#
#
# Indices 1 2 3 4 5 6 
#
# 1 209.4643 41.4427 101.5636 0.0000 0.0000 0.0000
# 2 41.4427 136.3368 64.2443 0.0000 0.0000 0.0000
# 3 101.5636 64.2443 257.3659 0.0000 0.0000 0.0000
# 4 0.0000 0.0000 0.0000 17.3348 0.0000 0.0000
# 5 0.0000 0.0000 0.0000 0.0000 9.3761 0.0000
# 6 0.0000 0.0000 0.0000 0.0000 0.0000 25.6306
#
#
#
# Elastic Compliance Matrix: (Units=1/GPa)
#
#
# Indices 1 2 3 4 5 6 
#
# 1 0.005980 -0.000800 -0.002160 0.000000 0.000000 0.000000
# 2 -0.000800 0.008420 -0.001786 0.000000 0.000000 0.000000
# 3 -0.002160 -0.001786 0.005184 0.000000 0.000000 0.000000
# 4 0.000000 0.000000 0.000000 0.057687 0.000000 0.000000
# 5 0.000000 0.000000 0.000000 0.000000 0.106655 0.000000
# 6 0.000000 0.000000 0.000000 0.000000 0.000000 0.039016
#
#
# Mechanical properties :
#
#
# Convention : Reuss Voigt Hill
#
# Bulk Modulus (GPa) = 99.09749 113.07422 106.08586
# Shear Modulus (GPa) = 21.20474 36.86274 29.03374
#
# Velocity S-wave (km/s) = 3.07153 4.04979 3.59410
# Velocity P-wave (km/s) = 7.52789 8.49566 8.02637
#
# Compressibility (1/GPa) = 0.01009107
#
# Stress axis : x y z
#
# Youngs Moduli (GPa) = 167.23253 118.77152 192.90856
#
# Poissons Ratio (x) = 0.09499 0.41670
# Poissons Ratio (y) = 0.13375 0.34455
# Poissons Ratio (z) = 0.36124 0.21214
#
# Static dielectric constant tensor:
#      x y z
#    x 1.917710 0.000000 0.000000 
#    y 0.000000 2.139380 0.000000 
#    z 0.000000 0.000000 1.784330 
# 
# From -- ./inp_files/28981.got.cif
#   From: 2010.05.17/outbox.cif.g08.bks.cpg/sg57_15_cif.got.tgz:28981.got - 2010.06.03 13:58:18.
