data_PCOD9439989
_publ_section_title
;
Structure prediction by ZEFSAII (Michael W. Deem and Ramdas Pophale) SiO2 
 PCOD9439989
Probable space group: P B C M
;
_chemical_formula_sum "Si O2"
_cell_formula_units_Z 40
_cell_length_a 9.055118
_cell_length_b 8.573023
_cell_length_c 23.511074
_cell_angle_alpha 90.000000
_cell_angle_beta 90.000000
_cell_angle_gamma 90.000000
_cell_volume 1825.158441
_symmetry_space_group_name_H-M "P B C M"
_symmetry_group_IT_number 57
_symmetry_cell_setting 'orthorhombic'
loop_
_space_group_symop_operation_xyz
x,y,z
-x,-y,1/2+z
x,1/2-y,-z
-x,1/2+y,1/2-z
-x,-y,-z
x,y,1/2-z
-x,1/2+y,z
x,1/2-y,1/2+z
loop_
_atom_site_type_symbol
_atom_site_label
_atom_site_fract_x
_atom_site_fract_y
_atom_site_fract_z
Si Si1 0.786215 0.078863 0.852483
Si Si2 0.928743 0.411772 0.819390
Si Si3 0.563613 0.375096 0.043599
Si Si4 0.464083 0.385419 0.690635
Si Si5 0.665697 0.596749 0.865656
O O1 0.861714 0.242080 0.835021
O O2 0.694902 0.084830 0.911949
O O3 0.656742 0.021871 0.810767
O O4 0.909758 0.944845 0.845472
O O5 0.931394 0.430088 0.750000
O O6 0.829242 0.543266 0.851218
O O7 0.412650 0.331740 0.078611
O O8 0.626234 0.250000 0.000000
O O9 0.500000 0.500000 0.000000
O O10 0.547375 0.384742 0.750000
O O11 0.383603 0.223320 0.680796
O O12 0.577458 0.433468 0.642031
#
# Coordination Sequence:
#
# PCOD9439989 Si02
#       5
#     8   8   8   8   8
#     4  11  25  41  63  95 129 171 221 260 318 397
#     4  12  23  41  64  98 141 176 204 259 328 401
#     4  11  23  45  68  89 122 169 222 283 324 358
#     4  11  20  36  58  90 127 167 210 263 321 388
#     4  11  23  37  62  94 125 167 220 265 320 390
#
# _framework density 21.915907000000001
#
# number of rings (size 3 to 8) (size 9 to 14) (size 15 to 20)
#    0.000    0.800    0.000   10.800    0.000    0.000 
#    0.000    5.000    0.000    0.000    0.000    0.000 
#    0.000    0.000    0.000    0.000    0.000    0.000 
#
# Total GULP energy -222888.350953 kJ/mol
# GULP energy per Si atom -5572.208774 kJ/mol
# Density = 2.186603 g / cm^3
# Si number density = 21.915907 Si / 1000 Ang^3
#
#
#
# Elastic Constant Matrix: (Units=GPa)
#
#
# Indices 1 2 3 4 5 6 
#
# 1 122.7596 24.2103 41.1249 0.0000 0.0000 0.0000
# 2 24.2103 83.3737 26.0172 0.0000 0.0000 0.0000
# 3 41.1249 26.0172 144.8214 0.0000 0.0000 0.0000
# 4 0.0000 0.0000 0.0000 27.6256 0.0000 0.0000
# 5 0.0000 0.0000 0.0000 0.0000 19.7024 0.0000
# 6 0.0000 0.0000 0.0000 0.0000 0.0000 41.9487
#
#
#
# Elastic Compliance Matrix: (Units=1/GPa)
#
#
# Indices 1 2 3 4 5 6 
#
# 1 0.009304 -0.001989 -0.002285 0.000000 0.000000 0.000000
# 2 -0.001989 0.013132 -0.001794 0.000000 0.000000 0.000000
# 3 -0.002285 -0.001794 0.007876 0.000000 0.000000 0.000000
# 4 0.000000 0.000000 0.000000 0.036198 0.000000 0.000000
# 5 0.000000 0.000000 0.000000 0.000000 0.050755 0.000000
# 6 0.000000 0.000000 0.000000 0.000000 0.000000 0.023839
#
#
# Mechanical properties :
#
#
# Convention : Reuss Voigt Hill
#
# Bulk Modulus (GPa) = 55.01770 59.29549 57.15660
# Shear Modulus (GPa) = 31.38779 35.16216 33.27497
#
# Velocity S-wave (km/s) = 3.78854 4.00986 3.90077
# Velocity P-wave (km/s) = 6.65551 6.96802 6.81356
#
# Compressibility (1/GPa) = 0.01817597
#
# Stress axis : x y z
#
# Youngs Moduli (GPa) = 107.48558 76.15214 126.96488
#
# Poissons Ratio (x) = 0.15144 0.29007
# Poissons Ratio (y) = 0.21375 0.22782
# Poissons Ratio (z) = 0.24557 0.13665
#
# Static dielectric constant tensor:
#      x y z
#    x 1.821250 0.000000 0.000000 
#    y 0.000000 1.893270 0.000000 
#    z 0.000000 0.000000 1.804100 
# 
# From -- ./inp_files/26499.got.cif
#   From: 2010.05.17/outbox.cif.g08.bks.cpg/sg57_14_cif.got.tgz:26499.got - 2010.06.03 13:58:18.
