data_PCOD9439273
_publ_section_title
;
Structure prediction by ZEFSAII (Michael W. Deem and Ramdas Pophale) SiO2 
 PCOD9439273
Probable space group: P B C M
;
_chemical_formula_sum "Si O2"
_cell_formula_units_Z 48
_cell_length_a 31.582288
_cell_length_b 9.331492
_cell_length_c 8.539811
_cell_angle_alpha 90.000000
_cell_angle_beta 90.000000
_cell_angle_gamma 90.000000
_cell_volume 2516.766571
_symmetry_space_group_name_H-M "P B C M"
_symmetry_group_IT_number 57
_symmetry_cell_setting 'orthorhombic'
loop_
_space_group_symop_operation_xyz
x,y,z
-x,-y,1/2+z
x,1/2-y,-z
-x,1/2+y,1/2-z
-x,-y,-z
x,y,1/2-z
-x,1/2+y,z
x,1/2-y,1/2+z
loop_
_atom_site_type_symbol
_atom_site_label
_atom_site_fract_x
_atom_site_fract_y
_atom_site_fract_z
Si Si1 0.879998 0.088988 0.938513
Si Si2 0.959823 0.911890 0.437236
Si Si3 0.703207 0.909945 0.939266
Si Si4 0.622709 0.089635 0.560911
Si Si5 0.798908 0.590184 0.438859
Si Si6 0.540014 0.911509 0.938057
O O1 0.881964 0.089293 0.750000
O O2 0.835195 0.019665 0.988781
O O3 0.884314 0.250000 0.000000
O O4 0.917661 0.990954 0.003431
O O5 0.961142 0.750000 0.500000
O O6 0.960572 0.910240 0.250000
O O7 0.000000 0.000000 0.500000
O O8 0.702601 0.906701 0.750000
O O9 0.751080 0.948750 0.989608
O O10 0.666743 0.017939 0.992572
O O11 0.694352 0.750000 0.000000
O O12 0.617990 0.250000 0.500000
O O13 0.622959 0.092952 0.750000
O O14 0.583122 0.991536 0.511661
O O15 0.808110 0.750000 0.500000
O O16 0.799200 0.594936 0.250000
O O17 0.538815 0.909197 0.750000
O O18 0.539034 0.750000 0.000000
O O19 0.500000 0.000000 0.000000
#
# Coordination Sequence:
#
# PCOD9439273 Si02
#       6
#     8   8   8   8   8   8
#     4  11  23  39  58  85 118 154 193 236 283 336
#     4  12  25  43  65  90 119 153 191 235 284 337
#     4   9  18  35  56  81 110 144 185 231 279 333
#     4  10  22  37  55  80 112 146 185 229 278 332
#     4   9  19  35  57  82 112 147 187 232 281 334
#     4  11  23  39  59  84 112 146 185 231 281 336
#
# _framework density 19.072089999999999
#
# number of rings (size 3 to 8) (size 9 to 14) (size 15 to 20)
#    0.000    1.667    0.000    4.500    0.000    6.667 
#    0.000    0.000    0.000    0.000    0.000    0.000 
#    0.000    0.000    0.000    0.000    0.000    0.000 
#
# Total GULP energy -268299.689891 kJ/mol
# GULP energy per Si atom -5589.576873 kJ/mol
# Density = 1.902868 g / cm^3
# Si number density = 19.072090 Si / 1000 Ang^3
#
#
#
# Elastic Constant Matrix: (Units=GPa)
#
#
# Indices 1 2 3 4 5 6 
#
# 1 162.3106 124.8458 46.3511 0.0000 0.0000 0.0000
# 2 124.8458 194.5830 45.3611 0.0000 0.0000 0.0000
# 3 46.3511 45.3611 58.7775 0.0000 0.0000 0.0000
# 4 0.0000 0.0000 0.0000 38.6971 0.0000 0.0000
# 5 0.0000 0.0000 0.0000 0.0000 24.5928 0.0000
# 6 0.0000 0.0000 0.0000 0.0000 0.0000 44.0288
#
#
#
# Elastic Compliance Matrix: (Units=1/GPa)
#
#
# Indices 1 2 3 4 5 6 
#
# 1 0.013151 -0.007341 -0.004706 0.000000 0.000000 0.000000
# 2 -0.007341 0.010364 -0.002210 0.000000 0.000000 0.000000
# 3 -0.004706 -0.002210 0.022429 0.000000 0.000000 0.000000
# 4 0.000000 0.000000 0.000000 0.025842 0.000000 0.000000
# 5 0.000000 0.000000 0.000000 0.000000 0.040662 0.000000
# 6 0.000000 0.000000 0.000000 0.000000 0.000000 0.022712
#
#
# Mechanical properties :
#
#
# Convention : Reuss Voigt Hill
#
# Bulk Modulus (GPa) = 57.36379 94.30971 75.83675
# Shear Modulus (GPa) = 29.50119 34.73796 32.11958
#
# Velocity S-wave (km/s) = 3.93724 4.27242 4.10825
# Velocity P-wave (km/s) = 7.12824 8.59619 7.89640
#
# Compressibility (1/GPa) = 0.01743260
#
# Stress axis : x y z
#
# Youngs Moduli (GPa) = 76.03764 96.48453 44.58458
#
# Poissons Ratio (x) = 0.70830 0.20980
# Poissons Ratio (y) = 0.55820 0.09851
# Poissons Ratio (z) = 0.35780 0.21319
#
# Static dielectric constant tensor:
#      x y z
#    x 1.668420 0.000000 0.000000 
#    y 0.000000 1.608530 0.000000 
#    z 0.000000 0.000000 1.652490 
# 
# From -- ./inp_files/9994.got.cif
#   From: 2010.05.17/outbox.cif.g08.bks.cpg/sg57_5_cif.got.tgz:9994.got - 2010.06.03 13:58:18.
