data_PCOD9439771
_publ_section_title
;
Structure prediction by ZEFSAII (Michael W. Deem and Ramdas Pophale) SiO2 
 PCOD9439771
Probable space group: P B C M
;
_chemical_formula_sum "Si O2"
_cell_formula_units_Z 40
_cell_length_a 8.297565
_cell_length_b 12.423252
_cell_length_c 17.503191
_cell_angle_alpha 90.000000
_cell_angle_beta 90.000000
_cell_angle_gamma 90.000000
_cell_volume 1804.276904
_symmetry_space_group_name_H-M "P B C M"
_symmetry_group_IT_number 57
_symmetry_cell_setting 'orthorhombic'
loop_
_space_group_symop_operation_xyz
x,y,z
-x,-y,1/2+z
x,1/2-y,-z
-x,1/2+y,1/2-z
-x,-y,-z
x,y,1/2-z
-x,1/2+y,z
x,1/2-y,1/2+z
loop_
_atom_site_type_symbol
_atom_site_label
_atom_site_fract_x
_atom_site_fract_y
_atom_site_fract_z
Si Si1 0.248053 0.178321 0.336075
Si Si2 0.646068 0.895119 0.158844
Si Si3 0.701420 0.050837 0.605038
Si Si4 0.843298 0.458453 0.549079
Si Si5 0.885724 0.239776 0.163696
O O1 0.292267 0.147196 0.250000
O O2 0.370355 0.269012 0.363972
O O3 0.079331 0.241906 0.333791
O O4 0.229841 0.068273 0.380345
O O5 0.678293 0.900706 0.250000
O O6 0.475613 0.948190 0.140196
O O7 0.781416 0.951383 0.107625
O O8 0.708404 0.065503 0.514554
O O9 0.806639 0.146396 0.642263
O O10 0.857150 0.351031 0.599917
O O11 0.000000 0.500000 0.500000
O O12 0.831011 0.208633 0.250000
#
# Coordination Sequence:
#
# PCOD9439771 Si02
#       5
#     8   8   8   8   8
#     4  10  23  43  70 101 138 187 240 295 356 432
#     4  11  26  46  71 104 146 193 242 299 370 445
#     4  12  25  46  72 105 145 188 243 306 372 432
#     4  12  25  47  72 106 145 190 242 306 373 430
#     4  11  24  45  73 102 139 191 245 297 359 439
#
# _framework density 22.169543999999998
#
# number of rings (size 3 to 8) (size 9 to 14) (size 15 to 20)
#    0.000    0.800    2.000    4.800    2.800    0.800 
#    3.600    0.000    0.000    0.000    0.000    0.000 
#    0.000    0.000    0.000    0.000    0.000    0.000 
#
# Total GULP energy -223463.697663 kJ/mol
# GULP energy per Si atom -5586.592442 kJ/mol
# Density = 2.211909 g / cm^3
# Si number density = 22.169544 Si / 1000 Ang^3
#
#
#
# Elastic Constant Matrix: (Units=GPa)
#
#
# Indices 1 2 3 4 5 6 
#
# 1 68.9768 44.6864 41.7499 0.0000 0.0000 0.0000
# 2 44.6864 110.6860 62.5385 0.0000 0.0000 0.0000
# 3 41.7499 62.5385 137.0136 0.0000 0.0000 0.0000
# 4 0.0000 0.0000 0.0000 21.4784 0.0000 0.0000
# 5 0.0000 0.0000 0.0000 0.0000 -80.3236 0.0000
# 6 0.0000 0.0000 0.0000 0.0000 0.0000 37.0111
#
#
#
# Elastic Compliance Matrix: (Units=1/GPa)
#
#
# Indices 1 2 3 4 5 6 
#
# 1 0.020722 -0.006466 -0.003363 0.000000 0.000000 0.000000
# 2 -0.006466 0.014192 -0.004507 0.000000 0.000000 0.000000
# 3 -0.003363 -0.004507 0.010381 0.000000 0.000000 0.000000
# 4 0.000000 0.000000 0.000000 0.046559 0.000000 0.000000
# 5 0.000000 0.000000 0.000000 0.000000 -0.012450 0.000000
# 6 0.000000 0.000000 0.000000 0.000000 0.000000 0.027019
#
#
# Mechanical properties :
#
#
# Convention : Reuss Voigt Hill
#
# Bulk Modulus (GPa) = 60.16172 68.29177 64.22675
# Shear Modulus (GPa) = 35.55292 6.81326 21.18309
#
# Velocity S-wave (km/s) = 4.00895 1.75497 3.09448
# Velocity P-wave (km/s) = 6.97315 5.91420 6.46539
#
# Compressibility (1/GPa) = 0.01662186
#
# Stress axis : x y z
#
# Youngs Moduli (GPa) = 48.25780 70.46369 96.33276
#
# Poissons Ratio (x) = 0.45560 0.32397
# Poissons Ratio (y) = 0.31203 0.43421
# Poissons Ratio (z) = 0.16229 0.31761
#
# Static dielectric constant tensor:
#      x y z
#    x 1.922110 0.000000 0.000000 
#    y 0.000000 1.832360 0.000000 
#    z 0.000000 0.000000 1.817200 
# 
# From -- ./inp_files/20553.got.cif
#   From: 2010.05.17/outbox.cif.g08.bks.cpg/sg57_11_cif.got.tgz:20553.got - 2010.06.03 13:58:18.
