data_PCOD9439588
_publ_section_title
;
Structure prediction by ZEFSAII (Michael W. Deem and Ramdas Pophale) SiO2 
 PCOD9439588
Probable space group: P B C M
;
_chemical_formula_sum "Si O2"
_cell_formula_units_Z 56
_cell_length_a 6.580186
_cell_length_b 14.102920
_cell_length_c 30.099386
_cell_angle_alpha 90.000000
_cell_angle_beta 90.000000
_cell_angle_gamma 90.000000
_cell_volume 2793.218107
_symmetry_space_group_name_H-M "P B C M"
_symmetry_group_IT_number 57
_symmetry_cell_setting 'orthorhombic'
loop_
_space_group_symop_operation_xyz
x,y,z
-x,-y,1/2+z
x,1/2-y,-z
-x,1/2+y,1/2-z
-x,-y,-z
x,y,1/2-z
-x,1/2+y,z
x,1/2-y,1/2+z
loop_
_atom_site_type_symbol
_atom_site_label
_atom_site_fract_x
_atom_site_fract_y
_atom_site_fract_z
Si Si1 0.471952 0.056276 0.159338
Si Si2 0.216805 0.775589 0.859833
Si Si3 0.510798 0.143292 0.699230
Si Si4 0.166573 0.301860 0.700301
Si Si5 0.168152 0.807926 0.044119
Si Si6 0.577003 0.499766 0.060974
Si Si7 0.184274 0.066306 0.516765
O O1 0.646718 0.132553 0.149814
O O2 0.303749 0.107185 0.189386
O O3 0.544863 0.961523 0.183446
O O4 0.384724 0.028485 0.111222
O O5 0.327546 0.688175 0.834842
O O6 0.192673 0.754105 0.911753
O O7 0.002635 0.790824 0.836613
O O8 0.588857 0.142802 0.750000
O O9 0.316822 0.212059 0.698321
O O10 0.079061 0.308402 0.750000
O O11 0.311867 0.899976 0.050365
O O12 0.935693 0.845016 0.037248
O O13 0.223708 0.750000 0.000000
O O14 0.337597 0.483693 0.051364
O O15 0.671903 0.576094 0.026624
O O16 0.000000 0.000000 0.500000
#
# Coordination Sequence:
#
# PCOD9439588 Si02
#       7
#     8   8   8   8   8   8   8
#     4  11  24  40  69  97 132 169 219 269 335 396
#     4  11  25  41  66  98 136 172 223 273 330 392
#     4  10  22  45  68  94 130 173 220 273 334 401
#     4  10  24  44  68  98 131 169 216 275 336 393
#     4  11  25  40  62  97 132 171 218 264 324 386
#     4  10  22  43  66  89 128 172 215 269 325 381
#     4   9  22  39  61  87 123 164 212 259 311 374
#
# _framework density 20.048559999999998
#
# number of rings (size 3 to 8) (size 9 to 14) (size 15 to 20)
#    0.000    1.714    1.429    0.857   10.000    4.571 
#    0.000    1.429    0.000    0.000    0.000    0.000 
#    0.000    0.000    0.000    0.000    0.000    0.000 
#
# Total GULP energy -312771.552982 kJ/mol
# GULP energy per Si atom -5585.206303 kJ/mol
# Density = 2.000293 g / cm^3
# Si number density = 20.048560 Si / 1000 Ang^3
#
#
#
# Elastic Constant Matrix: (Units=GPa)
#
#
# Indices 1 2 3 4 5 6 
#
# 1 64.0350 21.6342 19.8485 0.0000 0.0000 0.0000
# 2 21.6342 91.4915 41.7984 0.0000 0.0000 0.0000
# 3 19.8485 41.7984 142.5109 0.0000 0.0000 0.0000
# 4 0.0000 0.0000 0.0000 24.8949 0.0000 0.0000
# 5 0.0000 0.0000 0.0000 0.0000 10.4927 0.0000
# 6 0.0000 0.0000 0.0000 0.0000 0.0000 7.0088
#
#
#
# Elastic Compliance Matrix: (Units=1/GPa)
#
#
# Indices 1 2 3 4 5 6 
#
# 1 0.017207 -0.003434 -0.001389 0.000000 0.000000 0.000000
# 2 -0.003434 0.013307 -0.003425 0.000000 0.000000 0.000000
# 3 -0.001389 -0.003425 0.008215 0.000000 0.000000 0.000000
# 4 0.000000 0.000000 0.000000 0.040169 0.000000 0.000000
# 5 0.000000 0.000000 0.000000 0.000000 0.095305 0.000000
# 6 0.000000 0.000000 0.000000 0.000000 0.000000 0.142678
#
#
# Mechanical properties :
#
#
# Convention : Reuss Voigt Hill
#
# Bulk Modulus (GPa) = 44.97861 51.62216 48.30039
# Shear Modulus (GPa) = 14.67192 22.79637 18.73415
#
# Velocity S-wave (km/s) = 2.70815 3.37569 3.06018
# Velocity P-wave (km/s) = 5.67999 6.40298 6.05229
#
# Compressibility (1/GPa) = 0.02223279
#
# Stress axis : x y z
#
# Youngs Moduli (GPa) = 58.11483 75.15115 121.72977
#
# Poissons Ratio (x) = 0.25808 0.16913
# Poissons Ratio (y) = 0.19957 0.41686
# Poissons Ratio (z) = 0.08074 0.25736
#
# Static dielectric constant tensor:
#      x y z
#    x 1.694330 0.000000 0.000000 
#    y 0.000000 1.718930 0.000000 
#    z 0.000000 0.000000 1.702430 
# 
# From -- ./inp_files/29177.got.cif
#   From: 2010.05.17/outbox.cif.g08.bks.cpg/sg57_15_cif.got.tgz:29177.got - 2010.06.03 13:58:18.
