data_PCOD9439092
_publ_section_title
;
Structure prediction by ZEFSAII (Michael W. Deem and Ramdas Pophale) SiO2 
 PCOD9439092
Probable space group: P B C M
;
_chemical_formula_sum "Si O2"
_cell_formula_units_Z 48
_cell_length_a 10.127968
_cell_length_b 29.678289
_cell_length_c 8.625163
_cell_angle_alpha 90.000000
_cell_angle_beta 90.000000
_cell_angle_gamma 90.000000
_cell_volume 2592.558061
_symmetry_space_group_name_H-M "P B C M"
_symmetry_group_IT_number 57
_symmetry_cell_setting 'orthorhombic'
loop_
_space_group_symop_operation_xyz
x,y,z
-x,-y,1/2+z
x,1/2-y,-z
-x,1/2+y,1/2-z
-x,-y,-z
x,y,1/2-z
-x,1/2+y,z
x,1/2-y,1/2+z
loop_
_atom_site_type_symbol
_atom_site_label
_atom_site_fract_x
_atom_site_fract_y
_atom_site_fract_z
Si Si1 0.135006 0.979526 0.436532
Si Si2 0.614576 0.968213 0.435367
Si Si3 0.783698 0.377687 0.436218
Si Si4 0.023818 0.800483 0.563465
Si Si5 0.486147 0.125447 0.063378
Si Si6 0.722103 0.700383 0.436568
O O1 0.137518 0.981591 0.250000
O O2 0.160871 0.927248 0.481636
O O3 0.250625 0.010178 0.505485
O O4 0.000000 0.000000 0.500000
O O5 0.610874 0.966879 0.250000
O O6 0.585559 0.919307 0.503724
O O7 0.500000 0.000000 0.500000
O O8 0.782015 0.375732 0.250000
O O9 0.875669 0.337748 0.500155
O O10 0.634237 0.372835 0.497527
O O11 0.050665 0.750000 0.500000
O O12 0.031239 0.799381 0.750000
O O13 0.872269 0.812478 0.517070
O O14 0.493573 0.124763 0.250000
O O15 0.392678 0.166655 0.012910
O O16 0.697220 0.750000 0.500000
O O17 0.721061 0.701438 0.250000
#
# Coordination Sequence:
#
# PCOD9439092 Si02
#       6
#     8   8   8   8   8   8
#     4  11  25  43  63  91 126 164 209 257 307 367
#     4  12  24  41  64  91 124 165 207 253 308 366
#     4  11  24  41  61  90 124 162 206 252 306 368
#     4  10  21  40  64  90 121 159 200 252 308 366
#     4  11  23  40  63  92 124 163 206 253 307 366
#     4   9  21  40  63  92 121 155 199 247 302 362
#
# _framework density 18.514533
#
# number of rings (size 3 to 8) (size 9 to 14) (size 15 to 20)
#    0.000    1.333    1.667    3.500    2.333    4.667 
#    0.000    1.667    0.000    0.000    0.000    0.000 
#    0.000    0.000    0.000    0.000    0.000    0.000 
#
# Total GULP energy -268274.594145 kJ/mol
# GULP energy per Si atom -5589.054045 kJ/mol
# Density = 1.847239 g / cm^3
# Si number density = 18.514533 Si / 1000 Ang^3
#
#
#
# Elastic Constant Matrix: (Units=GPa)
#
#
# Indices 1 2 3 4 5 6 
#
# 1 194.7720 129.6951 54.5436 0.0000 0.0000 0.0000
# 2 129.6951 167.2541 51.5838 0.0000 0.0000 0.0000
# 3 54.5436 51.5838 68.4326 0.0000 0.0000 0.0000
# 4 0.0000 0.0000 0.0000 32.5093 0.0000 0.0000
# 5 0.0000 0.0000 0.0000 0.0000 32.3109 0.0000
# 6 0.0000 0.0000 0.0000 0.0000 0.0000 43.3529
#
#
#
# Elastic Compliance Matrix: (Units=1/GPa)
#
#
# Indices 1 2 3 4 5 6 
#
# 1 0.011090 -0.007652 -0.003071 0.000000 0.000000 0.000000
# 2 -0.007652 0.013070 -0.003753 0.000000 0.000000 0.000000
# 3 -0.003071 -0.003753 0.019889 0.000000 0.000000 0.000000
# 4 0.000000 0.000000 0.000000 0.030760 0.000000 0.000000
# 5 0.000000 0.000000 0.000000 0.000000 0.030949 0.000000
# 6 0.000000 0.000000 0.000000 0.000000 0.000000 0.023067
#
#
# Mechanical properties :
#
#
# Convention : Reuss Voigt Hill
#
# Bulk Modulus (GPa) = 66.23713 100.23373 83.23543
# Shear Modulus (GPa) = 30.71063 34.61036 32.66050
#
# Velocity S-wave (km/s) = 4.07717 4.32830 4.20461
# Velocity P-wave (km/s) = 7.61694 8.90137 8.28409
#
# Compressibility (1/GPa) = 0.01509727
#
# Stress axis : x y z
#
# Youngs Moduli (GPa) = 90.17451 76.50949 50.27795
#
# Poissons Ratio (x) = 0.58547 0.15439
# Poissons Ratio (y) = 0.69004 0.18870
# Poissons Ratio (z) = 0.27690 0.28715
#
# Static dielectric constant tensor:
#      x y z
#    x 1.599890 0.000000 0.000000 
#    y 0.000000 1.608140 0.000000 
#    z 0.000000 0.000000 1.617100 
# 
# From -- ./inp_files/2076.got.cif
#   From: 2010.05.17/outbox.cif.g08.bks.cpg/sg57_2_cif.got.tgz:2076.got - 2010.06.03 13:58:18.
