data_PCOD9439154
_publ_section_title
;
Structure prediction by ZEFSAII (Michael W. Deem and Ramdas Pophale) SiO2 
 PCOD9439154
Probable space group: P B C M
;
_chemical_formula_sum "Si O2"
_cell_formula_units_Z 40
_cell_length_a 7.310977
_cell_length_b 11.943364
_cell_length_c 19.020511
_cell_angle_alpha 90.000000
_cell_angle_beta 90.000000
_cell_angle_gamma 90.000000
_cell_volume 1660.826503
_symmetry_space_group_name_H-M "P B C M"
_symmetry_group_IT_number 57
_symmetry_cell_setting 'orthorhombic'
loop_
_space_group_symop_operation_xyz
x,y,z
-x,-y,1/2+z
x,1/2-y,-z
-x,1/2+y,1/2-z
-x,-y,-z
x,y,1/2-z
-x,1/2+y,z
x,1/2-y,1/2+z
loop_
_atom_site_type_symbol
_atom_site_label
_atom_site_fract_x
_atom_site_fract_y
_atom_site_fract_z
Si Si1 0.369933 0.684191 0.438154
Si Si2 0.226568 0.392972 0.537957
Si Si3 0.352084 0.997833 0.673600
Si Si4 0.103514 0.319109 0.114740
Si Si5 0.711759 0.399999 0.127873
O O1 0.260951 0.750000 0.500000
O O2 0.560263 0.641118 0.469835
O O3 0.296534 0.584416 0.390317
O O4 0.404357 0.788942 0.387529
O O5 0.130352 0.370186 0.464138
O O6 0.141521 0.311943 0.598275
O O7 0.235461 0.520590 0.562009
O O8 0.306722 0.950279 0.750000
O O9 0.247983 0.114073 0.661645
O O10 0.570639 0.021100 0.669412
O O11 0.907502 0.348913 0.148379
#
# Coordination Sequence:
#
# PCOD9439154 Si02
#       5
#     8   8   8   8   8
#     4  11  21  41  69 100 140 179 229 290 354 412
#     4  10  21  41  64 107 138 171 221 287 349 411
#     4  11  26  46  65  94 136 188 236 288 350 424
#     4  11  22  41  66  99 136 176 228 286 343 411
#     4  11  24  39  69  97 133 180 227 280 350 416
#
# _framework density 24.084392999999999
#
# number of rings (size 3 to 8) (size 9 to 14) (size 15 to 20)
#    0.000    1.200    4.000    1.800    5.600    4.800 
#    0.000    0.000    0.000    0.000    0.000    0.000 
#    0.000    0.000    0.000    0.000    0.000    0.000 
#
# Total GULP energy -223173.330055 kJ/mol
# GULP energy per Si atom -5579.333251 kJ/mol
# Density = 2.402958 g / cm^3
# Si number density = 24.084393 Si / 1000 Ang^3
#
#
#
# Elastic Constant Matrix: (Units=GPa)
#
#
# Indices 1 2 3 4 5 6 
#
# 1 119.4390 23.0563 25.2005 0.0000 0.0000 0.0000
# 2 23.0563 115.7088 10.0526 0.0000 0.0000 0.0000
# 3 25.2005 10.0526 80.4096 0.0000 0.0000 0.0000
# 4 0.0000 0.0000 0.0000 13.0753 0.0000 0.0000
# 5 0.0000 0.0000 0.0000 0.0000 -0.7171 0.0000
# 6 0.0000 0.0000 0.0000 0.0000 0.0000 26.3644
#
#
#
# Elastic Compliance Matrix: (Units=1/GPa)
#
#
# Indices 1 2 3 4 5 6 
#
# 1 0.009252 -0.001609 -0.002699 0.000000 0.000000 0.000000
# 2 -0.001609 0.009017 -0.000623 0.000000 0.000000 0.000000
# 3 -0.002699 -0.000623 0.013360 0.000000 0.000000 0.000000
# 4 0.000000 0.000000 0.000000 0.076480 0.000000 0.000000
# 5 0.000000 0.000000 0.000000 0.000000 -1.394541 0.000000
# 6 0.000000 0.000000 0.000000 0.000000 0.000000 0.037930
#
#
# Mechanical properties :
#
#
# Convention : Reuss Voigt Hill
#
# Bulk Modulus (GPa) = 45.93880 48.01958 46.97919
# Shear Modulus (GPa) = -4.06047 24.89439 10.41696
#
# Velocity S-wave (km/s) = -1.29984 3.21850 2.08197
# Velocity P-wave (km/s) = 4.10642 5.81317 5.03268
#
# Compressibility (1/GPa) = 0.02176809
#
# Stress axis : x y z
#
# Youngs Moduli (GPa) = 108.07909 110.89961 74.85059
#
# Poissons Ratio (x) = 0.17846 0.20199
# Poissons Ratio (y) = 0.17392 0.04663
# Poissons Ratio (z) = 0.29166 0.06909
#
# Static dielectric constant tensor:
#      x y z
#    x 1.945740 0.000000 0.000000 
#    y 0.000000 1.910970 0.000000 
#    z 0.000000 0.000000 2.001900 
# 
# From -- ./inp_files/24143.got.cif
#   From: 2010.05.17/outbox.cif.g08.bks.cpg/sg57_13_cif.got.tgz:24143.got - 2010.06.03 13:58:18.
