data_PCOD9439926
_publ_section_title
;
Structure prediction by ZEFSAII (Michael W. Deem and Ramdas Pophale) SiO2 
 PCOD9439926
Probable space group: P B C M
;
_chemical_formula_sum "Si O2"
_cell_formula_units_Z 32
_cell_length_a 29.864635
_cell_length_b 4.610158
_cell_length_c 8.789456
_cell_angle_alpha 90.000000
_cell_angle_beta 90.000000
_cell_angle_gamma 90.000000
_cell_volume 1210.138331
_symmetry_space_group_name_H-M "P B C M"
_symmetry_group_IT_number 57
_symmetry_cell_setting 'orthorhombic'
loop_
_space_group_symop_operation_xyz
x,y,z
-x,-y,1/2+z
x,1/2-y,-z
-x,1/2+y,1/2-z
-x,-y,-z
x,y,1/2-z
-x,1/2+y,z
x,1/2-y,1/2+z
loop_
_atom_site_type_symbol
_atom_site_label
_atom_site_fract_x
_atom_site_fract_y
_atom_site_fract_z
Si Si1 0.770439 0.250000 0.000000
Si Si2 0.290522 0.931399 0.250000
Si Si3 0.841345 0.056865 0.250000
Si Si4 0.912241 0.250000 0.000000
Si Si5 0.530332 0.945293 0.750000
Si Si6 0.589093 0.250000 0.000000
Si Si7 0.030826 0.067588 0.250000
Si Si8 0.352930 0.065138 0.750000
O O1 0.739328 0.038992 0.899343
O O2 0.802368 0.416729 0.882433
O O3 0.305544 0.596740 0.250000
O O4 0.337316 0.103953 0.250000
O O5 0.880169 0.077286 0.383492
O O6 0.942070 0.037146 0.897100
O O7 0.482473 0.110187 0.750000
O O8 0.557888 0.050273 0.605260
O O9 0.619680 0.044752 0.104899
O O10 0.983051 0.900824 0.250000
#
# Coordination Sequence:
#
# PCOD9439926 Si02
#       8
#     4   4   4   4   4   4   4   4
#     4   9  19  38  68  96 130 170 222 280 338 408
#     4  11  24  42  68  97 132 174 219 275 339 406
#     4   8  16  36  65  94 126 169 221 276 339 402
#     4   9  18  34  63  90 128 170 216 274 335 400
#     4  11  24  43  69 100 135 180 229 280 335 396
#     4  10  25  44  69 100 140 182 228 282 337 402
#     4  11  22  37  60  91 127 170 217 268 330 402
#     4  11  26  44  66 100 138 179 224 273 337 406
#
# _framework density 26.443255000000001
#
# number of rings (size 3 to 8) (size 9 to 14) (size 15 to 20)
#    0.000    2.000    0.000    2.250    0.000   10.000 
#    0.000    3.750    0.000  105.000    0.000    0.000 
#    0.000    0.000    0.000    0.000    0.000    0.000 
#
# Total GULP energy -178617.244609 kJ/mol
# GULP energy per Si atom -5581.788894 kJ/mol
# Density = 2.638307 g / cm^3
# Si number density = 26.443255 Si / 1000 Ang^3
#
#
#
# Elastic Constant Matrix: (Units=GPa)
#
#
# Indices 1 2 3 4 5 6 
#
# 1 161.4305 28.2796 87.0848 0.0000 0.0000 0.0000
# 2 28.2796 75.0078 33.7866 0.0000 0.0000 0.0000
# 3 87.0848 33.7866 237.2027 0.0000 0.0000 0.0000
# 4 0.0000 0.0000 0.0000 18.7085 0.0000 0.0000
# 5 0.0000 0.0000 0.0000 0.0000 69.7721 0.0000
# 6 0.0000 0.0000 0.0000 0.0000 0.0000 -60.2145
#
#
#
# Elastic Compliance Matrix: (Units=1/GPa)
#
#
# Indices 1 2 3 4 5 6 
#
# 1 0.007945 -0.001797 -0.002661 0.000000 0.000000 0.000000
# 2 -0.001797 0.014652 -0.001427 0.000000 0.000000 0.000000
# 3 -0.002661 -0.001427 0.005396 0.000000 0.000000 0.000000
# 4 0.000000 0.000000 0.000000 0.053452 0.000000 0.000000
# 5 0.000000 0.000000 0.000000 0.000000 0.014332 0.000000
# 6 0.000000 0.000000 0.000000 0.000000 0.000000 -0.016607
#
#
# Mechanical properties :
#
#
# Convention : Reuss Voigt Hill
#
# Bulk Modulus (GPa) = 61.64069 85.77145 73.70607
# Shear Modulus (GPa) = 51.89535 27.28588 39.59061
#
# Velocity S-wave (km/s) = 4.43484 3.21575 3.87355
# Velocity P-wave (km/s) = 7.04165 6.80401 6.92385
#
# Compressibility (1/GPa) = 0.01622305
#
# Stress axis : x y z
#
# Youngs Moduli (GPa) = 125.86845 68.24848 185.32229
#
# Poissons Ratio (x) = 0.12263 0.49312
# Poissons Ratio (y) = 0.22616 0.26453
# Poissons Ratio (z) = 0.33492 0.09742
#
# Static dielectric constant tensor:
#      x y z
#    x 1.991040 0.000000 0.000000 
#    y 0.000000 2.042600 0.000000 
#    z 0.000000 0.000000 2.018960 
# 
# From -- ./inp_files/9828.got.cif
#   From: 2010.05.17/outbox.cif.g08.bks.cpg/sg57_5_cif.got.tgz:9828.got - 2010.06.03 13:58:18.
