data_PCOD9439001
_publ_section_title
;
Structure prediction by ZEFSAII (Michael W. Deem and Ramdas Pophale) SiO2 
 PCOD9439001
Probable space group: P B C M
;
_chemical_formula_sum "Si O2"
_cell_formula_units_Z 64
_cell_length_a 24.156616
_cell_length_b 15.331285
_cell_length_c 8.990664
_cell_angle_alpha 90.000000
_cell_angle_beta 90.000000
_cell_angle_gamma 90.000000
_cell_volume 3329.710075
_symmetry_space_group_name_H-M "P B C M"
_symmetry_group_IT_number 57
_symmetry_cell_setting 'orthorhombic'
loop_
_space_group_symop_operation_xyz
x,y,z
-x,-y,1/2+z
x,1/2-y,-z
-x,1/2+y,1/2-z
-x,-y,-z
x,y,1/2-z
-x,1/2+y,z
x,1/2-y,1/2+z
loop_
_atom_site_type_symbol
_atom_site_label
_atom_site_fract_x
_atom_site_fract_y
_atom_site_fract_z
Si Si1 0.488477 0.848739 0.929499
Si Si2 0.892394 0.584972 0.080780
Si Si3 0.419305 0.004647 0.072402
Si Si4 0.877668 0.119878 0.579605
Si Si5 0.211919 0.159993 0.926388
Si Si6 0.699193 0.986482 0.071887
Si Si7 0.237156 0.835088 0.926106
Si Si8 0.005802 0.660834 0.072592
O O1 0.482813 0.840396 0.750000
O O2 0.543009 0.909270 0.960964
O O3 0.489069 0.750000 0.000000
O O4 0.441929 0.915700 0.994166
O O5 0.887487 0.619248 0.250000
O O6 0.875205 0.484609 0.080520
O O7 0.956936 0.592472 0.038983
O O8 0.849829 0.635739 0.978253
O O9 0.421406 0.991687 0.250000
O O10 0.357780 0.022436 0.014946
O O11 0.878285 0.151935 0.750000
O O12 0.823814 0.152881 0.494861
O O13 0.934946 0.143286 0.500021
O O14 0.212783 0.167020 0.750000
O O15 0.254986 0.084905 0.971160
O O16 0.228729 0.250000 0.000000
O O17 0.689369 0.979242 0.250000
O O18 0.726563 0.080124 0.042550
O O19 0.232338 0.824510 0.750000
O O20 0.262942 0.750000 0.000000
O O21 0.012234 0.667408 0.250000
O O22 0.984657 0.750000 0.000000
#
# Coordination Sequence:
#
# PCOD9439001 Si02
#       8
#     8   8   8   8   8   8   8   8
#     4  10  21  39  64  95 131 170 211 254 303 358
#     4  10  22  39  60  85 112 147 193 244 302 365
#     4  10  22  39  63  94 128 168 210 256 307 356
#     4  11  22  38  60  85 112 147 191 243 302 364
#     4  11  23  40  62  88 119 159 202 250 305 362
#     4  10  23  42  62  87 124 165 206 253 304 358
#     4  11  23  41  62  87 117 156 202 248 305 363
#     4  11  23  38  55  80 112 146 188 240 298 365
#
# _framework density 19.220891999999999
#
# number of rings (size 3 to 8) (size 9 to 14) (size 15 to 20)
#    0.000    1.500    1.250    3.375    0.000    7.000 
#    0.000    3.750    0.000    0.000    0.000    0.000 
#    0.000    0.000    0.000    0.000    0.000    0.000 
#
# Total GULP energy -357439.229378 kJ/mol
# GULP energy per Si atom -5584.987959 kJ/mol
# Density = 1.917714 g / cm^3
# Si number density = 19.220892 Si / 1000 Ang^3
#
#
#
# Elastic Constant Matrix: (Units=GPa)
#
#
# Indices 1 2 3 4 5 6 
#
# 1 82.5422 14.9310 43.2278 0.0000 0.0000 0.0000
# 2 14.9310 103.1240 45.5072 0.0000 0.0000 0.0000
# 3 43.2278 45.5072 71.9672 0.0000 0.0000 0.0000
# 4 0.0000 0.0000 0.0000 33.1980 0.0000 0.0000
# 5 0.0000 0.0000 0.0000 0.0000 37.2297 0.0000
# 6 0.0000 0.0000 0.0000 0.0000 0.0000 6.6140
#
#
#
# Elastic Compliance Matrix: (Units=1/GPa)
#
#
# Indices 1 2 3 4 5 6 
#
# 1 0.018346 0.003061 -0.012955 0.000000 0.000000 0.000000
# 2 0.003061 0.013961 -0.010666 0.000000 0.000000 0.000000
# 3 -0.012955 -0.010666 0.028421 0.000000 0.000000 0.000000
# 4 0.000000 0.000000 0.000000 0.030122 0.000000 0.000000
# 5 0.000000 0.000000 0.000000 0.000000 0.026860 0.000000
# 6 0.000000 0.000000 0.000000 0.000000 0.000000 0.151195
#
#
# Mechanical properties :
#
#
# Convention : Reuss Voigt Hill
#
# Bulk Modulus (GPa) = 51.00254 51.66282 51.33268
# Shear Modulus (GPa) = 15.79464 25.67283 20.73373
#
# Velocity S-wave (km/s) = 2.86972 3.65865 3.28793
# Velocity P-wave (km/s) = 6.12968 6.69212 6.41706
#
# Compressibility (1/GPa) = 0.01960686
#
# Stress axis : x y z
#
# Youngs Moduli (GPa) = 54.50783 71.62922 35.18482
#
# Poissons Ratio (x) = -0.21923 0.45582
# Poissons Ratio (y) = -0.16683 0.37529
# Poissons Ratio (z) = 0.70615 0.76401
#
# Static dielectric constant tensor:
#      x y z
#    x 1.647540 0.000000 0.000000 
#    y 0.000000 1.692140 0.000000 
#    z 0.000000 0.000000 1.656810 
# 
# From -- ./inp_files/9396.got.cif
#   From: 2010.05.17/outbox.cif.g08.bks.cpg/sg57_5_cif.got.tgz:9396.got - 2010.06.03 13:58:18.
