data_PCOD9439325
_publ_section_title
;
Structure prediction by ZEFSAII (Michael W. Deem and Ramdas Pophale) SiO2 
 PCOD9439325
Probable space group: P B C M
;
_chemical_formula_sum "Si O2"
_cell_formula_units_Z 60
_cell_length_a 18.713171
_cell_length_b 5.310075
_cell_length_c 23.106710
_cell_angle_alpha 90.000000
_cell_angle_beta 90.000000
_cell_angle_gamma 90.000000
_cell_volume 2296.075450
_symmetry_space_group_name_H-M "P B C M"
_symmetry_group_IT_number 57
_symmetry_cell_setting 'orthorhombic'
loop_
_space_group_symop_operation_xyz
x,y,z
-x,-y,1/2+z
x,1/2-y,-z
-x,1/2+y,1/2-z
-x,-y,-z
x,y,1/2-z
-x,1/2+y,z
x,1/2-y,1/2+z
loop_
_atom_site_type_symbol
_atom_site_label
_atom_site_fract_x
_atom_site_fract_y
_atom_site_fract_z
Si Si1 0.835189 0.430325 0.357167
Si Si2 0.334687 0.290581 0.862940
Si Si3 0.623081 0.495566 0.019995
Si Si4 0.761733 0.041623 0.064663
Si Si5 0.086507 0.332052 0.440380
Si Si6 0.738184 0.563908 0.250000
Si Si7 0.037625 0.907023 0.835235
Si Si8 0.456112 0.959870 0.681119
O O1 0.778115 0.297230 0.400166
O O2 0.885575 0.614149 0.395514
O O3 0.798753 0.549693 0.301368
O O4 0.882682 0.201016 0.329764
O O5 0.363454 0.473497 0.912503
O O6 0.322805 0.416925 0.801384
O O7 0.387016 0.052261 0.853435
O O8 0.263229 0.161722 0.888142
O O9 0.587318 0.750000 0.000000
O O10 0.698375 0.480919 0.982557
O O11 0.583103 0.250000 0.000000
O O12 0.838979 0.968135 0.040617
O O13 0.052623 0.250000 0.500000
O O14 0.039681 0.530159 0.404118
O O15 0.988089 0.678755 0.813571
O O16 0.440290 0.968434 0.750000
O O17 0.512920 0.184350 0.668803
#
# Coordination Sequence:
#
# PCOD9439325 Si02
#       8
#     8   8   8   8   8   4   8   8
#     4  11  25  45  68 104 146 174 230 297 357 411
#     4  11  22  43  70 104 141 185 234 286 353 424
#     4  10  22  38  64  96 137 182 228 269 337 430
#     4  10  23  39  66  99 143 185 223 279 362 435
#     4  11  23  41  68 105 140 179 222 294 357 421
#     4  12  24  42  68 104 138 176 222 294 354 410
#     4  11  24  48  74  96 135 185 238 283 345 418
#     4  10  23  44  68  98 139 188 241 291 339 402
#
# _framework density 26.131544000000002
#
# number of rings (size 3 to 8) (size 9 to 14) (size 15 to 20)
#    0.000    1.333    3.333    2.000    3.733    5.867 
#    2.400    0.667    0.000   10.400    0.000    0.000 
#    0.000    0.000    0.000    0.000    0.000    0.000 
#
# Total GULP energy -334476.642819 kJ/mol
# GULP energy per Si atom -5574.610714 kJ/mol
# Density = 2.607207 g / cm^3
# Si number density = 26.131544 Si / 1000 Ang^3
#
#
#
# Elastic Constant Matrix: (Units=GPa)
#
#
# Indices 1 2 3 4 5 6 
#
# 1 67.4660 20.7307 28.3584 0.0000 0.0000 0.0000
# 2 20.7307 151.9527 52.9318 0.0000 0.0000 0.0000
# 3 28.3584 52.9318 205.3877 0.0000 0.0000 0.0000
# 4 0.0000 0.0000 0.0000 10.3262 0.0000 0.0000
# 5 0.0000 0.0000 0.0000 0.0000 13.4860 0.0000
# 6 0.0000 0.0000 0.0000 0.0000 0.0000 6.5098
#
#
#
# Elastic Compliance Matrix: (Units=1/GPa)
#
#
# Indices 1 2 3 4 5 6 
#
# 1 0.016065 -0.001559 -0.001816 0.000000 0.000000 0.000000
# 2 -0.001559 0.007381 -0.001687 0.000000 0.000000 0.000000
# 3 -0.001816 -0.001687 0.005554 0.000000 0.000000 0.000000
# 4 0.000000 0.000000 0.000000 0.096841 0.000000 0.000000
# 5 0.000000 0.000000 0.000000 0.000000 0.074151 0.000000
# 6 0.000000 0.000000 0.000000 0.000000 0.000000 0.153614
#
#
# Mechanical properties :
#
#
# Convention : Reuss Voigt Hill
#
# Bulk Modulus (GPa) = 52.97781 69.87202 61.42492
# Shear Modulus (GPa) = 13.51270 27.58346 20.54808
#
# Velocity S-wave (km/s) = 2.27646 3.25247 2.80720
# Velocity P-wave (km/s) = 5.21797 6.39541 5.83646
#
# Compressibility (1/GPa) = 0.01887583
#
# Stress axis : x y z
#
# Youngs Moduli (GPa) = 62.24798 135.47650 180.03735
#
# Poissons Ratio (x) = 0.21121 0.32701
# Poissons Ratio (y) = 0.09704 0.30373
# Poissons Ratio (z) = 0.11306 0.22855
#
# Static dielectric constant tensor:
#      x y z
#    x 2.102780 0.000000 0.000000 
#    y 0.000000 2.238410 0.000000 
#    z 0.000000 0.000000 2.004890 
# 
# From -- ./inp_files/27681.got.cif
#   From: 2010.05.17/outbox.cif.g08.bks.cpg/sg57_14_cif.got.tgz:27681.got - 2010.06.03 13:58:18.
