data_PCOD9439887
_publ_section_title
;
Structure prediction by ZEFSAII (Michael W. Deem and Ramdas Pophale) SiO2 
 PCOD9439887
Probable space group: P B C M
;
_chemical_formula_sum "Si O2"
_cell_formula_units_Z 40
_cell_length_a 5.166533
_cell_length_b 17.584923
_cell_length_c 17.718204
_cell_angle_alpha 90.000000
_cell_angle_beta 90.000000
_cell_angle_gamma 90.000000
_cell_volume 1609.753494
_symmetry_space_group_name_H-M "P B C M"
_symmetry_group_IT_number 57
_symmetry_cell_setting 'orthorhombic'
loop_
_space_group_symop_operation_xyz
x,y,z
-x,-y,1/2+z
x,1/2-y,-z
-x,1/2+y,1/2-z
-x,-y,-z
x,y,1/2-z
-x,1/2+y,z
x,1/2-y,1/2+z
loop_
_atom_site_type_symbol
_atom_site_label
_atom_site_fract_x
_atom_site_fract_y
_atom_site_fract_z
Si Si1 0.199863 0.910233 0.594596
Si Si2 0.408617 0.819959 0.044583
Si Si3 0.288687 0.074974 0.662487
Si Si4 0.700172 0.852297 0.667000
Si Si5 0.952987 0.288253 0.169005
O O1 0.287180 0.880908 0.513036
O O2 0.402348 0.865678 0.648844
O O3 0.899493 0.891991 0.609687
O O4 0.249499 0.996946 0.618014
O O5 0.548665 0.869671 0.108166
O O6 0.191846 0.774909 0.091505
O O7 0.550060 0.750000 0.000000
O O8 0.380703 0.064354 0.750000
O O9 0.025565 0.123301 0.669211
O O10 0.757278 0.884496 0.750000
O O11 0.793182 0.765126 0.668370
O O12 0.820578 0.271553 0.250000
#
# Coordination Sequence:
#
# PCOD9439887 Si02
#       5
#     8   8   8   8   8
#     4  12  27  46  77 112 150 196 244 314 378 438
#     4  12  25  45  72 107 148 195 247 313 369 441
#     4  11  26  47  73 107 150 198 249 306 378 449
#     4  11  24  47  74 109 148 197 252 301 368 450
#     4  10  24  44  72 102 146 202 252 306 371 448
#
# _framework density 24.848524999999999
#
# number of rings (size 3 to 8) (size 9 to 14) (size 15 to 20)
#    0.000    0.800    2.000    4.200    5.600    1.600 
#    0.000    0.000    0.000    0.000    0.000    0.000 
#    0.000    0.000    0.000    0.000    0.000    0.000 
#
# Total GULP energy -223608.166686 kJ/mol
# GULP energy per Si atom -5590.204167 kJ/mol
# Density = 2.479197 g / cm^3
# Si number density = 24.848525 Si / 1000 Ang^3
#
#
#
# Elastic Constant Matrix: (Units=GPa)
#
#
# Indices 1 2 3 4 5 6 
#
# 1 36.5877 10.5330 16.3210 0.0000 0.0000 0.0000
# 2 10.5330 143.4827 28.4275 0.0000 0.0000 0.0000
# 3 16.3210 28.4275 129.6177 0.0000 0.0000 0.0000
# 4 0.0000 0.0000 0.0000 35.8300 0.0000 0.0000
# 5 0.0000 0.0000 0.0000 0.0000 23.8423 0.0000
# 6 0.0000 0.0000 0.0000 0.0000 0.0000 29.1803
#
#
#
# Elastic Compliance Matrix: (Units=1/GPa)
#
#
# Indices 1 2 3 4 5 6 
#
# 1 0.029257 -0.001482 -0.003359 0.000000 0.000000 0.000000
# 2 -0.001482 0.007361 -0.001428 0.000000 0.000000 0.000000
# 3 -0.003359 -0.001428 0.008451 0.000000 0.000000 0.000000
# 4 0.000000 0.000000 0.000000 0.027910 0.000000 0.000000
# 5 0.000000 0.000000 0.000000 0.000000 0.041942 0.000000
# 6 0.000000 0.000000 0.000000 0.000000 0.000000 0.034270
#
#
# Mechanical properties :
#
#
# Convention : Reuss Voigt Hill
#
# Bulk Modulus (GPa) = 30.73977 46.69455 38.71716
# Shear Modulus (GPa) = 28.97345 34.73097 31.85221
#
# Velocity S-wave (km/s) = 3.41838 3.74265 3.58418
# Velocity P-wave (km/s) = 5.28944 6.12446 5.72220
#
# Compressibility (1/GPa) = 0.03253115
#
# Stress axis : x y z
#
# Youngs Moduli (GPa) = 34.18032 135.84793 118.32829
#
# Poissons Ratio (x) = 0.20136 0.39744
# Poissons Ratio (y) = 0.05066 0.16895
# Poissons Ratio (z) = 0.11480 0.19396
#
# Static dielectric constant tensor:
#      x y z
#    x 1.999720 0.000000 0.000000 
#    y 0.000000 1.965850 0.000000 
#    z 0.000000 0.000000 1.992390 
# 
# From -- ./inp_files/19965.got.cif
#   From: 2010.05.17/outbox.cif.g08.bks.cpg/sg57_10_cif.got.tgz:19965.got - 2010.06.03 13:58:18.
