data_PCOD9439140
_publ_section_title
;
Structure prediction by ZEFSAII (Michael W. Deem and Ramdas Pophale) SiO2 
 PCOD9439140
Probable space group: P B C M
;
_chemical_formula_sum "Si O2"
_cell_formula_units_Z 56
_cell_length_a 15.913363
_cell_length_b 5.336971
_cell_length_c 29.841059
_cell_angle_alpha 90.000000
_cell_angle_beta 90.000000
_cell_angle_gamma 90.000000
_cell_volume 2534.375980
_symmetry_space_group_name_H-M "P B C M"
_symmetry_group_IT_number 57
_symmetry_cell_setting 'orthorhombic'
loop_
_space_group_symop_operation_xyz
x,y,z
-x,-y,1/2+z
x,1/2-y,-z
-x,1/2+y,1/2-z
-x,-y,-z
x,y,1/2-z
-x,1/2+y,z
x,1/2-y,1/2+z
loop_
_atom_site_type_symbol
_atom_site_label
_atom_site_fract_x
_atom_site_fract_y
_atom_site_fract_z
Si Si1 0.949790 0.785988 0.640125
Si Si2 0.324085 0.859892 0.803232
Si Si3 0.219797 0.362020 0.695941
Si Si4 0.313376 0.400945 0.437217
Si Si5 0.554226 0.750000 0.500000
Si Si6 0.143640 0.145264 0.051329
Si Si7 0.783077 0.250000 0.500000
Si Si8 0.446987 0.844311 0.877903
O O1 0.927465 0.803201 0.587144
O O2 0.985746 0.511197 0.650050
O O3 0.866774 0.837536 0.669255
O O4 0.333585 0.851189 0.750000
O O5 0.277070 0.119697 0.814604
O O6 0.413430 0.849408 0.827273
O O7 0.268394 0.617834 0.816374
O O8 0.205408 0.364397 0.750000
O O9 0.387592 0.232813 0.456325
O O10 0.229501 0.249304 0.425263
O O11 0.278103 0.544895 0.480412
O O12 0.360681 0.595596 0.405149
O O13 0.500000 0.500000 0.500000
O O14 0.160946 0.854639 0.040383
O O15 0.130184 0.250000 0.000000
O O16 0.509457 0.077927 0.886228
#
# Coordination Sequence:
#
# PCOD9439140 Si02
#       8
#     8   8   8   8   4   8   4   8
#     4  12  28  44  68 104 138 172 209 270 343 400
#     4  10  22  43  71  97 127 175 226 267 315 389
#     4  10  22  44  73 102 131 171 220 267 323 403
#     4  11  23  40  61  89 122 172 223 267 320 390
#     4  12  23  36  56  85 122 154 202 268 325 368
#     4  10  24  43  68  92 124 178 232 275 322 393
#     4  10  21  40  68  87 112 168 228 270 315 364
#     4  12  27  40  60  96 136 174 214 274 337 382
#
# _framework density 22.096169
#
# number of rings (size 3 to 8) (size 9 to 14) (size 15 to 20)
#    0.000    1.143    2.143    3.857    8.000    1.714 
#    0.000    0.000    0.000    0.000    0.000    0.000 
#    0.000    0.000    0.000    0.000    0.000    0.000 
#
# Total GULP energy -312863.343832 kJ/mol
# GULP energy per Si atom -5586.845426 kJ/mol
# Density = 2.204588 g / cm^3
# Si number density = 22.096169 Si / 1000 Ang^3
#
#
#
# Elastic Constant Matrix: (Units=GPa)
#
#
# Indices 1 2 3 4 5 6 
#
# 1 29.7773 12.1038 12.3176 0.0000 0.0000 0.0000
# 2 12.1038 102.6529 8.1739 0.0000 0.0000 0.0000
# 3 12.3176 8.1739 47.7271 0.0000 0.0000 0.0000
# 4 0.0000 0.0000 0.0000 18.3942 0.0000 0.0000
# 5 0.0000 0.0000 0.0000 0.0000 49.9104 0.0000
# 6 0.0000 0.0000 0.0000 0.0000 0.0000 24.6208
#
#
#
# Elastic Compliance Matrix: (Units=1/GPa)
#
#
# Indices 1 2 3 4 5 6 
#
# 1 0.039044 -0.003854 -0.009417 0.000000 0.000000 0.000000
# 2 -0.003854 0.010257 -0.000762 0.000000 0.000000 0.000000
# 3 -0.009417 -0.000762 0.023513 0.000000 0.000000 0.000000
# 4 0.000000 0.000000 0.000000 0.054365 0.000000 0.000000
# 5 0.000000 0.000000 0.000000 0.000000 0.020036 0.000000
# 6 0.000000 0.000000 0.000000 0.000000 0.000000 0.040616
#
#
# Mechanical properties :
#
#
# Convention : Reuss Voigt Hill
#
# Bulk Modulus (GPa) = 22.34676 27.26087 24.80382
# Shear Modulus (GPa) = 21.66258 28.42255 25.04257
#
# Velocity S-wave (km/s) = 3.13449 3.59041 3.37017
# Velocity P-wave (km/s) = 4.82032 5.43619 5.13749
#
# Compressibility (1/GPa) = 0.04474921
#
# Stress axis : x y z
#
# Youngs Moduli (GPa) = 25.61185 97.49775 42.52916
#
# Poissons Ratio (x) = 0.37575 0.40048
# Poissons Ratio (y) = 0.09871 0.03241
# Poissons Ratio (z) = 0.24118 0.07429
#
# Static dielectric constant tensor:
#      x y z
#    x 1.797200 0.000000 0.000000 
#    y 0.000000 1.881940 0.000000 
#    z 0.000000 0.000000 1.855320 
# 
# From -- ./inp_files/29876.got.cif
#   From: 2010.05.17/outbox.cif.g08.bks.cpg/sg57_15_cif.got.tgz:29876.got - 2010.06.03 13:58:18.
