data_PCOD9439782
_publ_section_title
;
Structure prediction by ZEFSAII (Michael W. Deem and Ramdas Pophale) SiO2 
 PCOD9439782
Probable space group: P B C M
;
_chemical_formula_sum "Si O2"
_cell_formula_units_Z 48
_cell_length_a 10.042024
_cell_length_b 13.147058
_cell_length_c 14.717105
_cell_angle_alpha 90.000000
_cell_angle_beta 90.000000
_cell_angle_gamma 90.000000
_cell_volume 1942.997413
_symmetry_space_group_name_H-M "P B C M"
_symmetry_group_IT_number 57
_symmetry_cell_setting 'orthorhombic'
loop_
_space_group_symop_operation_xyz
x,y,z
-x,-y,1/2+z
x,1/2-y,-z
-x,1/2+y,1/2-z
-x,-y,-z
x,y,1/2-z
-x,1/2+y,z
x,1/2-y,1/2+z
loop_
_atom_site_type_symbol
_atom_site_label
_atom_site_fract_x
_atom_site_fract_y
_atom_site_fract_z
Si Si1 0.207705 0.255425 0.359151
Si Si2 0.911040 0.198970 0.096663
Si Si3 0.871046 0.527553 0.643717
Si Si4 0.409251 0.906219 0.475943
Si Si5 0.822392 0.406856 0.348173
Si Si6 0.504442 0.222804 0.141228
O O1 0.202566 0.263297 0.250000
O O2 0.347789 0.203318 0.380435
O O3 0.070509 0.201044 0.385915
O O4 0.201961 0.372401 0.395288
O O5 0.836958 0.284026 0.156389
O O6 0.860924 0.085145 0.105721
O O7 0.890932 0.250000 0.000000
O O8 0.833956 0.519631 0.750000
O O9 0.027214 0.555883 0.638238
O O10 0.270942 0.938371 0.430304
O O11 0.409051 0.842227 0.569886
O O12 0.469838 0.836989 0.394517
O O13 0.500000 0.000000 0.500000
O O14 0.774041 0.445221 0.250000
O O15 0.526391 0.210556 0.250000
#
# Coordination Sequence:
#
# PCOD9439782 Si02
#       6
#     8   8   8   8   8   8
#     4   9  20  40  63  93 130 174 229 286 345 420
#     4  11  23  34  64 101 140 177 221 283 360 423
#     4   9  19  39  67  97 130 178 231 281 352 432
#     4  11  26  44  71 101 138 181 243 291 345 415
#     4  10  23  44  68 100 141 182 232 293 354 423
#     4  10  24  46  70  97 137 185 235 293 353 414
#
# _framework density 24.704097999999998
#
# number of rings (size 3 to 8) (size 9 to 14) (size 15 to 20)
#    0.000    2.000    0.000    3.000    7.000    5.333 
#    0.000    0.000    0.000    0.000    0.000    0.000 
#    0.000    0.000    0.000    0.000    0.000    0.000 
#
# Total GULP energy -268491.352807 kJ/mol
# GULP energy per Si atom -5593.569850 kJ/mol
# Density = 2.464787 g / cm^3
# Si number density = 24.704098 Si / 1000 Ang^3
#
#
#
# Elastic Constant Matrix: (Units=GPa)
#
#
# Indices 1 2 3 4 5 6 
#
# 1 84.7989 21.8735 51.9755 0.0000 0.0000 0.0000
# 2 21.8735 90.7977 28.5277 0.0000 0.0000 0.0000
# 3 51.9755 28.5277 147.1558 0.0000 0.0000 0.0000
# 4 0.0000 0.0000 0.0000 20.3117 0.0000 0.0000
# 5 0.0000 0.0000 0.0000 0.0000 39.4619 0.0000
# 6 0.0000 0.0000 0.0000 0.0000 0.0000 16.9293
#
#
#
# Elastic Compliance Matrix: (Units=1/GPa)
#
#
# Indices 1 2 3 4 5 6 
#
# 1 0.015430 -0.002135 -0.005036 0.000000 0.000000 0.000000
# 2 -0.002135 0.012023 -0.001577 0.000000 0.000000 0.000000
# 3 -0.005036 -0.001577 0.008880 0.000000 0.000000 0.000000
# 4 0.000000 0.000000 0.000000 0.049233 0.000000 0.000000
# 5 0.000000 0.000000 0.000000 0.000000 0.025341 0.000000
# 6 0.000000 0.000000 0.000000 0.000000 0.000000 0.059069
#
#
# Mechanical properties :
#
#
# Convention : Reuss Voigt Hill
#
# Bulk Modulus (GPa) = 53.08486 58.61175 55.84831
# Shear Modulus (GPa) = 25.80639 30.03230 27.91935
#
# Velocity S-wave (km/s) = 3.23556 3.49044 3.36542
# Velocity P-wave (km/s) = 5.95764 6.32624 6.14470
#
# Compressibility (1/GPa) = 0.01883776
#
# Stress axis : x y z
#
# Youngs Moduli (GPa) = 64.80887 83.17251 112.61374
#
# Poissons Ratio (x) = 0.17756 0.56712
# Poissons Ratio (y) = 0.13836 0.17757
# Poissons Ratio (z) = 0.32638 0.13115
#
# Static dielectric constant tensor:
#      x y z
#    x 2.001800 0.000000 0.000000 
#    y 0.000000 1.982140 0.000000 
#    z 0.000000 0.000000 1.995290 
# 
# From -- ./inp_files/17609.got.cif
#   From: 2010.05.17/outbox.cif.g08.bks.cpg/sg57_9_cif.got.tgz:17609.got - 2010.06.03 13:58:18.
