data_PCOD9439863
_publ_section_title
;
Structure prediction by ZEFSAII (Michael W. Deem and Ramdas Pophale) SiO2 
 PCOD9439863
Probable space group: P B C M
;
_chemical_formula_sum "Si O2"
_cell_formula_units_Z 64
_cell_length_a 11.970557
_cell_length_b 16.342016
_cell_length_c 15.353116
_cell_angle_alpha 90.000000
_cell_angle_beta 90.000000
_cell_angle_gamma 90.000000
_cell_volume 3003.423134
_symmetry_space_group_name_H-M "P B C M"
_symmetry_group_IT_number 57
_symmetry_cell_setting 'orthorhombic'
loop_
_space_group_symop_operation_xyz
x,y,z
-x,-y,1/2+z
x,1/2-y,-z
-x,1/2+y,1/2-z
-x,-y,-z
x,y,1/2-z
-x,1/2+y,z
x,1/2-y,1/2+z
loop_
_atom_site_type_symbol
_atom_site_label
_atom_site_fract_x
_atom_site_fract_y
_atom_site_fract_z
Si Si1 0.231037 0.730853 0.599612
Si Si2 0.002259 0.908778 0.969122
Si Si3 0.777398 0.402664 0.850456
Si Si4 0.822023 0.705936 0.094693
Si Si5 0.000539 0.673410 0.841600
Si Si6 0.545727 0.040933 0.356218
Si Si7 0.433777 0.285986 0.598278
Si Si8 0.569175 0.370916 0.149982
O O1 0.201338 0.750000 0.500000
O O2 0.279925 0.813352 0.640825
O O3 0.122003 0.714121 0.655855
O O4 0.319775 0.657924 0.600089
O O5 0.112690 0.898972 0.909978
O O6 0.892788 0.876876 0.918876
O O7 0.002034 0.865046 0.062777
O O8 0.000000 0.000000 0.000000
O O9 0.807080 0.418647 0.750000
O O10 0.677953 0.463008 0.878984
O O11 0.695109 0.699842 0.124712
O O12 0.900162 0.762271 0.154009
O O13 0.817276 0.750000 0.000000
O O14 0.990083 0.625473 0.750000
O O15 0.540790 0.046843 0.250000
O O16 0.491537 0.124688 0.393216
O O17 0.486191 0.955558 0.382383
O O18 0.439347 0.250000 0.500000
O O19 0.488802 0.208877 0.648128
O O20 0.602226 0.385285 0.250000
#
# Coordination Sequence:
#
# PCOD9439863 Si02
#       8
#     8   8   8   8   8   8   8   8
#     4  12  21  40  67  99 127 167 226 279 333 394
#     4  11  24  42  64  96 135 171 222 282 334 403
#     4  11  22  41  68  95 132 177 223 277 337 400
#     4   9  21  41  60  88 127 165 215 268 329 403
#     4  11  22  40  66  94 123 169 224 277 332 397
#     4  10  24  43  64  97 135 170 222 281 333 406
#     4  11  23  40  62  92 132 177 216 271 339 404
#     4  11  24  41  64  95 130 173 222 272 334 403
#
# _framework density 21.30902
#
# number of rings (size 3 to 8) (size 9 to 14) (size 15 to 20)
#    0.000    1.250    3.750    2.250    0.000    6.000 
#    0.000    1.250    0.000    0.000    0.000    0.000 
#    0.000    0.000    0.000    0.000    0.000    0.000 
#
# Total GULP energy -356908.475384 kJ/mol
# GULP energy per Si atom -5576.694928 kJ/mol
# Density = 2.126052 g / cm^3
# Si number density = 21.309020 Si / 1000 Ang^3
#
#
#
# Elastic Constant Matrix: (Units=GPa)
#
#
# Indices 1 2 3 4 5 6 
#
# 1 118.0557 34.4254 24.0978 0.0000 0.0000 0.0000
# 2 34.4254 99.2417 10.5359 0.0000 0.0000 0.0000
# 3 24.0978 10.5359 88.9970 0.0000 0.0000 0.0000
# 4 0.0000 0.0000 0.0000 17.1745 0.0000 0.0000
# 5 0.0000 0.0000 0.0000 0.0000 126.0898 0.0000
# 6 0.0000 0.0000 0.0000 0.0000 0.0000 21.6426
#
#
#
# Elastic Compliance Matrix: (Units=1/GPa)
#
#
# Indices 1 2 3 4 5 6 
#
# 1 0.009866 -0.003179 -0.002295 0.000000 0.000000 0.000000
# 2 -0.003179 0.011229 -0.000469 0.000000 0.000000 0.000000
# 3 -0.002295 -0.000469 0.011913 0.000000 0.000000 0.000000
# 4 0.000000 0.000000 0.000000 0.058226 0.000000 0.000000
# 5 0.000000 0.000000 0.000000 0.000000 0.007931 0.000000
# 6 0.000000 0.000000 0.000000 0.000000 0.000000 0.046205
#
#
# Mechanical properties :
#
#
# Convention : Reuss Voigt Hill
#
# Bulk Modulus (GPa) = 47.34134 49.37917 48.36025
# Shear Modulus (GPa) = 30.43286 48.79705 39.61496
#
# Velocity S-wave (km/s) = 3.78321 4.79056 4.31637
# Velocity P-wave (km/s) = 6.43027 7.33638 6.89822
#
# Compressibility (1/GPa) = 0.02112319
#
# Stress axis : x y z
#
# Youngs Moduli (GPa) = 101.35842 89.05673 83.94002
#
# Poissons Ratio (x) = 0.28308 0.19265
# Poissons Ratio (y) = 0.32219 0.03934
# Poissons Ratio (z) = 0.23263 0.04173
#
# Static dielectric constant tensor:
#      x y z
#    x 1.778040 0.000000 0.000000 
#    y 0.000000 1.861000 0.000000 
#    z 0.000000 0.000000 1.768430 
# 
# From -- ./inp_files/17980.got.cif
#   From: 2010.05.17/outbox.cif.g08.bks.cpg/sg57_9_cif.got.tgz:17980.got - 2010.06.03 13:58:18.
