data_PCOD9439408
_publ_section_title
;
Structure prediction by ZEFSAII (Michael W. Deem and Ramdas Pophale) SiO2 
 PCOD9439408
Probable space group: P B C M
;
_chemical_formula_sum "Si O2"
_cell_formula_units_Z 64
_cell_length_a 24.124744
_cell_length_b 15.796688
_cell_length_c 8.728312
_cell_angle_alpha 90.000000
_cell_angle_beta 90.000000
_cell_angle_gamma 90.000000
_cell_volume 3326.281620
_symmetry_space_group_name_H-M "P B C M"
_symmetry_group_IT_number 57
_symmetry_cell_setting 'orthorhombic'
loop_
_space_group_symop_operation_xyz
x,y,z
-x,-y,1/2+z
x,1/2-y,-z
-x,1/2+y,1/2-z
-x,-y,-z
x,y,1/2-z
-x,1/2+y,z
x,1/2-y,1/2+z
loop_
_atom_site_type_symbol
_atom_site_label
_atom_site_fract_x
_atom_site_fract_y
_atom_site_fract_z
Si Si1 0.307128 0.498302 0.434941
Si Si2 0.380170 0.660261 0.434165
Si Si3 0.500699 0.594925 0.065552
Si Si4 0.184555 0.999801 0.067586
Si Si5 0.118860 0.840316 0.567119
Si Si6 0.118527 0.158978 0.932659
Si Si7 0.384888 0.161211 0.566667
Si Si8 0.995378 0.094606 0.566879
O O1 0.299628 0.499877 0.250000
O O2 0.341149 0.582259 0.480162
O O3 0.248086 0.495486 0.515287
O O4 0.344283 0.416372 0.472049
O O5 0.362172 0.750000 0.500000
O O6 0.379497 0.664025 0.250000
O O7 0.443386 0.639848 0.481688
O O8 0.502523 0.591905 0.250000
O O9 0.500000 0.500000 0.000000
O O10 0.554689 0.641625 0.002187
O O11 0.179840 0.994938 0.250000
O O12 0.152727 0.082772 0.007335
O O13 0.156173 0.917137 0.994098
O O14 0.136856 0.750000 0.500000
O O15 0.120308 0.838390 0.750000
O O16 0.056430 0.859282 0.510312
O O17 0.126939 0.157634 0.750000
O O18 0.053453 0.141273 0.962810
O O19 0.134101 0.250000 0.000000
O O20 0.364419 0.250000 0.500000
O O21 0.389295 0.165968 0.750000
O O22 0.986725 0.090461 0.750000
O O23 0.000000 0.000000 0.500000
#
# Coordination Sequence:
#
# PCOD9439408 Si02
#       8
#     8   8   8   8   8   8   8   8
#     4  10  23  45  65  85 124 167 210 262 317 371
#     4  10  22  40  62  91 124 163 203 250 309 369
#     4  11  21  37  62  93 128 166 205 252 313 376
#     4  12  26  44  67  94 125 165 216 266 320 379
#     4  12  25  43  67  96 131 170 213 263 319 377
#     4  11  24  42  66  96 130 170 210 258 316 374
#     4  11  23  41  64  93 127 166 208 258 314 374
#     4  11  22  38  65  98 133 171 210 255 315 380
#
# _framework density 19.240704000000001
#
# number of rings (size 3 to 8) (size 9 to 14) (size 15 to 20)
#    0.000    1.000    2.500    4.500    0.000    7.000 
#    0.000    2.500    0.000    0.000    0.000    0.000 
#    0.000    0.000    0.000    0.000    0.000    0.000 
#
# Total GULP energy -358117.757951 kJ/mol
# GULP energy per Si atom -5595.589968 kJ/mol
# Density = 1.919691 g / cm^3
# Si number density = 19.240704 Si / 1000 Ang^3
#
#
#
# Elastic Constant Matrix: (Units=GPa)
#
#
# Indices 1 2 3 4 5 6 
#
# 1 122.0951 65.6531 71.0754 0.0000 0.0000 0.0000
# 2 65.6531 186.9820 70.2160 0.0000 0.0000 0.0000
# 3 71.0754 70.2160 96.6375 0.0000 0.0000 0.0000
# 4 0.0000 0.0000 0.0000 38.2427 0.0000 0.0000
# 5 0.0000 0.0000 0.0000 0.0000 29.2014 0.0000
# 6 0.0000 0.0000 0.0000 0.0000 0.0000 -6.5920
#
#
#
# Elastic Compliance Matrix: (Units=1/GPa)
#
#
# Indices 1 2 3 4 5 6 
#
# 1 0.014625 -0.001507 -0.009661 0.000000 0.000000 0.000000
# 2 -0.001507 0.007510 -0.004348 0.000000 0.000000 0.000000
# 3 -0.009661 -0.004348 0.020613 0.000000 0.000000 0.000000
# 4 0.000000 0.000000 0.000000 0.026149 0.000000 0.000000
# 5 0.000000 0.000000 0.000000 0.000000 0.034245 0.000000
# 6 0.000000 0.000000 0.000000 0.000000 0.000000 -0.151698
#
#
# Mechanical properties :
#
#
# Convention : Reuss Voigt Hill
#
# Bulk Modulus (GPa) = 85.36316 91.06708 88.21512
# Shear Modulus (GPa) = -367.17128 25.42175 -170.87477
#
# Velocity S-wave (km/s) = -13.82913 3.63884 -9.43408
# Velocity P-wave (km/s) = 14.50968 8.06772 8.52768
#
# Compressibility (1/GPa) = 0.01171466
#
# Stress axis : x y z
#
# Youngs Moduli (GPa) = 68.37658 133.15228 48.51229
#
# Poissons Ratio (x) = 0.20066 0.46870
# Poissons Ratio (y) = 0.10304 0.21095
# Poissons Ratio (z) = 0.66061 0.57901
#
# Static dielectric constant tensor:
#      x y z
#    x 1.647990 0.000000 0.000000 
#    y 0.000000 1.648030 0.000000 
#    z 0.000000 0.000000 1.644340 
# 
# From -- ./inp_files/9472.got.cif
#   From: 2010.05.17/outbox.cif.g08.bks.cpg/sg57_5_cif.got.tgz:9472.got - 2010.06.03 13:58:18.
