data_PCOD9439416
_publ_section_title
;
Structure prediction by ZEFSAII (Michael W. Deem and Ramdas Pophale) SiO2 
 PCOD9439416
Probable space group: P B C M
;
_chemical_formula_sum "Si O2"
_cell_formula_units_Z 40
_cell_length_a 10.239463
_cell_length_b 5.681984
_cell_length_c 26.417899
_cell_angle_alpha 90.000000
_cell_angle_beta 90.000000
_cell_angle_gamma 90.000000
_cell_volume 1537.005646
_symmetry_space_group_name_H-M "P B C M"
_symmetry_group_IT_number 57
_symmetry_cell_setting 'orthorhombic'
loop_
_space_group_symop_operation_xyz
x,y,z
-x,-y,1/2+z
x,1/2-y,-z
-x,1/2+y,1/2-z
-x,-y,-z
x,y,1/2-z
-x,1/2+y,z
x,1/2-y,1/2+z
loop_
_atom_site_type_symbol
_atom_site_label
_atom_site_fract_x
_atom_site_fract_y
_atom_site_fract_z
Si Si1 0.121797 0.567666 0.463306
Si Si2 0.212796 0.633687 0.614945
Si Si3 0.923278 0.849519 0.806196
Si Si4 0.361882 0.276568 0.943898
Si Si5 0.465583 0.742338 0.342673
O O1 0.190185 0.750000 0.500000
O O2 0.097693 0.716750 0.411750
O O3 0.227855 0.375000 0.449037
O O4 0.000000 0.500000 0.500000
O O5 0.171035 0.411674 0.648112
O O6 0.306153 0.527332 0.572289
O O7 0.310487 0.789721 0.648104
O O8 0.863095 0.863960 0.750000
O O9 0.015328 0.087485 0.809196
O O10 0.454873 0.220069 0.896251
O O11 0.423161 0.250000 0.000000
O O12 0.516712 0.500992 0.318202
#
# Coordination Sequence:
#
# PCOD9439416 Si02
#       5
#     8   8   8   8   8
#     4  12  26  39  56  93 137 180 228 275 333 401
#     4  11  25  41  66  93 132 180 222 290 336 402
#     4  10  25  47  73 101 131 172 226 281 350 418
#     4  11  23  41  60  89 133 187 229 272 322 399
#     4  10  22  40  63  90 126 171 233 270 326 390
#
# _framework density 26.024629000000001
#
# number of rings (size 3 to 8) (size 9 to 14) (size 15 to 20)
#    0.000    1.200    4.000    0.600    5.600    4.000 
#    0.000    0.000    0.000    4.800    0.000    0.000 
#    0.000    0.000    0.000    0.000    0.000    0.000 
#
# Total GULP energy -222928.203182 kJ/mol
# GULP energy per Si atom -5573.205080 kJ/mol
# Density = 2.596540 g / cm^3
# Si number density = 26.024629 Si / 1000 Ang^3
#
#
#
# Elastic Constant Matrix: (Units=GPa)
#
#
# Indices 1 2 3 4 5 6 
#
# 1 82.1867 28.6040 17.3189 0.0000 0.0000 0.0000
# 2 28.6040 123.7649 14.0166 0.0000 0.0000 0.0000
# 3 17.3189 14.0166 58.6932 0.0000 0.0000 0.0000
# 4 0.0000 0.0000 0.0000 31.5724 0.0000 0.0000
# 5 0.0000 0.0000 0.0000 0.0000 7.3558 0.0000
# 6 0.0000 0.0000 0.0000 0.0000 0.0000 53.5852
#
#
#
# Elastic Compliance Matrix: (Units=1/GPa)
#
#
# Indices 1 2 3 4 5 6 
#
# 1 0.013869 -0.002818 -0.003419 0.000000 0.000000 0.000000
# 2 -0.002818 0.008877 -0.001288 0.000000 0.000000 0.000000
# 3 -0.003419 -0.001288 0.018354 0.000000 0.000000 0.000000
# 4 0.000000 0.000000 0.000000 0.031673 0.000000 0.000000
# 5 0.000000 0.000000 0.000000 0.000000 0.135947 0.000000
# 6 0.000000 0.000000 0.000000 0.000000 0.000000 0.018662
#
#
# Mechanical properties :
#
#
# Convention : Reuss Voigt Hill
#
# Bulk Modulus (GPa) = 38.38974 42.72484 40.55729
# Shear Modulus (GPa) = 19.91108 32.14970 26.03039
#
# Velocity S-wave (km/s) = 2.76902 3.51858 3.16606
# Velocity P-wave (km/s) = 5.00066 5.74107 5.38361
#
# Compressibility (1/GPa) = 0.02604863
#
# Stress axis : x y z
#
# Youngs Moduli (GPa) = 72.10460 112.65017 54.48291
#
# Poissons Ratio (x) = 0.31745 0.18630
# Poissons Ratio (y) = 0.20319 0.07020
# Poissons Ratio (z) = 0.24655 0.14514
#
# Static dielectric constant tensor:
#      x y z
#    x 2.094220 0.000000 0.000000 
#    y 0.000000 2.166450 0.000000 
#    z 0.000000 0.000000 2.120200 
# 
# From -- ./inp_files/28476.got.cif
#   From: 2010.05.17/outbox.cif.g08.bks.cpg/sg57_15_cif.got.tgz:28476.got - 2010.06.03 13:58:18.
