data_PCOD9439662
_publ_section_title
;
Structure prediction by ZEFSAII (Michael W. Deem and Ramdas Pophale) SiO2 
 PCOD9439662
Probable space group: P B C M
;
_chemical_formula_sum "Si O2"
_cell_formula_units_Z 64
_cell_length_a 19.206836
_cell_length_b 11.666300
_cell_length_c 14.453099
_cell_angle_alpha 90.000000
_cell_angle_beta 90.000000
_cell_angle_gamma 90.000000
_cell_volume 3238.545073
_symmetry_space_group_name_H-M "P B C M"
_symmetry_group_IT_number 57
_symmetry_cell_setting 'orthorhombic'
loop_
_space_group_symop_operation_xyz
x,y,z
-x,-y,1/2+z
x,1/2-y,-z
-x,1/2+y,1/2-z
-x,-y,-z
x,y,1/2-z
-x,1/2+y,z
x,1/2-y,1/2+z
loop_
_atom_site_type_symbol
_atom_site_label
_atom_site_fract_x
_atom_site_fract_y
_atom_site_fract_z
Si Si1 0.383229 0.413301 0.040112
Si Si2 0.033040 0.955436 0.858817
Si Si3 0.758707 0.978183 0.001195
Si Si4 0.173384 0.844387 0.642175
Si Si5 0.438621 0.196601 0.353627
Si Si6 0.592514 0.321513 0.907435
Si Si7 0.279969 0.658817 0.644448
Si Si8 0.092302 0.383646 0.517525
O O1 0.417917 0.323403 0.110456
O O2 0.394698 0.544810 0.070759
O O3 0.300026 0.393796 0.039413
O O4 0.413015 0.386102 0.937314
O O5 0.030228 0.984088 0.750000
O O6 0.090789 0.854861 0.871421
O O7 0.959035 0.920760 0.900186
O O8 0.064064 0.054636 0.924289
O O9 0.717723 0.054551 0.925915
O O10 0.828350 0.920210 0.963361
O O11 0.786730 0.063770 0.080019
O O12 0.187416 0.869201 0.750000
O O13 0.206838 0.721738 0.622665
O O14 0.410897 0.173275 0.250000
O O15 0.522041 0.187857 0.350180
O O16 0.660067 0.254994 0.868033
O O17 0.577104 0.250000 0.000000
O O18 0.281089 0.620082 0.750000
O O19 0.088724 0.250000 0.500000
#
# Coordination Sequence:
#
# PCOD9439662 Si02
#       8
#     8   8   8   8   8   8   8   8
#     4  11  24  44  69  91 128 175 216 264 330 389
#     4   9  20  40  63  92 126 160 207 263 312 372
#     4  11  22  39  62  85 129 167 210 263 311 378
#     4   9  18  35  61  91 121 160 206 253 311 369
#     4  11  27  44  64  96 130 171 218 269 324 392
#     4  12  21  43  68  94 126 166 210 272 331 389
#     4  11  22  36  61  98 128 162 209 263 325 378
#     4  10  23  39  63  93 124 172 215 254 320 384
#
# _framework density 19.761960999999999
#
# number of rings (size 3 to 8) (size 9 to 14) (size 15 to 20)
#    0.000    1.500    3.750    1.125    1.750    6.000 
#    0.000    1.250    0.000    0.000    0.000    0.000 
#    0.000    0.000    0.000    0.000    0.000    0.000 
#
# Total GULP energy -357218.136421 kJ/mol
# GULP energy per Si atom -5581.533382 kJ/mol
# Density = 1.971698 g / cm^3
# Si number density = 19.761961 Si / 1000 Ang^3
#
#
#
# Elastic Constant Matrix: (Units=GPa)
#
#
# Indices 1 2 3 4 5 6 
#
# 1 130.2021 36.3919 28.6300 0.0000 0.0000 0.0000
# 2 36.3919 80.2718 13.7717 0.0000 0.0000 0.0000
# 3 28.6300 13.7717 83.2753 0.0000 0.0000 0.0000
# 4 0.0000 0.0000 0.0000 6.1991 0.0000 0.0000
# 5 0.0000 0.0000 0.0000 0.0000 16.0745 0.0000
# 6 0.0000 0.0000 0.0000 0.0000 0.0000 28.1761
#
#
#
# Elastic Compliance Matrix: (Units=1/GPa)
#
#
# Indices 1 2 3 4 5 6 
#
# 1 0.009301 -0.003775 -0.002573 0.000000 0.000000 0.000000
# 2 -0.003775 0.014354 -0.001076 0.000000 0.000000 0.000000
# 3 -0.002573 -0.001076 0.013071 0.000000 0.000000 0.000000
# 4 0.000000 0.000000 0.000000 0.161315 0.000000 0.000000
# 5 0.000000 0.000000 0.000000 0.000000 0.062210 0.000000
# 6 0.000000 0.000000 0.000000 0.000000 0.000000 0.035491
#
#
# Mechanical properties :
#
#
# Convention : Reuss Voigt Hill
#
# Bulk Modulus (GPa) = 45.71009 50.14850 47.92929
# Shear Modulus (GPa) = 15.72900 24.42030 20.07465
#
# Velocity S-wave (km/s) = 2.82427 3.51910 3.19066
# Velocity P-wave (km/s) = 5.81514 6.47638 6.15465
#
# Compressibility (1/GPa) = 0.02187701
#
# Stress axis : x y z
#
# Youngs Moduli (GPa) = 107.50981 69.66779 76.50504
#
# Poissons Ratio (x) = 0.26302 0.19688
# Poissons Ratio (y) = 0.40589 0.08230
# Poissons Ratio (z) = 0.27667 0.07495
#
# Static dielectric constant tensor:
#      x y z
#    x 1.729630 0.000000 0.000000 
#    y 0.000000 1.688920 0.000000 
#    z 0.000000 0.000000 1.694920 
# 
# From -- ./inp_files/19096.got.cif
#   From: 2010.05.17/outbox.cif.g08.bks.cpg/sg57_10_cif.got.tgz:19096.got - 2010.06.03 13:58:18.
