data_PCOD9439198
_publ_section_title
;
Structure prediction by ZEFSAII (Michael W. Deem and Ramdas Pophale) SiO2 
 PCOD9439198
Probable space group: P B C M
;
_chemical_formula_sum "Si O2"
_cell_formula_units_Z 32
_cell_length_a 7.838112
_cell_length_b 16.225363
_cell_length_c 10.974199
_cell_angle_alpha 90.000000
_cell_angle_beta 90.000000
_cell_angle_gamma 90.000000
_cell_volume 1395.657063
_symmetry_space_group_name_H-M "P B C M"
_symmetry_group_IT_number 57
_symmetry_cell_setting 'orthorhombic'
loop_
_space_group_symop_operation_xyz
x,y,z
-x,-y,1/2+z
x,1/2-y,-z
-x,1/2+y,1/2-z
-x,-y,-z
x,y,1/2-z
-x,1/2+y,z
x,1/2-y,1/2+z
loop_
_atom_site_type_symbol
_atom_site_label
_atom_site_fract_x
_atom_site_fract_y
_atom_site_fract_z
Si Si1 0.154280 0.154577 0.499831
Si Si2 0.009616 0.893089 0.750000
Si Si3 0.448084 0.642579 0.750000
Si Si4 0.536966 0.403284 0.502451
Si Si5 0.162490 0.426595 0.250000
Si Si6 0.658380 0.174947 0.250000
O O1 0.105456 0.250000 0.500000
O O2 0.359242 0.146068 0.502631
O O3 0.093416 0.111782 0.624352
O O4 0.095527 0.112260 0.374691
O O5 0.138187 0.815033 0.750000
O O6 0.117164 0.977477 0.750000
O O7 0.363821 0.617347 0.877782
O O8 0.633637 0.596531 0.750000
O O9 0.450978 0.741564 0.750000
O O10 0.500000 0.500000 0.500000
O O11 0.621035 0.375039 0.627043
#
# Coordination Sequence:
#
# PCOD9439198 Si02
#       6
#     8   4   4   8   4   4
#     4  11  23  43  67  96 133 175 213 264 331 393
#     4  12  26  42  64  98 135 174 215 266 329 400
#     4  10  22  40  63  92 125 166 215 274 325 374
#     4  11  22  41  68  97 126 167 219 270 322 383
#     4  10  21  42  66  92 127 171 217 264 320 388
#     4  12  23  40  63  94 129 167 217 270 318 384
#
# _framework density 22.928267999999999
#
# number of rings (size 3 to 8) (size 9 to 14) (size 15 to 20)
#    0.000    1.000    0.000    9.750    0.000    2.000 
#    0.000    3.750    0.000    0.000    0.000    0.000 
#    0.000    0.000    0.000    0.000    0.000    0.000 
#
# Total GULP energy -178907.177832 kJ/mol
# GULP energy per Si atom -5590.849307 kJ/mol
# Density = 2.287608 g / cm^3
# Si number density = 22.928268 Si / 1000 Ang^3
#
#
#
# Elastic Constant Matrix: (Units=GPa)
#
#
# Indices 1 2 3 4 5 6 
#
# 1 30.0186 -15.8618 15.6865 0.0000 0.0000 0.0000
# 2 -15.8618 115.5281 47.5040 0.0000 0.0000 0.0000
# 3 15.6865 47.5040 260.7487 0.0000 0.0000 0.0000
# 4 0.0000 0.0000 0.0000 37.7373 0.0000 0.0000
# 5 0.0000 0.0000 0.0000 0.0000 -33.0563 0.0000
# 6 0.0000 0.0000 0.0000 0.0000 0.0000 9.2453
#
#
#
# Elastic Compliance Matrix: (Units=1/GPa)
#
#
# Indices 1 2 3 4 5 6 
#
# 1 0.038766 0.006790 -0.003569 0.000000 0.000000 0.000000
# 2 0.006790 0.010546 -0.002330 0.000000 0.000000 0.000000
# 3 -0.003569 -0.002330 0.004474 0.000000 0.000000 0.000000
# 4 0.000000 0.000000 0.000000 0.026499 0.000000 0.000000
# 5 0.000000 0.000000 0.000000 0.000000 -0.030251 0.000000
# 6 0.000000 0.000000 0.000000 0.000000 0.000000 0.108163
#
#
# Mechanical properties :
#
#
# Convention : Reuss Voigt Hill
#
# Bulk Modulus (GPa) = 17.99592 55.66141 36.82867
# Shear Modulus (GPa) = 28.58176 26.71637 27.64907
#
# Velocity S-wave (km/s) = 3.53451 3.41723 3.47637
# Velocity P-wave (km/s) = 4.95206 6.31656 5.67547
#
# Compressibility (1/GPa) = 0.05556816
#
# Stress axis : x y z
#
# Youngs Moduli (GPa) = 25.79610 94.82123 223.49962
#
# Poissons Ratio (x) = -0.64384 0.79770
# Poissons Ratio (y) = -0.17516 0.52071
# Poissons Ratio (z) = 0.09207 0.22092
#
# Static dielectric constant tensor:
#      x y z
#    x 1.871960 0.000000 0.000000 
#    y 0.000000 1.843780 0.000000 
#    z 0.000000 0.000000 2.008850 
# 
# From -- ./inp_files/11358.got.cif
#   From: 2010.05.17/outbox.cif.g08.bks.cpg/sg57_6_cif.got.tgz:11358.got - 2010.06.03 13:58:18.
