data_PCOD9439493
_publ_section_title
;
Structure prediction by ZEFSAII (Michael W. Deem and Ramdas Pophale) SiO2 
 PCOD9439493
Probable space group: P B C M
;
_chemical_formula_sum "Si O2"
_cell_formula_units_Z 56
_cell_length_a 15.776756
_cell_length_b 10.899946
_cell_length_c 15.948784
_cell_angle_alpha 90.000000
_cell_angle_beta 90.000000
_cell_angle_gamma 90.000000
_cell_volume 2742.645215
_symmetry_space_group_name_H-M "P B C M"
_symmetry_group_IT_number 57
_symmetry_cell_setting 'orthorhombic'
loop_
_space_group_symop_operation_xyz
x,y,z
-x,-y,1/2+z
x,1/2-y,-z
-x,1/2+y,1/2-z
-x,-y,-z
x,y,1/2-z
-x,1/2+y,z
x,1/2-y,1/2+z
loop_
_atom_site_type_symbol
_atom_site_label
_atom_site_fract_x
_atom_site_fract_y
_atom_site_fract_z
Si Si1 0.237072 0.822442 0.915111
Si Si2 0.819918 0.534794 0.345840
Si Si3 0.333929 0.615141 0.842009
Si Si4 0.661031 0.952078 0.154051
Si Si5 0.500863 0.626215 0.552125
Si Si6 0.901737 0.011562 0.021789
Si Si7 0.163550 0.178107 0.844063
O O1 0.262135 0.721188 0.847008
O O2 0.142318 0.878547 0.923863
O O3 0.301090 0.935493 0.900288
O O4 0.254345 0.750000 0.000000
O O5 0.842508 0.493482 0.250000
O O6 0.719405 0.509230 0.354763
O O7 0.858911 0.477487 0.429977
O O8 0.845215 0.676823 0.350619
O O9 0.372224 0.613729 0.750000
O O10 0.409028 0.638120 0.905668
O O11 0.649908 0.994583 0.250000
O O12 0.575758 0.895170 0.118634
O O13 0.736991 0.854074 0.152721
O O14 0.517419 0.750000 0.500000
O O15 0.500000 0.500000 0.500000
O O16 0.878388 0.893557 0.078788
O O17 0.000000 0.000000 0.000000
O O18 0.133670 0.138441 0.750000
#
# Coordination Sequence:
#
# PCOD9439493 Si02
#       7
#     8   8   8   8   8   8   8
#     4  11  21  40  65  91 134 171 226 273 338 416
#     4  10  22  41  64  91 127 167 216 272 328 395
#     4  11  23  42  65  91 130 181 223 275 338 404
#     4  10  22  41  64  92 126 174 223 273 331 397
#     4  12  27  40  63  99 138 176 228 289 339 404
#     4  11  24  40  69  96 131 170 218 277 347 412
#     4   9  21  41  66  93 126 170 221 272 331 399
#
# _framework density 20.418246
#
# number of rings (size 3 to 8) (size 9 to 14) (size 15 to 20)
#    0.000    1.429    1.429    3.429    4.000    2.286 
#    0.000    1.429    0.000    0.000    0.000    0.000 
#    0.000    0.000    0.000    0.000    0.000    0.000 
#
# Total GULP energy -312229.045336 kJ/mol
# GULP energy per Si atom -5575.518667 kJ/mol
# Density = 2.037177 g / cm^3
# Si number density = 20.418246 Si / 1000 Ang^3
#
#
#
# Elastic Constant Matrix: (Units=GPa)
#
#
# Indices 1 2 3 4 5 6 
#
# 1 115.4300 29.6746 51.5437 0.0000 0.0000 0.0000
# 2 29.6746 68.6530 25.2924 0.0000 0.0000 0.0000
# 3 51.5437 25.2924 85.6129 0.0000 0.0000 0.0000
# 4 0.0000 0.0000 0.0000 25.5079 0.0000 0.0000
# 5 0.0000 0.0000 0.0000 0.0000 23.7339 0.0000
# 6 0.0000 0.0000 0.0000 0.0000 0.0000 11.6617
#
#
#
# Elastic Compliance Matrix: (Units=1/GPa)
#
#
# Indices 1 2 3 4 5 6 
#
# 1 0.012348 -0.002916 -0.006573 0.000000 0.000000 0.000000
# 2 -0.002916 0.017033 -0.003277 0.000000 0.000000 0.000000
# 3 -0.006573 -0.003277 0.016606 0.000000 0.000000 0.000000
# 4 0.000000 0.000000 0.000000 0.039204 0.000000 0.000000
# 5 0.000000 0.000000 0.000000 0.000000 0.042134 0.000000
# 6 0.000000 0.000000 0.000000 0.000000 0.000000 0.085751
#
#
# Mechanical properties :
#
#
# Convention : Reuss Voigt Hill
#
# Bulk Modulus (GPa) = 48.88392 53.63525 51.25959
# Shear Modulus (GPa) = 20.37288 23.05971 21.71629
#
# Velocity S-wave (km/s) = 3.16219 3.36425 3.26478
# Velocity P-wave (km/s) = 6.10949 6.43555 6.27464
#
# Compressibility (1/GPa) = 0.02045662
#
# Stress axis : x y z
#
# Youngs Moduli (GPa) = 80.98628 58.70786 60.22063
#
# Poissons Ratio (x) = 0.17118 0.39581
# Poissons Ratio (y) = 0.23614 0.19732
# Poissons Ratio (z) = 0.53229 0.19237
#
# Static dielectric constant tensor:
#      x y z
#    x 1.708710 0.000000 0.000000 
#    y 0.000000 1.703140 0.000000 
#    z 0.000000 0.000000 1.757850 
# 
# From -- ./inp_files/18543.got.cif
#   From: 2010.05.17/outbox.cif.g08.bks.cpg/sg57_10_cif.got.tgz:18543.got - 2010.06.03 13:58:18.
