data_PCOD9439518
_publ_section_title
;
Structure prediction by ZEFSAII (Michael W. Deem and Ramdas Pophale) SiO2 
 PCOD9439518
Probable space group: P B C M
;
_chemical_formula_sum "Si O2"
_cell_formula_units_Z 20
_cell_length_a 8.829959
_cell_length_b 5.381931
_cell_length_c 15.148894
_cell_angle_alpha 90.000000
_cell_angle_beta 90.000000
_cell_angle_gamma 90.000000
_cell_volume 719.909226
_symmetry_space_group_name_H-M "P B C M"
_symmetry_group_IT_number 57
_symmetry_cell_setting 'orthorhombic'
loop_
_space_group_symop_operation_xyz
x,y,z
-x,-y,1/2+z
x,1/2-y,-z
-x,1/2+y,1/2-z
-x,-y,-z
x,y,1/2-z
-x,1/2+y,z
x,1/2-y,1/2+z
loop_
_atom_site_type_symbol
_atom_site_label
_atom_site_fract_x
_atom_site_fract_y
_atom_site_fract_z
Si Si1 0.072290 0.287614 0.250000
Si Si2 0.427037 0.762367 0.396501
Si Si3 0.851978 0.941736 0.937017
O O1 0.131120 0.207298 0.345686
O O2 0.065551 0.584420 0.250000
O O3 0.538167 0.250000 0.500000
O O4 0.513617 0.003343 0.357503
O O5 0.247501 0.825885 0.403650
O O6 0.765070 0.750000 0.000000
O O7 0.000000 0.000000 0.000000
#
# Coordination Sequence:
#
# PCOD9439518 Si02
#       3
#     4   8   8
#     4  12  28  46  66 112 144 182 244 306 356 440
#     4  10  22  41  67 103 141 186 236 288 355 433
#     4  12  24  44  78 106 144 192 243 300 367 423
#
# _framework density 27.781279000000001
#
# number of rings (size 3 to 8) (size 9 to 14) (size 15 to 20)
#    0.000    0.800    4.000    4.800    0.000    3.200 
#    0.000    2.000    0.000    0.000    0.000    2.800 
#    0.000    0.000    0.000    0.000    0.000    0.000 
#
# Total GULP energy -111385.691934 kJ/mol
# GULP energy per Si atom -5569.284597 kJ/mol
# Density = 2.771805 g / cm^3
# Si number density = 27.781279 Si / 1000 Ang^3
#
#
#
# Elastic Constant Matrix: (Units=GPa)
#
#
# Indices 1 2 3 4 5 6 
#
# 1 144.3219 55.1621 41.4062 0.0000 0.0000 0.0000
# 2 55.1621 186.3408 25.0392 0.0000 0.0000 0.0000
# 3 41.4062 25.0392 200.2440 0.0000 0.0000 0.0000
# 4 0.0000 0.0000 0.0000 46.1054 0.0000 0.0000
# 5 0.0000 0.0000 0.0000 0.0000 -22.3870 0.0000
# 6 0.0000 0.0000 0.0000 0.0000 0.0000 44.1269
#
#
#
# Elastic Compliance Matrix: (Units=1/GPa)
#
#
# Indices 1 2 3 4 5 6 
#
# 1 0.008188 -0.002234 -0.001414 0.000000 0.000000 0.000000
# 2 -0.002234 0.006068 -0.000297 0.000000 0.000000 0.000000
# 3 -0.001414 -0.000297 0.005323 0.000000 0.000000 0.000000
# 4 0.000000 0.000000 0.000000 0.021689 0.000000 0.000000
# 5 0.000000 0.000000 0.000000 0.000000 -0.044669 0.000000
# 6 0.000000 0.000000 0.000000 0.000000 0.000000 0.022662
#
#
# Mechanical properties :
#
#
# Convention : Reuss Voigt Hill
#
# Bulk Modulus (GPa) = 85.54142 86.01354 85.77748
# Shear Modulus (GPa) = 161.03940 40.85566 100.94753
#
# Velocity S-wave (km/s) = 7.62186 3.83902 6.03452
# Velocity P-wave (km/s) = 10.40744 7.11892 8.91610
#
# Compressibility (1/GPa) = 0.01169024
#
# Stress axis : x y z
#
# Youngs Moduli (GPa) = 122.12279 164.80629 187.85089
#
# Poissons Ratio (x) = 0.36818 0.26559
# Poissons Ratio (y) = 0.27283 0.05575
# Poissons Ratio (z) = 0.17266 0.04891
#
# Static dielectric constant tensor:
#      x y z
#    x 2.394370 0.000000 0.000000 
#    y 0.000000 2.432850 0.000000 
#    z 0.000000 0.000000 2.890410 
# 
# From -- ./inp_files/17101.got.cif
#   From: 2010.05.17/outbox.cif.g08.bks.cpg/sg57_9_cif.got.tgz:17101.got - 2010.06.03 13:58:18.
