data_PCOD9439286
_publ_section_title
;
Structure prediction by ZEFSAII (Michael W. Deem and Ramdas Pophale) SiO2 
 PCOD9439286
Probable space group: P B C M
;
_chemical_formula_sum "Si O2"
_cell_formula_units_Z 40
_cell_length_a 13.236743
_cell_length_b 18.637457
_cell_length_c 8.584269
_cell_angle_alpha 90.000000
_cell_angle_beta 90.000000
_cell_angle_gamma 90.000000
_cell_volume 2117.732539
_symmetry_space_group_name_H-M "P B C M"
_symmetry_group_IT_number 57
_symmetry_cell_setting 'orthorhombic'
loop_
_space_group_symop_operation_xyz
x,y,z
-x,-y,1/2+z
x,1/2-y,-z
-x,1/2+y,1/2-z
-x,-y,-z
x,y,1/2-z
-x,1/2+y,z
x,1/2-y,1/2+z
loop_
_atom_site_type_symbol
_atom_site_label
_atom_site_fract_x
_atom_site_fract_y
_atom_site_fract_z
Si Si1 0.886477 0.919605 0.937843
Si Si2 0.691318 0.830535 0.938264
Si Si3 0.492557 0.580513 0.437224
Si Si4 0.696264 0.169790 0.937297
Si Si5 0.104431 0.914350 0.062201
O O1 0.887572 0.918707 0.750000
O O2 0.792300 0.872018 0.991309
O O3 0.875274 0.003004 0.986924
O O4 0.994890 0.893373 0.997971
O O5 0.692748 0.828766 0.750000
O O6 0.591869 0.874675 0.985738
O O7 0.688136 0.750000 0.000000
O O8 0.500000 0.500000 0.500000
O O9 0.489264 0.579144 0.250000
O O10 0.393684 0.619976 0.501271
O O11 0.693372 0.170407 0.750000
O O12 0.803724 0.136178 0.987682
O O13 0.684302 0.250000 0.000000
O O14 0.100305 0.913468 0.250000
#
# Coordination Sequence:
#
# PCOD9439286 Si02
#       5
#     8   8   8   8   8
#     4   9  18  35  57  80 108 143 185 231 278 330
#     4  10  22  38  56  81 114 148 182 227 279 330
#     4  11  23  40  62  86 113 147 188 233 283 338
#     4  11  23  39  58  83 117 152 189 234 284 336
#     4   9  19  36  57  80 109 146 187 233 281 330
#
# _framework density 18.888127999999998
#
# number of rings (size 3 to 8) (size 9 to 14) (size 15 to 20)
#    0.000    2.000    0.000    3.000    0.000    9.600 
#    0.000    8.000    0.000    0.000    0.000    0.000 
#    0.000    0.000    0.000    0.000    0.000    0.000 
#
# Total GULP energy -223478.173095 kJ/mol
# GULP energy per Si atom -5586.954327 kJ/mol
# Density = 1.884514 g / cm^3
# Si number density = 18.888128 Si / 1000 Ang^3
#
#
#
# Elastic Constant Matrix: (Units=GPa)
#
#
# Indices 1 2 3 4 5 6 
#
# 1 138.7930 69.8269 30.6231 0.0000 0.0000 0.0000
# 2 69.8269 112.9425 24.7165 0.0000 0.0000 0.0000
# 3 30.6231 24.7165 25.5251 0.0000 0.0000 0.0000
# 4 0.0000 0.0000 0.0000 32.0862 0.0000 0.0000
# 5 0.0000 0.0000 0.0000 0.0000 21.7031 0.0000
# 6 0.0000 0.0000 0.0000 0.0000 0.0000 -10.4379
#
#
#
# Elastic Compliance Matrix: (Units=1/GPa)
#
#
# Indices 1 2 3 4 5 6 
#
# 1 0.011916 -0.005378 -0.009088 0.000000 0.000000 0.000000
# 2 -0.005378 0.013662 -0.006777 0.000000 0.000000 0.000000
# 3 -0.009088 -0.006777 0.056643 0.000000 0.000000 0.000000
# 4 0.000000 0.000000 0.000000 0.031166 0.000000 0.000000
# 5 0.000000 0.000000 0.000000 0.000000 0.046076 0.000000
# 6 0.000000 0.000000 0.000000 0.000000 0.000000 -0.095804
#
#
# Mechanical properties :
#
#
# Convention : Reuss Voigt Hill
#
# Bulk Modulus (GPa) = 25.16718 58.62149 41.89434
# Shear Modulus (GPa) = 41.87944 18.80987 30.34466
#
# Velocity S-wave (km/s) = 4.71386 3.15914 4.01252
# Velocity P-wave (km/s) = 6.55596 6.66412 6.61026
#
# Compressibility (1/GPa) = 0.03973429
#
# Stress axis : x y z
#
# Youngs Moduli (GPa) = 83.92134 73.19443 17.65453
#
# Poissons Ratio (x) = 0.39365 0.16044
# Poissons Ratio (y) = 0.45135 0.11965
# Poissons Ratio (z) = 0.76268 0.49604
#
# Static dielectric constant tensor:
#      x y z
#    x 1.637420 0.000000 0.000000 
#    y 0.000000 1.619230 0.000000 
#    z 0.000000 0.000000 1.645810 
# 
# From -- ./inp_files/2612.got.cif
#   From: 2010.05.17/outbox.cif.g08.bks.cpg/sg57_2_cif.got.tgz:2612.got - 2010.06.03 13:58:18.
