data_PCOD9439024
_publ_section_title
;
Structure prediction by ZEFSAII (Michael W. Deem and Ramdas Pophale) SiO2 
 PCOD9439024
Probable space group: P B C M
;
_chemical_formula_sum "Si O2"
_cell_formula_units_Z 40
_cell_length_a 5.693094
_cell_length_b 15.323409
_cell_length_c 21.199458
_cell_angle_alpha 90.000000
_cell_angle_beta 90.000000
_cell_angle_gamma 90.000000
_cell_volume 1849.390003
_symmetry_space_group_name_H-M "P B C M"
_symmetry_group_IT_number 57
_symmetry_cell_setting 'orthorhombic'
loop_
_space_group_symop_operation_xyz
x,y,z
-x,-y,1/2+z
x,1/2-y,-z
-x,1/2+y,1/2-z
-x,-y,-z
x,y,1/2-z
-x,1/2+y,z
x,1/2-y,1/2+z
loop_
_atom_site_type_symbol
_atom_site_label
_atom_site_fract_x
_atom_site_fract_y
_atom_site_fract_z
Si Si1 0.688601 0.034537 0.250000
Si Si2 0.189012 0.931601 0.250000
Si Si3 0.837913 0.415668 0.504904
Si Si4 0.588302 0.362839 0.876588
Si Si5 0.800161 0.721419 0.062052
Si Si6 0.173588 0.827934 0.379892
O O1 0.443915 0.979325 0.250000
O O2 0.943761 0.986967 0.250000
O O3 0.668819 0.092187 0.186897
O O4 0.184194 0.874152 0.313290
O O5 0.999252 0.334841 0.527763
O O6 0.000000 0.500000 0.500000
O O7 0.657819 0.420386 0.562550
O O8 0.737155 0.389228 0.436844
O O9 0.315737 0.342892 0.887559
O O10 0.693405 0.264585 0.878772
O O11 0.907295 0.802010 0.100340
O O12 0.648689 0.750000 0.000000
#
# Coordination Sequence:
#
# PCOD9439024 Si02
#       6
#     4   4   8   8   8   8
#     4  12  31  45  72  98 144 180 236 290 361 406
#     4  12  29  51  66 106 140 182 232 300 349 416
#     4  10  21  39  66 102 138 177 225 291 346 404
#     4  11  23  43  68  99 134 190 230 287 344 426
#     4   9  20  38  65  99 130 177 231 281 336 418
#     4  10  23  42  71  94 141 180 238 277 352 419
#
# _framework density 21.628753
#
# number of rings (size 3 to 8) (size 9 to 14) (size 15 to 20)
#    0.000    1.600    0.000    4.800   11.200    1.600 
#    0.000    0.000    0.000    0.000    0.000    0.000 
#    0.000    0.000    0.000    0.000    0.000    0.000 
#
# Total GULP energy -223129.822713 kJ/mol
# GULP energy per Si atom -5578.245568 kJ/mol
# Density = 2.157953 g / cm^3
# Si number density = 21.628753 Si / 1000 Ang^3
#
#
#
# Elastic Constant Matrix: (Units=GPa)
#
#
# Indices 1 2 3 4 5 6 
#
# 1 53.0536 17.2444 20.0022 0.0000 0.0000 0.0000
# 2 17.2444 89.3540 50.3016 0.0000 0.0000 0.0000
# 3 20.0022 50.3016 174.3089 0.0000 0.0000 0.0000
# 4 0.0000 0.0000 0.0000 41.0851 0.0000 0.0000
# 5 0.0000 0.0000 0.0000 0.0000 15.7985 0.0000
# 6 0.0000 0.0000 0.0000 0.0000 0.0000 34.8473
#
#
#
# Elastic Compliance Matrix: (Units=1/GPa)
#
#
# Indices 1 2 3 4 5 6 
#
# 1 0.020408 -0.003128 -0.001439 0.000000 0.000000 0.000000
# 2 -0.003128 0.013842 -0.003635 0.000000 0.000000 0.000000
# 3 -0.001439 -0.003635 0.006951 0.000000 0.000000 0.000000
# 4 0.000000 0.000000 0.000000 0.024340 0.000000 0.000000
# 5 0.000000 0.000000 0.000000 0.000000 0.063297 0.000000
# 6 0.000000 0.000000 0.000000 0.000000 0.000000 0.028697
#
#
# Mechanical properties :
#
#
# Convention : Reuss Voigt Hill
#
# Bulk Modulus (GPa) = 40.33022 54.64587 47.48804
# Shear Modulus (GPa) = 27.44153 33.62408 30.53281
#
# Velocity S-wave (km/s) = 3.56582 3.94712 3.76130
# Velocity P-wave (km/s) = 5.96996 6.78920 6.39272
#
# Compressibility (1/GPa) = 0.02479531
#
# Stress axis : x y z
#
# Youngs Moduli (GPa) = 48.99971 72.24518 143.86050
#
# Poissons Ratio (x) = 0.22602 0.20703
# Poissons Ratio (y) = 0.15329 0.52299
# Poissons Ratio (z) = 0.07051 0.26264
#
# Static dielectric constant tensor:
#      x y z
#    x 1.948940 0.000000 0.000000 
#    y 0.000000 1.796160 0.000000 
#    z 0.000000 0.000000 1.813280 
# 
# From -- ./inp_files/20024.got.cif
#   From: 2010.05.17/outbox.cif.g08.bks.cpg/sg57_11_cif.got.tgz:20024.got - 2010.06.03 13:58:18.
