data_PCOD9439824
_publ_section_title
;
Structure prediction by ZEFSAII (Michael W. Deem and Ramdas Pophale) SiO2 
 PCOD9439824
Probable space group: P B C M
;
_chemical_formula_sum "Si O2"
_cell_formula_units_Z 64
_cell_length_a 8.620522
_cell_length_b 12.236934
_cell_length_c 28.899207
_cell_angle_alpha 90.000000
_cell_angle_beta 90.000000
_cell_angle_gamma 90.000000
_cell_volume 3048.541476
_symmetry_space_group_name_H-M "P B C M"
_symmetry_group_IT_number 57
_symmetry_cell_setting 'orthorhombic'
loop_
_space_group_symop_operation_xyz
x,y,z
-x,-y,1/2+z
x,1/2-y,-z
-x,1/2+y,1/2-z
-x,-y,-z
x,y,1/2-z
-x,1/2+y,z
x,1/2-y,1/2+z
loop_
_atom_site_type_symbol
_atom_site_label
_atom_site_fract_x
_atom_site_fract_y
_atom_site_fract_z
Si Si1 0.933551 0.299043 0.571790
Si Si2 0.146239 0.033370 0.196449
Si Si3 0.435905 0.494992 0.551463
Si Si4 0.612433 0.604806 0.867135
Si Si5 0.736560 0.835821 0.890027
Si Si6 0.116034 0.589940 0.979675
Si Si7 0.332402 0.677435 0.698268
Si Si8 0.803891 0.104031 0.164981
O O1 0.844993 0.348154 0.527578
O O2 0.959617 0.173755 0.556742
O O3 0.839334 0.331109 0.617150
O O4 0.104007 0.347257 0.581260
O O5 0.182156 0.063283 0.250000
O O6 0.247521 0.094475 0.157208
O O7 0.968487 0.065478 0.185997
O O8 0.186588 0.904845 0.191179
O O9 0.500000 0.500000 0.500000
O O10 0.547638 0.563439 0.584081
O O11 0.402479 0.380525 0.577823
O O12 0.266067 0.547052 0.546291
O O13 0.717350 0.710650 0.875586
O O14 0.465902 0.644372 0.837194
O O15 0.701996 0.503423 0.844100
O O16 0.000000 0.500000 0.000000
O O17 0.391328 0.656342 0.750000
O O18 0.281796 0.802950 0.694210
#
# Coordination Sequence:
#
# PCOD9439824 Si02
#       8
#     8   8   8   8   8   8   8   8
#     4  10  24  39  70  96 131 176 234 295 344 410
#     4  10  24  47  74 103 139 182 236 301 364 429
#     4  12  26  43  67  96 144 184 232 291 355 421
#     4  12  27  45  70 103 148 189 240 287 370 444
#     4  11  25  44  69 101 137 185 232 295 357 430
#     4  11  23  42  65  94 129 178 233 286 347 410
#     4  11  25  46  71 102 143 182 232 300 363 438
#     4  11  25  45  73 104 139 186 240 294 360 436
#
# _framework density 20.993645999999998
#
# number of rings (size 3 to 8) (size 9 to 14) (size 15 to 20)
#    0.000    1.000    2.500    2.625    7.000    4.000 
#    0.000    0.000    0.000    0.000    0.000    0.000 
#    0.000    0.000    0.000    0.000    0.000    0.000 
#
# Total GULP energy -357470.885892 kJ/mol
# GULP energy per Si atom -5585.482592 kJ/mol
# Density = 2.094586 g / cm^3
# Si number density = 20.993646 Si / 1000 Ang^3
#
#
#
# Elastic Constant Matrix: (Units=GPa)
#
#
# Indices 1 2 3 4 5 6 
#
# 1 31.9715 14.8905 13.4279 0.0000 0.0000 0.0000
# 2 14.8905 113.8623 35.6778 0.0000 0.0000 0.0000
# 3 13.4279 35.6778 98.8664 0.0000 0.0000 0.0000
# 4 0.0000 0.0000 0.0000 21.0791 0.0000 0.0000
# 5 0.0000 0.0000 0.0000 0.0000 31.3644 0.0000
# 6 0.0000 0.0000 0.0000 0.0000 0.0000 31.1036
#
#
#
# Elastic Compliance Matrix: (Units=1/GPa)
#
#
# Indices 1 2 3 4 5 6 
#
# 1 0.034307 -0.003412 -0.003428 0.000000 0.000000 0.000000
# 2 -0.003412 0.010242 -0.003232 0.000000 0.000000 0.000000
# 3 -0.003428 -0.003232 0.011747 0.000000 0.000000 0.000000
# 4 0.000000 0.000000 0.000000 0.047440 0.000000 0.000000
# 5 0.000000 0.000000 0.000000 0.000000 0.031883 0.000000
# 6 0.000000 0.000000 0.000000 0.000000 0.000000 0.032151
#
#
# Mechanical properties :
#
#
# Convention : Reuss Voigt Hill
#
# Bulk Modulus (GPa) = 27.66288 41.41029 34.53658
# Shear Modulus (GPa) = 25.00435 28.75636 26.88036
#
# Velocity S-wave (km/s) = 3.45489 3.70505 3.58216
# Velocity P-wave (km/s) = 5.39634 6.17018 5.79619
#
# Compressibility (1/GPa) = 0.03614953
#
# Stress axis : x y z
#
# Youngs Moduli (GPa) = 29.14864 97.64053 85.13001
#
# Poissons Ratio (x) = 0.33319 0.29183
# Poissons Ratio (y) = 0.09947 0.27518
# Poissons Ratio (z) = 0.09992 0.31562
#
# Static dielectric constant tensor:
#      x y z
#    x 1.483160 0.000000 0.000000 
#    y 0.000000 1.813160 0.000000 
#    z 0.000000 0.000000 1.751910 
# 
# From -- ./inp_files/29620.got.cif
#   From: 2010.05.17/outbox.cif.g08.bks.cpg/sg57_15_cif.got.tgz:29620.got - 2010.06.03 13:58:18.
