data_PCOD9439647
_publ_section_title
;
Structure prediction by ZEFSAII (Michael W. Deem and Ramdas Pophale) SiO2 
 PCOD9439647
Probable space group: P B C M
;
_chemical_formula_sum "Si O2"
_cell_formula_units_Z 28
_cell_length_a 5.036472
_cell_length_b 11.010853
_cell_length_c 18.556671
_cell_angle_alpha 90.000000
_cell_angle_beta 90.000000
_cell_angle_gamma 90.000000
_cell_volume 1029.076016
_symmetry_space_group_name_H-M "P B C M"
_symmetry_group_IT_number 57
_symmetry_cell_setting 'orthorhombic'
loop_
_space_group_symop_operation_xyz
x,y,z
-x,-y,1/2+z
x,1/2-y,-z
-x,1/2+y,1/2-z
-x,-y,-z
x,y,1/2-z
-x,1/2+y,z
x,1/2-y,1/2+z
loop_
_atom_site_type_symbol
_atom_site_label
_atom_site_fract_x
_atom_site_fract_y
_atom_site_fract_z
Si Si1 0.033360 0.652336 0.063377
Si Si2 0.783235 0.833192 0.329780
Si Si3 0.446757 0.486576 0.602453
Si Si4 0.805769 0.501870 0.250000
O O1 0.951076 0.724774 0.136542
O O2 0.811948 0.546721 0.057105
O O3 0.322152 0.597934 0.072503
O O4 0.017643 0.750000 0.000000
O O5 0.663602 0.805852 0.250000
O O6 0.565680 0.878056 0.387169
O O7 0.993741 0.939962 0.311679
O O8 0.395162 0.455926 0.686077
#
# Coordination Sequence:
#
# PCOD9439647 Si02
#       4
#     8   8   8   4
#     4  12  29  46  72 109 151 200 237 293 375 440
#     4  10  25  44  72 106 141 183 253 303 363 419
#     4  12  25  47  71 105 146 185 249 301 364 428
#     4  10  22  46  68 110 126 192 236 316 360 404
#
# _framework density 27.208877000000001
#
# number of rings (size 3 to 8) (size 9 to 14) (size 15 to 20)
#    0.857    0.000    4.286    0.857    8.000    2.286 
#    0.000    0.000    0.000    0.000    0.000    0.000 
#    0.000    0.000    0.000    0.000    0.000    0.000 
#
# Total GULP energy -155909.956811 kJ/mol
# GULP energy per Si atom -5568.212743 kJ/mol
# Density = 2.714695 g / cm^3
# Si number density = 27.208877 Si / 1000 Ang^3
#
#
#
# Elastic Constant Matrix: (Units=GPa)
#
#
# Indices 1 2 3 4 5 6 
#
# 1 154.7348 40.4127 38.5112 0.0000 0.0000 0.0000
# 2 40.4127 58.8293 35.1154 0.0000 0.0000 0.0000
# 3 38.5112 35.1154 120.9106 0.0000 0.0000 0.0000
# 4 0.0000 0.0000 0.0000 13.4984 0.0000 0.0000
# 5 0.0000 0.0000 0.0000 0.0000 41.1404 0.0000
# 6 0.0000 0.0000 0.0000 0.0000 0.0000 18.9222
#
#
#
# Elastic Compliance Matrix: (Units=1/GPa)
#
#
# Indices 1 2 3 4 5 6 
#
# 1 0.008006 -0.004812 -0.001153 0.000000 0.000000 0.000000
# 2 -0.004812 0.023455 -0.005279 0.000000 0.000000 0.000000
# 3 -0.001153 -0.005279 0.010171 0.000000 0.000000 0.000000
# 4 0.000000 0.000000 0.000000 0.074083 0.000000 0.000000
# 5 0.000000 0.000000 0.000000 0.000000 0.024307 0.000000
# 6 0.000000 0.000000 0.000000 0.000000 0.000000 0.052848
#
#
# Mechanical properties :
#
#
# Convention : Reuss Voigt Hill
#
# Bulk Modulus (GPa) = 52.23375 62.50590 57.36983
# Shear Modulus (GPa) = 22.54898 29.40789 25.97844
#
# Velocity S-wave (km/s) = 2.88190 3.29115 3.09330
# Velocity P-wave (km/s) = 5.50571 6.12084 5.82140
#
# Compressibility (1/GPa) = 0.01914471
#
# Stress axis : x y z
#
# Youngs Moduli (GPa) = 124.90203 42.63471 98.31962
#
# Poissons Ratio (x) = 0.20515 0.11332
# Poissons Ratio (y) = 0.60102 0.51906
# Poissons Ratio (z) = 0.14396 0.22508
#
# Static dielectric constant tensor:
#      x y z
#    x 2.145770 0.000000 0.000000 
#    y 0.000000 2.338530 0.000000 
#    z 0.000000 0.000000 2.187970 
# 
# From -- ./inp_files/19794.got.cif
#   From: 2010.05.17/outbox.cif.g08.bks.cpg/sg57_10_cif.got.tgz:19794.got - 2010.06.03 13:58:18.
