data_PCOD9439715
_publ_section_title
;
Structure prediction by ZEFSAII (Michael W. Deem and Ramdas Pophale) SiO2 
 PCOD9439715
Probable space group: P B C M
;
_chemical_formula_sum "Si O2"
_cell_formula_units_Z 48
_cell_length_a 14.647105
_cell_length_b 9.481106
_cell_length_c 15.899659
_cell_angle_alpha 90.000000
_cell_angle_beta 90.000000
_cell_angle_gamma 90.000000
_cell_volume 2207.997651
_symmetry_space_group_name_H-M "P B C M"
_symmetry_group_IT_number 57
_symmetry_cell_setting 'orthorhombic'
loop_
_space_group_symop_operation_xyz
x,y,z
-x,-y,1/2+z
x,1/2-y,-z
-x,1/2+y,1/2-z
-x,-y,-z
x,y,1/2-z
-x,1/2+y,z
x,1/2-y,1/2+z
loop_
_atom_site_type_symbol
_atom_site_label
_atom_site_fract_x
_atom_site_fract_y
_atom_site_fract_z
Si Si1 0.700858 0.886945 0.450216
Si Si2 0.042386 0.033702 0.351448
Si Si3 0.115832 0.163136 0.648527
Si Si4 0.792545 0.128209 0.935168
Si Si5 0.602613 0.303190 0.403797
Si Si6 0.534180 0.018636 0.347296
O O1 0.666714 0.750000 0.500000
O O2 0.785236 0.839613 0.392109
O O3 0.621228 0.954405 0.395150
O O4 0.743206 0.003041 0.512917
O O5 0.043115 0.029455 0.250000
O O6 0.123163 0.934883 0.385172
O O7 0.945558 0.969809 0.379224
O O8 0.063517 0.193652 0.377008
O O9 0.123258 0.161668 0.750000
O O10 0.709202 0.190223 0.879157
O O11 0.821107 0.250000 0.000000
O O12 0.600850 0.250000 0.500000
O O13 0.554637 0.453174 0.391463
O O14 0.544915 0.186456 0.354554
O O15 0.532957 0.978241 0.250000
#
# Coordination Sequence:
#
# PCOD9439715 Si02
#       6
#     8   8   8   8   8   8
#     4  12  24  43  66  94 129 170 213 263 318 375
#     4  10  23  42  64  92 128 169 210 262 319 376
#     4  10  23  42  64  94 129 168 213 261 319 378
#     4  11  24  44  64  94 125 167 215 256 317 378
#     4  11  24  45  67  94 130 170 212 264 320 381
#     4  12  26  43  67  98 129 168 215 264 320 382
#
# _framework density 21.739153000000002
#
# number of rings (size 3 to 8) (size 9 to 14) (size 15 to 20)
#    0.000    1.000    5.000    2.000    4.667    2.667 
#    0.000    0.000    0.000    0.000    0.000    0.000 
#    0.000    0.000    0.000    0.000    0.000    0.000 
#
# Total GULP energy -268653.818920 kJ/mol
# GULP energy per Si atom -5596.954561 kJ/mol
# Density = 2.168967 g / cm^3
# Si number density = 21.739153 Si / 1000 Ang^3
#
#
#
# Elastic Constant Matrix: (Units=GPa)
#
#
# Indices 1 2 3 4 5 6 
#
# 1 57.8279 -11.0999 6.3745 0.0000 0.0000 0.0000
# 2 -11.0999 78.4856 1.4980 0.0000 0.0000 0.0000
# 3 6.3745 1.4980 25.5240 0.0000 0.0000 0.0000
# 4 0.0000 0.0000 0.0000 28.4893 0.0000 0.0000
# 5 0.0000 0.0000 0.0000 0.0000 45.4181 0.0000
# 6 0.0000 0.0000 0.0000 0.0000 0.0000 38.3062
#
#
#
# Elastic Compliance Matrix: (Units=1/GPa)
#
#
# Indices 1 2 3 4 5 6 
#
# 1 0.018330 0.002683 -0.004735 0.000000 0.000000 0.000000
# 2 0.002683 0.013148 -0.001442 0.000000 0.000000 0.000000
# 3 -0.004735 -0.001442 0.040446 0.000000 0.000000 0.000000
# 4 0.000000 0.000000 0.000000 0.035101 0.000000 0.000000
# 5 0.000000 0.000000 0.000000 0.000000 0.022018 0.000000
# 6 0.000000 0.000000 0.000000 0.000000 0.000000 0.026105
#
#
# Mechanical properties :
#
#
# Convention : Reuss Voigt Hill
#
# Bulk Modulus (GPa) = 15.39995 17.26475 16.33235
# Shear Modulus (GPa) = 27.20627 33.44703 30.32665
#
# Velocity S-wave (km/s) = 3.54147 3.92671 3.73905
# Velocity P-wave (km/s) = 4.88079 5.34020 5.11565
#
# Compressibility (1/GPa) = 0.06493529
#
# Stress axis : x y z
#
# Youngs Moduli (GPa) = 54.55656 76.05656 24.72435
#
# Poissons Ratio (x) = -0.20403 0.11707
# Poissons Ratio (y) = -0.14636 0.03564
# Poissons Ratio (z) = 0.25834 0.10965
#
# Static dielectric constant tensor:
#      x y z
#    x 1.760230 0.000000 0.000000 
#    y 0.000000 1.820470 0.000000 
#    z 0.000000 0.000000 1.770540 
# 
# From -- ./inp_files/22413.got.cif
#   From: 2010.05.17/outbox.cif.g08.bks.cpg/sg57_12_cif.got.tgz:22413.got - 2010.06.03 13:58:18.
