data_PCOD9439165
_publ_section_title
;
Structure prediction by ZEFSAII (Michael W. Deem and Ramdas Pophale) SiO2 
 PCOD9439165
Probable space group: P B C M
;
_chemical_formula_sum "Si O2"
_cell_formula_units_Z 48
_cell_length_a 9.937859
_cell_length_b 29.653890
_cell_length_c 8.817295
_cell_angle_alpha 90.000000
_cell_angle_beta 90.000000
_cell_angle_gamma 90.000000
_cell_volume 2598.423133
_symmetry_space_group_name_H-M "P B C M"
_symmetry_group_IT_number 57
_symmetry_cell_setting 'orthorhombic'
loop_
_space_group_symop_operation_xyz
x,y,z
-x,-y,1/2+z
x,1/2-y,-z
-x,1/2+y,1/2-z
-x,-y,-z
x,y,1/2-z
-x,1/2+y,z
x,1/2-y,1/2+z
loop_
_atom_site_type_symbol
_atom_site_label
_atom_site_fract_x
_atom_site_fract_y
_atom_site_fract_z
Si Si1 0.972860 0.625487 0.069069
Si Si2 0.469586 0.799322 0.432195
Si Si3 0.272450 0.880811 0.067356
Si Si4 0.891748 0.533232 0.927089
Si Si5 0.624260 0.473964 0.572919
Si Si6 0.220201 0.299463 0.432284
O O1 0.979887 0.627777 0.250000
O O2 0.123668 0.624086 0.001930
O O3 0.899324 0.579835 0.016143
O O4 0.886405 0.666370 0.002288
O O5 0.439552 0.750000 0.500000
O O6 0.463601 0.795619 0.250000
O O7 0.366260 0.838441 0.478540
O O8 0.624407 0.811573 0.471740
O O9 0.263612 0.881665 0.250000
O O10 0.337722 0.927462 0.010069
O O11 0.923164 0.541498 0.750000
O O12 0.750536 0.507776 0.936606
O O13 0.000000 0.500000 0.000000
O O14 0.500000 0.500000 0.500000
O O15 0.598830 0.464303 0.750000
O O16 0.196725 0.250000 0.500000
O O17 0.208672 0.299002 0.250000
#
# Coordination Sequence:
#
# PCOD9439165 Si02
#       6
#     8   8   8   8   8   8
#     4  12  25  40  61  92 124 163 207 251 306 367
#     4   9  21  40  64  91 120 156 198 246 303 361
#     4  11  23  41  63  90 124 162 205 255 307 362
#     4  11  23  41  64  89 122 162 205 251 303 362
#     4  11  25  42  62  91 124 161 205 252 305 366
#     4  10  21  41  65  92 123 157 200 252 305 365
#
# _framework density 18.472740999999999
#
# number of rings (size 3 to 8) (size 9 to 14) (size 15 to 20)
#    0.000    1.333    1.667    3.500    2.333    4.667 
#    0.000    1.667    0.000    0.000    0.000    0.000 
#    0.000    0.000    0.000    0.000    0.000    0.000 
#
# Total GULP energy -268315.945156 kJ/mol
# GULP energy per Si atom -5589.915524 kJ/mol
# Density = 1.843070 g / cm^3
# Si number density = 18.472741 Si / 1000 Ang^3
#
#
#
# Elastic Constant Matrix: (Units=GPa)
#
#
# Indices 1 2 3 4 5 6 
#
# 1 87.1461 73.9057 62.4989 0.0000 0.0000 0.0000
# 2 73.9057 141.6397 63.5749 0.0000 0.0000 0.0000
# 3 62.4989 63.5749 120.6260 0.0000 0.0000 0.0000
# 4 0.0000 0.0000 0.0000 39.4065 0.0000 0.0000
# 5 0.0000 0.0000 0.0000 0.0000 23.0329 0.0000
# 6 0.0000 0.0000 0.0000 0.0000 0.0000 39.3524
#
#
#
# Elastic Compliance Matrix: (Units=1/GPa)
#
#
# Indices 1 2 3 4 5 6 
#
# 1 0.025482 -0.009654 -0.008115 0.000000 0.000000 0.000000
# 2 -0.009654 0.012905 -0.001800 0.000000 0.000000 0.000000
# 3 -0.008115 -0.001800 0.013443 0.000000 0.000000 0.000000
# 4 0.000000 0.000000 0.000000 0.025377 0.000000 0.000000
# 5 0.000000 0.000000 0.000000 0.000000 0.043416 0.000000
# 6 0.000000 0.000000 0.000000 0.000000 0.000000 0.025411
#
#
# Mechanical properties :
#
#
# Convention : Reuss Voigt Hill
#
# Bulk Modulus (GPa) = 78.78034 83.26342 81.02188
# Shear Modulus (GPa) = 26.39896 30.32050 28.35973
#
# Velocity S-wave (km/s) = 3.78441 4.05577 3.92244
# Velocity P-wave (km/s) = 7.86353 8.19170 8.02929
#
# Compressibility (1/GPa) = 0.01269352
#
# Stress axis : x y z
#
# Youngs Moduli (GPa) = 39.24398 77.48835 74.38802
#
# Poissons Ratio (x) = 0.74805 0.60363
# Poissons Ratio (y) = 0.37885 0.13388
# Poissons Ratio (z) = 0.31845 0.13946
#
# Static dielectric constant tensor:
#      x y z
#    x 1.610740 0.000000 0.000000 
#    y 0.000000 1.608950 0.000000 
#    z 0.000000 0.000000 1.621430 
# 
# From -- ./inp_files/1995.got.cif
#   From: 2010.05.17/outbox.cif.g08.bks.cpg/sg57_1_cif.got.tgz:1995.got - 2010.06.03 13:58:18.
