data_PCOD9439725
_publ_section_title
;
Structure prediction by ZEFSAII (Michael W. Deem and Ramdas Pophale) SiO2 
 PCOD9439725
Probable space group: P B C M
;
_chemical_formula_sum "Si O2"
_cell_formula_units_Z 64
_cell_length_a 10.589906
_cell_length_b 18.206168
_cell_length_c 14.184769
_cell_angle_alpha 90.000000
_cell_angle_beta 90.000000
_cell_angle_gamma 90.000000
_cell_volume 2734.846269
_symmetry_space_group_name_H-M "P B C M"
_symmetry_group_IT_number 57
_symmetry_cell_setting 'orthorhombic'
loop_
_space_group_symop_operation_xyz
x,y,z
-x,-y,1/2+z
x,1/2-y,-z
-x,1/2+y,1/2-z
-x,-y,-z
x,y,1/2-z
-x,1/2+y,z
x,1/2-y,1/2+z
loop_
_atom_site_type_symbol
_atom_site_label
_atom_site_fract_x
_atom_site_fract_y
_atom_site_fract_z
Si Si1 0.591861 0.095712 0.946462
Si Si2 0.477031 0.454670 0.858022
Si Si3 0.147736 0.540285 0.994638
Si Si4 0.694600 0.830337 0.859948
Si Si5 0.913050 0.931915 0.362589
Si Si6 0.164814 0.836599 0.646944
Si Si7 0.059055 0.258875 0.101743
Si Si8 0.574120 0.246300 0.362556
O O1 0.572324 0.178851 0.919746
O O2 0.521269 0.041343 0.874540
O O3 0.555483 0.075558 0.053664
O O4 0.735819 0.072789 0.938013
O O5 0.514432 0.435401 0.750000
O O6 0.339036 0.416242 0.872783
O O7 0.182424 0.470210 0.061865
O O8 0.119329 0.603026 0.072604
O O9 0.038359 0.535659 0.915473
O O10 0.719841 0.819150 0.750000
O O11 0.814618 0.791170 0.904612
O O12 0.560097 0.792630 0.881392
O O13 0.902741 0.949061 0.250000
O O14 0.912356 0.843121 0.371746
O O15 0.187657 0.871361 0.750000
O O16 0.296476 0.798064 0.617665
O O17 0.053351 0.777921 0.658723
O O18 0.999349 0.250000 0.000000
O O19 0.577882 0.260910 0.250000
#
# Coordination Sequence:
#
# PCOD9439725 Si02
#       8
#     8   8   8   8   8   8   8   8
#     4  11  24  40  68  94 129 174 220 279 339 401
#     4  10  24  43  62  93 131 171 218 272 335 406
#     4  11  25  43  66 101 130 175 233 273 337 412
#     4  10  23  42  65  95 131 173 220 272 334 400
#     4  11  25  45  66  95 137 177 220 282 341 403
#     4  11  23  44  70 100 137 178 223 282 341 401
#     4  12  25  41  68 100 134 174 226 279 332 405
#     4  10  23  42  69 103 135 173 227 282 340 407
#
# _framework density 23.401681
#
# number of rings (size 3 to 8) (size 9 to 14) (size 15 to 20)
#    0.000    1.250    1.250    3.375    3.500    6.000 
#    0.000    1.250    0.000    0.750    0.000    0.000 
#    0.000    0.000    0.000    0.000    0.000    0.000 
#
# Total GULP energy -357153.974603 kJ/mol
# GULP energy per Si atom -5580.530853 kJ/mol
# Density = 2.334842 g / cm^3
# Si number density = 23.401681 Si / 1000 Ang^3
#
#
#
# Elastic Constant Matrix: (Units=GPa)
#
#
# Indices 1 2 3 4 5 6 
#
# 1 43.2153 -3.5899 23.3133 0.0000 0.0000 0.0000
# 2 -3.5899 102.3598 25.8157 0.0000 0.0000 0.0000
# 3 23.3133 25.8157 117.0779 0.0000 0.0000 0.0000
# 4 0.0000 0.0000 0.0000 26.6025 0.0000 0.0000
# 5 0.0000 0.0000 0.0000 0.0000 28.1696 0.0000
# 6 0.0000 0.0000 0.0000 0.0000 0.0000 21.9073
#
#
#
# Elastic Compliance Matrix: (Units=1/GPa)
#
#
# Indices 1 2 3 4 5 6 
#
# 1 0.026466 0.002390 -0.005797 0.000000 0.000000 0.000000
# 2 0.002390 0.010561 -0.002805 0.000000 0.000000 0.000000
# 3 -0.005797 -0.002805 0.010314 0.000000 0.000000 0.000000
# 4 0.000000 0.000000 0.000000 0.037590 0.000000 0.000000
# 5 0.000000 0.000000 0.000000 0.000000 0.035499 0.000000
# 6 0.000000 0.000000 0.000000 0.000000 0.000000 0.045647
#
#
# Mechanical properties :
#
#
# Convention : Reuss Voigt Hill
#
# Bulk Modulus (GPa) = 28.63876 39.30347 33.97111
# Shear Modulus (GPa) = 26.29651 29.81014 28.05332
#
# Velocity S-wave (km/s) = 3.35580 3.57297 3.46609
# Velocity P-wave (km/s) = 5.22300 5.81834 5.52869
#
# Compressibility (1/GPa) = 0.03491772
#
# Stress axis : x y z
#
# Youngs Moduli (GPa) = 37.78452 94.69136 96.95472
#
# Poissons Ratio (x) = -0.22634 0.56206
# Poissons Ratio (y) = -0.09032 0.27192
# Poissons Ratio (z) = 0.21904 0.26557
#
# Static dielectric constant tensor:
#      x y z
#    x 1.922070 0.000000 0.000000 
#    y 0.000000 1.986510 0.000000 
#    z 0.000000 0.000000 1.880540 
# 
# From -- ./inp_files/17950.got.cif
#   From: 2010.05.17/outbox.cif.g08.bks.cpg/sg57_9_cif.got.tgz:17950.got - 2010.06.03 13:58:18.
