data_PCOD9439030
_publ_section_title
;
Structure prediction by ZEFSAII (Michael W. Deem and Ramdas Pophale) SiO2 
 PCOD9439030
Probable space group: P B C M
;
_chemical_formula_sum "Si O2"
_cell_formula_units_Z 60
_cell_length_a 12.075972
_cell_length_b 8.914070
_cell_length_c 22.329531
_cell_angle_alpha 90.000000
_cell_angle_beta 90.000000
_cell_angle_gamma 90.000000
_cell_volume 2403.686028
_symmetry_space_group_name_H-M "P B C M"
_symmetry_group_IT_number 57
_symmetry_cell_setting 'orthorhombic'
loop_
_space_group_symop_operation_xyz
x,y,z
-x,-y,1/2+z
x,1/2-y,-z
-x,1/2+y,1/2-z
-x,-y,-z
x,y,1/2-z
-x,1/2+y,z
x,1/2-y,1/2+z
loop_
_atom_site_type_symbol
_atom_site_label
_atom_site_fract_x
_atom_site_fract_y
_atom_site_fract_z
Si Si1 0.561459 0.939976 0.821911
Si Si2 0.174579 0.604997 0.182498
Si Si3 0.667129 0.487612 0.519965
Si Si4 0.102474 0.134180 0.944731
Si Si5 0.049697 0.079756 0.124014
Si Si6 0.739612 0.383452 0.385503
Si Si7 0.493284 0.750000 0.500000
Si Si8 0.357455 0.121577 0.679302
O O1 0.566436 0.935260 0.750000
O O2 0.609692 0.783095 0.847180
O O3 0.635023 0.076101 0.845426
O O4 0.438532 0.987560 0.840304
O O5 0.201040 0.660107 0.250000
O O6 0.216535 0.718719 0.131065
O O7 0.236342 0.446824 0.174907
O O8 0.044273 0.583983 0.174093
O O9 0.778877 0.553685 0.548298
O O10 0.708280 0.437119 0.452906
O O11 0.577564 0.622204 0.522069
O O12 0.593965 0.344222 0.540579
O O13 0.084262 0.252429 0.891541
O O14 0.090165 0.250000 0.000000
O O15 0.011031 0.006681 0.931602
O O16 0.159552 0.987971 0.136587
O O17 0.378292 0.139258 0.750000
#
# Coordination Sequence:
#
# PCOD9439030 Si02
#       8
#     8   8   8   8   8   8   4   8
#     4  10  21  39  66  97 136 180 230 297 356 431
#     4  11  26  46  67 101 146 190 243 304 359 437
#     4  11  25  45  72 103 148 184 238 294 365 435
#     4  12  25  49  74 105 142 186 242 314 351 441
#     4  12  27  46  73 104 138 188 250 289 372 430
#     4  12  25  43  67 105 135 187 240 287 363 435
#     4  10  24  48  70 104 148 192 220 294 380 432
#     4   9  20  40  65  94 130 182 233 285 359 421
#
# _framework density 24.961662
#
# number of rings (size 3 to 8) (size 9 to 14) (size 15 to 20)
#    0.000    1.067    3.333    1.600    3.733    5.333 
#    2.400    0.000    0.000    0.000    0.000    0.000 
#    0.000    0.000    0.000    0.000    0.000    0.000 
#
# Total GULP energy -335371.275381 kJ/mol
# GULP energy per Si atom -5589.521256 kJ/mol
# Density = 2.490485 g / cm^3
# Si number density = 24.961662 Si / 1000 Ang^3
#
#
#
# Elastic Constant Matrix: (Units=GPa)
#
#
# Indices 1 2 3 4 5 6 
#
# 1 98.9545 27.6654 -0.8355 0.0000 0.0000 0.0000
# 2 27.6654 144.8873 14.8054 0.0000 0.0000 0.0000
# 3 -0.8355 14.8054 81.6314 0.0000 0.0000 0.0000
# 4 0.0000 0.0000 0.0000 31.8063 0.0000 0.0000
# 5 0.0000 0.0000 0.0000 0.0000 64.8778 0.0000
# 6 0.0000 0.0000 0.0000 0.0000 0.0000 55.6594
#
#
#
# Elastic Compliance Matrix: (Units=1/GPa)
#
#
# Indices 1 2 3 4 5 6 
#
# 1 0.010695 -0.002092 0.000489 0.000000 0.000000 0.000000
# 2 -0.002092 0.007441 -0.001371 0.000000 0.000000 0.000000
# 3 0.000489 -0.001371 0.012504 0.000000 0.000000 0.000000
# 4 0.000000 0.000000 0.000000 0.031440 0.000000 0.000000
# 5 0.000000 0.000000 0.000000 0.000000 0.015414 0.000000
# 6 0.000000 0.000000 0.000000 0.000000 0.000000 0.017966
#
#
# Mechanical properties :
#
#
# Convention : Reuss Voigt Hill
#
# Bulk Modulus (GPa) = 40.49964 45.41598 42.95781
# Shear Modulus (GPa) = 45.60409 49.39122 47.49766
#
# Velocity S-wave (km/s) = 4.27894 4.45306 4.36687
# Velocity P-wave (km/s) = 6.37749 6.68382 6.53245
#
# Compressibility (1/GPa) = 0.02469158
#
# Stress axis : x y z
#
# Youngs Moduli (GPa) = 93.50448 134.38177 79.97527
#
# Poissons Ratio (x) = 0.28113 -0.03910
# Poissons Ratio (y) = 0.19562 0.10965
# Poissons Ratio (z) = -0.04571 0.18425
#
# Static dielectric constant tensor:
#      x y z
#    x 1.986300 0.000000 0.000000 
#    y 0.000000 1.958850 0.000000 
#    z 0.000000 0.000000 2.030970 
# 
# From -- ./inp_files/28627.got.cif
#   From: 2010.05.17/outbox.cif.g08.bks.cpg/sg57_15_cif.got.tgz:28627.got - 2010.06.03 13:58:18.
