data_PCOD9439160
_publ_section_title
;
Structure prediction by ZEFSAII (Michael W. Deem and Ramdas Pophale) SiO2 
 PCOD9439160
Probable space group: P B C M
;
_chemical_formula_sum "Si O2"
_cell_formula_units_Z 32
_cell_length_a 8.835667
_cell_length_b 5.232573
_cell_length_c 34.096962
_cell_angle_alpha 90.000000
_cell_angle_beta 90.000000
_cell_angle_gamma 90.000000
_cell_volume 1576.414138
_symmetry_space_group_name_H-M "P B C M"
_symmetry_group_IT_number 57
_symmetry_cell_setting 'orthorhombic'
loop_
_space_group_symop_operation_xyz
x,y,z
-x,-y,1/2+z
x,1/2-y,-z
-x,1/2+y,1/2-z
-x,-y,-z
x,y,1/2-z
-x,1/2+y,z
x,1/2-y,1/2+z
loop_
_atom_site_type_symbol
_atom_site_label
_atom_site_fract_x
_atom_site_fract_y
_atom_site_fract_z
Si Si1 0.395072 0.750000 0.500000
Si Si2 0.596183 0.697888 0.250000
Si Si3 0.146979 0.455123 0.972499
Si Si4 0.091762 0.172294 0.116386
Si Si5 0.395646 0.386524 0.836290
O O1 0.500000 0.500000 0.500000
O O2 0.266764 0.686799 0.533503
O O3 0.543662 0.993476 0.250000
O O4 0.670201 0.638253 0.291839
O O5 0.102005 0.342932 0.930883
O O6 0.229921 0.250000 0.000000
O O7 0.000000 0.500000 0.000000
O O8 0.015024 0.437067 0.128452
O O9 0.258472 0.140472 0.133789
O O10 0.515117 0.153601 0.840587
#
# Coordination Sequence:
#
# PCOD9439160 Si02
#       5
#     4   4   8   8   8
#     4  12  26  40  60  92 118 140 196 270 318 340
#     4   8  16  34  64  88 118 162 200 230 288 382
#     4  12  23  44  67  83 114 173 218 240 299 387
#     4  12  25  40  63  90 123 159 207 257 304 357
#     4  10  21  41  64  93 124 160 201 246 303 365
#
# _framework density 20.299233999999998
#
# number of rings (size 3 to 8) (size 9 to 14) (size 15 to 20)
#    0.000    1.000    5.000    1.500    0.000    2.000 
#    0.000    1.250    0.000    0.000    0.000    0.000 
#    0.000    0.000    0.000    0.000    0.000    0.000 
#
# Total GULP energy -178184.929053 kJ/mol
# GULP energy per Si atom -5568.279033 kJ/mol
# Density = 2.025303 g / cm^3
# Si number density = 20.299234 Si / 1000 Ang^3
#
#
#
# Elastic Constant Matrix: (Units=GPa)
#
#
# Indices 1 2 3 4 5 6 
#
# 1 98.6023 17.1841 32.1020 0.0000 0.0000 0.0000
# 2 17.1841 103.6558 -4.9631 0.0000 0.0000 0.0000
# 3 32.1020 -4.9631 95.3416 0.0000 0.0000 0.0000
# 4 0.0000 0.0000 0.0000 13.9780 0.0000 0.0000
# 5 0.0000 0.0000 0.0000 0.0000 11.6891 0.0000
# 6 0.0000 0.0000 0.0000 0.0000 0.0000 41.7897
#
#
#
# Elastic Compliance Matrix: (Units=1/GPa)
#
#
# Indices 1 2 3 4 5 6 
#
# 1 0.011855 -0.002162 -0.004104 0.000000 0.000000 0.000000
# 2 -0.002162 0.010066 0.001252 0.000000 0.000000 0.000000
# 3 -0.004104 0.001252 0.011936 0.000000 0.000000 0.000000
# 4 0.000000 0.000000 0.000000 0.071541 0.000000 0.000000
# 5 0.000000 0.000000 0.000000 0.000000 0.085550 0.000000
# 6 0.000000 0.000000 0.000000 0.000000 0.000000 0.023929
#
#
# Mechanical properties :
#
#
# Convention : Reuss Voigt Hill
#
# Bulk Modulus (GPa) = 41.96748 42.91617 42.44182
# Shear Modulus (GPa) = 21.47334 30.37647 25.92490
#
# Velocity S-wave (km/s) = 3.25597 3.87257 3.57758
# Velocity P-wave (km/s) = 5.90377 6.41743 6.16595
#
# Compressibility (1/GPa) = 0.02382798
#
# Stress axis : x y z
#
# Youngs Moduli (GPa) = 84.35499 99.34798 83.78277
#
# Poissons Ratio (x) = 0.21477 0.34385
# Poissons Ratio (y) = 0.18236 -0.10488
# Poissons Ratio (z) = 0.34620 -0.12437
#
# Static dielectric constant tensor:
#      x y z
#    x 1.727930 0.000000 0.000000 
#    y 0.000000 1.999810 0.000000 
#    z 0.000000 0.000000 1.745160 
# 
# From -- ./inp_files/29338.got.cif
#   From: 2010.05.17/outbox.cif.g08.bks.cpg/sg57_15_cif.got.tgz:29338.got - 2010.06.03 13:58:18.
