data_PCOD9439162
_publ_section_title
;
Structure prediction by ZEFSAII (Michael W. Deem and Ramdas Pophale) SiO2 
 PCOD9439162
Probable space group: P B C M
;
_chemical_formula_sum "Si O2"
_cell_formula_units_Z 40
_cell_length_a 11.810791
_cell_length_b 7.888407
_cell_length_c 17.677276
_cell_angle_alpha 90.000000
_cell_angle_beta 90.000000
_cell_angle_gamma 90.000000
_cell_volume 1646.962220
_symmetry_space_group_name_H-M "P B C M"
_symmetry_group_IT_number 57
_symmetry_cell_setting 'orthorhombic'
loop_
_space_group_symop_operation_xyz
x,y,z
-x,-y,1/2+z
x,1/2-y,-z
-x,1/2+y,1/2-z
-x,-y,-z
x,y,1/2-z
-x,1/2+y,z
x,1/2-y,1/2+z
loop_
_atom_site_type_symbol
_atom_site_label
_atom_site_fract_x
_atom_site_fract_y
_atom_site_fract_z
Si Si1 0.345769 0.793201 0.087584
Si Si2 0.130271 0.942703 0.161848
Si Si3 0.078628 0.101875 0.942196
Si Si4 0.244605 0.318165 0.164577
Si Si5 0.536406 0.897469 0.837398
O O1 0.220139 0.835017 0.114651
O O2 0.412039 0.658927 0.139423
O O3 0.415183 0.964770 0.105570
O O4 0.350532 0.750000 0.000000
O O5 0.136572 0.900463 0.250000
O O6 0.008313 0.895301 0.128551
O O7 0.170770 0.140760 0.155966
O O8 0.196291 0.060198 0.900514
O O9 0.111504 0.250000 0.000000
O O10 0.000000 0.000000 0.000000
O O11 0.227079 0.381291 0.250000
O O12 0.374008 0.258240 0.157233
O O13 0.542860 0.957490 0.750000
#
# Coordination Sequence:
#
# PCOD9439162 Si02
#       5
#     8   8   8   8   8
#     4  11  22  40  64  96 131 167 218 271 324 375
#     4  10  21  41  65  87 125 170 210 259 317 383
#     4  12  23  40  62  92 125 161 206 264 318 376
#     4   9  20  40  63  88 123 168 211 251 315 383
#     4  10  21  41  66  92 129 175 216 263 322 388
#
# _framework density 24.287137000000001
#
# number of rings (size 3 to 8) (size 9 to 14) (size 15 to 20)
#    0.000    1.600    2.000    4.800    0.000    0.800 
#    7.200    0.000    0.000    0.000    0.000    0.000 
#    0.000    0.000    0.000    0.000    0.000    0.000 
#
# Total GULP energy -223552.433975 kJ/mol
# GULP energy per Si atom -5588.810849 kJ/mol
# Density = 2.423186 g / cm^3
# Si number density = 24.287137 Si / 1000 Ang^3
#
#
#
# Elastic Constant Matrix: (Units=GPa)
#
#
# Indices 1 2 3 4 5 6 
#
# 1 94.7948 -6.2470 22.3038 0.0000 0.0000 0.0000
# 2 -6.2470 34.9728 15.0762 0.0000 0.0000 0.0000
# 3 22.3038 15.0762 155.2846 0.0000 0.0000 0.0000
# 4 0.0000 0.0000 0.0000 36.9064 0.0000 0.0000
# 5 0.0000 0.0000 0.0000 0.0000 27.8637 0.0000
# 6 0.0000 0.0000 0.0000 0.0000 0.0000 28.3844
#
#
#
# Elastic Compliance Matrix: (Units=1/GPa)
#
#
# Indices 1 2 3 4 5 6 
#
# 1 0.011176 0.002806 -0.001878 0.000000 0.000000 0.000000
# 2 0.002806 0.030547 -0.003369 0.000000 0.000000 0.000000
# 3 -0.001878 -0.003369 0.007037 0.000000 0.000000 0.000000
# 4 0.000000 0.000000 0.000000 0.027096 0.000000 0.000000
# 5 0.000000 0.000000 0.000000 0.000000 0.035889 0.000000
# 6 0.000000 0.000000 0.000000 0.000000 0.000000 0.035231
#
#
# Mechanical properties :
#
#
# Convention : Reuss Voigt Hill
#
# Bulk Modulus (GPa) = 22.79047 38.59093 30.69070
# Shear Modulus (GPa) = 30.03331 35.55884 32.79607
#
# Velocity S-wave (km/s) = 3.52034 3.83051 3.67869
# Velocity P-wave (km/s) = 5.09194 5.95715 5.54146
#
# Compressibility (1/GPa) = 0.04387799
#
# Stress axis : x y z
#
# Youngs Moduli (GPa) = 89.47931 32.73642 142.11551
#
# Poissons Ratio (x) = -0.09185 0.26683
# Poissons Ratio (y) = -0.25105 0.47875
# Poissons Ratio (z) = 0.16801 0.11028
#
# Static dielectric constant tensor:
#      x y z
#    x 1.862050 0.000000 0.000000 
#    y 0.000000 2.089450 0.000000 
#    z 0.000000 0.000000 1.911240 
# 
# From -- ./inp_files/18230.got.cif
#   From: 2010.05.17/outbox.cif.g08.bks.cpg/sg57_10_cif.got.tgz:18230.got - 2010.06.03 13:58:18.
