data_PCOD9439337
_publ_section_title
;
Structure prediction by ZEFSAII (Michael W. Deem and Ramdas Pophale) SiO2 
 PCOD9439337
Probable space group: P B C M
;
_chemical_formula_sum "Si O2"
_cell_formula_units_Z 64
_cell_length_a 14.859679
_cell_length_b 25.731458
_cell_length_c 8.964614
_cell_angle_alpha 90.000000
_cell_angle_beta 90.000000
_cell_angle_gamma 90.000000
_cell_volume 3427.720621
_symmetry_space_group_name_H-M "P B C M"
_symmetry_group_IT_number 57
_symmetry_cell_setting 'orthorhombic'
loop_
_space_group_symop_operation_xyz
x,y,z
-x,-y,1/2+z
x,1/2-y,-z
-x,1/2+y,1/2-z
-x,-y,-z
x,y,1/2-z
-x,1/2+y,z
x,1/2-y,1/2+z
loop_
_atom_site_type_symbol
_atom_site_label
_atom_site_fract_x
_atom_site_fract_y
_atom_site_fract_z
Si Si1 0.513478 0.808334 0.570251
Si Si2 0.598817 0.501510 0.929362
Si Si3 0.343297 0.617920 0.428504
Si Si4 0.840674 0.388056 0.081743
Si Si5 0.864100 0.868125 0.431314
Si Si6 0.985723 0.203323 0.914892
Si Si7 0.990288 0.444911 0.926464
Si Si8 0.328597 0.108612 0.430209
O O1 0.515732 0.750000 0.500000
O O2 0.513868 0.802076 0.750000
O O3 0.425130 0.843152 0.530960
O O4 0.597378 0.846730 0.531931
O O5 0.595885 0.507993 0.750000
O O6 0.637854 0.443515 0.958821
O O7 0.500000 0.500000 0.000000
O O8 0.647036 0.551899 0.001361
O O9 0.330082 0.622692 0.250000
O O10 0.253576 0.631021 0.518702
O O11 0.830927 0.409530 0.250000
O O12 0.914453 0.342663 0.089354
O O13 0.889446 0.426827 0.968348
O O14 0.860723 0.870681 0.250000
O O15 0.918956 0.816301 0.476890
O O16 0.767060 0.874307 0.502943
O O17 0.932191 0.911324 0.493973
O O18 0.004921 0.221714 0.750000
O O19 0.942785 0.250000 0.000000
O O20 0.003025 0.443892 0.750000
O O21 0.000000 0.500000 0.000000
O O22 0.325891 0.104243 0.250000
#
# Coordination Sequence:
#
# PCOD9439337 Si02
#       8
#     8   8   8   8   8   8   8   8
#     4  10  23  43  63  87 122 160 204 255 305 362
#     4  11  22  39  63  89 122 160 203 253 308 364
#     4  10  22  41  61  87 123 161 201 251 306 363
#     4  10  22  39  58  87 120 154 199 246 292 354
#     4  10  22  40  59  87 121 154 198 247 295 355
#     4   9  20  38  60  84 116 153 197 248 298 351
#     4  11  22  38  59  84 117 158 196 238 293 350
#     4  11  23  41  62  90 125 162 206 252 305 366
#
# _framework density 18.671299999999999
#
# number of rings (size 3 to 8) (size 9 to 14) (size 15 to 20)
#    0.000    1.750    1.250    3.375    1.750    6.500 
#    0.000    5.000    0.000    0.000    0.000    0.000 
#    0.000    0.000    0.000    0.000    0.000    0.000 
#
# Total GULP energy -356698.806519 kJ/mol
# GULP energy per Si atom -5573.418852 kJ/mol
# Density = 1.862880 g / cm^3
# Si number density = 18.671300 Si / 1000 Ang^3
#
#
#
# Elastic Constant Matrix: (Units=GPa)
#
#
# Indices 1 2 3 4 5 6 
#
# 1 132.4865 30.0139 46.2966 0.0000 0.0000 0.0000
# 2 30.0139 94.5431 44.7519 0.0000 0.0000 0.0000
# 3 46.2966 44.7519 72.3818 0.0000 0.0000 0.0000
# 4 0.0000 0.0000 0.0000 31.8769 0.0000 0.0000
# 5 0.0000 0.0000 0.0000 0.0000 29.1561 0.0000
# 6 0.0000 0.0000 0.0000 0.0000 0.0000 7.4849
#
#
#
# Elastic Compliance Matrix: (Units=1/GPa)
#
#
# Indices 1 2 3 4 5 6 
#
# 1 0.009723 -0.000202 -0.006094 0.000000 0.000000 0.000000
# 2 -0.000202 0.014958 -0.009119 0.000000 0.000000 0.000000
# 3 -0.006094 -0.009119 0.023351 0.000000 0.000000 0.000000
# 4 0.000000 0.000000 0.000000 0.031371 0.000000 0.000000
# 5 0.000000 0.000000 0.000000 0.000000 0.034298 0.000000
# 6 0.000000 0.000000 0.000000 0.000000 0.000000 0.133602
#
#
# Mechanical properties :
#
#
# Convention : Reuss Voigt Hill
#
# Bulk Modulus (GPa) = 58.13146 60.17069 59.15107
# Shear Modulus (GPa) = 17.61383 25.59351 21.60367
#
# Velocity S-wave (km/s) = 3.07476 3.70637 3.40524
# Velocity P-wave (km/s) = 6.61870 7.11424 6.87094
#
# Compressibility (1/GPa) = 0.01720239
#
# Stress axis : x y z
#
# Youngs Moduli (GPa) = 102.84545 66.85542 42.82388
#
# Poissons Ratio (x) = 0.01351 0.26098
# Poissons Ratio (y) = 0.02078 0.39050
# Poissons Ratio (z) = 0.62677 0.60963
#
# Static dielectric constant tensor:
#      x y z
#    x 1.656670 0.000000 0.000000 
#    y 0.000000 1.699580 0.000000 
#    z 0.000000 0.000000 1.652500 
# 
# From -- ./inp_files/5687.got.cif
#   From: 2010.05.17/outbox.cif.g08.bks.cpg/sg57_3_cif.got.tgz:5687.got - 2010.06.03 13:58:18.
