data_PCOD9439334
_publ_section_title
;
Structure prediction by ZEFSAII (Michael W. Deem and Ramdas Pophale) SiO2 
 PCOD9439334
Probable space group: P B C M
;
_chemical_formula_sum "Si O2"
_cell_formula_units_Z 56
_cell_length_a 16.209102
_cell_length_b 12.228280
_cell_length_c 14.260595
_cell_angle_alpha 90.000000
_cell_angle_beta 90.000000
_cell_angle_gamma 90.000000
_cell_volume 2826.584518
_symmetry_space_group_name_H-M "P B C M"
_symmetry_group_IT_number 57
_symmetry_cell_setting 'orthorhombic'
loop_
_space_group_symop_operation_xyz
x,y,z
-x,-y,1/2+z
x,1/2-y,-z
-x,1/2+y,1/2-z
-x,-y,-z
x,y,1/2-z
-x,1/2+y,z
x,1/2-y,1/2+z
loop_
_atom_site_type_symbol
_atom_site_label
_atom_site_fract_x
_atom_site_fract_y
_atom_site_fract_z
Si Si1 0.130155 0.729529 0.639795
Si Si2 0.081641 0.567319 0.022710
Si Si3 0.314319 0.820081 0.638923
Si Si4 0.661453 0.951594 0.643482
Si Si5 0.454066 0.648760 0.863706
Si Si6 0.635166 0.805123 0.359046
Si Si7 0.250847 0.033638 0.959762
O O1 0.115280 0.712693 0.750000
O O2 0.107951 0.629297 0.572809
O O3 0.080299 0.834993 0.599742
O O4 0.227759 0.755882 0.626506
O O5 0.155077 0.488064 0.057205
O O6 0.000000 0.500000 0.000000
O O7 0.323306 0.842776 0.750000
O O8 0.391141 0.745360 0.608627
O O9 0.302314 0.932832 0.584453
O O10 0.685293 0.980066 0.750000
O O11 0.635272 0.825743 0.640020
O O12 0.733947 0.966909 0.570319
O O13 0.587988 0.033089 0.615651
O O14 0.460274 0.657291 0.750000
O O15 0.546983 0.657410 0.899378
O O16 0.642758 0.840113 0.250000
O O17 0.709844 0.857959 0.415922
#
# Coordination Sequence:
#
# PCOD9439334 Si02
#       7
#     8   8   8   8   8   8   8
#     4   9  19  39  64  92 122 154 199 248 299 361
#     4  10  22  40  63  91 124 155 193 254 312 364
#     4   9  18  35  62  91 116 149 196 248 295 344
#     4  10  22  40  55  78 117 158 199 241 289 349
#     4   9  19  35  58  83 116 158 198 245 292 335
#     4  10  22  39  57  82 121 160 198 243 291 354
#     4  11  22  38  61  86 114 155 197 243 303 360
#
# _framework density 19.811896999999998
#
# number of rings (size 3 to 8) (size 9 to 14) (size 15 to 20)
#    0.000    2.286    0.000    1.714    2.000    5.143 
#    7.714    0.000    0.000    0.000    0.000    0.000 
#    0.000    0.000    0.000    0.000    0.000    0.000 
#
# Total GULP energy -312809.283127 kJ/mol
# GULP energy per Si atom -5585.880056 kJ/mol
# Density = 1.976680 g / cm^3
# Si number density = 19.811897 Si / 1000 Ang^3
#
#
#
# Elastic Constant Matrix: (Units=GPa)
#
#
# Indices 1 2 3 4 5 6 
#
# 1 78.3098 31.5320 9.5980 0.0000 0.0000 0.0000
# 2 31.5320 48.2451 7.1836 0.0000 0.0000 0.0000
# 3 9.5980 7.1836 82.5903 0.0000 0.0000 0.0000
# 4 0.0000 0.0000 0.0000 24.3079 0.0000 0.0000
# 5 0.0000 0.0000 0.0000 0.0000 18.8836 0.0000
# 6 0.0000 0.0000 0.0000 0.0000 0.0000 22.2923
#
#
#
# Elastic Compliance Matrix: (Units=1/GPa)
#
#
# Indices 1 2 3 4 5 6 
#
# 1 0.017420 -0.011229 -0.001048 0.000000 0.000000 0.000000
# 2 -0.011229 0.028238 -0.001151 0.000000 0.000000 0.000000
# 3 -0.001048 -0.001151 0.012330 0.000000 0.000000 0.000000
# 4 0.000000 0.000000 0.000000 0.041139 0.000000 0.000000
# 5 0.000000 0.000000 0.000000 0.000000 0.052956 0.000000
# 6 0.000000 0.000000 0.000000 0.000000 0.000000 0.044859
#
#
# Mechanical properties :
#
#
# Convention : Reuss Voigt Hill
#
# Bulk Modulus (GPa) = 32.12169 33.97471 33.04820
# Shear Modulus (GPa) = 21.35163 23.81886 22.58525
#
# Velocity S-wave (km/s) = 3.28642 3.47111 3.38003
# Velocity P-wave (km/s) = 5.53618 5.76634 5.65243
#
# Compressibility (1/GPa) = 0.03113161
#
# Stress axis : x y z
#
# Youngs Moduli (GPa) = 57.40634 35.41322 81.10404
#
# Poissons Ratio (x) = 0.39766 0.08497
# Poissons Ratio (y) = 0.64462 0.09336
# Poissons Ratio (z) = 0.06014 0.04077
#
# Static dielectric constant tensor:
#      x y z
#    x 1.669730 0.000000 0.000000 
#    y 0.000000 1.695760 0.000000 
#    z 0.000000 0.000000 1.731120 
# 
# From -- ./inp_files/18482.got.cif
#   From: 2010.05.17/outbox.cif.g08.bks.cpg/sg57_10_cif.got.tgz:18482.got - 2010.06.03 13:58:18.
