data_PCOD9439757
_publ_section_title
;
Structure prediction by ZEFSAII (Michael W. Deem and Ramdas Pophale) SiO2 
 PCOD9439757
Probable space group: P B C M
;
_chemical_formula_sum "Si O2"
_cell_formula_units_Z 36
_cell_length_a 19.582892
_cell_length_b 8.702668
_cell_length_c 10.186492
_cell_angle_alpha 90.000000
_cell_angle_beta 90.000000
_cell_angle_gamma 90.000000
_cell_volume 1736.016678
_symmetry_space_group_name_H-M "P B C M"
_symmetry_group_IT_number 57
_symmetry_cell_setting 'orthorhombic'
loop_
_space_group_symop_operation_xyz
x,y,z
-x,-y,1/2+z
x,1/2-y,-z
-x,1/2+y,1/2-z
-x,-y,-z
x,y,1/2-z
-x,1/2+y,z
x,1/2-y,1/2+z
loop_
_atom_site_type_symbol
_atom_site_label
_atom_site_fract_x
_atom_site_fract_y
_atom_site_fract_z
Si Si1 0.575984 0.931679 0.993640
Si Si2 0.221894 0.800649 0.750000
Si Si3 0.883249 0.406677 0.971565
Si Si4 0.349686 0.913371 0.250000
Si Si5 0.903537 0.529342 0.250000
Si Si6 0.049772 0.383712 0.250000
Si Si7 0.361354 0.931573 0.750000
O O1 0.622278 0.994214 0.874397
O O2 0.571045 0.750000 0.000000
O O3 0.500000 0.000000 0.000000
O O4 0.612515 0.987996 0.122939
O O5 0.176835 0.835014 0.620930
O O6 0.269706 0.645000 0.750000
O O7 0.280165 0.928730 0.750000
O O8 0.920526 0.528766 0.878287
O O9 0.926022 0.250000 0.000000
O O10 0.867041 0.486933 0.111624
O O11 0.385455 0.745844 0.250000
O O12 0.928332 0.705830 0.250000
O O13 0.969661 0.418719 0.250000
#
# Coordination Sequence:
#
# PCOD9439757 Si02
#       7
#     8   4   8   4   4   4   4
#     4  12  24  42  70 107 141 176 231 296 359 424
#     4   9  25  43  72  90 136 184 246 275 347 422
#     4  11  23  43  68 103 137 188 241 286 342 427
#     4  10  23  43  70  96 135 186 226 281 355 413
#     4  12  23  42  74 103 145 188 234 298 361 418
#     4  11  24  43  68 111 147 182 232 298 369 422
#     4  10  23  43  66  98 133 180 234 280 350 419
#
# _framework density 20.737127000000001
#
# number of rings (size 3 to 8) (size 9 to 14) (size 15 to 20)
#    0.667    0.444    0.000    7.333    3.111    0.000 
#    0.000    4.444    4.889    0.000    0.000    0.000 
#    0.000    0.000    0.000    0.000    0.000    0.000 
#
# Total GULP energy -200845.017970 kJ/mol
# GULP energy per Si atom -5579.028277 kJ/mol
# Density = 2.068993 g / cm^3
# Si number density = 20.737127 Si / 1000 Ang^3
#
#
#
# Elastic Constant Matrix: (Units=GPa)
#
#
# Indices 1 2 3 4 5 6 
#
# 1 108.9602 42.0937 66.7535 0.0000 0.0000 0.0000
# 2 42.0937 188.0072 74.4972 0.0000 0.0000 0.0000
# 3 66.7535 74.4972 223.3538 0.0000 0.0000 0.0000
# 4 0.0000 0.0000 0.0000 49.9420 0.0000 0.0000
# 5 0.0000 0.0000 0.0000 0.0000 14.3369 0.0000
# 6 0.0000 0.0000 0.0000 0.0000 0.0000 40.7938
#
#
#
# Elastic Compliance Matrix: (Units=1/GPa)
#
#
# Indices 1 2 3 4 5 6 
#
# 1 0.011547 -0.001403 -0.002983 0.000000 0.000000 0.000000
# 2 -0.001403 0.006300 -0.001682 0.000000 0.000000 0.000000
# 3 -0.002983 -0.001682 0.005930 0.000000 0.000000 0.000000
# 4 0.000000 0.000000 0.000000 0.020023 0.000000 0.000000
# 5 0.000000 0.000000 0.000000 0.000000 0.069750 0.000000
# 6 0.000000 0.000000 0.000000 0.000000 0.000000 0.024514
#
#
# Mechanical properties :
#
#
# Convention : Reuss Voigt Hill
#
# Bulk Modulus (GPa) = 85.90872 98.55666 92.23269
# Shear Modulus (GPa) = 32.45073 43.47966 37.96519
#
# Velocity S-wave (km/s) = 3.96012 4.58395 4.28341
# Velocity P-wave (km/s) = 7.90111 8.69751 8.30886
#
# Compressibility (1/GPa) = 0.01164026
#
# Stress axis : x y z
#
# Youngs Moduli (GPa) = 86.59993 158.74217 168.64346
#
# Poissons Ratio (x) = 0.22277 0.50308
# Poissons Ratio (y) = 0.12153 0.28361
# Poissons Ratio (z) = 0.25833 0.26696
#
# Static dielectric constant tensor:
#      x y z
#    x 1.700350 0.000000 0.000000 
#    y 0.000000 1.758590 0.000000 
#    z 0.000000 0.000000 1.825800 
# 
# From -- ./inp_files/7727.got.cif
#   From: 2010.05.17/outbox.cif.g08.bks.cpg/sg57_4_cif.got.tgz:7727.got - 2010.06.03 13:58:18.
