data_PCOD9439454
_publ_section_title
;
Structure prediction by ZEFSAII (Michael W. Deem and Ramdas Pophale) SiO2 
 PCOD9439454
Probable space group: P B C M
;
_chemical_formula_sum "Si O2"
_cell_formula_units_Z 56
_cell_length_a 32.517433
_cell_length_b 5.157473
_cell_length_c 15.203674
_cell_angle_alpha 90.000000
_cell_angle_beta 90.000000
_cell_angle_gamma 90.000000
_cell_volume 2549.774456
_symmetry_space_group_name_H-M "P B C M"
_symmetry_group_IT_number 57
_symmetry_cell_setting 'orthorhombic'
loop_
_space_group_symop_operation_xyz
x,y,z
-x,-y,1/2+z
x,1/2-y,-z
-x,1/2+y,1/2-z
-x,-y,-z
x,y,1/2-z
-x,1/2+y,z
x,1/2-y,1/2+z
loop_
_atom_site_type_symbol
_atom_site_label
_atom_site_fract_x
_atom_site_fract_y
_atom_site_fract_z
Si Si1 0.583060 0.895591 0.904949
Si Si2 0.023913 0.851927 0.643920
Si Si3 0.890760 0.999894 0.442106
Si Si4 0.194729 0.146149 0.856021
Si Si5 0.470430 0.750000 0.500000
Si Si6 0.670727 0.497706 0.059911
Si Si7 0.242968 0.854021 0.356253
Si Si8 0.528491 0.815041 0.250000
O O1 0.556880 0.737733 0.834703
O O2 0.560070 0.169925 0.921109
O O3 0.630612 0.939107 0.881715
O O4 0.583383 0.750000 0.000000
O O5 0.023440 0.850642 0.750000
O O6 0.069477 0.919749 0.613529
O O7 0.992229 0.073482 0.613212
O O8 0.901750 0.750000 0.500000
O O9 0.850784 0.919940 0.387134
O O10 0.879950 0.250000 0.500000
O O11 0.194899 0.145905 0.750000
O O12 0.210980 0.424958 0.886070
O O13 0.226530 0.924626 0.886295
O O14 0.500000 0.500000 0.500000
O O15 0.711905 0.422598 0.110568
O O16 0.659341 0.250000 0.000000
O O17 0.678650 0.750000 0.000000
O O18 0.243417 0.853947 0.250000
O O19 0.493499 0.591722 0.250000
#
# Coordination Sequence:
#
# PCOD9439454 Si02
#       8
#     8   8   8   8   4   8   8   4
#     4  11  26  47  69  99 135 175 216 268 327 386
#     4  10  22  41  63  86 118 165 214 254 307 377
#     4  12  25  38  60  92 126 162 202 263 320 363
#     4  10  22  42  62  89 124 166 210 250 311 379
#     4  12  22  38  70  88 122 172 206 258 314 372
#     4  11  24  41  66  95 126 166 207 250 317 378
#     4  10  22  40  66  92 122 163 205 258 310 365
#     4  12  30  44  68 104 130 170 226 266 322 386
#
# _framework density 21.962727999999998
#
# number of rings (size 3 to 8) (size 9 to 14) (size 15 to 20)
#    0.000    1.143    1.429    3.857    3.000    5.143 
#    0.000    5.714    1.571    0.000    0.000    0.000 
#    0.000    0.000    0.000    0.000    0.000    0.000 
#
# Total GULP energy -313444.308465 kJ/mol
# GULP energy per Si atom -5597.219794 kJ/mol
# Density = 2.191274 g / cm^3
# Si number density = 21.962728 Si / 1000 Ang^3
#
#
#
# Elastic Constant Matrix: (Units=GPa)
#
#
# Indices 1 2 3 4 5 6 
#
# 1 103.2891 -18.4104 18.6647 0.0000 0.0000 0.0000
# 2 -18.4104 92.7334 19.9251 0.0000 0.0000 0.0000
# 3 18.6647 19.9251 46.1033 0.0000 0.0000 0.0000
# 4 0.0000 0.0000 0.0000 18.3075 0.0000 0.0000
# 5 0.0000 0.0000 0.0000 0.0000 26.7871 0.0000
# 6 0.0000 0.0000 0.0000 0.0000 0.0000 27.5835
#
#
#
# Elastic Compliance Matrix: (Units=1/GPa)
#
#
# Indices 1 2 3 4 5 6 
#
# 1 0.011442 0.003601 -0.006189 0.000000 0.000000 0.000000
# 2 0.003601 0.013021 -0.007085 0.000000 0.000000 0.000000
# 3 -0.006189 -0.007085 0.027258 0.000000 0.000000 0.000000
# 4 0.000000 0.000000 0.000000 0.054622 0.000000 0.000000
# 5 0.000000 0.000000 0.000000 0.000000 0.037331 0.000000
# 6 0.000000 0.000000 0.000000 0.000000 0.000000 0.036254
#
#
# Mechanical properties :
#
#
# Convention : Reuss Voigt Hill
#
# Bulk Modulus (GPa) = 30.88773 31.38720 31.13747
# Shear Modulus (GPa) = 23.80212 29.33205 26.56708
#
# Velocity S-wave (km/s) = 3.29561 3.65847 3.48177
# Velocity P-wave (km/s) = 5.34562 5.67168 5.51106
#
# Compressibility (1/GPa) = 0.03237531
#
# Stress axis : x y z
#
# Youngs Moduli (GPa) = 87.39924 76.79927 36.68639
#
# Poissons Ratio (x) = -0.27657 0.22704
# Poissons Ratio (y) = -0.31475 0.25994
# Poissons Ratio (z) = 0.54087 0.54415
#
# Static dielectric constant tensor:
#      x y z
#    x 1.778140 0.000000 0.000000 
#    y 0.000000 1.807850 0.000000 
#    z 0.000000 0.000000 1.822010 
# 
# From -- ./inp_files/19673.got.cif
#   From: 2010.05.17/outbox.cif.g08.bks.cpg/sg57_10_cif.got.tgz:19673.got - 2010.06.03 13:58:18.
