data_PCOD9439351
_publ_section_title
;
Structure prediction by ZEFSAII (Michael W. Deem and Ramdas Pophale) SiO2 
 PCOD9439351
Probable space group: P B C M
;
_chemical_formula_sum "Si O2"
_cell_formula_units_Z 40
_cell_length_a 5.052707
_cell_length_b 15.774776
_cell_length_c 24.961036
_cell_angle_alpha 90.000000
_cell_angle_beta 90.000000
_cell_angle_gamma 90.000000
_cell_volume 1989.527390
_symmetry_space_group_name_H-M "P B C M"
_symmetry_group_IT_number 57
_symmetry_cell_setting 'orthorhombic'
loop_
_space_group_symop_operation_xyz
x,y,z
-x,-y,1/2+z
x,1/2-y,-z
-x,1/2+y,1/2-z
-x,-y,-z
x,y,1/2-z
-x,1/2+y,z
x,1/2-y,1/2+z
loop_
_atom_site_type_symbol
_atom_site_label
_atom_site_fract_x
_atom_site_fract_y
_atom_site_fract_z
Si Si1 0.037950 0.433917 0.131884
Si Si2 0.015096 0.384919 0.919119
Si Si3 0.524537 0.229381 0.400239
Si Si4 0.521991 0.134423 0.813078
Si Si5 0.106586 0.833904 0.029578
O O1 0.813303 0.396051 0.170341
O O2 0.045217 0.372516 0.079802
O O3 0.962517 0.526171 0.110535
O O4 0.313433 0.432330 0.162793
O O5 0.790926 0.325618 0.892776
O O6 0.291246 0.333920 0.916909
O O7 0.903500 0.397909 0.979832
O O8 0.462513 0.279742 0.346088
O O9 0.617166 0.299357 0.445040
O O10 0.494697 0.144300 0.750000
O O11 0.996332 0.750000 0.000000
#
# Coordination Sequence:
#
# PCOD9439351 Si02
#       5
#     8   8   8   8   8
#     4  11  23  39  63  91 121 156 198 246 302 356
#     4  11  22  39  59  92 127 152 190 247 301 354
#     4  10  22  39  61  87 119 159 203 241 289 358
#     4  11  23  43  63  83 113 158 205 248 294 352
#     4   9  20  36  59  87 121 159 193 230 285 356
#
# _framework density 20.105276
#
# number of rings (size 3 to 8) (size 9 to 14) (size 15 to 20)
#    0.000    1.600    0.000    6.000    0.000   15.200 
#    0.000   16.000    0.000    0.000    0.000    0.000 
#    0.000    0.000    0.000    0.000    0.000    0.000 
#
# Total GULP energy -223207.831340 kJ/mol
# GULP energy per Si atom -5580.195784 kJ/mol
# Density = 2.005952 g / cm^3
# Si number density = 20.105276 Si / 1000 Ang^3
#
#
#
# Elastic Constant Matrix: (Units=GPa)
#
#
# Indices 1 2 3 4 5 6 
#
# 1 69.6736 21.4270 2.2791 0.0000 0.0000 0.0000
# 2 21.4270 64.5139 43.1529 0.0000 0.0000 0.0000
# 3 2.2791 43.1529 140.9416 0.0000 0.0000 0.0000
# 4 0.0000 0.0000 0.0000 13.9783 0.0000 0.0000
# 5 0.0000 0.0000 0.0000 0.0000 17.2260 0.0000
# 6 0.0000 0.0000 0.0000 0.0000 0.0000 28.3836
#
#
#
# Elastic Compliance Matrix: (Units=1/GPa)
#
#
# Indices 1 2 3 4 5 6 
#
# 1 0.016324 -0.006596 0.001756 0.000000 0.000000 0.000000
# 2 -0.006596 0.022158 -0.006678 0.000000 0.000000 0.000000
# 3 0.001756 -0.006678 0.009111 0.000000 0.000000 0.000000
# 4 0.000000 0.000000 0.000000 0.071540 0.000000 0.000000
# 5 0.000000 0.000000 0.000000 0.000000 0.058052 0.000000
# 6 0.000000 0.000000 0.000000 0.000000 0.000000 0.035232
#
#
# Mechanical properties :
#
#
# Convention : Reuss Voigt Hill
#
# Bulk Modulus (GPa) = 40.72157 45.42745 43.07451
# Shear Modulus (GPa) = 20.52233 25.80225 23.16229
#
# Velocity S-wave (km/s) = 3.19837 3.58628 3.39787
# Velocity P-wave (km/s) = 5.82560 6.30812 6.07166
#
# Compressibility (1/GPa) = 0.02455701
#
# Stress axis : x y z
#
# Youngs Moduli (GPa) = 61.26082 45.13088 109.75449
#
# Poissons Ratio (x) = 0.29768 -0.19268
# Poissons Ratio (y) = 0.40407 0.73289
# Poissons Ratio (z) = -0.10755 0.30136
#
# Static dielectric constant tensor:
#      x y z
#    x 1.724210 0.000000 0.000000 
#    y 0.000000 1.741530 0.000000 
#    z 0.000000 0.000000 1.713810 
# 
# From -- ./inp_files/26123.got.cif
#   From: 2010.05.17/outbox.cif.g08.bks.cpg/sg57_14_cif.got.tgz:26123.got - 2010.06.03 13:58:18.
