data_PCOD9439085
_publ_section_title
;
Structure prediction by ZEFSAII (Michael W. Deem and Ramdas Pophale) SiO2 
 PCOD9439085
Probable space group: P B C M
;
_chemical_formula_sum "Si O2"
_cell_formula_units_Z 48
_cell_length_a 9.253578
_cell_length_b 14.931743
_cell_length_c 17.421044
_cell_angle_alpha 90.000000
_cell_angle_beta 90.000000
_cell_angle_gamma 90.000000
_cell_volume 2407.101337
_symmetry_space_group_name_H-M "P B C M"
_symmetry_group_IT_number 57
_symmetry_cell_setting 'orthorhombic'
loop_
_space_group_symop_operation_xyz
x,y,z
-x,-y,1/2+z
x,1/2-y,-z
-x,1/2+y,1/2-z
-x,-y,-z
x,y,1/2-z
-x,1/2+y,z
x,1/2-y,1/2+z
loop_
_atom_site_type_symbol
_atom_site_label
_atom_site_fract_x
_atom_site_fract_y
_atom_site_fract_z
Si Si1 0.703590 0.165585 0.041591
Si Si2 0.064429 0.435752 0.339805
Si Si3 0.616068 0.481147 0.433287
Si Si4 0.827297 0.907826 0.838182
Si Si5 0.369198 0.980319 0.659613
Si Si6 0.986435 0.748932 0.415052
O O1 0.628771 0.112809 0.111670
O O2 0.856017 0.203272 0.073015
O O3 0.627321 0.250000 0.000000
O O4 0.715832 0.093960 0.972016
O O5 0.075501 0.411868 0.250000
O O6 0.222466 0.469340 0.365530
O O7 0.009641 0.349525 0.384678
O O8 0.954580 0.518535 0.345477
O O9 0.500000 0.500000 0.500000
O O10 0.710463 0.562247 0.401009
O O11 0.508964 0.460575 0.362312
O O12 0.773460 0.910714 0.750000
O O13 0.894238 0.812391 0.858345
O O14 0.361608 0.963546 0.750000
O O15 0.919262 0.750000 0.500000
#
# Coordination Sequence:
#
# PCOD9439085 Si02
#       6
#     8   8   8   8   8   8
#     4  10  21  40  63  95 126 166 212 266 325 379
#     4  10  22  40  65  93 123 164 210 267 324 378
#     4  10  23  41  63  87 127 168 208 254 310 387
#     4  11  22  40  65  91 125 165 211 263 316 378
#     4  10  21  42  65  88 128 175 213 262 325 381
#     4  11  23  35  63  96 125 161 210 265 321 381
#
# _framework density 19.940995999999998
#
# number of rings (size 3 to 8) (size 9 to 14) (size 15 to 20)
#    0.000    1.667    1.667    3.000    4.667    2.000 
#    6.000    1.667    0.000    0.000    0.000    0.000 
#    0.000    0.000    0.000    0.000    0.000    0.000 
#
# Total GULP energy -267544.633577 kJ/mol
# GULP energy per Si atom -5573.846533 kJ/mol
# Density = 1.989561 g / cm^3
# Si number density = 19.940996 Si / 1000 Ang^3
#
#
#
# Elastic Constant Matrix: (Units=GPa)
#
#
# Indices 1 2 3 4 5 6 
#
# 1 50.9203 5.2088 6.8216 0.0000 0.0000 0.0000
# 2 5.2088 80.7721 41.5109 0.0000 0.0000 0.0000
# 3 6.8216 41.5109 81.0464 0.0000 0.0000 0.0000
# 4 0.0000 0.0000 0.0000 44.8454 0.0000 0.0000
# 5 0.0000 0.0000 0.0000 0.0000 36.0529 0.0000
# 6 0.0000 0.0000 0.0000 0.0000 0.0000 9.2903
#
#
#
# Elastic Compliance Matrix: (Units=1/GPa)
#
#
# Indices 1 2 3 4 5 6 
#
# 1 0.019882 -0.000573 -0.001380 0.000000 0.000000 0.000000
# 2 -0.000573 0.016820 -0.008567 0.000000 0.000000 0.000000
# 3 -0.001380 -0.008567 0.016843 0.000000 0.000000 0.000000
# 4 0.000000 0.000000 0.000000 0.022299 0.000000 0.000000
# 5 0.000000 0.000000 0.000000 0.000000 0.027737 0.000000
# 6 0.000000 0.000000 0.000000 0.000000 0.000000 0.107639
#
#
# Mechanical properties :
#
#
# Convention : Reuss Voigt Hill
#
# Bulk Modulus (GPa) = 30.76428 35.53570 33.14999
# Shear Modulus (GPa) = 20.56812 28.65089 24.60950
#
# Velocity S-wave (km/s) = 3.21510 3.79460 3.51681
# Velocity P-wave (km/s) = 5.40774 6.08751 5.75767
#
# Compressibility (1/GPa) = 0.03250523
#
# Stress axis : x y z
#
# Youngs Moduli (GPa) = 50.29675 59.45228 59.37320
#
# Poissons Ratio (x) = 0.03406 0.08194
# Poissons Ratio (y) = 0.02882 0.50864
# Poissons Ratio (z) = 0.06941 0.50932
#
# Static dielectric constant tensor:
#      x y z
#    x 1.752390 0.000000 0.000000 
#    y 0.000000 1.709120 0.000000 
#    z 0.000000 0.000000 1.742100 
# 
# From -- ./inp_files/20922.got.cif
#   From: 2010.05.17/outbox.cif.g08.bks.cpg/sg57_11_cif.got.tgz:20922.got - 2010.06.03 13:58:18.
