data_PCOD9440140
_publ_section_title
;
Structure prediction by ZEFSAII (Michael W. Deem and Ramdas Pophale) SiO2 
 PCOD9440140
Probable space group: P B C M
;
_chemical_formula_sum "Si O2"
_cell_formula_units_Z 32
_cell_length_a 6.979636
_cell_length_b 13.623121
_cell_length_c 15.634426
_cell_angle_alpha 90.000000
_cell_angle_beta 90.000000
_cell_angle_gamma 90.000000
_cell_volume 1486.590418
_symmetry_space_group_name_H-M "P B C M"
_symmetry_group_IT_number 57
_symmetry_cell_setting 'orthorhombic'
loop_
_space_group_symop_operation_xyz
x,y,z
-x,-y,1/2+z
x,1/2-y,-z
-x,1/2+y,1/2-z
-x,-y,-z
x,y,1/2-z
-x,1/2+y,z
x,1/2-y,1/2+z
loop_
_atom_site_type_symbol
_atom_site_label
_atom_site_fract_x
_atom_site_fract_y
_atom_site_fract_z
Si Si1 0.659061 0.549093 0.439262
Si Si2 0.416033 0.826653 0.250000
Si Si3 0.847648 0.750000 0.500000
Si Si4 0.794528 0.960010 0.250000
Si Si5 0.907992 0.118192 0.615469
Si Si6 0.493750 0.397433 0.750000
O O1 0.500000 0.500000 0.500000
O O2 0.722137 0.656325 0.471963
O O3 0.827004 0.468685 0.442828
O O4 0.599093 0.563473 0.338938
O O5 0.597513 0.898670 0.250000
O O6 0.274678 0.845246 0.170163
O O7 0.506628 0.719305 0.250000
O O8 0.989331 0.790006 0.427429
O O9 0.927071 0.932381 0.171323
O O10 0.716223 0.069830 0.250000
#
# Coordination Sequence:
#
# PCOD9440140 Si02
#       6
#     8   4   4   4   8   4
#     4  12  28  49  77 115 156 204 259 323 392 459
#     4  11  25  45  75 109 147 201 255 316 378 466
#     4  12  28  44  74 110 156 202 254 318 392 466
#     4  11  22  49  72 106 142 192 252 317 369 457
#     4  11  26  47  72 107 150 195 258 314 384 455
#     4  12  25  44  81 103 149 203 253 305 395 445
#
# _framework density 21.525769
#
# number of rings (size 3 to 8) (size 9 to 14) (size 15 to 20)
#    0.000    0.500    2.500    4.500   10.500    1.000 
#    0.000    0.000    0.000    0.000    0.000    0.000 
#    0.000    0.000    0.000    0.000    0.000    0.000 
#
# Total GULP energy -178887.490077 kJ/mol
# GULP energy per Si atom -5590.234065 kJ/mol
# Density = 2.147677 g / cm^3
# Si number density = 21.525769 Si / 1000 Ang^3
#
#
#
# Elastic Constant Matrix: (Units=GPa)
#
#
# Indices 1 2 3 4 5 6 
#
# 1 136.2794 44.0191 54.9692 0.0000 0.0000 0.0000
# 2 44.0191 138.4630 32.8689 0.0000 0.0000 0.0000
# 3 54.9692 32.8689 87.7844 0.0000 0.0000 0.0000
# 4 0.0000 0.0000 0.0000 6.7451 0.0000 0.0000
# 5 0.0000 0.0000 0.0000 0.0000 -88.2935 0.0000
# 6 0.0000 0.0000 0.0000 0.0000 0.0000 47.8272
#
#
#
# Elastic Compliance Matrix: (Units=1/GPa)
#
#
# Indices 1 2 3 4 5 6 
#
# 1 0.010256 -0.001905 -0.005709 0.000000 0.000000 0.000000
# 2 -0.001905 0.008281 -0.001907 0.000000 0.000000 0.000000
# 3 -0.005709 -0.001907 0.015680 0.000000 0.000000 0.000000
# 4 0.000000 0.000000 0.000000 0.148256 0.000000 0.000000
# 5 0.000000 0.000000 0.000000 0.000000 -0.011326 0.000000
# 6 0.000000 0.000000 0.000000 0.000000 0.000000 0.020909
#
#
# Mechanical properties :
#
#
# Convention : Reuss Voigt Hill
#
# Bulk Modulus (GPa) = 65.90161 69.58236 67.74198
# Shear Modulus (GPa) = 23.13132 8.63373 15.88252
#
# Velocity S-wave (km/s) = 3.28165 2.00489 2.71926
# Velocity P-wave (km/s) = 6.71123 6.14449 6.43410
#
# Compressibility (1/GPa) = 0.01517414
#
# Stress axis : x y z
#
# Youngs Moduli (GPa) = 97.50447 120.76326 63.77372
#
# Poissons Ratio (x) = 0.23009 0.36406
# Poissons Ratio (y) = 0.18578 0.12164
# Poissons Ratio (z) = 0.55662 0.23035
#
# Static dielectric constant tensor:
#      x y z
#    x 1.748560 0.000000 0.000000 
#    y 0.000000 1.783860 0.000000 
#    z 0.000000 0.000000 1.343640 
# 
# From -- ./inp_files/19923.got.cif
#   From: 2010.05.17/outbox.cif.g08.bks.cpg/sg57_10_cif.got.tgz:19923.got - 2010.06.03 13:58:18.
