data_PCOD9440989
_publ_section_title
;
Structure prediction by ZEFSAII (Michael W. Deem and Ramdas Pophale) SiO2 
 PCOD9440989
Probable space group: P N N M
;
_chemical_formula_sum "Si O2"
_cell_formula_units_Z 64
_cell_length_a 30.303725
_cell_length_b 11.363319
_cell_length_c 7.415346
_cell_angle_alpha 90.000000
_cell_angle_beta 90.000000
_cell_angle_gamma 90.000000
_cell_volume 2553.481025
_symmetry_space_group_name_H-M "P N N M"
_symmetry_group_IT_number 58
_symmetry_cell_setting 'orthorhombic'
loop_
_space_group_symop_operation_xyz
x,y,z
-x,-y,z
1/2+x,1/2-y,1/2-z
1/2-x,1/2+y,1/2-z
-x,-y,-z
x,y,-z
1/2-x,1/2+y,1/2+z
1/2+x,1/2-y,1/2+z
loop_
_atom_site_type_symbol
_atom_site_label
_atom_site_fract_x
_atom_site_fract_y
_atom_site_fract_z
Si Si1 0.939749 0.578438 0.215405
Si Si2 0.597972 0.441715 0.208499
Si Si3 0.726813 0.057016 0.292822
Si Si4 0.147948 0.299254 0.781504
Si Si5 0.987440 0.820610 0.707280
Si Si6 0.933484 0.315927 0.712731
Si Si7 0.679368 0.578054 0.783861
Si Si8 0.834838 0.343085 0.715514
O O1 0.888391 0.601037 0.264724
O O2 0.964425 0.691444 0.294327
O O3 0.953338 0.447426 0.269242
O O4 0.944400 0.587227 0.000000
O O5 0.627405 0.322178 0.213416
O O6 0.549803 0.407438 0.286937
O O7 0.632168 0.535079 0.289365
O O8 0.589164 0.473341 0.000000
O O9 0.774667 0.024269 0.215216
O O10 0.695068 0.944905 0.293075
O O11 0.695958 0.160923 0.214823
O O12 0.764486 0.592000 0.000000
O O13 0.149083 0.291731 0.000000
O O14 0.994315 0.856716 0.500000
O O15 0.034942 0.786543 0.788130
O O16 0.929113 0.290200 0.500000
O O17 0.884557 0.330512 0.787898
O O18 0.685879 0.715772 0.754564
O O19 0.675442 0.555444 0.000000
O O20 0.837247 0.363532 0.500000
#
# Coordination Sequence:
#
# PCOD9440989 Si02
#       8
#     8   8   8   8   8   8   8   8
#     4  10  18  29  46  72 104 136 169 207 254 305
#     4   9  18  34  54  74 101 137 175 211 251 304
#     4  10  20  36  55  76 105 136 167 211 266 312
#     4   9  18  31  49  74 104 134 164 207 257 301
#     4   9  18  31  48  72 103 137 173 212 257 304
#     4  10  19  31  48  72 103 137 171 213 259 303
#     4   9  20  37  56  77 104 137 172 217 263 303
#     4  10  21  37  56  78 105 136 175 215 257 311
#
# _framework density 25.063824
#
# number of rings (size 3 to 8) (size 9 to 14) (size 15 to 20)
#    0.000    2.500    1.250    0.750    1.750    3.000 
#    0.000    1.875    0.000    3.750    0.000    0.000 
#    0.000    6.000    0.000    0.000    0.000    0.000 
#
# Total GULP energy -357339.074217 kJ/mol
# GULP energy per Si atom -5583.423035 kJ/mol
# Density = 2.500678 g / cm^3
# Si number density = 25.063824 Si / 1000 Ang^3
#
#
#
# Elastic Constant Matrix: (Units=GPa)
#
#
# Indices 1 2 3 4 5 6 
#
# 1 124.5913 11.2831 1.8735 0.0000 0.0000 0.0000
# 2 11.2831 43.2119 -5.3861 0.0000 0.0000 0.0000
# 3 1.8735 -5.3861 82.8251 0.0000 0.0000 0.0000
# 4 0.0000 0.0000 0.0000 13.0665 0.0000 0.0000
# 5 0.0000 0.0000 0.0000 0.0000 6.6233 0.0000
# 6 0.0000 0.0000 0.0000 0.0000 0.0000 26.3152
#
#
#
# Elastic Compliance Matrix: (Units=1/GPa)
#
#
# Indices 1 2 3 4 5 6 
#
# 1 0.008229 -0.002190 -0.000329 0.000000 0.000000 0.000000
# 2 -0.002190 0.023914 0.001605 0.000000 0.000000 0.000000
# 3 -0.000329 0.001605 0.012185 0.000000 0.000000 0.000000
# 4 0.000000 0.000000 0.000000 0.076532 0.000000 0.000000
# 5 0.000000 0.000000 0.000000 0.000000 0.150982 0.000000
# 6 0.000000 0.000000 0.000000 0.000000 0.000000 0.038001
#
#
# Mechanical properties :
#
#
# Convention : Reuss Voigt Hill
#
# Bulk Modulus (GPa) = 23.52879 29.57436 26.55157
# Shear Modulus (GPa) = 15.34509 25.39153 20.36831
#
# Velocity S-wave (km/s) = 2.47703 3.18634 2.85381
# Velocity P-wave (km/s) = 4.19391 5.03609 4.63417
#
# Compressibility (1/GPa) = 0.04250113
#
# Stress axis : x y z
#
# Youngs Moduli (GPa) = 121.51423 41.81724 82.06533
#
# Poissons Ratio (x) = 0.09157 0.02696
# Poissons Ratio (y) = 0.26609 -0.13168
# Poissons Ratio (z) = 0.03992 -0.06710
#
# Static dielectric constant tensor:
#      x y z
#    x 2.072280 0.000000 0.000000 
#    y 0.000000 1.957110 0.000000 
#    z 0.000000 0.000000 1.977090 
# 
# From -- ./inp_files/4747.got.cif
#   From: 2010.05.17/outbox.cif.g08.bks.cpg/sg58_3_cif.got.tgz:4747.got - 2010.06.03 14:20:14.
