data_PCOD9440496
_publ_section_title
;
Structure prediction by ZEFSAII (Michael W. Deem and Ramdas Pophale) SiO2 
 PCOD9440496
Probable space group: P B C M
;
_chemical_formula_sum "Si O2"
_cell_formula_units_Z 64
_cell_length_a 24.000000
_cell_length_b 15.000000
_cell_length_c 9.000000
_cell_angle_alpha 90.000000
_cell_angle_beta 90.000000
_cell_angle_gamma 90.000000
_cell_volume 3240.000000
_symmetry_space_group_name_H-M "P B C M"
_symmetry_group_IT_number 57
_symmetry_cell_setting 'orthorhombic'
loop_
_space_group_symop_operation_xyz
x,y,z
-x,-y,1/2+z
x,1/2-y,-z
-x,1/2+y,1/2-z
-x,-y,-z
x,y,1/2-z
-x,1/2+y,z
x,1/2-y,1/2+z
loop_
_atom_site_type_symbol
_atom_site_label
_atom_site_fract_x
_atom_site_fract_y
_atom_site_fract_z
Si Si1 0.349448 0.163519 0.574855
Si Si2 0.687512 0.036541 0.428696
Si Si3 0.805683 0.026323 0.571441
Si Si4 0.985756 0.905998 0.572699
Si Si5 0.892309 0.341035 0.572700
Si Si6 0.137205 0.342981 0.928356
Si Si7 0.426508 0.587906 0.920155
Si Si8 0.462894 0.120735 0.419051
O O1 0.322833 0.250000 0.500000
O O2 0.348112 0.174241 0.750000
O O3 0.413204 0.157456 0.519363
O O4 0.322258 0.068620 0.537214
O O5 0.687371 0.048284 0.250000
O O6 0.747598 0.057857 0.498780
O O7 0.633845 0.086061 0.500323
O O8 0.803270 0.035845 0.750000
O O9 0.857419 0.081212 0.505060
O O10 0.820840 0.923527 0.535772
O O11 0.980986 0.917608 0.750000
O O12 0.926205 0.867786 0.520910
O O13 0.041420 0.849289 0.543750
O O14 0.000000 0.000000 0.500000
O O15 0.871957 0.250000 0.500000
O O16 0.883984 0.343289 0.750000
O O17 0.135633 0.334240 0.750000
O O18 0.153735 0.250000 0.000000
O O19 0.422156 0.619870 0.750000
O O20 0.448271 0.485131 0.913474
O O21 0.476068 0.634744 0.011685
O O22 0.460029 0.154485 0.250000
#
# Coordination Sequence:
#
# PCOD9440496 Si02
#       8
#     8   8   8   8   8   8   8   8
#     4  10  20  33  50  74 107 146 187 233 282 338
#     4  10  21  36  54  77 106 143 190 237 284 337
#     4  11  23  40  60  83 116 154 199 250 296 348
#     4  10  20  36  59  88 120 154 191 236 292 351
#     4  11  23  39  63  91 118 152 193 241 297 354
#     4  10  22  38  57  84 118 156 196 238 290 349
#     4   9  16  28  48  74 101 131 170 215 268 324
#     4   9  16  27  46  72 102 133 168 214 266 321
#
# _framework density 19.753086
#
# number of rings (size 3 to 8) (size 9 to 14) (size 15 to 20)
#    0.000    2.000    1.250    2.625    0.000    7.000 
#    0.000    2.500    0.000    0.750    0.000    5.250 
#    0.000    0.000    0.000    0.000    0.000    0.000 
#
# Total GULP energy -357286.805321 kJ/mol
# GULP energy per Si atom -5582.606333 kJ/mol
# Density = 1.970813 g / cm^3
# Si number density = 19.753086 Si / 1000 Ang^3
#
#
#
# Elastic Constant Matrix: (Units=GPa)
#
#
# Indices 1 2 3 4 5 6 
#
# 1 92.5444 -14.1972 26.8965 0.0000 0.0000 0.0000
# 2 -14.1972 47.2760 7.6686 0.0000 0.0000 0.0000
# 3 26.8965 7.6686 34.0190 0.0000 0.0000 0.0000
# 4 0.0000 0.0000 0.0000 25.5233 0.0000 0.0000
# 5 0.0000 0.0000 0.0000 0.0000 27.8796 0.0000
# 6 0.0000 0.0000 0.0000 0.0000 0.0000 3.7388
#
#
#
# Elastic Compliance Matrix: (Units=1/GPa)
#
#
# Indices 1 2 3 4 5 6 
#
# 1 0.016060 0.007144 -0.014308 0.000000 0.000000 0.000000
# 2 0.007144 0.025133 -0.011314 0.000000 0.000000 0.000000
# 3 -0.014308 -0.011314 0.043258 0.000000 0.000000 0.000000
# 4 0.000000 0.000000 0.000000 0.039180 0.000000 0.000000
# 5 0.000000 0.000000 0.000000 0.000000 0.035868 0.000000
# 6 0.000000 0.000000 0.000000 0.000000 0.000000 0.267469
#
#
# Mechanical properties :
#
#
# Convention : Reuss Voigt Hill
#
# Bulk Modulus (GPa) = 21.05470 23.84169 22.44820
# Shear Modulus (GPa) = 10.42199 21.65977 16.04088
#
# Velocity S-wave (km/s) = 2.29947 3.31498 2.85277
# Velocity P-wave (km/s) = 4.21096 5.17186 4.71595
#
# Compressibility (1/GPa) = 0.04749533
#
# Stress axis : x y z
#
# Youngs Moduli (GPa) = 62.26696 39.78862 23.11718
#
# Poissons Ratio (x) = -0.28424 0.33076
# Poissons Ratio (y) = -0.44482 0.26154
# Poissons Ratio (z) = 0.89090 0.45015
#
# Static dielectric constant tensor:
#      x y z
#    x 1.690350 0.000000 0.000000 
#    y 0.000000 1.759190 0.000000 
#    z 0.000000 0.000000 1.658890 
# 
# From -- ./inp_files/9482.got.cif
#   From: 2010.05.17/outbox.ucp.g08.bks.cvg/sg57_5_cif.got.tgz:9482.got - 2010.06.11 16:39:23.
