data_PCOD9440244
_publ_section_title
;
Structure prediction by ZEFSAII (Michael W. Deem and Ramdas Pophale) SiO2 
 PCOD9440244
Probable space group: P B C M
;
_chemical_formula_sum "Si O2"
_cell_formula_units_Z 24
_cell_length_a 4.940230
_cell_length_b 20.117739
_cell_length_c 10.689648
_cell_angle_alpha 90.000000
_cell_angle_beta 90.000000
_cell_angle_gamma 90.000000
_cell_volume 1062.404111
_symmetry_space_group_name_H-M "P B C M"
_symmetry_group_IT_number 57
_symmetry_cell_setting 'orthorhombic'
loop_
_space_group_symop_operation_xyz
x,y,z
-x,-y,1/2+z
x,1/2-y,-z
-x,1/2+y,1/2-z
-x,-y,-z
x,y,1/2-z
-x,1/2+y,z
x,1/2-y,1/2+z
loop_
_atom_site_type_symbol
_atom_site_label
_atom_site_fract_x
_atom_site_fract_y
_atom_site_fract_z
Si Si1 0.203858 0.513458 0.885286
Si Si2 0.048706 0.198798 0.392240
Si Si3 0.556903 0.389139 0.949027
O O1 0.069027 0.515466 0.750000
O O2 0.422097 0.454093 0.887370
O O3 0.354723 0.582579 0.916050
O O4 0.000000 0.500000 0.000000
O O5 0.961392 0.250000 0.500000
O O6 0.075924 0.225214 0.250000
O O7 0.827030 0.140305 0.389503
O O8 0.330335 0.167064 0.438020
#
# Coordination Sequence:
#
# PCOD9440244 Si02
#       3
#     8   8   8
#     4  11  24  43  73 107 141 181 229 284 350 414
#     4  12  26  46  71  98 136 183 231 284 341 406
#     4  11  25  45  69 102 140 181 223 280 347 411
#
# _framework density 22.590274999999998
#
# number of rings (size 3 to 8) (size 9 to 14) (size 15 to 20)
#    0.000    0.667    3.333    4.000    0.000    9.333 
#    0.000    0.000    0.000    0.000    0.000    0.000 
#    0.000    0.000    0.000    0.000    0.000    0.000 
#
# Total GULP energy -134095.431771 kJ/mol
# GULP energy per Si atom -5587.309657 kJ/mol
# Density = 2.253886 g / cm^3
# Si number density = 22.590275 Si / 1000 Ang^3
#
#
#
# Elastic Constant Matrix: (Units=GPa)
#
#
# Indices 1 2 3 4 5 6 
#
# 1 111.2819 9.2544 47.1921 0.0000 0.0000 0.0000
# 2 9.2544 61.2281 65.2282 0.0000 0.0000 0.0000
# 3 47.1921 65.2282 211.3804 0.0000 0.0000 0.0000
# 4 0.0000 0.0000 0.0000 10.1010 0.0000 0.0000
# 5 0.0000 0.0000 0.0000 0.0000 13.1345 0.0000
# 6 0.0000 0.0000 0.0000 0.0000 0.0000 41.1938
#
#
#
# Elastic Compliance Matrix: (Units=1/GPa)
#
#
# Indices 1 2 3 4 5 6 
#
# 1 0.009994 0.001291 -0.002630 0.000000 0.000000 0.000000
# 2 0.001291 0.024498 -0.007848 0.000000 0.000000 0.000000
# 3 -0.002630 -0.007848 0.007740 0.000000 0.000000 0.000000
# 4 0.000000 0.000000 0.000000 0.099001 0.000000 0.000000
# 5 0.000000 0.000000 0.000000 0.000000 0.076135 0.000000
# 6 0.000000 0.000000 0.000000 0.000000 0.000000 0.024275
#
#
# Mechanical properties :
#
#
# Convention : Reuss Voigt Hill
#
# Bulk Modulus (GPa) = 41.91430 69.69330 55.80380
# Shear Modulus (GPa) = 18.65892 30.36690 24.51291
#
# Velocity S-wave (km/s) = 2.87709 3.67037 3.29767
# Velocity P-wave (km/s) = 5.44346 6.99144 6.26544
#
# Compressibility (1/GPa) = 0.02385820
#
# Stress axis : x y z
#
# Youngs Moduli (GPa) = 100.06034 40.82024 129.20691
#
# Poissons Ratio (x) = -0.05269 0.33975
# Poissons Ratio (y) = -0.12915 1.01398
# Poissons Ratio (z) = 0.26311 0.32034
#
# Static dielectric constant tensor:
#      x y z
#    x 1.845050 0.000000 0.000000 
#    y 0.000000 1.881910 0.000000 
#    z 0.000000 0.000000 1.716790 
# 
# From -- ./inp_files/10523.got.cif
#   From: 2010.05.17/outbox.cif.g08.bks.cpg/sg57_6_cif.got.tgz:10523.got - 2010.06.03 13:58:18.
