data_PCOD9440657
_publ_section_title
;
Structure prediction by ZEFSAII (Michael W. Deem and Ramdas Pophale) SiO2 
 PCOD9440657
Probable space group: P B C M
;
_chemical_formula_sum "Si O2"
_cell_formula_units_Z 32
_cell_length_a 12.000000
_cell_length_b 15.000000
_cell_length_c 9.000000
_cell_angle_alpha 90.000000
_cell_angle_beta 90.000000
_cell_angle_gamma 90.000000
_cell_volume 1620.000000
_symmetry_space_group_name_H-M "P B C M"
_symmetry_group_IT_number 57
_symmetry_cell_setting 'orthorhombic'
loop_
_space_group_symop_operation_xyz
x,y,z
-x,-y,1/2+z
x,1/2-y,-z
-x,1/2+y,1/2-z
-x,-y,-z
x,y,1/2-z
-x,1/2+y,z
x,1/2-y,1/2+z
loop_
_atom_site_type_symbol
_atom_site_label
_atom_site_fract_x
_atom_site_fract_y
_atom_site_fract_z
Si Si1 0.766199 0.340821 0.071677
Si Si2 0.010046 0.596564 0.074638
Si Si3 0.755849 0.843103 0.574717
Si Si4 0.377791 0.502389 0.071452
O O1 0.763089 0.341150 0.250000
O O2 0.724075 0.250000 0.000000
O O3 0.892448 0.354413 0.014087
O O4 0.691549 0.417870 0.002052
O O5 0.039231 0.590220 0.250000
O O6 0.888807 0.640825 0.063487
O O7 0.000000 0.500000 0.000000
O O8 0.728672 0.750000 0.500000
O O9 0.727153 0.847676 0.750000
O O10 0.690139 0.916277 0.481533
O O11 0.382456 0.509324 0.250000
O O12 0.500000 0.500000 0.000000
#
# Coordination Sequence:
#
# PCOD9440657 Si02
#       4
#     8   8   8   8
#     4  12  25  43  67  98 134 172 219 268 324 388
#     4  11  22  38  65  98 135 174 215 263 322 387
#     4  11  24  42  66  98 133 172 217 265 321 384
#     4  12  26  46  70  95 128 169 218 271 327 385
#
# _framework density 19.753086
#
# number of rings (size 3 to 8) (size 9 to 14) (size 15 to 20)
#    0.000    0.500    2.500    6.750    0.000    6.000 
#    0.000    5.000    0.000    0.000    0.000    0.000 
#    0.000    0.000    0.000    0.000    0.000    0.000 
#
# Total GULP energy -179033.503480 kJ/mol
# GULP energy per Si atom -5594.796984 kJ/mol
# Density = 1.970813 g / cm^3
# Si number density = 19.753086 Si / 1000 Ang^3
#
#
#
# Elastic Constant Matrix: (Units=GPa)
#
#
# Indices 1 2 3 4 5 6 
#
# 1 107.9301 51.2682 76.8532 0.0000 0.0000 0.0000
# 2 51.2682 178.5448 83.3026 0.0000 0.0000 0.0000
# 3 76.8532 83.3026 241.5889 0.0000 0.0000 0.0000
# 4 0.0000 0.0000 0.0000 30.4263 0.0000 0.0000
# 5 0.0000 0.0000 0.0000 0.0000 71.8808 0.0000
# 6 0.0000 0.0000 0.0000 0.0000 0.0000 -59.3930
#
#
#
# Elastic Compliance Matrix: (Units=1/GPa)
#
#
# Indices 1 2 3 4 5 6 
#
# 1 0.012596 -0.002082 -0.003289 0.000000 0.000000 0.000000
# 2 -0.002082 0.007019 -0.001758 0.000000 0.000000 0.000000
# 3 -0.003289 -0.001758 0.005792 0.000000 0.000000 0.000000
# 4 0.000000 0.000000 0.000000 0.032866 0.000000 0.000000
# 5 0.000000 0.000000 0.000000 0.000000 0.013912 0.000000
# 6 0.000000 0.000000 0.000000 0.000000 0.000000 -0.016837
#
#
# Mechanical properties :
#
#
# Convention : Reuss Voigt Hill
#
# Bulk Modulus (GPa) = 89.69814 105.65687 97.67751
# Shear Modulus (GPa) = 68.19141 29.69213 48.94177
#
# Velocity S-wave (km/s) = 5.88191 3.88127 4.98303
# Velocity P-wave (km/s) = 9.57274 8.58432 9.09197
#
# Compressibility (1/GPa) = 0.01114850
#
# Stress axis : x y z
#
# Youngs Moduli (GPa) = 79.38716 142.47261 172.66202
#
# Poissons Ratio (x) = 0.29669 0.56790
# Poissons Ratio (y) = 0.16532 0.30349
# Poissons Ratio (z) = 0.26111 0.25043
#
# Static dielectric constant tensor:
#      x y z
#    x 1.621880 0.000000 0.000000 
#    y 0.000000 1.518100 0.000000 
#    z 0.000000 0.000000 1.640890 
# 
# From -- ./inp_files/2359.got.cif
#   From: 2010.05.17/outbox.ucp.g08.bks.cvg/sg57_2_cif.got.tgz:2359.got - 2010.06.11 16:39:23.
