data_PCOD9440476
_publ_section_title
;
Structure prediction by ZEFSAII (Michael W. Deem and Ramdas Pophale) SiO2 
 PCOD9440476
Probable space group: P B C M
;
_chemical_formula_sum "Si O2"
_cell_formula_units_Z 64
_cell_length_a 12.000000
_cell_length_b 30.000000
_cell_length_c 9.000000
_cell_angle_alpha 90.000000
_cell_angle_beta 90.000000
_cell_angle_gamma 90.000000
_cell_volume 3240.000000
_symmetry_space_group_name_H-M "P B C M"
_symmetry_group_IT_number 57
_symmetry_cell_setting 'orthorhombic'
loop_
_space_group_symop_operation_xyz
x,y,z
-x,-y,1/2+z
x,1/2-y,-z
-x,1/2+y,1/2-z
-x,-y,-z
x,y,1/2-z
-x,1/2+y,z
x,1/2-y,1/2+z
loop_
_atom_site_type_symbol
_atom_site_label
_atom_site_fract_x
_atom_site_fract_y
_atom_site_fract_z
Si Si1 0.215334 0.794182 0.074740
Si Si2 0.222841 0.533717 0.926980
Si Si3 0.999592 0.156995 0.926267
Si Si4 0.400084 0.364491 0.071408
Si Si5 0.773936 0.702956 0.927997
Si Si6 0.988625 0.066296 0.074399
Si Si7 0.351246 0.879716 0.068018
Si Si8 0.752679 0.937125 0.926349
O O1 0.232166 0.790940 0.250000
O O2 0.084429 0.802380 0.049012
O O3 0.279243 0.837634 0.021154
O O4 0.256812 0.750000 0.000000
O O5 0.206807 0.537810 0.750000
O O6 0.294468 0.574967 0.982993
O O7 0.284834 0.487579 0.953518
O O8 0.100603 0.534866 0.997052
O O9 0.994382 0.145526 0.750000
O O10 0.124268 0.170340 0.967295
O O11 0.957535 0.115820 0.021352
O O12 0.402826 0.363946 0.250000
O O13 0.342159 0.318674 0.022840
O O14 0.523411 0.373189 0.016021
O O15 0.319143 0.403096 0.017845
O O16 0.775311 0.707046 0.750000
O O17 0.793278 0.750000 0.000000
O O18 0.982312 0.060498 0.250000
O O19 0.117554 0.063115 0.029872
O O20 0.351093 0.880944 0.250000
O O21 0.746358 0.927238 0.750000
#
# Coordination Sequence:
#
# PCOD9440476 Si02
#       8
#     8   8   8   8   8   8   8   8
#     4  10  20  35  56  81 110 143 182 224 274 331
#     4  10  20  38  60  80 111 151 185 221 277 340
#     4  10  19  35  57  80 107 149 185 215 276 341
#     4  10  21  38  59  81 108 146 191 231 270 324
#     4  10  21  35  55  82 110 143 183 224 273 330
#     4  11  21  33  54  86 116 141 178 229 278 325
#     4   9  19  37  59  80 106 146 190 228 269 324
#     4  10  22  37  56  84 114 146 182 227 281 330
#
# _framework density 19.753086
#
# number of rings (size 3 to 8) (size 9 to 14) (size 15 to 20)
#    0.000    2.000    2.500    1.125    0.000    3.500 
#    0.000    1.250    0.000    0.000    0.000    0.000 
#    0.000    0.000    0.000    0.000    0.000    0.000 
#
# Total GULP energy -356838.886623 kJ/mol
# GULP energy per Si atom -5575.607603 kJ/mol
# Density = 1.970813 g / cm^3
# Si number density = 19.753086 Si / 1000 Ang^3
#
#
#
# Elastic Constant Matrix: (Units=GPa)
#
#
# Indices 1 2 3 4 5 6 
#
# 1 78.5573 21.8341 13.4606 0.0000 0.0000 0.0000
# 2 21.8341 60.4908 13.3442 0.0000 0.0000 0.0000
# 3 13.4606 13.3442 -18.4750 0.0000 0.0000 0.0000
# 4 0.0000 0.0000 0.0000 13.1226 0.0000 0.0000
# 5 0.0000 0.0000 0.0000 0.0000 92.3955 0.0000
# 6 0.0000 0.0000 0.0000 0.0000 0.0000 -1.3639
#
#
#
# Elastic Compliance Matrix: (Units=1/GPa)
#
#
# Indices 1 2 3 4 5 6 
#
# 1 0.013483 -0.006067 0.005442 0.000000 0.000000 0.000000
# 2 -0.006067 0.016990 0.007851 0.000000 0.000000 0.000000
# 3 0.005442 0.007851 -0.044492 0.000000 0.000000 0.000000
# 4 0.000000 0.000000 0.000000 0.076204 0.000000 0.000000
# 5 0.000000 0.000000 0.000000 0.000000 0.010823 0.000000
# 6 0.000000 0.000000 0.000000 0.000000 0.000000 -0.733178
#
#
# Mechanical properties :
#
#
# Convention : Reuss Voigt Hill
#
# Bulk Modulus (GPa) = 2319.05900 24.20565 1171.63232
# Shear Modulus (GPa) = -7.41316 25.62646 9.10665
#
# Velocity S-wave (km/s) = -1.93934 3.60577 2.14948
# Velocity P-wave (km/s) = 34.22802 5.44207 24.50687
#
# Compressibility (1/GPa) = 0.00043121
#
# Stress axis : x y z
#
# Youngs Moduli (GPa) = 74.16476 58.85976 -22.47595
#
# Poissons Ratio (x) = 0.35712 0.12230
# Poissons Ratio (y) = 0.44998 0.17645
# Poissons Ratio (z) = -0.40357 -0.46210
#
# Static dielectric constant tensor:
#      x y z
#    x 1.693160 0.000000 0.000000 
#    y 0.000000 1.777490 0.000000 
#    z 0.000000 0.000000 1.665380 
# 
# From -- ./inp_files/3897.got.cif
#   From: 2010.05.17/outbox.ucp.g08.bks.cvg/sg57_2_cif.got.tgz:3897.got - 2010.06.11 16:39:23.
