data_PCOD9440849
_publ_section_title
;
Structure prediction by ZEFSAII (Michael W. Deem and Ramdas Pophale) SiO2 
 PCOD9440849
Probable space group: P N N M
;
_chemical_formula_sum "Si O2"
_cell_formula_units_Z 44
_cell_length_a 7.103492
_cell_length_b 12.867253
_cell_length_c 17.569828
_cell_angle_alpha 90.000000
_cell_angle_beta 90.000000
_cell_angle_gamma 90.000000
_cell_volume 1605.924952
_symmetry_space_group_name_H-M "P N N M"
_symmetry_group_IT_number 58
_symmetry_cell_setting 'orthorhombic'
loop_
_space_group_symop_operation_xyz
x,y,z
-x,-y,z
1/2+x,1/2-y,1/2-z
1/2-x,1/2+y,1/2-z
-x,-y,-z
x,y,-z
1/2-x,1/2+y,1/2+z
1/2+x,1/2-y,1/2+z
loop_
_atom_site_type_symbol
_atom_site_label
_atom_site_fract_x
_atom_site_fract_y
_atom_site_fract_z
Si Si1 0.907294 0.220089 0.752011
Si Si2 0.211848 0.540990 0.079123
Si Si3 0.000000 0.500000 0.367066
Si Si4 0.819487 0.286472 0.416595
Si Si5 0.364401 0.286025 0.417785
Si Si6 0.740325 0.928664 0.260452
O O1 0.800620 0.190205 0.831184
O O2 0.087643 0.146946 0.755868
O O3 0.855316 0.223790 0.661913
O O4 0.930621 0.344579 0.768835
O O5 0.198579 0.665763 0.076633
O O6 0.000000 0.500000 0.079385
O O7 0.284182 0.512638 0.162171
O O8 0.297979 0.503529 0.000000
O O9 0.941232 0.394176 0.411238
O O10 0.821690 0.497462 0.309317
O O11 0.865118 0.239517 0.500000
O O12 0.592070 0.300053 0.417184
O O13 0.306779 0.335404 0.500000
#
# Coordination Sequence:
#
# PCOD9440849 Si02
#       6
#     8   8   4   8   8   8
#     4  10  18  33  51  78 105 140 181 224 265 329
#     4   9  17  29  49  75 102 133 177 225 270 323
#     4  10  17  32  51  80 108 140 181 220 272 334
#     4  10  20  33  55  81 110 143 183 230 278 330
#     4   9  17  31  50  77 108 142 177 223 280 332
#     4  10  19  31  53  76 105 137 180 222 273 323
#
# _framework density 27.398541000000002
#
# number of rings (size 3 to 8) (size 9 to 14) (size 15 to 20)
#    0.000    2.364    4.545    0.273    0.000    0.727 
#    0.000    0.000    0.000    9.818    0.000    6.364 
#    0.000    0.000    0.000    0.000    0.000    0.000 
#
# Total GULP energy -244963.958204 kJ/mol
# GULP energy per Si atom -5567.362686 kJ/mol
# Density = 2.733618 g / cm^3
# Si number density = 27.398541 Si / 1000 Ang^3
#
#
#
# Elastic Constant Matrix: (Units=GPa)
#
#
# Indices 1 2 3 4 5 6 
#
# 1 78.9220 33.4668 30.1458 0.0000 0.0000 0.0000
# 2 33.4668 131.3034 34.3862 0.0000 0.0000 0.0000
# 3 30.1458 34.3862 327.9801 0.0000 0.0000 0.0000
# 4 0.0000 0.0000 0.0000 -25.1041 0.0000 0.0000
# 5 0.0000 0.0000 0.0000 0.0000 -138.0466 0.0000
# 6 0.0000 0.0000 0.0000 0.0000 0.0000 52.2457
#
#
#
# Elastic Compliance Matrix: (Units=1/GPa)
#
#
# Indices 1 2 3 4 5 6 
#
# 1 0.014501 -0.003442 -0.000972 0.000000 0.000000 0.000000
# 2 -0.003442 0.008648 -0.000590 0.000000 0.000000 0.000000
# 3 -0.000972 -0.000590 0.003200 0.000000 0.000000 0.000000
# 4 0.000000 0.000000 0.000000 -0.039834 0.000000 0.000000
# 5 0.000000 0.000000 0.000000 0.000000 -0.007244 0.000000
# 6 0.000000 0.000000 0.000000 0.000000 0.000000 0.019140
#
#
# Mechanical properties :
#
#
# Convention : Reuss Voigt Hill
#
# Bulk Modulus (GPa) = 61.19404 81.57813 71.38609
# Shear Modulus (GPa) = 360.57682 7.16611 183.87146
#
# Velocity S-wave (km/s) = 11.48434 1.61901 8.20095
# Velocity P-wave (km/s) = 14.07966 5.77358 10.76036
#
# Compressibility (1/GPa) = 0.01634146
#
# Stress axis : x y z
#
# Youngs Moduli (GPa) = 68.95867 115.63714 312.48037
#
# Poissons Ratio (x) = 0.39798 0.30375
# Poissons Ratio (y) = 0.23733 0.18446
# Poissons Ratio (z) = 0.06703 0.06826
#
# Static dielectric constant tensor:
#      x y z
#    x 2.203070 0.000000 0.000000 
#    y 0.000000 2.170710 0.000000 
#    z 0.000000 0.000000 2.209650 
# 
# From -- ./inp_files/25203.got.cif
#   From: 2010.05.17/outbox.cif.g08.bks.cpg/sg58_13_cif.got.tgz:25203.got - 2010.06.03 14:20:14.
