data_PCOD9440775
_publ_section_title
;
Structure prediction by ZEFSAII (Michael W. Deem and Ramdas Pophale) SiO2 
 PCOD9440775
Probable space group: P N N M
;
_chemical_formula_sum "Si O2"
_cell_formula_units_Z 64
_cell_length_a 18.935251
_cell_length_b 5.631722
_cell_length_c 29.414820
_cell_angle_alpha 90.000000
_cell_angle_beta 90.000000
_cell_angle_gamma 90.000000
_cell_volume 3136.739623
_symmetry_space_group_name_H-M "P N N M"
_symmetry_group_IT_number 58
_symmetry_cell_setting 'orthorhombic'
loop_
_space_group_symop_operation_xyz
x,y,z
-x,-y,z
1/2+x,1/2-y,1/2-z
1/2-x,1/2+y,1/2-z
-x,-y,-z
x,y,-z
1/2-x,1/2+y,1/2+z
1/2+x,1/2-y,1/2+z
loop_
_atom_site_type_symbol
_atom_site_label
_atom_site_fract_x
_atom_site_fract_y
_atom_site_fract_z
Si Si1 0.586686 0.624119 0.052371
Si Si2 0.214239 0.908488 0.678799
Si Si3 0.976617 0.243779 0.225189
Si Si4 0.754960 0.637220 0.552119
Si Si5 0.325801 0.091996 0.256765
Si Si6 0.751041 0.638218 0.074757
Si Si7 0.093438 0.378776 0.402017
Si Si8 0.589419 0.261111 0.198696
O O1 0.672616 0.627619 0.052818
O O2 0.567211 0.372416 0.076278
O O3 0.567542 0.871873 0.077038
O O4 0.564491 0.631873 0.000000
O O5 0.272382 0.077198 0.701798
O O6 0.135082 0.014973 0.681047
O O7 0.214045 0.688123 0.712712
O O8 0.237049 0.853850 0.628330
O O9 0.015393 0.231417 0.274743
O O10 0.000000 0.500000 0.205531
O O11 0.892789 0.246155 0.230834
O O12 0.000000 0.000000 0.201447
O O13 0.781096 0.642201 0.500000
O O14 0.715804 0.386879 0.559307
O O15 0.822511 0.629706 0.585925
O O16 0.715574 0.884773 0.561830
O O17 0.361847 0.852592 0.238257
O O18 0.082436 0.384640 0.347952
#
# Coordination Sequence:
#
# PCOD9440775 Si02
#       8
#     8   8   8   8   8   8   8   8
#     4  10  17  28  44  68 102 134 168 212 269 325
#     4  12  21  33  54  76 110 140 183 235 277 327
#     4  10  22  38  57  75 104 136 184 227 270 320
#     4  10  17  29  45  67 102 137 173 213 268 329
#     4  11  23  36  54  79 106 146 183 231 285 327
#     4  10  19  28  43  70  99 133 173 216 259 321
#     4  10  18  27  45  68  98 127 173 221 260 309
#     4  11  21  36  52  76 104 142 184 235 264 322
#
# _framework density 20.40335
#
# number of rings (size 3 to 8) (size 9 to 14) (size 15 to 20)
#    0.000    1.500    5.000    5.250    0.000    0.000 
#    0.000    0.000    0.000    0.000    0.000    0.000 
#    0.000  156.000    0.000    0.000    0.000   91.250 
#
# Total GULP energy -357042.825717 kJ/mol
# GULP energy per Si atom -5578.794152 kJ/mol
# Density = 2.035691 g / cm^3
# Si number density = 20.403350 Si / 1000 Ang^3
#
#
#
# Elastic Constant Matrix: (Units=GPa)
#
#
# Indices 1 2 3 4 5 6 
#
# 1 43.9856 11.3285 21.3449 0.0000 0.0000 0.0000
# 2 11.3285 162.8751 13.5902 0.0000 0.0000 0.0000
# 3 21.3449 13.5902 67.9625 0.0000 0.0000 0.0000
# 4 0.0000 0.0000 0.0000 26.3187 0.0000 0.0000
# 5 0.0000 0.0000 0.0000 0.0000 -4.0613 0.0000
# 6 0.0000 0.0000 0.0000 0.0000 0.0000 10.8542
#
#
#
# Elastic Compliance Matrix: (Units=1/GPa)
#
#
# Indices 1 2 3 4 5 6 
#
# 1 0.027049 -0.001192 -0.008257 0.000000 0.000000 0.000000
# 2 -0.001192 0.006296 -0.000885 0.000000 0.000000 0.000000
# 3 -0.008257 -0.000885 0.017484 0.000000 0.000000 0.000000
# 4 0.000000 0.000000 0.000000 0.037996 0.000000 0.000000
# 5 0.000000 0.000000 0.000000 0.000000 -0.246227 0.000000
# 6 0.000000 0.000000 0.000000 0.000000 0.000000 0.092130
#
#
# Mechanical properties :
#
#
# Convention : Reuss Voigt Hill
#
# Bulk Modulus (GPa) = 33.15459 40.81672 36.98566
# Shear Modulus (GPa) = -144.71563 21.85963 -61.42800
#
# Velocity S-wave (km/s) = -8.43098 3.27674 -5.49292
# Velocity P-wave (km/s) = 8.85947 5.86211 4.69712
#
# Compressibility (1/GPa) = 0.03016173
#
# Stress axis : x y z
#
# Youngs Moduli (GPa) = 36.97060 158.82051 57.19503
#
# Poissons Ratio (x) = 0.18938 0.47224
# Poissons Ratio (y) = 0.04408 0.05059
# Poissons Ratio (z) = 0.30525 0.14049
#
# Static dielectric constant tensor:
#      x y z
#    x 1.742870 0.000000 0.000000 
#    y 0.000000 1.989820 0.000000 
#    z 0.000000 0.000000 1.700690 
# 
# From -- ./inp_files/35135.got.cif
#   From: 2010.05.17/outbox.cif.g08.bks.cpg/sg58_18_cif.got.tgz:35135.got - 2010.06.03 14:20:14.
