data_PCOD9440852
_publ_section_title
;
Structure prediction by ZEFSAII (Michael W. Deem and Ramdas Pophale) SiO2 
 PCOD9440852
Probable space group: P N N M
;
_chemical_formula_sum "Si O2"
_cell_formula_units_Z 48
_cell_length_a 7.799354
_cell_length_b 16.852586
_cell_length_c 14.184810
_cell_angle_alpha 90.000000
_cell_angle_beta 90.000000
_cell_angle_gamma 90.000000
_cell_volume 1864.441270
_symmetry_space_group_name_H-M "P N N M"
_symmetry_group_IT_number 58
_symmetry_cell_setting 'orthorhombic'
loop_
_space_group_symop_operation_xyz
x,y,z
-x,-y,z
1/2+x,1/2-y,1/2-z
1/2-x,1/2+y,1/2-z
-x,-y,-z
x,y,-z
1/2-x,1/2+y,1/2+z
1/2+x,1/2-y,1/2+z
loop_
_atom_site_type_symbol
_atom_site_label
_atom_site_fract_x
_atom_site_fract_y
_atom_site_fract_z
Si Si1 0.775762 0.856051 0.136119
Si Si2 0.149058 0.926117 0.896681
Si Si3 0.919318 0.701284 0.631446
Si Si4 0.753879 0.858523 0.636390
Si Si5 0.615108 0.185049 0.644589
Si Si6 0.303088 0.474839 0.183832
O O1 0.575746 0.858756 0.105170
O O2 0.774511 0.859503 0.249670
O O3 0.807331 0.765276 0.106840
O O4 0.943944 0.907609 0.108876
O O5 0.244442 0.841885 0.895716
O O6 0.219178 0.966255 0.798972
O O7 0.189368 0.961483 0.000000
O O8 0.898883 0.794782 0.604362
O O9 0.920503 0.701318 0.744610
O O10 0.572278 0.826304 0.604566
O O11 0.728139 0.952825 0.623499
O O12 0.736793 0.108246 0.642947
O O13 0.500000 0.500000 0.175232
#
# Coordination Sequence:
#
# PCOD9440852 Si02
#       6
#     8   8   8   8   8   8
#     4  10  18  34  54  78 102 147 191 237 281 325
#     4  11  23  38  53  77 117 163 198 222 267 343
#     4   9  19  33  57  78 103 143 195 245 277 323
#     4  10  17  32  53  80 111 138 183 242 298 330
#     4   9  18  30  54  79 108 139 183 239 294 334
#     4  11  20  32  50  82 116 149 182 224 288 341
#
# _framework density 25.744980000000002
#
# number of rings (size 3 to 8) (size 9 to 14) (size 15 to 20)
#    0.000    2.000    3.333    1.500    4.667    1.000 
#    0.000    0.000    0.000    4.000    0.000    2.333 
#    0.000    4.000    0.000    0.000    0.000    0.000 
#
# Total GULP energy -267244.431726 kJ/mol
# GULP energy per Si atom -5567.592328 kJ/mol
# Density = 2.568638 g / cm^3
# Si number density = 25.744980 Si / 1000 Ang^3
#
#
#
# Elastic Constant Matrix: (Units=GPa)
#
#
# Indices 1 2 3 4 5 6 
#
# 1 66.2559 -12.9264 6.8213 0.0000 0.0000 0.0000
# 2 -12.9264 72.2248 -3.9541 0.0000 0.0000 0.0000
# 3 6.8213 -3.9541 107.7502 0.0000 0.0000 0.0000
# 4 0.0000 0.0000 0.0000 -26.5428 0.0000 0.0000
# 5 0.0000 0.0000 0.0000 0.0000 1.3062 0.0000
# 6 0.0000 0.0000 0.0000 0.0000 0.0000 35.2665
#
#
#
# Elastic Compliance Matrix: (Units=1/GPa)
#
#
# Indices 1 2 3 4 5 6 
#
# 1 0.015725 0.002765 -0.000894 0.000000 0.000000 0.000000
# 2 0.002765 0.014360 0.000352 0.000000 0.000000 0.000000
# 3 -0.000894 0.000352 0.009350 0.000000 0.000000 0.000000
# 4 0.000000 0.000000 0.000000 -0.037675 0.000000 0.000000
# 5 0.000000 0.000000 0.000000 0.000000 0.765580 0.000000
# 6 0.000000 0.000000 0.000000 0.000000 0.000000 0.028356
#
#
# Mechanical properties :
#
#
# Convention : Reuss Voigt Hill
#
# Bulk Modulus (GPa) = 22.78883 25.12362 23.95623
# Shear Modulus (GPa) = 6.20443 19.09198 12.64820
#
# Velocity S-wave (km/s) = 1.55409 2.72615 2.21891
# Velocity P-wave (km/s) = 3.47724 4.43723 3.98624
#
# Compressibility (1/GPa) = 0.04388114
#
# Stress axis : x y z
#
# Youngs Moduli (GPa) = 63.59486 69.63861 106.94917
#
# Poissons Ratio (x) = -0.19258 0.09561
# Poissons Ratio (y) = -0.17586 -0.03763
# Poissons Ratio (z) = 0.05685 -0.02451
#
# Static dielectric constant tensor:
#      x y z
#    x 2.221420 0.000000 0.000000 
#    y 0.000000 2.349960 0.000000 
#    z 0.000000 0.000000 2.061260 
# 
# From -- ./inp_files/25408.got.cif
#   From: 2010.05.17/outbox.cif.g08.bks.cpg/sg58_13_cif.got.tgz:25408.got - 2010.06.03 14:20:14.
