data_PCOD9440168
_publ_section_title
;
Structure prediction by ZEFSAII (Michael W. Deem and Ramdas Pophale) SiO2 
 PCOD9440168
Probable space group: P B C M
;
_chemical_formula_sum "Si O2"
_cell_formula_units_Z 48
_cell_length_a 5.652161
_cell_length_b 15.247819
_cell_length_c 23.932535
_cell_angle_alpha 90.000000
_cell_angle_beta 90.000000
_cell_angle_gamma 90.000000
_cell_volume 2062.580725
_symmetry_space_group_name_H-M "P B C M"
_symmetry_group_IT_number 57
_symmetry_cell_setting 'orthorhombic'
loop_
_space_group_symop_operation_xyz
x,y,z
-x,-y,1/2+z
x,1/2-y,-z
-x,1/2+y,1/2-z
-x,-y,-z
x,y,1/2-z
-x,1/2+y,z
x,1/2-y,1/2+z
loop_
_atom_site_type_symbol
_atom_site_label
_atom_site_fract_x
_atom_site_fract_y
_atom_site_fract_z
Si Si1 0.375958 0.414798 0.134062
Si Si2 0.185772 0.227261 0.365060
Si Si3 0.362321 0.519015 0.250000
Si Si4 0.132448 0.130768 0.250000
Si Si5 0.869789 0.581458 0.974196
Si Si6 0.446482 0.428368 0.928253
Si Si7 0.177187 0.797120 0.546365
O O1 0.372837 0.308434 0.135589
O O2 0.356844 0.457816 0.194757
O O3 0.156543 0.427465 0.091428
O O4 0.564582 0.477113 0.101564
O O5 0.130773 0.194164 0.303524
O O6 0.285344 0.141339 0.395946
O O7 0.952321 0.249066 0.401615
O O8 0.614560 0.574763 0.250000
O O9 0.114642 0.574749 0.250000
O O10 0.998005 0.664943 0.999571
O O11 0.622821 0.577111 0.006969
O O12 0.000000 0.500000 0.000000
O O13 0.700138 0.381514 0.925512
O O14 0.348731 0.750000 0.500000
#
# Coordination Sequence:
#
# PCOD9440168 Si02
#       7
#     8   8   4   4   8   8   8
#     4  12  24  48  70 110 141 198 255 304 378 451
#     4  11  26  46  73 105 149 196 254 313 373 463
#     4  12  29  52  81 105 149 204 253 322 379 453
#     4  12  27  56  77 105 151 196 253 322 381 439
#     4  11  24  40  66 104 148 186 239 300 374 448
#     4  11  25  42  71 108 149 196 237 309 380 445
#     4  11  23  41  67 106 148 198 240 306 381 445
#
# _framework density 23.271813999999999
#
# number of rings (size 3 to 8) (size 9 to 14) (size 15 to 20)
#    0.000    0.667    5.000    2.000    4.667    0.000 
#    3.000    1.667    0.000    0.000    0.000    0.000 
#    0.000    0.000    0.000    0.000    0.000    0.000 
#
# Total GULP energy -267310.351614 kJ/mol
# GULP energy per Si atom -5568.965659 kJ/mol
# Density = 2.321885 g / cm^3
# Si number density = 23.271814 Si / 1000 Ang^3
#
#
#
# Elastic Constant Matrix: (Units=GPa)
#
#
# Indices 1 2 3 4 5 6 
#
# 1 66.9085 21.4775 15.0317 0.0000 0.0000 0.0000
# 2 21.4775 102.2955 16.2657 0.0000 0.0000 0.0000
# 3 15.0317 16.2657 184.2673 0.0000 0.0000 0.0000
# 4 0.0000 0.0000 0.0000 44.6309 0.0000 0.0000
# 5 0.0000 0.0000 0.0000 0.0000 6.2776 0.0000
# 6 0.0000 0.0000 0.0000 0.0000 0.0000 30.4669
#
#
#
# Elastic Compliance Matrix: (Units=1/GPa)
#
#
# Indices 1 2 3 4 5 6 
#
# 1 0.016219 -0.003240 -0.001037 0.000000 0.000000 0.000000
# 2 -0.003240 0.010562 -0.000668 0.000000 0.000000 0.000000
# 3 -0.001037 -0.000668 0.005570 0.000000 0.000000 0.000000
# 4 0.000000 0.000000 0.000000 0.022406 0.000000 0.000000
# 5 0.000000 0.000000 0.000000 0.000000 0.159296 0.000000
# 6 0.000000 0.000000 0.000000 0.000000 0.000000 0.032823
#
#
# Mechanical properties :
#
#
# Convention : Reuss Voigt Hill
#
# Bulk Modulus (GPa) = 44.52216 51.00235 47.76226
# Shear Modulus (GPa) = 18.92124 36.32150 27.62137
#
# Velocity S-wave (km/s) = 2.85450 3.95492 3.44888
# Velocity P-wave (km/s) = 5.48062 6.54360 6.03556
#
# Compressibility (1/GPa) = 0.02246072
#
# Stress axis : x y z
#
# Youngs Moduli (GPa) = 61.65644 94.67775 179.51826
#
# Poissons Ratio (x) = 0.30679 0.18617
# Poissons Ratio (y) = 0.19979 0.11992
# Poissons Ratio (z) = 0.06394 0.06325
#
# Static dielectric constant tensor:
#      x y z
#    x 2.253970 0.000000 0.000000 
#    y 0.000000 -0.668950 0.000000 
#    z 0.000000 0.000000 1.762750 
# 
# From -- ./inp_files/27993.got.cif
#   From: 2010.05.17/outbox.cif.g08.bks.cpg/sg57_14_cif.got.tgz:27993.got - 2010.06.03 13:58:18.
