data_PCOD9440232
_publ_section_title
;
Structure prediction by ZEFSAII (Michael W. Deem and Ramdas Pophale) SiO2 
 PCOD9440232
Probable space group: P B C M
;
_chemical_formula_sum "Si O2"
_cell_formula_units_Z 64
_cell_length_a 13.712097
_cell_length_b 9.439342
_cell_length_c 23.287722
_cell_angle_alpha 90.000000
_cell_angle_beta 90.000000
_cell_angle_gamma 90.000000
_cell_volume 3014.203753
_symmetry_space_group_name_H-M "P B C M"
_symmetry_group_IT_number 57
_symmetry_cell_setting 'orthorhombic'
loop_
_space_group_symop_operation_xyz
x,y,z
-x,-y,1/2+z
x,1/2-y,-z
-x,1/2+y,1/2-z
-x,-y,-z
x,y,1/2-z
-x,1/2+y,z
x,1/2-y,1/2+z
loop_
_atom_site_type_symbol
_atom_site_label
_atom_site_fract_x
_atom_site_fract_y
_atom_site_fract_z
Si Si1 0.297455 0.241093 0.816493
Si Si2 0.300503 0.766396 0.182380
Si Si3 0.387614 0.016321 0.383907
Si Si4 0.705786 0.921032 0.497811
Si Si5 0.386955 0.506124 0.124848
Si Si6 0.098917 0.916801 0.515918
Si Si7 0.078336 0.304667 0.316360
Si Si8 0.901161 0.123369 0.149121
O O1 0.304429 0.282165 0.750000
O O2 0.367631 0.330807 0.856505
O O3 0.184894 0.248261 0.835561
O O4 0.330802 0.080785 0.825931
O O5 0.325610 0.771055 0.250000
O O6 0.369942 0.666771 0.143985
O O7 0.191895 0.703511 0.175189
O O8 0.314250 0.917465 0.152220
O O9 0.363517 0.026584 0.450892
O O10 0.499056 0.972494 0.375621
O O11 0.715555 0.750000 0.500000
O O12 0.661815 0.968030 0.436271
O O13 0.808835 0.998636 0.509331
O O14 0.095035 0.750000 0.500000
O O15 0.117284 0.919919 0.583856
O O16 0.000000 0.000000 0.500000
O O17 0.066221 0.263354 0.250000
O O18 0.076442 0.474720 0.320084
O O19 0.992398 0.229315 0.350109
#
# Coordination Sequence:
#
# PCOD9440232 Si02
#       8
#     8   8   8   8   8   8   8   8
#     4  11  24  45  70 103 144 187 237 296 359 429
#     4  12  26  46  72 105 148 188 236 302 366 438
#     4  12  28  44  73 105 142 188 245 300 362 429
#     4  12  26  48  73 103 145 189 243 304 363 430
#     4  12  25  49  72 103 140 193 241 300 362 430
#     4  12  26  45  73 108 142 188 238 299 364 430
#     4  11  24  42  68  99 136 180 226 279 345 423
#     4  12  25  45  70 102 140 183 232 285 356 428
#
# _framework density 21.232804999999999
#
# number of rings (size 3 to 8) (size 9 to 14) (size 15 to 20)
#    0.000    0.250    3.750    4.875    3.500    3.000 
#    0.000    0.000    0.000    0.000    0.000    0.000 
#    0.000    0.000    0.000    0.000    0.000    0.000 
#
# Total GULP energy -358012.086707 kJ/mol
# GULP energy per Si atom -5593.938855 kJ/mol
# Density = 2.118448 g / cm^3
# Si number density = 21.232805 Si / 1000 Ang^3
#
#
#
# Elastic Constant Matrix: (Units=GPa)
#
#
# Indices 1 2 3 4 5 6 
#
# 1 121.7968 18.6691 12.8431 0.0000 0.0000 0.0000
# 2 18.6691 61.9694 7.7827 0.0000 0.0000 0.0000
# 3 12.8431 7.7827 87.1509 0.0000 0.0000 0.0000
# 4 0.0000 0.0000 0.0000 37.2068 0.0000 0.0000
# 5 0.0000 0.0000 0.0000 0.0000 8.1257 0.0000
# 6 0.0000 0.0000 0.0000 0.0000 0.0000 33.0761
#
#
#
# Elastic Compliance Matrix: (Units=1/GPa)
#
#
# Indices 1 2 3 4 5 6 
#
# 1 0.008704 -0.002489 -0.001060 0.000000 0.000000 0.000000
# 2 -0.002489 0.017032 -0.001154 0.000000 0.000000 0.000000
# 3 -0.001060 -0.001154 0.011734 0.000000 0.000000 0.000000
# 4 0.000000 0.000000 0.000000 0.026877 0.000000 0.000000
# 5 0.000000 0.000000 0.000000 0.000000 0.123066 0.000000
# 6 0.000000 0.000000 0.000000 0.000000 0.000000 0.030233
#
#
# Mechanical properties :
#
#
# Convention : Reuss Voigt Hill
#
# Bulk Modulus (GPa) = 35.63510 38.83410 37.23460
# Shear Modulus (GPa) = 21.15004 31.12319 26.13661
#
# Velocity S-wave (km/s) = 3.15953 3.83274 3.51230
# Velocity P-wave (km/s) = 5.48905 6.15759 5.83290
#
# Compressibility (1/GPa) = 0.02806222
#
# Stress axis : x y z
#
# Youngs Moduli (GPa) = 114.89346 58.71378 85.22471
#
# Poissons Ratio (x) = 0.14614 0.09037
# Poissons Ratio (y) = 0.28596 0.09836
# Poissons Ratio (z) = 0.12183 0.06777
#
# Static dielectric constant tensor:
#      x y z
#    x 1.745740 0.000000 0.000000 
#    y 0.000000 1.752710 0.000000 
#    z 0.000000 0.000000 1.746400 
# 
# From -- ./inp_files/27490.got.cif
#   From: 2010.05.17/outbox.cif.g08.bks.cpg/sg57_14_cif.got.tgz:27490.got - 2010.06.03 13:58:18.
