data_PCOD9440233
_publ_section_title
;
Structure prediction by ZEFSAII (Michael W. Deem and Ramdas Pophale) SiO2 
 PCOD9440233
Probable space group: P B C M
;
_chemical_formula_sum "Si O2"
_cell_formula_units_Z 40
_cell_length_a 6.601713
_cell_length_b 12.051789
_cell_length_c 22.425888
_cell_angle_alpha 90.000000
_cell_angle_beta 90.000000
_cell_angle_gamma 90.000000
_cell_volume 1784.258640
_symmetry_space_group_name_H-M "P B C M"
_symmetry_group_IT_number 57
_symmetry_cell_setting 'orthorhombic'
loop_
_space_group_symop_operation_xyz
x,y,z
-x,-y,1/2+z
x,1/2-y,-z
-x,1/2+y,1/2-z
-x,-y,-z
x,y,1/2-z
-x,1/2+y,z
x,1/2-y,1/2+z
loop_
_atom_site_type_symbol
_atom_site_label
_atom_site_fract_x
_atom_site_fract_y
_atom_site_fract_z
Si Si1 0.564985 0.355432 0.250000
Si Si2 0.386519 0.498186 0.062722
Si Si3 0.239693 0.937577 0.134137
Si Si4 0.937572 0.806046 0.435687
Si Si5 0.384259 0.612224 0.250000
Si Si6 0.087420 0.880995 0.638721
O O1 0.694847 0.362971 0.310610
O O2 0.460094 0.481493 0.250000
O O3 0.476133 0.227140 0.250000
O O4 0.562957 0.500881 0.111545
O O5 0.255973 0.385753 0.068096
O O6 0.222973 0.591598 0.079835
O O7 0.500000 0.500000 0.000000
O O8 0.143220 0.874258 0.077489
O O9 0.061834 0.018591 0.153642
O O10 0.935398 0.750000 0.500000
O O11 0.944836 0.719441 0.381347
O O12 0.241310 0.626746 0.307353
#
# Coordination Sequence:
#
# PCOD9440233 Si02
#       6
#     4   8   8   8   4   8
#     4  12  25  48  76 111 148 203 252 313 384 449
#     4  11  24  43  69 103 148 190 248 309 373 447
#     4  11  24  45  70 104 147 195 245 311 375 449
#     4  11  24  42  69 104 141 196 247 302 376 455
#     4  12  25  50  78 111 156 197 258 319 380 457
#     4  11  24  45  72 104 148 195 251 308 379 456
#
# _framework density 22.418275000000001
#
# number of rings (size 3 to 8) (size 9 to 14) (size 15 to 20)
#    0.000    0.800    4.000    3.000    0.000    8.800 
#    0.000    1.000    0.000    0.000    0.000    0.000 
#    0.000    0.000    0.000    0.000    0.000    0.000 
#
# Total GULP energy -223108.594684 kJ/mol
# GULP energy per Si atom -5577.714867 kJ/mol
# Density = 2.236725 g / cm^3
# Si number density = 22.418275 Si / 1000 Ang^3
#
#
#
# Elastic Constant Matrix: (Units=GPa)
#
#
# Indices 1 2 3 4 5 6 
#
# 1 77.1602 41.0397 30.8789 0.0000 0.0000 0.0000
# 2 41.0397 127.5541 20.2108 0.0000 0.0000 0.0000
# 3 30.8789 20.2108 93.3098 0.0000 0.0000 0.0000
# 4 0.0000 0.0000 0.0000 26.1362 0.0000 0.0000
# 5 0.0000 0.0000 0.0000 0.0000 25.5522 0.0000
# 6 0.0000 0.0000 0.0000 0.0000 0.0000 17.1405
#
#
#
# Elastic Compliance Matrix: (Units=1/GPa)
#
#
# Indices 1 2 3 4 5 6 
#
# 1 0.017433 -0.004862 -0.004716 0.000000 0.000000 0.000000
# 2 -0.004862 0.009474 -0.000443 0.000000 0.000000 0.000000
# 3 -0.004716 -0.000443 0.012374 0.000000 0.000000 0.000000
# 4 0.000000 0.000000 0.000000 0.038261 0.000000 0.000000
# 5 0.000000 0.000000 0.000000 0.000000 0.039136 0.000000
# 6 0.000000 0.000000 0.000000 0.000000 0.000000 0.058341
#
#
# Mechanical properties :
#
#
# Convention : Reuss Voigt Hill
#
# Bulk Modulus (GPa) = 51.97769 53.58699 52.78234
# Shear Modulus (GPa) = 24.81704 27.49210 26.15457
#
# Velocity S-wave (km/s) = 3.33077 3.50569 3.41935
# Velocity P-wave (km/s) = 6.16667 6.35151 6.25977
#
# Compressibility (1/GPa) = 0.01923902
#
# Stress axis : x y z
#
# Youngs Moduli (GPa) = 57.36159 105.54887 80.81668
#
# Poissons Ratio (x) = 0.51316 0.38114
# Poissons Ratio (y) = 0.27888 0.03582
# Poissons Ratio (z) = 0.27052 0.04678
#
# Static dielectric constant tensor:
#      x y z
#    x 1.780780 0.000000 0.000000 
#    y 0.000000 1.969360 0.000000 
#    z 0.000000 0.000000 1.825030 
# 
# From -- ./inp_files/27825.got.cif
#   From: 2010.05.17/outbox.cif.g08.bks.cpg/sg57_14_cif.got.tgz:27825.got - 2010.06.03 13:58:18.
