data_PCOD9440970
_publ_section_title
;
Structure prediction by ZEFSAII (Michael W. Deem and Ramdas Pophale) SiO2 
 PCOD9440970
Probable space group: P N N M
;
_chemical_formula_sum "Si O2"
_cell_formula_units_Z 64
_cell_length_a 18.496018
_cell_length_b 20.988387
_cell_length_c 7.556767
_cell_angle_alpha 90.000000
_cell_angle_beta 90.000000
_cell_angle_gamma 90.000000
_cell_volume 2933.548917
_symmetry_space_group_name_H-M "P N N M"
_symmetry_group_IT_number 58
_symmetry_cell_setting 'orthorhombic'
loop_
_space_group_symop_operation_xyz
x,y,z
-x,-y,z
1/2+x,1/2-y,1/2-z
1/2-x,1/2+y,1/2-z
-x,-y,-z
x,y,-z
1/2-x,1/2+y,1/2+z
1/2+x,1/2-y,1/2+z
loop_
_atom_site_type_symbol
_atom_site_label
_atom_site_fract_x
_atom_site_fract_y
_atom_site_fract_z
Si Si1 0.110817 0.000114 0.798593
Si Si2 0.222175 0.500061 0.790656
Si Si3 0.792292 0.639036 0.290305
Si Si4 0.207663 0.639156 0.290250
Si Si5 0.421935 0.776148 0.210639
Si Si6 0.127108 0.863468 0.214469
Si Si7 0.872876 0.863228 0.785483
Si Si8 0.421919 0.224085 0.789271
O O1 0.198918 0.000108 0.800668
O O2 0.094422 0.069520 0.719443
O O3 0.094411 0.930713 0.719412
O O4 0.083617 0.000130 0.000000
O O5 0.184697 0.434201 0.738479
O O6 0.184652 0.565935 0.738802
O O7 0.234292 0.499999 0.000000
O O8 0.786332 0.650824 0.500000
O O9 0.851772 0.687303 0.216257
O O10 0.710232 0.644176 0.220144
O O11 0.213570 0.650825 0.500000
O O12 0.289731 0.644343 0.220216
O O13 0.148249 0.687506 0.216319
O O14 0.413549 0.700822 0.237745
O O15 0.500040 0.796919 0.281974
O O16 0.422445 0.788140 0.000000
O O17 0.086382 0.799400 0.261794
O O18 0.128746 0.868601 0.000000
O O19 0.871317 0.868254 0.000000
O O20 0.422407 0.212274 0.000000
#
# Coordination Sequence:
#
# PCOD9440970 Si02
#       8
#     8   8   8   8   8   8   8   8
#     4   8  16  32  51  74 103 131 161 197 243 298
#     4  10  18  28  49  80 103 121 157 207 251 288
#     4   9  18  34  53  72  99 133 165 198 242 298
#     4   9  18  34  53  72  99 133 165 198 242 298
#     4  10  21  35  50  71 100 133 168 205 245 290
#     4   9  17  31  53  76  97 126 163 204 247 290
#     4   9  17  31  53  76  97 126 163 204 247 290
#     4  10  21  35  50  71 100 133 168 205 245 290
#
# _framework density 21.816576999999999
#
# number of rings (size 3 to 8) (size 9 to 14) (size 15 to 20)
#    0.000    2.750    0.000    3.375    0.000    5.500 
#    0.000    1.250    0.000    7.500    0.000    0.000 
#    0.000    0.000    0.000    0.000    0.000    0.000 
#
# Total GULP energy -357008.153707 kJ/mol
# GULP energy per Si atom -5578.252402 kJ/mol
# Density = 2.176692 g / cm^3
# Si number density = 21.816577 Si / 1000 Ang^3
#
#
#
# Elastic Constant Matrix: (Units=GPa)
#
#
# Indices 1 2 3 4 5 6 
#
# 1 86.4478 34.9716 6.4725 0.0000 0.0000 0.0000
# 2 34.9716 88.3541 -25.3341 0.0000 0.0000 0.0000
# 3 6.4725 -25.3341 53.6317 0.0000 0.0000 0.0000
# 4 0.0000 0.0000 0.0000 20.4121 0.0000 0.0000
# 5 0.0000 0.0000 0.0000 0.0000 1.8589 0.0000
# 6 0.0000 0.0000 0.0000 0.0000 0.0000 -36.8404
#
#
#
# Elastic Compliance Matrix: (Units=1/GPa)
#
#
# Indices 1 2 3 4 5 6 
#
# 1 0.014985 -0.007460 -0.005332 0.000000 0.000000 0.000000
# 2 -0.007460 0.016805 0.008839 0.000000 0.000000 0.000000
# 3 -0.005332 0.008839 0.023464 0.000000 0.000000 0.000000
# 4 0.000000 0.000000 0.000000 0.048990 0.000000 0.000000
# 5 0.000000 0.000000 0.000000 0.000000 0.537963 0.000000
# 6 0.000000 0.000000 0.000000 0.000000 0.000000 -0.027144
#
#
# Mechanical properties :
#
#
# Convention : Reuss Voigt Hill
#
# Bulk Modulus (GPa) = 21.12086 28.96152 25.04119
# Shear Modulus (GPa) = 7.82774 11.24102 9.53438
#
# Velocity S-wave (km/s) = 1.89625 2.27238 2.09278
# Velocity P-wave (km/s) = 3.80742 4.49319 4.16445
#
# Compressibility (1/GPa) = 0.04734656
#
# Stress axis : x y z
#
# Youngs Moduli (GPa) = 66.73408 59.50525 42.61791
#
# Poissons Ratio (x) = 0.44392 0.22726
# Poissons Ratio (y) = 0.49785 -0.37668
# Poissons Ratio (z) = 0.35585 -0.52594
#
# Static dielectric constant tensor:
#      x y z
#    x 1.807410 0.000000 0.000000 
#    y 0.000000 1.815860 0.000000 
#    z 0.000000 0.000000 1.832180 
# 
# From -- ./inp_files/8263.got.cif
#   From: 2010.05.17/outbox.cif.g08.bks.cpg/sg58_5_cif.got.tgz:8263.got - 2010.06.03 14:20:14.
