data_PCOD9440147
_publ_section_title
;
Structure prediction by ZEFSAII (Michael W. Deem and Ramdas Pophale) SiO2 
 PCOD9440147
Probable space group: P B C M
;
_chemical_formula_sum "Si O2"
_cell_formula_units_Z 48
_cell_length_a 31.569323
_cell_length_b 9.294140
_cell_length_c 8.542114
_cell_angle_alpha 90.000000
_cell_angle_beta 90.000000
_cell_angle_gamma 90.000000
_cell_volume 2506.339172
_symmetry_space_group_name_H-M "P B C M"
_symmetry_group_IT_number 57
_symmetry_cell_setting 'orthorhombic'
loop_
_space_group_symop_operation_xyz
x,y,z
-x,-y,1/2+z
x,1/2-y,-z
-x,1/2+y,1/2-z
-x,-y,-z
x,y,1/2-z
-x,1/2+y,z
x,1/2-y,1/2+z
loop_
_atom_site_type_symbol
_atom_site_label
_atom_site_fract_x
_atom_site_fract_y
_atom_site_fract_z
Si Si1 0.783361 0.089081 0.438823
Si Si2 0.121258 0.910674 0.938982
Si Si3 0.039865 0.410913 0.438024
Si Si4 0.701629 0.911781 0.061393
Si Si5 0.378550 0.912746 0.062609
Si Si6 0.459454 0.413089 0.062483
O O1 0.774713 0.250000 0.500000
O O2 0.783052 0.094177 0.250000
O O3 0.831055 0.047842 0.489775
O O4 0.746699 0.979934 0.488179
O O5 0.120946 0.907541 0.750000
O O6 0.083781 0.015084 0.991183
O O7 0.113146 0.750000 0.000000
O O8 0.037392 0.250000 0.500000
O O9 0.039003 0.411174 0.250000
O O10 0.000000 0.500000 0.500000
O O11 0.699340 0.911826 0.250000
O O12 0.697007 0.750000 0.000000
O O13 0.664390 0.011502 0.995065
O O14 0.380025 0.911414 0.250000
O O15 0.380849 0.750000 0.000000
O O16 0.417711 0.005124 0.997295
O O17 0.459932 0.411250 0.250000
O O18 0.460135 0.250000 0.000000
O O19 0.500000 0.500000 0.000000
#
# Coordination Sequence:
#
# PCOD9440147 Si02
#       6
#     8   8   8   8   8   8
#     4   9  19  36  58  83 113 148 190 235 286 343
#     4   9  19  36  57  82 111 146 186 233 284 341
#     4  11  23  38  57  81 112 147 188 234 286 342
#     4  11  23  39  59  86 119 156 196 243 294 348
#     4  12  25  43  65  91 122 159 201 247 297 352
#     4  12  25  44  67  95 128 164 204 248 298 352
#
# _framework density 19.151439
#
# number of rings (size 3 to 8) (size 9 to 14) (size 15 to 20)
#    0.000    1.333    0.000    6.000    0.000    6.000 
#    0.000    0.000    0.000    0.000    0.000    0.000 
#    0.000    0.000    0.000    0.000    0.000    0.000 
#
# Total GULP energy -268434.570586 kJ/mol
# GULP energy per Si atom -5592.386887 kJ/mol
# Density = 1.910785 g / cm^3
# Si number density = 19.151439 Si / 1000 Ang^3
#
#
#
# Elastic Constant Matrix: (Units=GPa)
#
#
# Indices 1 2 3 4 5 6 
#
# 1 171.4095 124.0197 58.7728 0.0000 0.0000 0.0000
# 2 124.0197 187.8308 58.6951 0.0000 0.0000 0.0000
# 3 58.7728 58.6951 105.6141 0.0000 0.0000 0.0000
# 4 0.0000 0.0000 0.0000 38.5028 0.0000 0.0000
# 5 0.0000 0.0000 0.0000 0.0000 29.4296 0.0000
# 6 0.0000 0.0000 0.0000 0.0000 0.0000 44.3434
#
#
#
# Elastic Compliance Matrix: (Units=1/GPa)
#
#
# Indices 1 2 3 4 5 6 
#
# 1 0.011774 -0.006930 -0.002701 0.000000 0.000000 0.000000
# 2 -0.006930 0.010522 -0.001991 0.000000 0.000000 0.000000
# 3 -0.002701 -0.001991 0.012078 0.000000 0.000000 0.000000
# 4 0.000000 0.000000 0.000000 0.025972 0.000000 0.000000
# 5 0.000000 0.000000 0.000000 0.000000 0.033979 0.000000
# 6 0.000000 0.000000 0.000000 0.000000 0.000000 0.022551
#
#
# Mechanical properties :
#
#
# Convention : Reuss Voigt Hill
#
# Bulk Modulus (GPa) = 89.84635 105.31441 97.58038
# Shear Modulus (GPa) = 34.76305 37.34629 36.05467
#
# Velocity S-wave (km/s) = 4.26510 4.42073 4.34361
# Velocity P-wave (km/s) = 8.44217 9.00926 8.73032
#
# Compressibility (1/GPa) = 0.01113011
#
# Stress axis : x y z
#
# Youngs Moduli (GPa) = 84.93094 95.03897 82.79639
#
# Poissons Ratio (x) = 0.65865 0.22361
# Poissons Ratio (y) = 0.58860 0.16485
# Poissons Ratio (z) = 0.22937 0.18922
#
# Static dielectric constant tensor:
#      x y z
#    x 1.667930 0.000000 0.000000 
#    y 0.000000 1.613660 0.000000 
#    z 0.000000 0.000000 1.651030 
# 
# From -- ./inp_files/9989.got.cif
#   From: 2010.05.17/outbox.cif.g08.bks.cpg/sg57_5_cif.got.tgz:9989.got - 2010.06.03 13:58:18.
