data_PCOD9440966
_publ_section_title
;
Structure prediction by ZEFSAII (Michael W. Deem and Ramdas Pophale) SiO2 
 PCOD9440966
Probable space group: P N N M
;
_chemical_formula_sum "Si O2"
_cell_formula_units_Z 64
_cell_length_a 20.460033
_cell_length_b 20.287535
_cell_length_c 7.357519
_cell_angle_alpha 90.000000
_cell_angle_beta 90.000000
_cell_angle_gamma 90.000000
_cell_volume 3053.985735
_symmetry_space_group_name_H-M "P N N M"
_symmetry_group_IT_number 58
_symmetry_cell_setting 'orthorhombic'
loop_
_space_group_symop_operation_xyz
x,y,z
-x,-y,z
1/2+x,1/2-y,1/2-z
1/2-x,1/2+y,1/2-z
-x,-y,-z
x,y,-z
1/2-x,1/2+y,1/2+z
1/2+x,1/2-y,1/2+z
loop_
_atom_site_type_symbol
_atom_site_label
_atom_site_fract_x
_atom_site_fract_y
_atom_site_fract_z
Si Si1 0.753086 0.791650 0.719253
Si Si2 0.221943 0.354945 0.279098
Si Si3 0.708758 0.510997 0.722709
Si Si4 0.933874 0.968550 0.211751
Si Si5 0.176836 0.583855 0.290708
Si Si6 0.469005 0.069584 0.777758
Si Si7 0.100268 0.178119 0.280956
Si Si8 0.425194 0.825121 0.221481
O O1 0.752620 0.792332 0.500000
O O2 0.749405 0.715772 0.777393
O O3 0.697185 0.840057 0.784470
O O4 0.823738 0.819965 0.778206
O O5 0.221464 0.355842 0.500000
O O6 0.263879 0.417640 0.221975
O O7 0.145595 0.354388 0.223501
O O8 0.706988 0.508773 0.500000
O O9 0.635873 0.493450 0.787062
O O10 0.762647 0.457846 0.785833
O O11 0.933441 0.889170 0.221596
O O12 0.932803 0.987877 0.000000
O O13 0.000000 0.000000 0.290357
O O14 0.171784 0.561893 0.500000
O O15 0.105252 0.573985 0.211757
O O16 0.515588 0.129150 0.718107
O O17 0.500000 0.000000 0.726472
O O18 0.468169 0.072191 0.000000
O O19 0.099994 0.177861 0.500000
O O20 0.071013 0.248546 0.222153
O O21 0.424800 0.825102 0.000000
#
# Coordination Sequence:
#
# PCOD9440966 Si02
#       8
#     8   8   8   8   8   8   8   8
#     4   9  17  30  48  69  91 119 157 194 226 272
#     4   8  14  26  46  68  90 120 157 192 225 267
#     4   9  16  28  46  68  92 120 155 191 230 276
#     4  10  20  33  48  68  95 124 156 200 244 277
#     4  10  18  28  48  73  96 123 150 188 239 278
#     4   9  16  26  43  71 101 123 151 192 234 276
#     4   9  17  31  51  69  90 125 161 191 231 280
#     4   8  14  26  44  68  96 123 154 192 229 274
#
# _framework density 20.956220999999999
#
# number of rings (size 3 to 8) (size 9 to 14) (size 15 to 20)
#    0.000    3.000    1.250    2.250    0.000    3.250 
#    2.250    0.000    0.000    1.875    0.000    3.500 
#    0.000    0.000    0.000    0.000    0.000    0.000 
#
# Total GULP energy -357168.656257 kJ/mol
# GULP energy per Si atom -5580.760254 kJ/mol
# Density = 2.090852 g / cm^3
# Si number density = 20.956221 Si / 1000 Ang^3
#
#
#
# Elastic Constant Matrix: (Units=GPa)
#
#
# Indices 1 2 3 4 5 6 
#
# 1 200.5542 123.0710 9.2888 0.0000 0.0000 0.0000
# 2 123.0710 156.5270 -4.4611 0.0000 0.0000 0.0000
# 3 9.2888 -4.4611 74.1742 0.0000 0.0000 0.0000
# 4 0.0000 0.0000 0.0000 4.9284 0.0000 0.0000
# 5 0.0000 0.0000 0.0000 0.0000 30.6420 0.0000
# 6 0.0000 0.0000 0.0000 0.0000 0.0000 34.2040
#
#
#
# Elastic Compliance Matrix: (Units=1/GPa)
#
#
# Indices 1 2 3 4 5 6 
#
# 1 0.009845 -0.007789 -0.001701 0.000000 0.000000 0.000000
# 2 -0.007789 0.012562 0.001731 0.000000 0.000000 0.000000
# 3 -0.001701 0.001731 0.013799 0.000000 0.000000 0.000000
# 4 0.000000 0.000000 0.000000 0.202906 0.000000 0.000000
# 5 0.000000 0.000000 0.000000 0.000000 0.032635 0.000000
# 6 0.000000 0.000000 0.000000 0.000000 0.000000 0.029236
#
#
# Mechanical properties :
#
#
# Convention : Reuss Voigt Hill
#
# Bulk Modulus (GPa) = 48.33922 76.33918 62.33920
# Shear Modulus (GPa) = 15.46082 34.17864 24.81973
#
# Velocity S-wave (km/s) = 2.71913 4.04289 3.44519
# Velocity P-wave (km/s) = 5.74239 7.63546 6.75557
#
# Compressibility (1/GPa) = 0.02068713
#
# Stress axis : x y z
#
# Youngs Moduli (GPa) = 101.57689 79.60376 72.46930
#
# Poissons Ratio (x) = 0.62004 0.12329
# Poissons Ratio (y) = 0.79119 -0.12544
# Poissons Ratio (z) = 0.17281 -0.13779
#
# Static dielectric constant tensor:
#      x y z
#    x 1.724920 0.000000 0.000000 
#    y 0.000000 1.715210 0.000000 
#    z 0.000000 0.000000 1.815030 
# 
# From -- ./inp_files/16638.got.cif
#   From: 2010.05.17/outbox.cif.g08.bks.cpg/sg58_9_cif.got.tgz:16638.got - 2010.06.03 14:20:14.
