data_PCOD9440417
_publ_section_title
;
Structure prediction by ZEFSAII (Michael W. Deem and Ramdas Pophale) SiO2 
 PCOD9440417
Probable space group: P B C M
;
_chemical_formula_sum "Si O2"
_cell_formula_units_Z 56
_cell_length_a 21.000000
_cell_length_b 15.000000
_cell_length_c 9.000000
_cell_angle_alpha 90.000000
_cell_angle_beta 90.000000
_cell_angle_gamma 90.000000
_cell_volume 2835.000000
_symmetry_space_group_name_H-M "P B C M"
_symmetry_group_IT_number 57
_symmetry_cell_setting 'orthorhombic'
loop_
_space_group_symop_operation_xyz
x,y,z
-x,-y,1/2+z
x,1/2-y,-z
-x,1/2+y,1/2-z
-x,-y,-z
x,y,1/2-z
-x,1/2+y,z
x,1/2-y,1/2+z
loop_
_atom_site_type_symbol
_atom_site_label
_atom_site_fract_x
_atom_site_fract_y
_atom_site_fract_z
Si Si1 0.113831 0.340925 0.428453
Si Si2 0.454346 0.120420 0.581923
Si Si3 0.326003 0.338014 0.574853
Si Si4 0.420976 0.591174 0.418640
Si Si5 0.294116 0.960404 0.428354
Si Si6 0.979113 0.407633 0.427668
Si Si7 0.152928 0.969730 0.429368
O O1 0.139981 0.250000 0.500000
O O2 0.121727 0.340159 0.250000
O O3 0.141475 0.433502 0.494859
O O4 0.037767 0.344029 0.466074
O O5 0.446802 0.154490 0.750000
O O6 0.399772 0.156051 0.474123
O O7 0.524538 0.135980 0.518090
O O8 0.441557 0.013575 0.587245
O O9 0.297875 0.250000 0.500000
O O10 0.320022 0.329633 0.750000
O O11 0.298088 0.434149 0.530383
O O12 0.420808 0.624976 0.250000
O O13 0.351118 0.590604 0.490531
O O14 0.303990 0.954788 0.250000
O O15 0.222520 0.932495 0.466572
O O16 0.980342 0.414474 0.250000
O O17 0.904725 0.402338 0.470221
O O18 0.000000 0.500000 0.500000
O O19 0.151749 0.983960 0.250000
#
# Coordination Sequence:
#
# PCOD9440417 Si02
#       7
#     8   8   8   8   8   8   8
#     4  10  19  30  45  67  92 119 151 187 226 270
#     4   9  16  27  43  61  81 107 140 178 218 254
#     4  10  19  30  42  59  85 116 148 179 214 259
#     4   9  16  26  42  63  85 108 137 176 216 253
#     4   9  18  30  44  63  88 117 147 179 217 263
#     4   8  15  28  46  65  86 113 147 186 227 268
#     4   9  17  31  48  66  90 120 152 188 229 272
#
# _framework density 19.753086
#
# number of rings (size 3 to 8) (size 9 to 14) (size 15 to 20)
#    0.000    2.857    0.000    1.714    0.000    5.714 
#    0.000    1.429    0.000    0.000    0.000    1.000 
#    0.000    4.571    0.000    0.000    0.000    0.000 
#
# Total GULP energy -312013.603077 kJ/mol
# GULP energy per Si atom -5571.671484 kJ/mol
# Density = 1.970813 g / cm^3
# Si number density = 19.753086 Si / 1000 Ang^3
#
#
#
# Elastic Constant Matrix: (Units=GPa)
#
#
# Indices 1 2 3 4 5 6 
#
# 1 135.9703 -13.3958 15.9016 0.0000 0.0000 0.0000
# 2 -13.3958 8.9888 -2.7175 0.0000 0.0000 0.0000
# 3 15.9016 -2.7175 20.0349 0.0000 0.0000 0.0000
# 4 0.0000 0.0000 0.0000 13.5851 0.0000 0.0000
# 5 0.0000 0.0000 0.0000 0.0000 20.9546 0.0000
# 6 0.0000 0.0000 0.0000 0.0000 0.0000 3.5109
#
#
#
# Elastic Compliance Matrix: (Units=1/GPa)
#
#
# Indices 1 2 3 4 5 6 
#
# 1 0.009200 0.011995 -0.005675 0.000000 0.000000 0.000000
# 2 0.011995 0.131646 0.008336 0.000000 0.000000 0.000000
# 3 -0.005675 0.008336 0.055548 0.000000 0.000000 0.000000
# 4 0.000000 0.000000 0.000000 0.073610 0.000000 0.000000
# 5 0.000000 0.000000 0.000000 0.000000 0.047722 0.000000
# 6 0.000000 0.000000 0.000000 0.000000 0.000000 0.284825
#
#
# Mechanical properties :
#
#
# Convention : Reuss Voigt Hill
#
# Bulk Modulus (GPa) = 4.43057 18.28562 11.35809
# Shear Modulus (GPa) = 7.71041 18.62385 13.16713
#
# Velocity S-wave (km/s) = 1.97784 3.07389 2.58463
# Velocity P-wave (km/s) = 2.73197 4.67713 3.83009
#
# Compressibility (1/GPa) = 0.22570484
#
# Stress axis : x y z
#
# Youngs Moduli (GPa) = 108.69594 7.59615 18.00251
#
# Poissons Ratio (x) = -0.09112 0.10216
# Poissons Ratio (y) = -1.30380 -0.15007
# Poissons Ratio (z) = 0.61685 -0.06332
#
# Static dielectric constant tensor:
#      x y z
#    x 1.739370 0.000000 0.000000 
#    y 0.000000 1.709970 0.000000 
#    z 0.000000 0.000000 1.663830 
# 
# From -- ./inp_files/7007.got.cif
#   From: 2010.05.17/outbox.ucp.g08.bks.cvg/sg57_4_cif.got.tgz:7007.got - 2010.06.11 16:39:23.
