data_PCOD9440633
_publ_section_title
;
Structure prediction by ZEFSAII (Michael W. Deem and Ramdas Pophale) SiO2 
 PCOD9440633
Probable space group: P B C M
;
_chemical_formula_sum "Si O2"
_cell_formula_units_Z 48
_cell_length_a 15.000000
_cell_length_b 18.000000
_cell_length_c 9.000000
_cell_angle_alpha 90.000000
_cell_angle_beta 90.000000
_cell_angle_gamma 90.000000
_cell_volume 2430.000000
_symmetry_space_group_name_H-M "P B C M"
_symmetry_group_IT_number 57
_symmetry_cell_setting 'orthorhombic'
loop_
_space_group_symop_operation_xyz
x,y,z
-x,-y,1/2+z
x,1/2-y,-z
-x,1/2+y,1/2-z
-x,-y,-z
x,y,1/2-z
-x,1/2+y,z
x,1/2-y,1/2+z
loop_
_atom_site_type_symbol
_atom_site_label
_atom_site_fract_x
_atom_site_fract_y
_atom_site_fract_z
Si Si1 0.524517 0.330126 0.428046
Si Si2 0.967392 0.575791 0.075657
Si Si3 0.855427 0.169897 0.423982
Si Si4 0.358122 0.425611 0.425664
Si Si5 0.815922 0.829987 0.075443
Si Si6 0.299017 0.921228 0.073119
O O1 0.511254 0.250000 0.500000
O O2 0.515187 0.322864 0.250000
O O3 0.451074 0.390310 0.477725
O O4 0.621670 0.363130 0.460371
O O5 0.950803 0.562619 0.250000
O O6 0.045497 0.636923 0.061453
O O7 0.881243 0.609933 0.997630
O O8 0.000000 0.500000 0.000000
O O9 0.847443 0.250000 0.500000
O O10 0.834189 0.177106 0.250000
O O11 0.789170 0.110593 0.497377
O O12 0.364807 0.443958 0.250000
O O13 0.283525 0.361919 0.441633
O O14 0.327895 0.498818 0.511611
O O15 0.836141 0.823534 0.250000
O O16 0.825793 0.750000 0.000000
O O17 0.287282 0.925244 0.250000
#
# Coordination Sequence:
#
# PCOD9440633 Si02
#       6
#     8   8   8   8   8   8
#     4  10  22  39  59  86 118 153 194 239 289 344
#     4  11  24  41  62  88 119 155 195 241 292 347
#     4  11  24  41  61  86 117 154 194 239 291 344
#     4  10  22  40  60  85 119 155 193 239 289 344
#     4  11  23  39  61  88 118 154 195 240 292 347
#     4  11  23  38  60  89 118 153 196 240 289 344
#
# _framework density 19.753086
#
# number of rings (size 3 to 8) (size 9 to 14) (size 15 to 20)
#    0.000    1.333    0.000    5.000    0.000   12.667 
#    0.000    0.000    0.000    0.000    0.000    0.000 
#    0.000    0.000    0.000    0.000    0.000    0.000 
#
# Total GULP energy -268530.199332 kJ/mol
# GULP energy per Si atom -5594.379153 kJ/mol
# Density = 1.970813 g / cm^3
# Si number density = 19.753086 Si / 1000 Ang^3
#
#
#
# Elastic Constant Matrix: (Units=GPa)
#
#
# Indices 1 2 3 4 5 6 
#
# 1 39.1603 -29.2223 26.5538 0.0000 0.0000 0.0000
# 2 -29.2223 66.0349 16.8353 0.0000 0.0000 0.0000
# 3 26.5538 16.8353 63.9837 0.0000 0.0000 0.0000
# 4 0.0000 0.0000 0.0000 46.9558 0.0000 0.0000
# 5 0.0000 0.0000 0.0000 0.0000 17.1863 0.0000
# 6 0.0000 0.0000 0.0000 0.0000 0.0000 22.7105
#
#
#
# Elastic Compliance Matrix: (Units=1/GPa)
#
#
# Indices 1 2 3 4 5 6 
#
# 1 0.145815 0.085704 -0.083065 0.000000 0.000000 0.000000
# 2 0.085704 0.066606 -0.053093 0.000000 0.000000 0.000000
# 3 -0.083065 -0.053093 0.064071 0.000000 0.000000 0.000000
# 4 0.000000 0.000000 0.000000 0.021297 0.000000 0.000000
# 5 0.000000 0.000000 0.000000 0.000000 0.058186 0.000000
# 6 0.000000 0.000000 0.000000 0.000000 0.000000 0.044032
#
#
# Mechanical properties :
#
#
# Convention : Reuss Voigt Hill
#
# Bulk Modulus (GPa) = 5.69527 21.94583 13.82055
# Shear Modulus (GPa) = 8.93747 27.70466 18.32106
#
# Velocity S-wave (km/s) = 2.12942 3.74912 3.04880
# Velocity P-wave (km/s) = 2.98921 5.46584 4.40516
#
# Compressibility (1/GPa) = 0.17558432
#
# Stress axis : x y z
#
# Youngs Moduli (GPa) = 6.85802 15.01370 15.60760
#
# Poissons Ratio (x) = -1.28674 1.29644
# Poissons Ratio (y) = -0.58776 0.82866
# Poissons Ratio (z) = 0.56966 0.79712
#
# Static dielectric constant tensor:
#      x y z
#    x 1.689140 0.000000 0.000000 
#    y 0.000000 1.638360 0.000000 
#    z 0.000000 0.000000 1.666290 
# 
# From -- ./inp_files/4567.got.cif
#   From: 2010.05.17/outbox.ucp.g08.bks.cvg/sg57_3_cif.got.tgz:4567.got - 2010.06.11 16:39:23.
