data_PCOD9440164
_publ_section_title
;
Structure prediction by ZEFSAII (Michael W. Deem and Ramdas Pophale) SiO2 
 PCOD9440164
Probable space group: P B C M
;
_chemical_formula_sum "Si O2"
_cell_formula_units_Z 40
_cell_length_a 13.759885
_cell_length_b 8.080862
_cell_length_c 15.859226
_cell_angle_alpha 90.000000
_cell_angle_beta 90.000000
_cell_angle_gamma 90.000000
_cell_volume 1763.414804
_symmetry_space_group_name_H-M "P B C M"
_symmetry_group_IT_number 57
_symmetry_cell_setting 'orthorhombic'
loop_
_space_group_symop_operation_xyz
x,y,z
-x,-y,1/2+z
x,1/2-y,-z
-x,1/2+y,1/2-z
-x,-y,-z
x,y,1/2-z
-x,1/2+y,z
x,1/2-y,1/2+z
loop_
_atom_site_type_symbol
_atom_site_label
_atom_site_fract_x
_atom_site_fract_y
_atom_site_fract_z
Si Si1 0.755231 0.162627 0.591383
Si Si2 0.860059 0.613609 0.846620
Si Si3 0.670481 0.795945 0.590825
Si Si4 0.647356 0.196970 0.250000
Si Si5 0.442657 0.167300 0.750000
Si Si6 0.958405 0.276163 0.596179
O O1 0.746300 0.250000 0.500000
O O2 0.709080 0.271706 0.665797
O O3 0.870221 0.147754 0.610580
O O4 0.704593 0.985342 0.591243
O O5 0.832821 0.578240 0.750000
O O6 0.766684 0.683614 0.894459
O O7 0.907301 0.452002 0.888920
O O8 0.947589 0.745661 0.848372
O O9 0.627585 0.750000 0.500000
O O10 0.598155 0.757539 0.666954
O O11 0.558384 0.326253 0.250000
O O12 0.599071 0.017391 0.250000
O O13 0.990358 0.250000 0.500000
#
# Coordination Sequence:
#
# PCOD9440164 Si02
#       6
#     8   8   8   4   4   8
#     4  11  25  44  69 102 133 180 223 273 334 399
#     4  12  24  39  64  99 136 179 229 277 332 393
#     4  12  24  45  71  99 138 176 224 277 334 398
#     4  12  26  46  75  96 143 166 224 276 338 398
#     4  12  26  48  69 108 127 180 216 278 336 402
#     4  11  23  41  62  93 135 181 227 273 332 394
#
# _framework density 22.683263
#
# number of rings (size 3 to 8) (size 9 to 14) (size 15 to 20)
#    0.000    0.400    1.000    9.600    2.800    0.800 
#    0.000    4.000    0.000    0.000    0.000    0.000 
#    0.000    0.000    0.000    0.000    0.000    0.000 
#
# Total GULP energy -224230.873381 kJ/mol
# GULP energy per Si atom -5605.771835 kJ/mol
# Density = 2.263163 g / cm^3
# Si number density = 22.683263 Si / 1000 Ang^3
#
#
#
# Elastic Constant Matrix: (Units=GPa)
#
#
# Indices 1 2 3 4 5 6 
#
# 1 66.6901 -20.6125 39.9329 0.0000 0.0000 0.0000
# 2 -20.6125 82.0940 22.8970 0.0000 0.0000 0.0000
# 3 39.9329 22.8970 163.8547 0.0000 0.0000 0.0000
# 4 0.0000 0.0000 0.0000 22.4656 0.0000 0.0000
# 5 0.0000 0.0000 0.0000 0.0000 -0.5732 0.0000
# 6 0.0000 0.0000 0.0000 0.0000 0.0000 37.3678
#
#
#
# Elastic Compliance Matrix: (Units=1/GPa)
#
#
# Indices 1 2 3 4 5 6 
#
# 1 0.020720 0.006879 -0.006011 0.000000 0.000000 0.000000
# 2 0.006879 0.014959 -0.003767 0.000000 0.000000 0.000000
# 3 -0.006011 -0.003767 0.008094 0.000000 0.000000 0.000000
# 4 0.000000 0.000000 0.000000 0.044512 0.000000 0.000000
# 5 0.000000 0.000000 0.000000 0.000000 -1.744565 0.000000
# 6 0.000000 0.000000 0.000000 0.000000 0.000000 0.026761
#
#
# Mechanical properties :
#
#
# Convention : Reuss Voigt Hill
#
# Bulk Modulus (GPa) = 26.33250 44.11928 35.22589
# Shear Modulus (GPa) = -3.10354 29.88015 13.38830
#
# Velocity S-wave (km/s) = -1.17097 3.63337 2.43210
# Velocity P-wave (km/s) = 3.13141 6.09050 4.84252
#
# Compressibility (1/GPa) = 0.03797589
#
# Stress axis : x y z
#
# Youngs Moduli (GPa) = 48.26216 66.84940 123.54418
#
# Poissons Ratio (x) = -0.45986 0.74262
# Poissons Ratio (y) = -0.33200 0.46537
# Poissons Ratio (z) = 0.29010 0.25181
#
# Static dielectric constant tensor:
#      x y z
#    x 1.805270 0.000000 0.000000 
#    y 0.000000 1.878430 0.000000 
#    z 0.000000 0.000000 1.831260 
# 
# From -- ./inp_files/18269.got.cif
#   From: 2010.05.17/outbox.cif.g08.bks.cpg/sg57_10_cif.got.tgz:18269.got - 2010.06.03 13:58:18.
