data_PCOD9440336
_publ_section_title
;
Structure prediction by ZEFSAII (Michael W. Deem and Ramdas Pophale) SiO2 
 PCOD9440336
Probable space group: P B C M
;
_chemical_formula_sum "Si O2"
_cell_formula_units_Z 24
_cell_length_a 7.634653
_cell_length_b 7.212744
_cell_length_c 17.502973
_cell_angle_alpha 90.000000
_cell_angle_beta 90.000000
_cell_angle_gamma 90.000000
_cell_volume 963.832672
_symmetry_space_group_name_H-M "P B C M"
_symmetry_group_IT_number 57
_symmetry_cell_setting 'orthorhombic'
loop_
_space_group_symop_operation_xyz
x,y,z
-x,-y,1/2+z
x,1/2-y,-z
-x,1/2+y,1/2-z
-x,-y,-z
x,y,1/2-z
-x,1/2+y,z
x,1/2-y,1/2+z
loop_
_atom_site_type_symbol
_atom_site_label
_atom_site_fract_x
_atom_site_fract_y
_atom_site_fract_z
Si Si1 0.625037 0.261732 0.590650
Si Si2 0.739615 0.619755 0.160252
Si Si3 0.863999 0.898615 0.057938
O O1 0.589953 0.250000 0.500000
O O2 0.448837 0.288167 0.639255
O O3 0.744463 0.443220 0.593422
O O4 0.726158 0.079165 0.618755
O O5 0.756711 0.595442 0.250000
O O6 0.892087 0.755123 0.128063
O O7 0.776463 0.750000 0.000000
O O8 0.000000 0.000000 0.000000
#
# Coordination Sequence:
#
# PCOD9440336 Si02
#       3
#     8   8   8
#     4  12  23  44  78 118 156 203 271 330 404 488
#     4  12  26  44  76 122 162 201 264 348 417 469
#     4  12  27  48  78 109 156 218 270 325 392 498
#
# _framework density 24.900587000000002
#
# number of rings (size 3 to 8) (size 9 to 14) (size 15 to 20)
#    0.000    0.000    6.667    4.000    0.000    1.333 
#    0.000    1.667    0.000    0.000    0.000    0.000 
#    0.000    0.000    0.000    0.000    0.000    0.000 
#
# Total GULP energy -134126.883114 kJ/mol
# GULP energy per Si atom -5588.620130 kJ/mol
# Density = 2.484391 g / cm^3
# Si number density = 24.900587 Si / 1000 Ang^3
#
#
#
# Elastic Constant Matrix: (Units=GPa)
#
#
# Indices 1 2 3 4 5 6 
#
# 1 108.8053 76.7826 39.8759 0.0000 0.0000 0.0000
# 2 76.7826 228.4907 74.0432 0.0000 0.0000 0.0000
# 3 39.8759 74.0432 191.7626 0.0000 0.0000 0.0000
# 4 0.0000 0.0000 0.0000 31.4862 0.0000 0.0000
# 5 0.0000 0.0000 0.0000 0.0000 14.6149 0.0000
# 6 0.0000 0.0000 0.0000 0.0000 0.0000 8.3745
#
#
#
# Elastic Compliance Matrix: (Units=1/GPa)
#
#
# Indices 1 2 3 4 5 6 
#
# 1 0.012245 -0.003760 -0.001094 0.000000 0.000000 0.000000
# 2 -0.003760 0.006157 -0.001595 0.000000 0.000000 0.000000
# 3 -0.001094 -0.001595 0.006058 0.000000 0.000000 0.000000
# 4 0.000000 0.000000 0.000000 0.031760 0.000000 0.000000
# 5 0.000000 0.000000 0.000000 0.000000 0.068424 0.000000
# 6 0.000000 0.000000 0.000000 0.000000 0.000000 0.119410
#
#
# Mechanical properties :
#
#
# Convention : Reuss Voigt Hill
#
# Bulk Modulus (GPa) = 86.50092 101.16245 93.83169
# Shear Modulus (GPa) = 19.17112 33.45223 26.31168
#
# Velocity S-wave (km/s) = 2.77773 3.66926 3.25417
# Velocity P-wave (km/s) = 6.71577 7.65938 7.20304
#
# Compressibility (1/GPa) = 0.01156057
#
# Stress axis : x y z
#
# Youngs Moduli (GPa) = 81.66296 162.41156 165.05995
#
# Poissons Ratio (x) = 0.61072 0.18065
# Poissons Ratio (y) = 0.30708 0.26335
# Poissons Ratio (z) = 0.08937 0.25912
#
# Static dielectric constant tensor:
#      x y z
#    x 2.108040 0.000000 0.000000 
#    y 0.000000 2.324120 0.000000 
#    z 0.000000 0.000000 1.898540 
# 
# From -- ./inp_files/20394.got.cif
#   From: 2010.05.17/outbox.cif.g08.bks.cpg/sg57_11_cif.got.tgz:20394.got - 2010.06.03 13:58:18.
