data_PCOD9440525
_publ_section_title
;
Structure prediction by ZEFSAII (Michael W. Deem and Ramdas Pophale) SiO2 
 PCOD9440525
Probable space group: P B C M
;
_chemical_formula_sum "Si O2"
_cell_formula_units_Z 40
_cell_length_a 24.000000
_cell_length_b 9.000000
_cell_length_c 9.000000
_cell_angle_alpha 90.000000
_cell_angle_beta 90.000000
_cell_angle_gamma 90.000000
_cell_volume 1944.000000
_symmetry_space_group_name_H-M "P B C M"
_symmetry_group_IT_number 57
_symmetry_cell_setting 'orthorhombic'
loop_
_space_group_symop_operation_xyz
x,y,z
-x,-y,1/2+z
x,1/2-y,-z
-x,1/2+y,1/2-z
-x,-y,-z
x,y,1/2-z
-x,1/2+y,z
x,1/2-y,1/2+z
loop_
_atom_site_type_symbol
_atom_site_label
_atom_site_fract_x
_atom_site_fract_y
_atom_site_fract_z
Si Si1 0.273695 0.094487 0.929819
Si Si2 0.539772 0.894893 0.089503
Si Si3 0.047490 0.591631 0.074866
Si Si4 0.828453 0.411445 0.573379
Si Si5 0.637568 0.119060 0.088732
O O1 0.280413 0.102255 0.750000
O O2 0.212220 0.043721 0.970718
O O3 0.309457 0.954145 0.985993
O O4 0.290025 0.250000 0.000000
O O5 0.515479 0.858292 0.250000
O O6 0.596110 0.984378 0.104384
O O7 0.551077 0.750000 0.000000
O O8 0.500000 0.000000 0.000000
O O9 0.039383 0.602123 0.250000
O O10 0.109305 0.534037 0.044814
O O11 0.046353 0.750000 0.000000
O O12 0.000000 0.500000 0.000000
O O13 0.818979 0.250000 0.500000
O O14 0.821457 0.388113 0.750000
O O15 0.653354 0.178252 0.250000
O O16 0.609787 0.250000 0.000000
#
# Coordination Sequence:
#
# PCOD9440525 Si02
#       5
#     8   8   8   8   8
#     4  10  21  37  55  80 110 140 176 220 267 319
#     4  11  23  39  59  85 115 149 187 229 274 324
#     4  10  20  35  54  78 107 141 179 222 269 321
#     4   9  19  35  55  78 105 137 177 219 264 318
#     4  10  22  38  58  83 111 143 182 224 270 322
#
# _framework density 20.576132000000001
#
# number of rings (size 3 to 8) (size 9 to 14) (size 15 to 20)
#    0.000    2.000    0.000    3.000    0.000    6.400 
#    0.000    2.000    0.000    0.000    0.000    0.000 
#    0.000    0.000    0.000    0.000    0.000    0.000 
#
# Total GULP energy -222670.619951 kJ/mol
# GULP energy per Si atom -5566.765499 kJ/mol
# Density = 2.052930 g / cm^3
# Si number density = 20.576132 Si / 1000 Ang^3
#
#
#
# Elastic Constant Matrix: (Units=GPa)
#
#
# Indices 1 2 3 4 5 6 
#
# 1 65.1594 22.6031 40.6165 0.0000 0.0000 0.0000
# 2 22.6031 65.3030 45.7339 0.0000 0.0000 0.0000
# 3 40.6165 45.7339 36.0409 0.0000 0.0000 0.0000
# 4 0.0000 0.0000 0.0000 25.1000 0.0000 0.0000
# 5 0.0000 0.0000 0.0000 0.0000 12.1856 0.0000
# 6 0.0000 0.0000 0.0000 0.0000 0.0000 29.1119
#
#
#
# Elastic Compliance Matrix: (Units=1/GPa)
#
#
# Indices 1 2 3 4 5 6 
#
# 1 -0.010438 -0.041551 0.064489 0.000000 0.000000 0.000000
# 2 -0.041551 -0.027837 0.082150 0.000000 0.000000 0.000000
# 3 0.064489 0.082150 -0.149173 0.000000 0.000000 0.000000
# 4 0.000000 0.000000 0.000000 0.039841 0.000000 0.000000
# 5 0.000000 0.000000 0.000000 0.000000 0.082064 0.000000
# 6 0.000000 0.000000 0.000000 0.000000 0.000000 0.034350
#
#
# Mechanical properties :
#
#
# Convention : Reuss Voigt Hill
#
# Bulk Modulus (GPa) = 44.00030 42.71225 43.35628
# Shear Modulus (GPa) = -21.38656 17.11613 -2.13521
#
# Velocity S-wave (km/s) = -3.22745 2.88730 -1.01979
# Velocity P-wave (km/s) = 2.74627 5.64965 4.44188
#
# Compressibility (1/GPa) = 0.02272712
#
# Stress axis : x y z
#
# Youngs Moduli (GPa) = -95.80525 -35.92318 -6.70363
#
# Poissons Ratio (x) = -1.49263 0.43231
# Poissons Ratio (y) = -3.98078 0.55070
# Poissons Ratio (z) = 6.17834 2.95108
#
# Static dielectric constant tensor:
#      x y z
#    x 1.660900 0.000000 0.000000 
#    y 0.000000 1.707870 0.000000 
#    z 0.000000 0.000000 1.861740 
# 
# From -- ./inp_files/8895.got.cif
#   From: 2010.05.17/outbox.ucp.g08.bks.cvg/sg57_5_cif.got.tgz:8895.got - 2010.06.11 16:39:23.
