data_PCOD9440800
_publ_section_title
;
Structure prediction by ZEFSAII (Michael W. Deem and Ramdas Pophale) SiO2 
 PCOD9440800
Probable space group: P N N M
;
_chemical_formula_sum "Si O2"
_cell_formula_units_Z 64
_cell_length_a 21.301601
_cell_length_b 17.082597
_cell_length_c 7.468888
_cell_angle_alpha 90.000000
_cell_angle_beta 90.000000
_cell_angle_gamma 90.000000
_cell_volume 2717.828748
_symmetry_space_group_name_H-M "P N N M"
_symmetry_group_IT_number 58
_symmetry_cell_setting 'orthorhombic'
loop_
_space_group_symop_operation_xyz
x,y,z
-x,-y,z
1/2+x,1/2-y,1/2-z
1/2-x,1/2+y,1/2-z
-x,-y,-z
x,y,-z
1/2-x,1/2+y,1/2+z
1/2+x,1/2-y,1/2+z
loop_
_atom_site_type_symbol
_atom_site_label
_atom_site_fract_x
_atom_site_fract_y
_atom_site_fract_z
Si Si1 0.399350 0.776161 0.794129
Si Si2 0.352141 0.617900 0.219229
Si Si3 0.885783 0.219476 0.713093
Si Si4 0.793459 0.613921 0.797650
Si Si5 0.478835 0.143430 0.780658
Si Si6 0.710791 0.842872 0.287376
Si Si7 0.657209 0.557497 0.219359
Si Si8 0.616389 0.977307 0.798379
O O1 0.395775 0.688941 0.716267
O O2 0.330528 0.814817 0.791669
O O3 0.451128 0.835972 0.720239
O O4 0.418395 0.766009 0.000000
O O5 0.281276 0.641196 0.270784
O O6 0.363161 0.528882 0.277437
O O7 0.354308 0.618625 0.000000
O O8 0.894029 0.216561 0.500000
O O9 0.936658 0.282133 0.778830
O O10 0.817736 0.257559 0.751627
O O11 0.885462 0.130434 0.777824
O O12 0.728645 0.578624 0.723454
O O13 0.844305 0.543985 0.797214
O O14 0.780288 0.638876 0.000000
O O15 0.445787 0.063257 0.720313
O O16 0.475710 0.138044 0.000000
O O17 0.707633 0.857697 0.500000
O O18 0.663977 0.903765 0.195254
O O19 0.658065 0.555624 0.000000
O O20 0.603225 0.006995 0.000000
#
# Coordination Sequence:
#
# PCOD9440800 Si02
#       8
#     8   8   8   8   8   8   8   8
#     4  10  20  35  53  72 100 137 175 209 247 300
#     4   9  17  30  50  74 101 133 163 205 260 300
#     4   9  17  31  52  73  97 133 172 204 247 299
#     4  11  21  34  52  77 109 133 163 210 260 304
#     4   8  17  33  51  73 100 132 173 214 244 285
#     4  10  17  29  49  74 104 130 161 204 253 299
#     4   9  17  31  51  76 105 131 159 208 260 301
#     4  10  19  33  53  76 102 135 170 204 249 302
#
# _framework density 23.548209
#
# number of rings (size 3 to 8) (size 9 to 14) (size 15 to 20)
#    0.000    2.500    1.250    2.625    0.000    0.500 
#    0.000    7.500    0.000    3.750    0.000    0.000 
#    0.000    5.000    0.000    0.000    0.000    0.000 
#
# Total GULP energy -357336.618223 kJ/mol
# GULP energy per Si atom -5583.384660 kJ/mol
# Density = 2.349461 g / cm^3
# Si number density = 23.548209 Si / 1000 Ang^3
#
#
#
# Elastic Constant Matrix: (Units=GPa)
#
#
# Indices 1 2 3 4 5 6 
#
# 1 39.3565 -13.6169 -0.3464 0.0000 0.0000 0.0000
# 2 -13.6169 72.3936 -4.3769 0.0000 0.0000 0.0000
# 3 -0.3464 -4.3769 67.4846 0.0000 0.0000 0.0000
# 4 0.0000 0.0000 0.0000 5.6841 0.0000 0.0000
# 5 0.0000 0.0000 0.0000 0.0000 11.0317 0.0000
# 6 0.0000 0.0000 0.0000 0.0000 0.0000 31.5426
#
#
#
# Elastic Compliance Matrix: (Units=1/GPa)
#
#
# Indices 1 2 3 4 5 6 
#
# 1 0.027192 0.005143 0.000473 0.000000 0.000000 0.000000
# 2 0.005143 0.014841 0.000989 0.000000 0.000000 0.000000
# 3 0.000473 0.000989 0.014885 0.000000 0.000000 0.000000
# 4 0.000000 0.000000 0.000000 0.175930 0.000000 0.000000
# 5 0.000000 0.000000 0.000000 0.000000 0.090647 0.000000
# 6 0.000000 0.000000 0.000000 0.000000 0.000000 0.031703
#
#
# Mechanical properties :
#
#
# Convention : Reuss Voigt Hill
#
# Bulk Modulus (GPa) = 14.25947 15.83937 15.04942
# Shear Modulus (GPa) = 13.68501 22.82335 18.25418
#
# Velocity S-wave (km/s) = 2.41332 3.11660 2.78723
# Velocity P-wave (km/s) = 3.71942 4.43756 4.09426
#
# Compressibility (1/GPa) = 0.07012884
#
# Stress axis : x y z
#
# Youngs Moduli (GPa) = 36.77487 67.38265 67.18276
#
# Poissons Ratio (x) = -0.34658 -0.03179
# Poissons Ratio (y) = -0.18915 -0.06644
# Poissons Ratio (z) = -0.01740 -0.06664
#
# Static dielectric constant tensor:
#      x y z
#    x 1.882940 0.000000 0.000000 
#    y 0.000000 1.906280 0.000000 
#    z 0.000000 0.000000 1.884020 
# 
# From -- ./inp_files/8271.got.cif
#   From: 2010.05.17/outbox.cif.g08.bks.cpg/sg58_5_cif.got.tgz:8271.got - 2010.06.03 14:20:14.
