data_PCOD9440568
_publ_section_title
;
Structure prediction by ZEFSAII (Michael W. Deem and Ramdas Pophale) SiO2 
 PCOD9440568
Probable space group: P B C M
;
_chemical_formula_sum "Si O2"
_cell_formula_units_Z 48
_cell_length_a 9.000000
_cell_length_b 15.000000
_cell_length_c 18.000000
_cell_angle_alpha 90.000000
_cell_angle_beta 90.000000
_cell_angle_gamma 90.000000
_cell_volume 2430.000000
_symmetry_space_group_name_H-M "P B C M"
_symmetry_group_IT_number 57
_symmetry_cell_setting 'orthorhombic'
loop_
_space_group_symop_operation_xyz
x,y,z
-x,-y,1/2+z
x,1/2-y,-z
-x,1/2+y,1/2-z
-x,-y,-z
x,y,1/2-z
-x,1/2+y,z
x,1/2-y,1/2+z
loop_
_atom_site_type_symbol
_atom_site_label
_atom_site_fract_x
_atom_site_fract_y
_atom_site_fract_z
Si Si1 0.579715 0.483603 0.079894
Si Si2 0.301108 0.779475 0.085345
Si Si3 0.356110 0.899798 0.662289
Si Si4 0.108397 0.026482 0.835329
Si Si5 0.975668 0.719493 0.660243
Si Si6 0.182294 0.409700 0.836211
O O1 0.628068 0.379600 0.088974
O O2 0.468693 0.520523 0.143072
O O3 0.713968 0.552150 0.098266
O O4 0.500000 0.500000 0.000000
O O5 0.386731 0.696010 0.124536
O O6 0.138389 0.779764 0.123444
O O7 0.287681 0.750000 0.000000
O O8 0.344606 0.882758 0.750000
O O9 0.205750 0.946130 0.631071
O O10 0.162280 0.035307 0.750000
O O11 0.104445 0.127321 0.865582
O O12 0.945352 0.984745 0.832942
O O13 0.994969 0.713515 0.750000
O O14 0.886074 0.811653 0.647059
O O15 0.244147 0.404887 0.750000
#
# Coordination Sequence:
#
# PCOD9440568 Si02
#       6
#     8   8   8   8   8   8
#     4  12  26  45  64  95 143 187 223 278 345 420
#     4  12  24  43  66  94 135 181 224 275 354 410
#     4  11  24  43  69  99 131 175 232 287 336 413
#     4   9  18  36  64  99 129 161 217 286 335 387
#     4  10  20  39  69 102 133 170 227 288 339 405
#     4  10  20  38  69 102 130 170 228 284 335 403
#
# _framework density 19.753086
#
# number of rings (size 3 to 8) (size 9 to 14) (size 15 to 20)
#    0.000    1.333    5.000    1.000    0.000    3.333 
#    3.000    4.167    0.000    0.000    0.000    0.000 
#    0.000    0.000    0.000    0.000    0.000    0.000 
#
# Total GULP energy -267409.281749 kJ/mol
# GULP energy per Si atom -5571.026703 kJ/mol
# Density = 1.970813 g / cm^3
# Si number density = 19.753086 Si / 1000 Ang^3
#
#
#
# Elastic Constant Matrix: (Units=GPa)
#
#
# Indices 1 2 3 4 5 6 
#
# 1 60.0818 43.5024 31.0292 0.0000 0.0000 0.0000
# 2 43.5024 205.1839 59.1888 0.0000 0.0000 0.0000
# 3 31.0292 59.1888 76.5260 0.0000 0.0000 0.0000
# 4 0.0000 0.0000 0.0000 32.2147 0.0000 0.0000
# 5 0.0000 0.0000 0.0000 0.0000 32.1409 0.0000
# 6 0.0000 0.0000 0.0000 0.0000 0.0000 38.9877
#
#
#
# Elastic Compliance Matrix: (Units=1/GPa)
#
#
# Indices 1 2 3 4 5 6 
#
# 1 0.022166 -0.002712 -0.006890 0.000000 0.000000 0.000000
# 2 -0.002712 0.006605 -0.004009 0.000000 0.000000 0.000000
# 3 -0.006890 -0.004009 0.018962 0.000000 0.000000 0.000000
# 4 0.000000 0.000000 0.000000 0.031042 0.000000 0.000000
# 5 0.000000 0.000000 0.000000 0.000000 0.031113 0.000000
# 6 0.000000 0.000000 0.000000 0.000000 0.000000 0.025649
#
#
# Mechanical properties :
#
#
# Convention : Reuss Voigt Hill
#
# Bulk Modulus (GPa) = 48.75488 67.69250 58.22369
# Shear Modulus (GPa) = 29.48177 34.54010 32.01093
#
# Velocity S-wave (km/s) = 3.86750 4.18615 4.02998
# Velocity P-wave (km/s) = 6.68425 7.59664 7.15500
#
# Compressibility (1/GPa) = 0.02051077
#
# Stress axis : x y z
#
# Youngs Moduli (GPa) = 45.11412 151.39686 52.73695
#
# Poissons Ratio (x) = 0.41059 0.36336
# Poissons Ratio (y) = 0.12235 0.21143
# Poissons Ratio (z) = 0.31084 0.60696
#
# Static dielectric constant tensor:
#      x y z
#    x 1.847010 0.000000 0.000000 
#    y 0.000000 1.687160 0.000000 
#    z 0.000000 0.000000 1.696200 
# 
# From -- ./inp_files/20893.got.cif
#   From: 2010.05.17/outbox.ucp.g08.bks.cvg/sg57_11_cif.got.tgz:20893.got - 2010.06.11 16:39:23.
