data_PCOD9440636
_publ_section_title
;
Structure prediction by ZEFSAII (Michael W. Deem and Ramdas Pophale) SiO2 
 PCOD9440636
Probable space group: P B C M
;
_chemical_formula_sum "Si O2"
_cell_formula_units_Z 64
_cell_length_a 12.000000
_cell_length_b 15.000000
_cell_length_c 18.000000
_cell_angle_alpha 90.000000
_cell_angle_beta 90.000000
_cell_angle_gamma 90.000000
_cell_volume 3240.000000
_symmetry_space_group_name_H-M "P B C M"
_symmetry_group_IT_number 57
_symmetry_cell_setting 'orthorhombic'
loop_
_space_group_symop_operation_xyz
x,y,z
-x,-y,1/2+z
x,1/2-y,-z
-x,1/2+y,1/2-z
-x,-y,-z
x,y,1/2-z
-x,1/2+y,z
x,1/2-y,1/2+z
loop_
_atom_site_type_symbol
_atom_site_label
_atom_site_fract_x
_atom_site_fract_y
_atom_site_fract_z
Si Si1 0.905294 0.720560 0.660568
Si Si2 0.266956 0.376635 0.839529
Si Si3 0.838169 0.257015 0.162860
Si Si4 0.507130 0.369609 0.162835
Si Si5 0.728600 0.068789 0.894203
Si Si6 0.255854 0.064882 0.838809
Si Si7 0.517434 0.804109 0.576305
Si Si8 0.717792 0.390746 0.935563
O O1 0.906231 0.713773 0.750000
O O2 0.828599 0.805092 0.642940
O O3 0.839993 0.632540 0.634807
O O4 0.032997 0.732194 0.638983
O O5 0.289177 0.374453 0.750000
O O6 0.230119 0.474100 0.865418
O O7 0.375949 0.349963 0.886787
O O8 0.832637 0.227715 0.250000
O O9 0.779378 0.352435 0.155061
O O10 0.777800 0.191305 0.105367
O O11 0.528757 0.379988 0.250000
O O12 0.594959 0.429279 0.118651
O O13 0.377742 0.391584 0.149751
O O14 0.524261 0.269259 0.135448
O O15 0.753342 0.090771 0.979849
O O16 0.244099 0.049068 0.750000
O O17 0.255690 0.975305 0.885050
O O18 0.542329 0.750000 0.500000
O O19 0.414370 0.869770 0.562456
#
# Coordination Sequence:
#
# PCOD9440636 Si02
#       8
#     8   8   8   8   8   8   8   8
#     4   9  21  43  67  92 120 160 214 273 314 363
#     4  11  24  42  67  96 127 165 216 261 311 381
#     4  11  23  43  69  89 119 165 216 265 319 374
#     4  11  21  38  65  92 123 162 207 254 307 373
#     4  12  25  41  61  93 132 165 205 260 317 379
#     4  10  22  41  66  94 126 162 210 263 316 377
#     4  12  23  39  65  94 132 172 204 255 322 378
#     4  12  25  41  61  94 132 169 206 256 316 386
#
# _framework density 19.753086
#
# number of rings (size 3 to 8) (size 9 to 14) (size 15 to 20)
#    0.000    1.000    3.750    3.000    1.750    4.500 
#    0.000    8.750    0.000    0.000    0.000    0.000 
#    0.000    0.000    0.000    0.000    0.000    0.000 
#
# Total GULP energy -357663.598525 kJ/mol
# GULP energy per Si atom -5588.493727 kJ/mol
# Density = 1.970813 g / cm^3
# Si number density = 19.753086 Si / 1000 Ang^3
#
#
#
# Elastic Constant Matrix: (Units=GPa)
#
#
# Indices 1 2 3 4 5 6 
#
# 1 103.3081 31.4766 44.7197 0.0000 0.0000 0.0000
# 2 31.4766 99.0750 38.6062 0.0000 0.0000 0.0000
# 3 44.7197 38.6062 85.8386 0.0000 0.0000 0.0000
# 4 0.0000 0.0000 0.0000 26.2534 0.0000 0.0000
# 5 0.0000 0.0000 0.0000 0.0000 -3.3388 0.0000
# 6 0.0000 0.0000 0.0000 0.0000 0.0000 -2.4804
#
#
#
# Elastic Compliance Matrix: (Units=1/GPa)
#
#
# Indices 1 2 3 4 5 6 
#
# 1 0.012750 -0.001773 -0.005845 0.000000 0.000000 0.000000
# 2 -0.001773 0.012485 -0.004691 0.000000 0.000000 0.000000
# 3 -0.005845 -0.004691 0.016805 0.000000 0.000000 0.000000
# 4 0.000000 0.000000 0.000000 0.038090 0.000000 0.000000
# 5 0.000000 0.000000 0.000000 0.000000 -0.299512 0.000000
# 6 0.000000 0.000000 0.000000 0.000000 0.000000 -0.403168
#
#
# Mechanical properties :
#
#
# Convention : Reuss Voigt Hill
#
# Bulk Modulus (GPa) = 57.40274 57.53630 57.46952
# Shear Modulus (GPa) = -8.44417 15.64813 3.60198
#
# Velocity S-wave (km/s) = -2.06982 2.81763 1.35184
# Velocity P-wave (km/s) = 4.83850 6.30685 5.62083
#
# Compressibility (1/GPa) = 0.01742077
#
# Stress axis : x y z
#
# Youngs Moduli (GPa) = 78.42991 80.09768 59.50675
#
# Poissons Ratio (x) = 0.14203 0.34782
# Poissons Ratio (y) = 0.13907 0.27916
# Poissons Ratio (z) = 0.45843 0.37576
#
# Static dielectric constant tensor:
#      x y z
#    x 1.702790 0.000000 0.000000 
#    y 0.000000 1.711310 0.000000 
#    z 0.000000 0.000000 1.674750 
# 
# From -- ./inp_files/22074.got.cif
#   From: 2010.05.17/outbox.ucp.g08.bks.cvg/sg57_12_cif.got.tgz:22074.got - 2010.06.11 16:39:23.
