data_PCOD9440761
_publ_section_title
;
Structure prediction by ZEFSAII (Michael W. Deem and Ramdas Pophale) SiO2 
 PCOD9440761
Probable space group: P N N M
;
_chemical_formula_sum "Si O2"
_cell_formula_units_Z 60
_cell_length_a 29.428341
_cell_length_b 5.623320
_cell_length_c 25.314337
_cell_angle_alpha 90.000000
_cell_angle_beta 90.000000
_cell_angle_gamma 90.000000
_cell_volume 4189.142514
_symmetry_space_group_name_H-M "P N N M"
_symmetry_group_IT_number 58
_symmetry_cell_setting 'orthorhombic'
loop_
_space_group_symop_operation_xyz
x,y,z
-x,-y,z
1/2+x,1/2-y,1/2-z
1/2-x,1/2+y,1/2-z
-x,-y,-z
x,y,-z
1/2-x,1/2+y,1/2+z
1/2+x,1/2-y,1/2+z
loop_
_atom_site_type_symbol
_atom_site_label
_atom_site_fract_x
_atom_site_fract_y
_atom_site_fract_z
Si Si1 0.664063 0.788399 0.757742
Si Si2 0.087807 0.257717 0.138348
Si Si3 0.739504 0.283783 0.684455
Si Si4 0.558053 0.621109 0.442719
Si Si5 0.143110 0.211005 0.244308
Si Si6 0.854368 0.457939 0.940785
Si Si7 0.000000 0.500000 0.894948
Si Si8 0.291106 0.216913 0.354452
O O1 0.714468 0.791520 0.782183
O O2 0.639838 0.542197 0.773019
O O3 0.671536 0.784324 0.693613
O O4 0.639216 0.033690 0.772289
O O5 0.108865 0.212200 0.195053
O O6 0.129063 0.339748 0.099929
O O7 0.045363 0.440438 0.138030
O O8 0.067032 0.033419 0.108647
O O9 0.695229 0.285787 0.722365
O O10 0.734539 0.530911 0.651870
O O11 0.736720 0.028822 0.654871
O O12 0.556643 0.496820 0.500000
O O13 0.601001 0.796649 0.445435
O O14 0.513960 0.780945 0.432228
O O15 0.815851 0.311099 0.910347
O O16 0.841985 0.538447 0.000000
#
# Coordination Sequence:
#
# PCOD9440761 Si02
#       8
#     8   8   8   8   8   8   4   8
#     4  10  17  28  43  67  81 101 120 153 196 258
#     4  11  20  33  44  58  74 104 131 176 216 263
#     4  10  17  27  45  62  84 101 123 151 198 252
#     4  10  20  33  46  57  70  93 132 179 223 260
#     4  10  18  27  45  59  85  98 123 151 198 250
#     4  10  20  31  43  59  79 105 138 171 210 256
#     4  10  23  32  44  56  74  94 134 174 226 264
#     4  10  17  28  40  61  82 107 125 156 191 246
#
# _framework density 14.322742
#
# number of rings (size 3 to 8) (size 9 to 14) (size 15 to 20)
#    0.000    1.867    2.667    6.600    1.867    2.133 
#    0.000    0.000    0.000    0.000    0.000    0.000 
#    0.000    0.000    0.000    0.000    0.000    0.000 
#
# Total GULP energy -334161.859409 kJ/mol
# GULP energy per Si atom -5569.364323 kJ/mol
# Density = 1.429014 g / cm^3
# Si number density = 14.322742 Si / 1000 Ang^3
#
#
#
# Elastic Constant Matrix: (Units=GPa)
#
#
# Indices 1 2 3 4 5 6 
#
# 1 34.1982 13.7876 20.8077 0.0000 0.0000 0.0000
# 2 13.7876 100.4339 5.9628 0.0000 0.0000 0.0000
# 3 20.8077 5.9628 20.6309 0.0000 0.0000 0.0000
# 4 0.0000 0.0000 0.0000 50.7173 0.0000 0.0000
# 5 0.0000 0.0000 0.0000 0.0000 -2.1145 0.0000
# 6 0.0000 0.0000 0.0000 0.0000 0.0000 18.8676
#
#
#
# Elastic Compliance Matrix: (Units=1/GPa)
#
#
# Indices 1 2 3 4 5 6 
#
# 1 0.079366 -0.006250 -0.078240 0.000000 0.000000 0.000000
# 2 -0.006250 0.010623 0.003234 0.000000 0.000000 0.000000
# 3 -0.078240 0.003234 0.126447 0.000000 0.000000 0.000000
# 4 0.000000 0.000000 0.000000 0.019717 0.000000 0.000000
# 5 0.000000 0.000000 0.000000 0.000000 -0.472921 0.000000
# 6 0.000000 0.000000 0.000000 0.000000 0.000000 0.053001
#
#
# Mechanical properties :
#
#
# Convention : Reuss Voigt Hill
#
# Bulk Modulus (GPa) = 18.54503 26.26436 22.40469
# Shear Modulus (GPa) = -1523.86913 21.14106 -751.36404
#
# Velocity S-wave (km/s) = -32.65364 3.84611 -22.92889
# Velocity P-wave (km/s) = 37.53271 6.17258 26.17827
#
# Compressibility (1/GPa) = 0.05392280
#
# Stress axis : x y z
#
# Youngs Moduli (GPa) = 12.59990 94.13666 7.90847
#
# Poissons Ratio (x) = 0.58838 0.61876
# Poissons Ratio (y) = 0.07875 -0.02557
# Poissons Ratio (z) = 0.98581 -0.30440
#
# Static dielectric constant tensor:
#      x y z
#    x 1.467180 0.000000 0.000000 
#    y 0.000000 1.601030 0.000000 
#    z 0.000000 0.000000 1.459350 
# 
# From -- ./inp_files/30647.got.cif
#   From: 2010.05.17/outbox.cif.g08.bks.cpg/sg58_16_cif.got.tgz:30647.got - 2010.06.03 14:20:14.
