data_PCOD9440616
_publ_section_title
;
Structure prediction by ZEFSAII (Michael W. Deem and Ramdas Pophale) SiO2 
 PCOD9440616
Probable space group: P B C M
;
_chemical_formula_sum "Si O2"
_cell_formula_units_Z 40
_cell_length_a 15.000000
_cell_length_b 9.000000
_cell_length_c 15.000000
_cell_angle_alpha 90.000000
_cell_angle_beta 90.000000
_cell_angle_gamma 90.000000
_cell_volume 2025.000000
_symmetry_space_group_name_H-M "P B C M"
_symmetry_group_IT_number 57
_symmetry_cell_setting 'orthorhombic'
loop_
_space_group_symop_operation_xyz
x,y,z
-x,-y,1/2+z
x,1/2-y,-z
-x,1/2+y,1/2-z
-x,-y,-z
x,y,1/2-z
-x,1/2+y,z
x,1/2-y,1/2+z
loop_
_atom_site_type_symbol
_atom_site_label
_atom_site_fract_x
_atom_site_fract_y
_atom_site_fract_z
Si Si1 0.737834 0.052504 0.854735
Si Si2 0.091734 0.360216 0.848585
Si Si3 0.597942 0.071447 0.004791
Si Si4 0.752109 0.407698 0.856023
Si Si5 0.939869 0.538849 0.914197
O O1 0.718782 0.025409 0.750000
O O2 0.757889 0.228311 0.863873
O O3 0.824272 0.956431 0.881168
O O4 0.655666 0.019824 0.919398
O O5 0.116064 0.305949 0.750000
O O6 0.005321 0.464050 0.842772
O O7 0.069361 0.214078 0.903174
O O8 0.662588 0.042819 0.090663
O O9 0.587695 0.250000 0.000000
O O10 0.500000 0.000000 0.000000
O O11 0.749506 0.444464 0.750000
O O12 0.841098 0.472257 0.902218
O O13 0.000000 0.500000 0.000000
#
# Coordination Sequence:
#
# PCOD9440616 Si02
#       5
#     8   8   8   8   8
#     4   9  20  39  62  86 117 154 198 249 301 355
#     4  11  22  37  57  84 116 154 197 243 292 351
#     4  10  22  39  60  87 117 150 192 244 304 366
#     4  10  21  40  61  84 117 159 202 248 300 357
#     4  12  24  37  56  85 120 157 198 242 292 349
#
# _framework density 19.753086
#
# number of rings (size 3 to 8) (size 9 to 14) (size 15 to 20)
#    0.000    1.600    0.000    4.800    0.000    7.200 
#    0.000    0.000    0.000    0.000    0.000    0.000 
#    0.000    0.000    0.000    0.000    0.000    0.000 
#
# Total GULP energy -223255.826510 kJ/mol
# GULP energy per Si atom -5581.395663 kJ/mol
# Density = 1.970813 g / cm^3
# Si number density = 19.753086 Si / 1000 Ang^3
#
#
#
# Elastic Constant Matrix: (Units=GPa)
#
#
# Indices 1 2 3 4 5 6 
#
# 1 209.2884 71.8893 85.2143 0.0000 0.0000 0.0000
# 2 71.8893 81.8110 56.4769 0.0000 0.0000 0.0000
# 3 85.2143 56.4769 151.7139 0.0000 0.0000 0.0000
# 4 0.0000 0.0000 0.0000 23.6948 0.0000 0.0000
# 5 0.0000 0.0000 0.0000 0.0000 19.1820 0.0000
# 6 0.0000 0.0000 0.0000 0.0000 0.0000 47.7396
#
#
#
# Elastic Compliance Matrix: (Units=1/GPa)
#
#
# Indices 1 2 3 4 5 6 
#
# 1 0.007414 -0.004899 -0.002340 0.000000 0.000000 0.000000
# 2 -0.004899 0.019688 -0.004577 0.000000 0.000000 0.000000
# 3 -0.002340 -0.004577 0.009610 0.000000 0.000000 0.000000
# 4 0.000000 0.000000 0.000000 0.042203 0.000000 0.000000
# 5 0.000000 0.000000 0.000000 0.000000 0.052132 0.000000
# 6 0.000000 0.000000 0.000000 0.000000 0.000000 0.020947
#
#
# Mechanical properties :
#
#
# Convention : Reuss Voigt Hill
#
# Bulk Modulus (GPa) = 76.46387 96.66381 86.56384
# Shear Modulus (GPa) = 27.77971 33.40547 30.59259
#
# Velocity S-wave (km/s) = 3.75420 4.11682 3.93969
# Velocity P-wave (km/s) = 7.58854 8.46404 8.03822
#
# Compressibility (1/GPa) = 0.01307807
#
# Stress axis : x y z
#
# Youngs Moduli (GPa) = 134.88310 50.79211 104.05893
#
# Poissons Ratio (x) = 0.24883 0.24355
# Poissons Ratio (y) = 0.66079 0.47632
# Poissons Ratio (z) = 0.31569 0.23250
#
# Static dielectric constant tensor:
#      x y z
#    x 1.643940 0.000000 0.000000 
#    y 0.000000 1.688800 0.000000 
#    z 0.000000 0.000000 1.876970 
# 
# From -- ./inp_files/18204.got.cif
#   From: 2010.05.17/outbox.ucp.g08.bks.cvg/sg57_10_cif.got.tgz:18204.got - 2010.06.11 16:39:23.
