data_PCOD9440542
_publ_section_title
;
Structure prediction by ZEFSAII (Michael W. Deem and Ramdas Pophale) SiO2 
 PCOD9440542
Probable space group: P B C M
;
_chemical_formula_sum "Si O2"
_cell_formula_units_Z 64
_cell_length_a 24.000000
_cell_length_b 15.000000
_cell_length_c 9.000000
_cell_angle_alpha 90.000000
_cell_angle_beta 90.000000
_cell_angle_gamma 90.000000
_cell_volume 3240.000000
_symmetry_space_group_name_H-M "P B C M"
_symmetry_group_IT_number 57
_symmetry_cell_setting 'orthorhombic'
loop_
_space_group_symop_operation_xyz
x,y,z
-x,-y,1/2+z
x,1/2-y,-z
-x,1/2+y,1/2-z
-x,-y,-z
x,y,1/2-z
-x,1/2+y,z
x,1/2-y,1/2+z
loop_
_atom_site_type_symbol
_atom_site_label
_atom_site_fract_x
_atom_site_fract_y
_atom_site_fract_z
Si Si1 0.263369 0.344816 0.073249
Si Si2 0.525481 0.651946 0.428617
Si Si3 0.246170 0.661560 0.580188
Si Si4 0.887022 0.165156 0.916581
Si Si5 0.426810 0.543016 0.573657
Si Si6 0.940453 0.986175 0.571151
Si Si7 0.137898 0.153890 0.572854
Si Si8 0.685127 0.476457 0.573299
O O1 0.266317 0.333246 0.250000
O O2 0.200852 0.378594 0.039207
O O3 0.305911 0.421118 0.029011
O O4 0.273226 0.250000 0.000000
O O5 0.538164 0.750000 0.500000
O O6 0.524746 0.662539 0.250000
O O7 0.467430 0.612045 0.490733
O O8 0.562672 0.562720 0.463467
O O9 0.268543 0.750000 0.500000
O O10 0.266149 0.652300 0.750000
O O11 0.179567 0.669629 0.586785
O O12 0.261656 0.578833 0.477938
O O13 0.908681 0.168813 0.750000
O O14 0.904734 0.071361 0.979538
O O15 0.909812 0.250000 0.000000
O O16 0.434446 0.552128 0.750000
O O17 0.365545 0.563599 0.517603
O O18 0.942383 0.980350 0.750000
O O19 0.909320 0.902731 0.503640
O O20 0.000000 0.000000 0.500000
O O21 0.136066 0.250000 0.500000
O O22 0.131176 0.156772 0.750000
O O23 0.676761 0.471279 0.750000
#
# Coordination Sequence:
#
# PCOD9440542 Si02
#       8
#     8   8   8   8   8   8   8   8
#     4   9  20  36  56  82 112 146 185 226 271 326
#     4  10  21  39  63  86 111 146 187 232 279 327
#     4  10  20  36  57  82 110 143 182 224 271 327
#     4   9  20  37  58  81 107 140 180 224 272 326
#     4  10  22  39  58  84 115 148 188 230 274 325
#     4  11  23  38  55  80 110 142 181 227 278 332
#     4  10  20  37  59  82 108 143 184 227 275 328
#     4  11  22  36  55  83 118 151 183 226 274 321
#
# _framework density 19.753086
#
# number of rings (size 3 to 8) (size 9 to 14) (size 15 to 20)
#    0.000    2.000    0.000    3.000    0.000    6.000 
#    0.000    6.250    0.000    0.000    0.000    0.000 
#    0.000    0.000    0.000    0.000    0.000    0.000 
#
# Total GULP energy -356690.916330 kJ/mol
# GULP energy per Si atom -5573.295568 kJ/mol
# Density = 1.970813 g / cm^3
# Si number density = 19.753086 Si / 1000 Ang^3
#
#
#
# Elastic Constant Matrix: (Units=GPa)
#
#
# Indices 1 2 3 4 5 6 
#
# 1 27.6216 8.7339 21.9814 0.0000 0.0000 0.0000
# 2 8.7339 47.9694 12.9339 0.0000 0.0000 0.0000
# 3 21.9814 12.9339 21.5716 0.0000 0.0000 0.0000
# 4 0.0000 0.0000 0.0000 36.1872 0.0000 0.0000
# 5 0.0000 0.0000 0.0000 0.0000 3.3985 0.0000
# 6 0.0000 0.0000 0.0000 0.0000 0.0000 12.3587
#
#
#
# Elastic Compliance Matrix: (Units=1/GPa)
#
#
# Indices 1 2 3 4 5 6 
#
# 1 0.211362 0.023366 -0.229387 0.000000 0.000000 0.000000
# 2 0.023366 0.027450 -0.040268 0.000000 0.000000 0.000000
# 3 -0.229387 -0.040268 0.304245 0.000000 0.000000 0.000000
# 4 0.000000 0.000000 0.000000 0.027634 0.000000 0.000000
# 5 0.000000 0.000000 0.000000 0.000000 0.294249 0.000000
# 6 0.000000 0.000000 0.000000 0.000000 0.000000 0.080915
#
#
# Mechanical properties :
#
#
# Convention : Reuss Voigt Hill
#
# Bulk Modulus (GPa) = 19.81011 20.49564 20.15288
# Shear Modulus (GPa) = 3.43581 13.95644 8.69613
#
# Velocity S-wave (km/s) = 1.32029 2.66097 2.10047
# Velocity P-wave (km/s) = 3.51779 4.45415 4.01337
#
# Compressibility (1/GPa) = 0.05047926
#
# Stress axis : x y z
#
# Youngs Moduli (GPa) = 4.73122 36.43014 3.28682
#
# Poissons Ratio (x) = -0.85123 0.75395
# Poissons Ratio (y) = -0.11055 0.13235
# Poissons Ratio (z) = 1.08528 1.46698
#
# Static dielectric constant tensor:
#      x y z
#    x 1.727990 0.000000 0.000000 
#    y 0.000000 1.713260 0.000000 
#    z 0.000000 0.000000 1.665230 
# 
# From -- ./inp_files/9297.got.cif
#   From: 2010.05.17/outbox.ucp.g08.bks.cvg/sg57_5_cif.got.tgz:9297.got - 2010.06.11 16:39:23.
