data_PCOD9440890
_publ_section_title
;
Structure prediction by ZEFSAII (Michael W. Deem and Ramdas Pophale) SiO2 
 PCOD9440890
Probable space group: P N N M
;
_chemical_formula_sum "Si O2"
_cell_formula_units_Z 56
_cell_length_a 20.826392
_cell_length_b 8.258994
_cell_length_c 18.476602
_cell_angle_alpha 90.000000
_cell_angle_beta 90.000000
_cell_angle_gamma 90.000000
_cell_volume 3178.068787
_symmetry_space_group_name_H-M "P N N M"
_symmetry_group_IT_number 58
_symmetry_cell_setting 'orthorhombic'
loop_
_space_group_symop_operation_xyz
x,y,z
-x,-y,z
1/2+x,1/2-y,1/2-z
1/2-x,1/2+y,1/2-z
-x,-y,-z
x,y,-z
1/2-x,1/2+y,1/2+z
1/2+x,1/2-y,1/2+z
loop_
_atom_site_type_symbol
_atom_site_label
_atom_site_fract_x
_atom_site_fract_y
_atom_site_fract_z
Si Si1 0.388345 0.611947 0.863152
Si Si2 0.241073 0.503742 0.299832
Si Si3 0.188048 0.404676 0.084691
Si Si4 0.542291 0.257364 0.000000
Si Si5 0.652403 0.256576 0.275526
Si Si6 0.748960 0.759964 0.585366
Si Si7 0.671499 0.728681 0.874142
Si Si8 0.903016 0.399251 0.500000
O O1 0.438528 0.647742 0.927077
O O2 0.399926 0.708684 0.787382
O O3 0.320001 0.679468 0.892758
O O4 0.374812 0.420649 0.855884
O O5 0.307114 0.577302 0.272231
O O6 0.202559 0.378487 0.251767
O O7 0.258857 0.407378 0.372625
O O8 0.193902 0.655665 0.309912
O O9 0.143652 0.304781 0.141691
O O10 0.198883 0.595283 0.103847
O O11 0.260815 0.334587 0.092813
O O12 0.169260 0.391699 0.000000
O O13 0.469012 0.201446 0.000000
O O14 0.582256 0.089032 0.000000
O O15 0.746389 0.736895 0.500000
O O16 0.636860 0.844740 0.930803
#
# Coordination Sequence:
#
# PCOD9440890 Si02
#       8
#     8   8   8   4   8   8   8   4
#     4  10  19  32  44  61  86 118 154 191 225 265
#     4  10  18  26  41  61  85 113 155 185 224 265
#     4   9  17  29  43  64  89 117 151 184 222 269
#     4  11  23  35  47  65  91 119 159 193 230 269
#     4  10  18  28  42  60  86 115 151 190 222 264
#     4   9  16  26  42  59  86 116 148 188 222 258
#     4  10  19  29  47  64  85 114 151 187 227 273
#     4  11  21  33  49  69  87 119 155 195 228 275
#
# _framework density 17.620764999999999
#
# number of rings (size 3 to 8) (size 9 to 14) (size 15 to 20)
#    0.000    2.143    1.429    5.571    1.000    1.714 
#    0.000    0.000    0.000    0.000    0.000    0.000 
#    0.000    0.000    0.000   12.857    1.857    3.286 
#
# Total GULP energy -311948.461376 kJ/mol
# GULP energy per Si atom -5570.508239 kJ/mol
# Density = 1.758066 g / cm^3
# Si number density = 17.620765 Si / 1000 Ang^3
#
#
#
# Elastic Constant Matrix: (Units=GPa)
#
#
# Indices 1 2 3 4 5 6 
#
# 1 16.4470 4.9414 7.7653 0.0000 0.0000 0.0000
# 2 4.9414 62.5741 14.3474 0.0000 0.0000 0.0000
# 3 7.7653 14.3474 83.5804 0.0000 0.0000 0.0000
# 4 0.0000 0.0000 0.0000 26.4639 0.0000 0.0000
# 5 0.0000 0.0000 0.0000 0.0000 3.8520 0.0000
# 6 0.0000 0.0000 0.0000 0.0000 0.0000 12.9339
#
#
#
# Elastic Compliance Matrix: (Units=1/GPa)
#
#
# Indices 1 2 3 4 5 6 
#
# 1 0.064479 -0.003871 -0.005326 0.000000 0.000000 0.000000
# 2 -0.003871 0.016868 -0.002536 0.000000 0.000000 0.000000
# 3 -0.005326 -0.002536 0.012895 0.000000 0.000000 0.000000
# 4 0.000000 0.000000 0.000000 0.037787 0.000000 0.000000
# 5 0.000000 0.000000 0.000000 0.000000 0.259606 0.000000
# 6 0.000000 0.000000 0.000000 0.000000 0.000000 0.077316
#
#
# Mechanical properties :
#
#
# Convention : Reuss Voigt Hill
#
# Bulk Modulus (GPa) = 14.12905 24.07886 19.10396
# Shear Modulus (GPa) = 9.68975 17.68646 13.68811
#
# Velocity S-wave (km/s) = 2.34755 3.17160 2.79017
# Velocity P-wave (km/s) = 3.92222 5.20642 4.60926
#
# Compressibility (1/GPa) = 0.07077616
#
# Stress axis : x y z
#
# Youngs Moduli (GPa) = 15.50898 59.28327 77.55124
#
# Poissons Ratio (x) = 0.22946 0.41305
# Poissons Ratio (y) = 0.06003 0.19667
# Poissons Ratio (z) = 0.08260 0.15034
#
# Static dielectric constant tensor:
#      x y z
#    x 1.560540 0.000000 0.000000 
#    y 0.000000 1.652720 0.000000 
#    z 0.000000 0.000000 1.691320 
# 
# From -- ./inp_files/30443.got.cif
#   From: 2010.05.17/outbox.cif.g08.bks.cpg/sg58_16_cif.got.tgz:30443.got - 2010.06.03 14:20:14.
