data_PCOD9440089
_publ_section_title
;
Structure prediction by ZEFSAII (Michael W. Deem and Ramdas Pophale) SiO2 
 PCOD9440089
Probable space group: P B C M
;
_chemical_formula_sum "Si O2"
_cell_formula_units_Z 48
_cell_length_a 14.397597
_cell_length_b 10.077434
_cell_length_c 15.552439
_cell_angle_alpha 90.000000
_cell_angle_beta 90.000000
_cell_angle_gamma 90.000000
_cell_volume 2256.516338
_symmetry_space_group_name_H-M "P B C M"
_symmetry_group_IT_number 57
_symmetry_cell_setting 'orthorhombic'
loop_
_space_group_symop_operation_xyz
x,y,z
-x,-y,1/2+z
x,1/2-y,-z
-x,1/2+y,1/2-z
-x,-y,-z
x,y,1/2-z
-x,1/2+y,z
x,1/2-y,1/2+z
loop_
_atom_site_type_symbol
_atom_site_label
_atom_site_fract_x
_atom_site_fract_y
_atom_site_fract_z
Si Si1 0.913259 0.803013 0.597139
Si Si2 0.581572 0.528864 0.355156
Si Si3 0.210957 0.537070 0.849104
Si Si4 0.782425 0.930228 0.150570
Si Si5 0.874877 0.197047 0.402906
Si Si6 0.580905 0.832400 0.355317
O O1 0.915895 0.750000 0.500000
O O2 0.851617 0.694542 0.646090
O O3 0.018912 0.813984 0.628965
O O4 0.862127 0.943968 0.602193
O O5 0.580227 0.526347 0.250000
O O6 0.684470 0.483539 0.381875
O O7 0.566138 0.680573 0.382477
O O8 0.500937 0.429710 0.384035
O O9 0.209151 0.491203 0.750000
O O10 0.180749 0.689297 0.853091
O O11 0.771164 0.970350 0.250000
O O12 0.682052 0.884051 0.116914
O O13 0.825510 0.055669 0.102684
O O14 0.877411 0.250000 0.500000
O O15 0.581938 0.831766 0.250000
#
# Coordination Sequence:
#
# PCOD9440089 Si02
#       6
#     8   8   8   8   8   8
#     4  11  23  41  62  83 118 164 199 237 298 363
#     4   9  18  33  56  87 120 151 187 236 294 352
#     4  11  22  38  62  92 120 151 199 252 294 338
#     4  11  22  38  62  92 120 151 199 252 294 338
#     4  11  25  41  58  85 120 162 203 237 294 365
#     4   9  18  33  56  87 120 151 187 236 294 352
#
# _framework density 21.271726000000001
#
# number of rings (size 3 to 8) (size 9 to 14) (size 15 to 20)
#    0.000    1.667    1.667    3.000    2.333    6.667 
#    0.000    0.000    0.000    6.000    0.000    0.000 
#    0.000    0.000    0.000    0.000    0.000    0.000 
#
# Total GULP energy -268437.825971 kJ/mol
# GULP energy per Si atom -5592.454708 kJ/mol
# Density = 2.122331 g / cm^3
# Si number density = 21.271726 Si / 1000 Ang^3
#
#
#
# Elastic Constant Matrix: (Units=GPa)
#
#
# Indices 1 2 3 4 5 6 
#
# 1 188.1155 108.5088 6.5144 0.0000 0.0000 0.0000
# 2 108.5088 160.6265 -1.9239 0.0000 0.0000 0.0000
# 3 6.5144 -1.9239 26.0510 0.0000 0.0000 0.0000
# 4 0.0000 0.0000 0.0000 29.2730 0.0000 0.0000
# 5 0.0000 0.0000 0.0000 0.0000 10.2431 0.0000
# 6 0.0000 0.0000 0.0000 0.0000 0.0000 39.4205
#
#
#
# Elastic Compliance Matrix: (Units=1/GPa)
#
#
# Indices 1 2 3 4 5 6 
#
# 1 0.008891 -0.006038 -0.002669 0.000000 0.000000 0.000000
# 2 -0.006038 0.010332 0.002273 0.000000 0.000000 0.000000
# 3 -0.002669 0.002273 0.039222 0.000000 0.000000 0.000000
# 4 0.000000 0.000000 0.000000 0.034161 0.000000 0.000000
# 5 0.000000 0.000000 0.000000 0.000000 0.097627 0.000000
# 6 0.000000 0.000000 0.000000 0.000000 0.000000 0.025368
#
#
# Mechanical properties :
#
#
# Convention : Reuss Voigt Hill
#
# Bulk Modulus (GPa) = 21.94159 66.77685 44.35922
# Shear Modulus (GPa) = 20.52020 33.23356 26.87688
#
# Velocity S-wave (km/s) = 3.10928 3.95693 3.55843
# Velocity P-wave (km/s) = 4.81949 7.23442 6.14672
#
# Compressibility (1/GPa) = 0.04557556
#
# Stress axis : x y z
#
# Youngs Moduli (GPa) = 112.46809 96.78650 25.49613
#
# Poissons Ratio (x) = 0.58444 0.06806
# Poissons Ratio (y) = 0.67913 -0.05795
# Poissons Ratio (z) = 0.30022 -0.22000
#
# Static dielectric constant tensor:
#      x y z
#    x 1.739520 0.000000 0.000000 
#    y 0.000000 1.715170 0.000000 
#    z 0.000000 0.000000 1.835530 
# 
# From -- ./inp_files/22456.got.cif
#   From: 2010.05.17/outbox.cif.g08.bks.cpg/sg57_12_cif.got.tgz:22456.got - 2010.06.03 13:58:18.
