data_PCOD9440122
_publ_section_title
;
Structure prediction by ZEFSAII (Michael W. Deem and Ramdas Pophale) SiO2 
 PCOD9440122
Probable space group: P B C M
;
_chemical_formula_sum "Si O2"
_cell_formula_units_Z 32
_cell_length_a 7.971314
_cell_length_b 10.786458
_cell_length_c 15.217736
_cell_angle_alpha 90.000000
_cell_angle_beta 90.000000
_cell_angle_gamma 90.000000
_cell_volume 1308.455085
_symmetry_space_group_name_H-M "P B C M"
_symmetry_group_IT_number 57
_symmetry_cell_setting 'orthorhombic'
loop_
_space_group_symop_operation_xyz
x,y,z
-x,-y,1/2+z
x,1/2-y,-z
-x,1/2+y,1/2-z
-x,-y,-z
x,y,1/2-z
-x,1/2+y,z
x,1/2-y,1/2+z
loop_
_atom_site_type_symbol
_atom_site_label
_atom_site_fract_x
_atom_site_fract_y
_atom_site_fract_z
Si Si1 0.890709 0.608034 0.093717
Si Si2 0.448584 0.482998 0.848787
Si Si3 0.625150 0.258984 0.395923
Si Si4 0.998500 0.142706 0.608379
O O1 0.702608 0.555694 0.086407
O O2 0.996615 0.498897 0.140550
O O3 0.885938 0.743346 0.137411
O O4 0.967317 0.626352 0.996402
O O5 0.380178 0.475854 0.750000
O O6 0.492207 0.626291 0.865721
O O7 0.585158 0.376027 0.858667
O O8 0.610756 0.250000 0.500000
O O9 0.813108 0.302779 0.374331
#
# Coordination Sequence:
#
# PCOD9440122 Si02
#       4
#     8   8   8   8
#     4   9  18  35  58  85 121 154 202 253 308 363
#     4  11  25  41  60  92 135 168 202 262 331 385
#     4  11  22  41  67  95 119 168 222 263 308 368
#     4   9  18  35  61  91 115 151 207 265 295 354
#
# _framework density 24.456320999999999
#
# number of rings (size 3 to 8) (size 9 to 14) (size 15 to 20)
#    0.000    2.000    2.500    1.500    3.500    2.000 
#    0.000    6.250    0.000    0.000    0.000    0.000 
#    0.000    0.000    0.000    0.000    0.000    0.000 
#
# Total GULP energy -178531.052415 kJ/mol
# GULP energy per Si atom -5579.095388 kJ/mol
# Density = 2.440066 g / cm^3
# Si number density = 24.456321 Si / 1000 Ang^3
#
#
#
# Elastic Constant Matrix: (Units=GPa)
#
#
# Indices 1 2 3 4 5 6 
#
# 1 48.4642 28.7767 -4.2767 0.0000 0.0000 0.0000
# 2 28.7767 111.7562 7.1075 0.0000 0.0000 0.0000
# 3 -4.2767 7.1075 41.0248 0.0000 0.0000 0.0000
# 4 0.0000 0.0000 0.0000 -12.0087 0.0000 0.0000
# 5 0.0000 0.0000 0.0000 0.0000 -3.8742 0.0000
# 6 0.0000 0.0000 0.0000 0.0000 0.0000 42.3823
#
#
#
# Elastic Compliance Matrix: (Units=1/GPa)
#
#
# Indices 1 2 3 4 5 6 
#
# 1 0.024916 -0.006654 0.003750 0.000000 0.000000 0.000000
# 2 -0.006654 0.010825 -0.002569 0.000000 0.000000 0.000000
# 3 0.003750 -0.002569 0.025212 0.000000 0.000000 0.000000
# 4 0.000000 0.000000 0.000000 -0.083273 0.000000 0.000000
# 5 0.000000 0.000000 0.000000 0.000000 -0.258117 0.000000
# 6 0.000000 0.000000 0.000000 0.000000 0.000000 0.023595
#
#
# Mechanical properties :
#
#
# Convention : Reuss Voigt Hill
#
# Bulk Modulus (GPa) = 19.99758 29.38448 24.69103
# Shear Modulus (GPa) = -21.81230 16.60905 -2.60163
#
# Velocity S-wave (km/s) = -2.98969 2.60884 -1.03252
# Velocity P-wave (km/s) = 1.92952 4.59521 2.94897
#
# Compressibility (1/GPa) = 0.05000605
#
# Stress axis : x y z
#
# Youngs Moduli (GPa) = 40.13512 92.37981 39.66439
#
# Poissons Ratio (x) = 0.61472 -0.14875
# Poissons Ratio (y) = 0.26707 0.10190
# Poissons Ratio (z) = -0.15052 0.23733
#
# Static dielectric constant tensor:
#      x y z
#    x 1.979170 0.000000 0.000000 
#    y 0.000000 2.059410 0.000000 
#    z 0.000000 0.000000 1.512130 
# 
# From -- ./inp_files/15483.got.cif
#   From: 2010.05.17/outbox.cif.g08.bks.cpg/sg57_8_cif.got.tgz:15483.got - 2010.06.03 13:58:18.
