data_PCOD9440188
_publ_section_title
;
Structure prediction by ZEFSAII (Michael W. Deem and Ramdas Pophale) SiO2 
 PCOD9440188
Probable space group: P B C M
;
_chemical_formula_sum "Si O2"
_cell_formula_units_Z 52
_cell_length_a 7.889742
_cell_length_b 21.887718
_cell_length_c 14.609691
_cell_angle_alpha 90.000000
_cell_angle_beta 90.000000
_cell_angle_gamma 90.000000
_cell_volume 2522.924864
_symmetry_space_group_name_H-M "P B C M"
_symmetry_group_IT_number 57
_symmetry_cell_setting 'orthorhombic'
loop_
_space_group_symop_operation_xyz
x,y,z
-x,-y,1/2+z
x,1/2-y,-z
-x,1/2+y,1/2-z
-x,-y,-z
x,y,1/2-z
-x,1/2+y,z
x,1/2-y,1/2+z
loop_
_atom_site_type_symbol
_atom_site_label
_atom_site_fract_x
_atom_site_fract_y
_atom_site_fract_z
Si Si1 0.000918 0.041040 0.750000
Si Si2 0.782639 0.633800 0.066783
Si Si3 0.278550 0.440799 0.750000
Si Si4 0.335488 0.835744 0.141201
Si Si5 0.633959 0.995735 0.250000
Si Si6 0.670071 0.761896 0.357187
Si Si7 0.474292 0.439624 0.059488
Si Si8 0.023807 0.352896 0.100447
O O1 0.162389 0.994678 0.750000
O O2 0.013223 0.086284 0.837408
O O3 0.825190 0.004270 0.750000
O O4 0.777676 0.596258 0.160424
O O5 0.723423 0.702424 0.087078
O O6 0.651572 0.601132 0.999266
O O7 0.953882 0.633885 0.007206
O O8 0.482669 0.453492 0.750000
O O9 0.349925 0.848260 0.250000
O O10 0.486782 0.789432 0.117860
O O11 0.365255 0.897731 0.083825
O O12 0.145987 0.814912 0.120612
O O13 0.600095 0.957786 0.342143
O O14 0.663016 0.745187 0.250000
O O15 0.813253 0.813532 0.369616
O O16 0.500000 0.500000 0.000000
#
# Coordination Sequence:
#
# PCOD9440188 Si02
#       8
#     4   8   4   8   4   8   8   8
#     4  12  24  41  72 105 136 178 244 299 355 419
#     4  12  26  47  69 101 150 191 229 304 366 424
#     4  12  28  47  68 100 148 197 236 295 371 423
#     4  11  23  43  74 106 136 182 235 295 351 426
#     4  12  22  44  66  97 138 181 244 292 332 426
#     4  11  23  47  74  99 142 188 239 294 363 423
#     4  12  24  40  71 101 135 184 234 287 356 425
#     4  12  24  43  73 107 136 182 244 296 348 430
#
# _framework density 20.610997999999999
#
# number of rings (size 3 to 8) (size 9 to 14) (size 15 to 20)
#    0.000    0.308    7.692    1.385    0.000    1.846 
#    5.538    0.000    0.000    0.000    0.000    0.000 
#    0.000    0.000    0.000    0.000    0.000    0.000 
#
# Total GULP energy -290627.262087 kJ/mol
# GULP energy per Si atom -5588.985809 kJ/mol
# Density = 2.056409 g / cm^3
# Si number density = 20.610998 Si / 1000 Ang^3
#
#
#
# Elastic Constant Matrix: (Units=GPa)
#
#
# Indices 1 2 3 4 5 6 
#
# 1 104.6398 30.0863 22.3446 0.0000 0.0000 0.0000
# 2 30.0863 109.1342 49.8591 0.0000 0.0000 0.0000
# 3 22.3446 49.8591 151.0201 0.0000 0.0000 0.0000
# 4 0.0000 0.0000 0.0000 45.5838 0.0000 0.0000
# 5 0.0000 0.0000 0.0000 0.0000 14.0151 0.0000
# 6 0.0000 0.0000 0.0000 0.0000 0.0000 18.2537
#
#
#
# Elastic Compliance Matrix: (Units=1/GPa)
#
#
# Indices 1 2 3 4 5 6 
#
# 1 0.010442 -0.002559 -0.000700 0.000000 0.000000 0.000000
# 2 -0.002559 0.011418 -0.003391 0.000000 0.000000 0.000000
# 3 -0.000700 -0.003391 0.007845 0.000000 0.000000 0.000000
# 4 0.000000 0.000000 0.000000 0.021938 0.000000 0.000000
# 5 0.000000 0.000000 0.000000 0.000000 0.071352 0.000000
# 6 0.000000 0.000000 0.000000 0.000000 0.000000 0.054783
#
#
# Mechanical properties :
#
#
# Convention : Reuss Voigt Hill
#
# Bulk Modulus (GPa) = 60.95898 63.26379 62.11138
# Shear Modulus (GPa) = 25.43951 33.07079 29.25515
#
# Velocity S-wave (km/s) = 3.51703 4.00999 3.77157
# Velocity P-wave (km/s) = 6.79211 7.22502 7.01191
#
# Compressibility (1/GPa) = 0.01640447
#
# Stress axis : x y z
#
# Youngs Moduli (GPa) = 95.76894 87.58398 127.47385
#
# Poissons Ratio (x) = 0.22410 0.08926
# Poissons Ratio (y) = 0.24505 0.43225
# Poissons Ratio (z) = 0.06706 0.29699
#
# Static dielectric constant tensor:
#      x y z
#    x 1.765770 0.000000 0.000000 
#    y 0.000000 1.748600 0.000000 
#    z 0.000000 0.000000 1.755420 
# 
# From -- ./inp_files/16679.got.cif
#   From: 2010.05.17/outbox.cif.g08.bks.cpg/sg57_9_cif.got.tgz:16679.got - 2010.06.03 13:58:18.
