data_PCOD9440267
_publ_section_title
;
Structure prediction by ZEFSAII (Michael W. Deem and Ramdas Pophale) SiO2 
 PCOD9440267
Probable space group: P B C M
;
_chemical_formula_sum "Si O2"
_cell_formula_units_Z 32
_cell_length_a 9.113919
_cell_length_b 12.423965
_cell_length_c 11.348950
_cell_angle_alpha 90.000000
_cell_angle_beta 90.000000
_cell_angle_gamma 90.000000
_cell_volume 1285.053079
_symmetry_space_group_name_H-M "P B C M"
_symmetry_group_IT_number 57
_symmetry_cell_setting 'orthorhombic'
loop_
_space_group_symop_operation_xyz
x,y,z
-x,-y,1/2+z
x,1/2-y,-z
-x,1/2+y,1/2-z
-x,-y,-z
x,y,1/2-z
-x,1/2+y,z
x,1/2-y,1/2+z
loop_
_atom_site_type_symbol
_atom_site_label
_atom_site_fract_x
_atom_site_fract_y
_atom_site_fract_z
Si Si1 0.107898 0.622786 0.750000
Si Si2 0.897786 0.614708 0.250000
Si Si3 0.925479 0.869554 0.496349
Si Si4 0.642987 0.705675 0.750000
Si Si5 0.332575 0.678213 0.250000
Si Si6 0.347265 0.488348 0.432915
O O1 0.175842 0.503238 0.750000
O O2 0.012348 0.626721 0.627991
O O3 0.777413 0.790284 0.750000
O O4 0.222173 0.779304 0.250000
O O5 0.991916 0.622283 0.370730
O O6 0.859677 0.750000 0.500000
O O7 0.801984 0.961074 0.500710
O O8 0.495217 0.772949 0.750000
O O9 0.642793 0.620525 0.856190
O O10 0.323221 0.597012 0.360015
O O11 0.500000 0.500000 0.500000
#
# Coordination Sequence:
#
# PCOD9440267 Si02
#       6
#     4   4   8   4   4   8
#     4  12  30  51  78 126 169 225 273 340 411 515
#     4  12  26  49  83 115 160 215 275 338 409 498
#     4  12  26  51  82 117 163 215 275 335 422 496
#     4  11  24  51  79 118 156 213 276 346 424 481
#     4  11  28  47  78 117 163 209 288 340 412 504
#     4  11  26  49  82 115 158 212 277 353 414 493
#
# _framework density 24.901693999999999
#
# number of rings (size 3 to 8) (size 9 to 14) (size 15 to 20)
#    0.000    0.500    2.500    4.500    7.000    6.000 
#    0.000    0.000    0.000    0.000    0.000    0.000 
#    0.000    0.000    0.000    0.000    0.000    0.000 
#
# Total GULP energy -178854.167541 kJ/mol
# GULP energy per Si atom -5589.192736 kJ/mol
# Density = 2.484502 g / cm^3
# Si number density = 24.901694 Si / 1000 Ang^3
#
#
#
# Elastic Constant Matrix: (Units=GPa)
#
#
# Indices 1 2 3 4 5 6 
#
# 1 149.4368 76.3575 90.4783 0.0000 0.0000 0.0000
# 2 76.3575 231.9947 65.7433 0.0000 0.0000 0.0000
# 3 90.4783 65.7433 222.3499 0.0000 0.0000 0.0000
# 4 0.0000 0.0000 0.0000 -26.1963 0.0000 0.0000
# 5 0.0000 0.0000 0.0000 0.0000 42.0308 0.0000
# 6 0.0000 0.0000 0.0000 0.0000 0.0000 68.6197
#
#
#
# Elastic Compliance Matrix: (Units=1/GPa)
#
#
# Indices 1 2 3 4 5 6 
#
# 1 0.009897 -0.002310 -0.003344 0.000000 0.000000 0.000000
# 2 -0.002310 0.005244 -0.000611 0.000000 0.000000 0.000000
# 3 -0.003344 -0.000611 0.006039 0.000000 0.000000 0.000000
# 4 0.000000 0.000000 0.000000 -0.038173 0.000000 0.000000
# 5 0.000000 0.000000 0.000000 0.000000 0.023792 0.000000
# 6 0.000000 0.000000 0.000000 0.000000 0.000000 0.014573
#
#
# Mechanical properties :
#
#
# Convention : Reuss Voigt Hill
#
# Bulk Modulus (GPa) = 115.60409 118.77107 117.18758
# Shear Modulus (GPa) = 135.93077 41.63767 88.78422
#
# Velocity S-wave (km/s) = 7.39631 4.09355 5.97757
# Velocity P-wave (km/s) = 10.93003 8.37510 9.73673
#
# Compressibility (1/GPa) = 0.00865021
#
# Stress axis : x y z
#
# Youngs Moduli (GPa) = 101.04291 190.70643 165.59600
#
# Poissons Ratio (x) = 0.44047 0.55380
# Poissons Ratio (y) = 0.23338 0.10111
# Poissons Ratio (z) = 0.33792 0.11644
#
# Static dielectric constant tensor:
#      x y z
#    x 1.952140 0.000000 0.000000 
#    y 0.000000 1.933900 0.000000 
#    z 0.000000 0.000000 2.084760 
# 
# From -- ./inp_files/11441.got.cif
#   From: 2010.05.17/outbox.cif.g08.bks.cpg/sg57_6_cif.got.tgz:11441.got - 2010.06.03 13:58:18.
