data_PCOD9440262
_publ_section_title
;
Structure prediction by ZEFSAII (Michael W. Deem and Ramdas Pophale) SiO2 
 PCOD9440262
Probable space group: P B C M
;
_chemical_formula_sum "Si O2"
_cell_formula_units_Z 32
_cell_length_a 14.628475
_cell_length_b 7.814216
_cell_length_c 10.960881
_cell_angle_alpha 90.000000
_cell_angle_beta 90.000000
_cell_angle_gamma 90.000000
_cell_volume 1252.939002
_symmetry_space_group_name_H-M "P B C M"
_symmetry_group_IT_number 57
_symmetry_cell_setting 'orthorhombic'
loop_
_space_group_symop_operation_xyz
x,y,z
-x,-y,1/2+z
x,1/2-y,-z
-x,1/2+y,1/2-z
-x,-y,-z
x,y,1/2-z
-x,1/2+y,z
x,1/2-y,1/2+z
loop_
_atom_site_type_symbol
_atom_site_label
_atom_site_fract_x
_atom_site_fract_y
_atom_site_fract_z
Si Si1 0.107778 0.511928 0.448052
Si Si2 0.411386 0.553574 0.750000
Si Si3 0.892511 0.770535 0.750000
Si Si4 0.620660 0.050443 0.250000
Si Si5 0.298466 0.450070 0.988567
Si Si6 0.896451 0.309457 0.250000
O O1 0.134370 0.340760 0.369312
O O2 0.195995 0.516235 0.536116
O O3 0.122163 0.818964 0.634912
O O4 0.000000 0.500000 0.500000
O O5 0.392479 0.750694 0.750000
O O6 0.519785 0.529389 0.750000
O O7 0.363904 0.488614 0.873898
O O8 0.884785 0.979000 0.750000
O O9 0.996060 0.711885 0.750000
O O10 0.669877 0.012243 0.377903
O O11 0.301660 0.250000 0.000000
#
# Coordination Sequence:
#
# PCOD9440262 Si02
#       6
#     8   4   4   4   8   4
#     4  11  28  51  75 112 169 230 279 350 419 495
#     4  12  28  54  91 122 169 216 271 357 435 521
#     4  11  24  48  71 107 143 226 293 345 414 489
#     4  12  26  58  86 128 162 219 278 348 437 510
#     4  12  28  53  83 127 170 218 285 348 428 516
#     4  11  24  48  74 101 152 217 300 344 414 486
#
# _framework density 25.539950000000001
#
# number of rings (size 3 to 8) (size 9 to 14) (size 15 to 20)
#    0.000    0.500    2.500    5.250    3.500    3.000 
#   27.000    0.000    0.000    0.000    0.000    0.000 
#    0.000    0.000    0.000    0.000    0.000    0.000 
#
# Total GULP energy -178483.410317 kJ/mol
# GULP energy per Si atom -5577.606572 kJ/mol
# Density = 2.548182 g / cm^3
# Si number density = 25.539950 Si / 1000 Ang^3
#
#
#
# Elastic Constant Matrix: (Units=GPa)
#
#
# Indices 1 2 3 4 5 6 
#
# 1 171.3319 50.5084 94.2307 0.0000 0.0000 0.0000
# 2 50.5084 265.7743 77.3074 0.0000 0.0000 0.0000
# 3 94.2307 77.3074 192.2649 0.0000 0.0000 0.0000
# 4 0.0000 0.0000 0.0000 35.6354 0.0000 0.0000
# 5 0.0000 0.0000 0.0000 0.0000 111.2669 0.0000
# 6 0.0000 0.0000 0.0000 0.0000 0.0000 43.4370
#
#
#
# Elastic Compliance Matrix: (Units=1/GPa)
#
#
# Indices 1 2 3 4 5 6 
#
# 1 0.008034 -0.000432 -0.003764 0.000000 0.000000 0.000000
# 2 -0.000432 0.004284 -0.001511 0.000000 0.000000 0.000000
# 3 -0.003764 -0.001511 0.007653 0.000000 0.000000 0.000000
# 4 0.000000 0.000000 0.000000 0.028062 0.000000 0.000000
# 5 0.000000 0.000000 0.000000 0.000000 0.008987 0.000000
# 6 0.000000 0.000000 0.000000 0.000000 0.000000 0.023022
#
#
# Mechanical properties :
#
#
# Convention : Reuss Voigt Hill
#
# Bulk Modulus (GPa) = 116.84827 119.27379 118.06103
# Shear Modulus (GPa) = 53.01720 65.22284 59.12002
#
# Velocity S-wave (km/s) = 4.56110 5.05895 4.81646
# Velocity P-wave (km/s) = 8.57838 8.99590 8.78962
#
# Compressibility (1/GPa) = 0.00855811
#
# Stress axis : x y z
#
# Youngs Moduli (GPa) = 124.47010 233.41741 130.66145
#
# Poissons Ratio (x) = 0.10084 0.49179
# Poissons Ratio (y) = 0.05377 0.19741
# Poissons Ratio (z) = 0.46849 0.35267
#
# Static dielectric constant tensor:
#      x y z
#    x 2.089230 0.000000 0.000000 
#    y 0.000000 1.980100 0.000000 
#    z 0.000000 0.000000 1.970740 
# 
# From -- ./inp_files/13481.got.cif
#   From: 2010.05.17/outbox.cif.g08.bks.cpg/sg57_7_cif.got.tgz:13481.got - 2010.06.03 13:58:18.
