data_PCOD9440892
_publ_section_title
;
Structure prediction by ZEFSAII (Michael W. Deem and Ramdas Pophale) SiO2 
 PCOD9440892
Probable space group: P N N M
;
_chemical_formula_sum "Si O2"
_cell_formula_units_Z 56
_cell_length_a 14.214110
_cell_length_b 30.341926
_cell_length_c 8.448916
_cell_angle_alpha 90.000000
_cell_angle_beta 90.000000
_cell_angle_gamma 90.000000
_cell_volume 3643.877842
_symmetry_space_group_name_H-M "P N N M"
_symmetry_group_IT_number 58
_symmetry_cell_setting 'orthorhombic'
loop_
_space_group_symop_operation_xyz
x,y,z
-x,-y,z
1/2+x,1/2-y,1/2-z
1/2-x,1/2+y,1/2-z
-x,-y,-z
x,y,-z
1/2-x,1/2+y,1/2+z
1/2+x,1/2-y,1/2+z
loop_
_atom_site_type_symbol
_atom_site_label
_atom_site_fract_x
_atom_site_fract_y
_atom_site_fract_z
Si Si1 0.791563 0.317336 0.691608
Si Si2 0.888816 0.593840 0.808439
Si Si3 0.393385 0.269924 0.310056
Si Si4 0.101731 0.596004 0.688218
Si Si5 0.393901 0.730005 0.692605
Si Si6 0.385852 0.002464 0.683457
Si Si7 0.214210 0.318271 0.191281
O O1 0.792191 0.316686 0.500000
O O2 0.857504 0.277561 0.749882
O O3 0.832106 0.364174 0.745014
O O4 0.685650 0.304895 0.743355
O O5 0.855697 0.545366 0.752102
O O6 0.826225 0.634907 0.754340
O O7 0.997282 0.600654 0.760077
O O8 0.886641 0.592342 0.000000
O O9 0.392809 0.269502 0.500000
O O10 0.499933 0.277913 0.253418
O O11 0.317321 0.305311 0.251001
O O12 0.092637 0.599238 0.500000
O O13 0.140087 0.547494 0.730265
O O14 0.395433 0.729662 0.500000
O O15 0.355160 0.778254 0.740238
O O16 0.357712 0.006299 0.500000
O O17 0.500000 0.000000 0.687539
O O18 0.215987 0.318418 0.000000
#
# Coordination Sequence:
#
# PCOD9440892 Si02
#       7
#     8   8   8   8   8   8   8
#     4   9  18  31  43  58  83 114 141 163 200 250
#     4   9  17  29  44  60  83 117 145 163 198 255
#     4  10  18  28  44  64  82 104 138 175 204 234
#     4  10  18  26  41  64  87 110 138 176 212 238
#     4   8  15  28  43  57  79 110 136 161 198 244
#     4   8  15  27  41  58  82 112 142 167 199 251
#     4   9  17  30  45  60  82 112 140 165 202 248
#
# _framework density 15.368242
#
# number of rings (size 3 to 8) (size 9 to 14) (size 15 to 20)
#    0.000    3.000    0.000    3.429    0.000    5.429 
#    0.000    7.143    0.000    0.000    0.000    1.000 
#    0.000    8.000    0.000    0.000    0.000    0.000 
#
# Total GULP energy -311818.903843 kJ/mol
# GULP energy per Si atom -5568.194711 kJ/mol
# Density = 1.533326 g / cm^3
# Si number density = 15.368242 Si / 1000 Ang^3
#
#
#
# Elastic Constant Matrix: (Units=GPa)
#
#
# Indices 1 2 3 4 5 6 
#
# 1 110.2260 74.0184 9.9805 0.0000 0.0000 0.0000
# 2 74.0184 151.3094 16.2075 0.0000 0.0000 0.0000
# 3 9.9805 16.2075 5.2203 0.0000 0.0000 0.0000
# 4 0.0000 0.0000 0.0000 10.7329 0.0000 0.0000
# 5 0.0000 0.0000 0.0000 0.0000 14.0759 0.0000
# 6 0.0000 0.0000 0.0000 0.0000 0.0000 25.0743
#
#
#
# Elastic Compliance Matrix: (Units=1/GPa)
#
#
# Indices 1 2 3 4 5 6 
#
# 1 0.013735 -0.005852 -0.008089 0.000000 0.000000 0.000000
# 2 -0.005852 0.012396 -0.027296 0.000000 0.000000 0.000000
# 3 -0.008089 -0.027296 0.291774 0.000000 0.000000 0.000000
# 4 0.000000 0.000000 0.000000 0.093172 0.000000 0.000000
# 5 0.000000 0.000000 0.000000 0.000000 0.071043 0.000000
# 6 0.000000 0.000000 0.000000 0.000000 0.000000 0.039881
#
#
# Mechanical properties :
#
#
# Convention : Reuss Voigt Hill
#
# Bulk Modulus (GPa) = 4.24757 51.90763 28.07760
# Shear Modulus (GPa) = 7.32116 21.07991 14.20054
#
# Velocity S-wave (km/s) = 2.18499 3.70760 3.04306
# Velocity P-wave (km/s) = 3.02249 7.22341 5.53683
#
# Compressibility (1/GPa) = 0.23542858
#
# Stress axis : x y z
#
# Youngs Moduli (GPa) = 72.80871 80.67339 3.42731
#
# Poissons Ratio (x) = 0.47213 0.02772
# Poissons Ratio (y) = 0.42610 0.09355
# Poissons Ratio (z) = 0.58896 2.20207
#
# Static dielectric constant tensor:
#      x y z
#    x 1.496460 0.000000 0.000000 
#    y 0.000000 1.532880 0.000000 
#    z 0.000000 0.000000 1.530380 
# 
# From -- ./inp_files/7128.got.cif
#   From: 2010.05.17/outbox.cif.g08.bks.cpg/sg58_4_cif.got.tgz:7128.got - 2010.06.03 14:20:14.
