data_PCOD9440041
_publ_section_title
;
Structure prediction by ZEFSAII (Michael W. Deem and Ramdas Pophale) SiO2 
 PCOD9440041
Probable space group: P B C M
;
_chemical_formula_sum "Si O2"
_cell_formula_units_Z 56
_cell_length_a 12.096443
_cell_length_b 15.299572
_cell_length_c 15.029961
_cell_angle_alpha 90.000000
_cell_angle_beta 90.000000
_cell_angle_gamma 90.000000
_cell_volume 2781.600904
_symmetry_space_group_name_H-M "P B C M"
_symmetry_group_IT_number 57
_symmetry_cell_setting 'orthorhombic'
loop_
_space_group_symop_operation_xyz
x,y,z
-x,-y,1/2+z
x,1/2-y,-z
-x,1/2+y,1/2-z
-x,-y,-z
x,y,1/2-z
-x,1/2+y,z
x,1/2-y,1/2+z
loop_
_atom_site_type_symbol
_atom_site_label
_atom_site_fract_x
_atom_site_fract_y
_atom_site_fract_z
Si Si1 0.580300 0.925049 0.031547
Si Si2 0.964016 0.848025 0.353060
Si Si3 0.815390 0.340449 0.446460
Si Si4 0.169725 0.464543 0.487386
Si Si5 0.584112 0.332053 0.151084
Si Si6 0.830441 0.674354 0.351992
Si Si7 0.421225 0.324015 0.652781
O O1 0.705892 0.950219 0.047879
O O2 0.520412 0.885783 0.116369
O O3 0.577156 0.865497 0.944094
O O4 0.500000 0.000000 0.000000
O O5 0.937600 0.865050 0.250000
O O6 0.914722 0.922170 0.417605
O O7 0.908843 0.754746 0.378190
O O8 0.094784 0.840129 0.367910
O O9 0.830400 0.250000 0.500000
O O10 0.840510 0.431567 0.497402
O O11 0.689290 0.342184 0.412055
O O12 0.162307 0.406661 0.579019
O O13 0.617338 0.358398 0.250000
O O14 0.529290 0.236453 0.153569
O O15 0.856662 0.647015 0.250000
O O16 0.704783 0.712607 0.349111
O O17 0.423994 0.372520 0.750000
#
# Coordination Sequence:
#
# PCOD9440041 Si02
#       7
#     8   8   8   8   8   8   8
#     4  11  21  37  59  92 124 159 205 259 314 380
#     4  11  24  43  66  95 126 162 211 267 327 383
#     4  12  25  43  64  88 130 173 220 261 317 384
#     4  11  23  41  67  95 125 167 214 266 321 373
#     4  11  23  39  61  88 126 170 209 257 320 385
#     4   9  19  38  67  98 123 155 209 273 327 377
#     4   9  19  36  60  88 118 157 203 259 318 375
#
# _framework density 20.132290999999999
#
# number of rings (size 3 to 8) (size 9 to 14) (size 15 to 20)
#    0.000    1.429    1.429    4.286    0.000    5.714 
#    0.000    2.857    0.000    0.000    0.000    0.000 
#    0.000    0.000    0.000    0.000    0.000    0.000 
#
# Total GULP energy -312123.095753 kJ/mol
# GULP energy per Si atom -5573.626710 kJ/mol
# Density = 2.008647 g / cm^3
# Si number density = 20.132291 Si / 1000 Ang^3
#
#
#
# Elastic Constant Matrix: (Units=GPa)
#
#
# Indices 1 2 3 4 5 6 
#
# 1 91.4229 26.5257 18.2157 0.0000 0.0000 0.0000
# 2 26.5257 95.6054 39.1490 0.0000 0.0000 0.0000
# 3 18.2157 39.1490 64.0563 0.0000 0.0000 0.0000
# 4 0.0000 0.0000 0.0000 40.0270 0.0000 0.0000
# 5 0.0000 0.0000 0.0000 0.0000 42.9161 0.0000
# 6 0.0000 0.0000 0.0000 0.0000 0.0000 4.1372
#
#
#
# Elastic Compliance Matrix: (Units=1/GPa)
#
#
# Indices 1 2 3 4 5 6 
#
# 1 0.012057 -0.002589 -0.001846 0.000000 0.000000 0.000000
# 2 -0.002589 0.014507 -0.008130 0.000000 0.000000 0.000000
# 3 -0.001846 -0.008130 0.021105 0.000000 0.000000 0.000000
# 4 0.000000 0.000000 0.000000 0.024983 0.000000 0.000000
# 5 0.000000 0.000000 0.000000 0.000000 0.023301 0.000000
# 6 0.000000 0.000000 0.000000 0.000000 0.000000 0.241709
#
#
# Mechanical properties :
#
#
# Convention : Reuss Voigt Hill
#
# Bulk Modulus (GPa) = 44.36855 46.54062 45.45458
# Shear Modulus (GPa) = 13.50233 28.56233 21.03233
#
# Velocity S-wave (km/s) = 2.59256 3.77069 3.23570
# Velocity P-wave (km/s) = 5.57209 6.49038 6.04869
#
# Compressibility (1/GPa) = 0.02253849
#
# Stress axis : x y z
#
# Youngs Moduli (GPa) = 82.93733 68.93151 47.38202
#
# Poissons Ratio (x) = 0.17848 0.08748
# Poissons Ratio (y) = 0.21475 0.38521
# Poissons Ratio (z) = 0.15312 0.56041
#
# Static dielectric constant tensor:
#      x y z
#    x 1.672810 0.000000 0.000000 
#    y 0.000000 1.685330 0.000000 
#    z 0.000000 0.000000 1.692460 
# 
# From -- ./inp_files/17772.got.cif
#   From: 2010.05.17/outbox.cif.g08.bks.cpg/sg57_9_cif.got.tgz:17772.got - 2010.06.03 13:58:18.
