data_PCOD9440131
_publ_section_title
;
Structure prediction by ZEFSAII (Michael W. Deem and Ramdas Pophale) SiO2 
 PCOD9440131
Probable space group: P B C M
;
_chemical_formula_sum "Si O2"
_cell_formula_units_Z 64
_cell_length_a 8.075098
_cell_length_b 18.710662
_cell_length_c 20.646339
_cell_angle_alpha 90.000000
_cell_angle_beta 90.000000
_cell_angle_gamma 90.000000
_cell_volume 3119.464223
_symmetry_space_group_name_H-M "P B C M"
_symmetry_group_IT_number 57
_symmetry_cell_setting 'orthorhombic'
loop_
_space_group_symop_operation_xyz
x,y,z
-x,-y,1/2+z
x,1/2-y,-z
-x,1/2+y,1/2-z
-x,-y,-z
x,y,1/2-z
-x,1/2+y,z
x,1/2-y,1/2+z
loop_
_atom_site_type_symbol
_atom_site_label
_atom_site_fract_x
_atom_site_fract_y
_atom_site_fract_z
Si Si1 0.464414 0.479221 0.174140
Si Si2 0.818284 0.022859 0.632484
Si Si3 0.002161 0.395246 0.679239
Si Si4 0.242789 0.050576 0.000850
Si Si5 0.450434 0.313477 0.947800
Si Si6 0.757612 0.735747 0.325462
Si Si7 0.693326 0.417323 0.910635
Si Si8 0.138275 0.391788 0.369527
O O1 0.490359 0.478499 0.250000
O O2 0.630898 0.450165 0.140187
O O3 0.433215 0.557991 0.145604
O O4 0.295307 0.436645 0.157946
O O5 0.841298 0.989374 0.560886
O O6 0.853693 0.954316 0.676832
O O7 0.960274 0.078572 0.651349
O O8 0.919677 0.398877 0.750000
O O9 0.870959 0.412050 0.623306
O O10 0.092058 0.320324 0.670723
O O11 0.140256 0.093663 0.946713
O O12 0.317648 0.982928 0.961421
O O13 0.358901 0.113325 0.029160
O O14 0.376452 0.287369 0.879319
O O15 0.637056 0.342178 0.939442
O O16 0.433312 0.250000 0.000000
O O17 0.700763 0.737738 0.250000
O O18 0.827067 0.812262 0.347180
#
# Coordination Sequence:
#
# PCOD9440131 Si02
#       8
#     8   8   8   8   8   8   8   8
#     4  11  23  39  67 100 130 172 226 278 338 398
#     4  12  23  40  71 105 130 171 229 282 341 402
#     4  11  23  42  66  97 136 180 227 278 340 408
#     4  11  22  42  69 100 130 173 228 285 346 400
#     4  12  24  43  69  99 136 178 230 282 342 414
#     4  11  25  45  67  94 137 186 226 278 347 416
#     4  11  24  42  67  98 135 175 226 287 337 403
#     4  11  25  43  67  97 139 178 221 283 344 408
#
# _framework density 20.516345000000001
#
# number of rings (size 3 to 8) (size 9 to 14) (size 15 to 20)
#    0.000    0.750    6.250    1.875    1.750    3.500 
#    4.500    0.000    0.000    0.000    0.000    0.000 
#    0.000    0.000    0.000    0.000    0.000    0.000 
#
# Total GULP energy -357137.232306 kJ/mol
# GULP energy per Si atom -5580.269255 kJ/mol
# Density = 2.046965 g / cm^3
# Si number density = 20.516345 Si / 1000 Ang^3
#
#
#
# Elastic Constant Matrix: (Units=GPa)
#
#
# Indices 1 2 3 4 5 6 
#
# 1 67.6183 2.3197 19.6384 0.0000 0.0000 0.0000
# 2 2.3197 91.1415 35.5223 0.0000 0.0000 0.0000
# 3 19.6384 35.5223 128.5221 0.0000 0.0000 0.0000
# 4 0.0000 0.0000 0.0000 10.2904 0.0000 0.0000
# 5 0.0000 0.0000 0.0000 0.0000 18.9370 0.0000
# 6 0.0000 0.0000 0.0000 0.0000 0.0000 21.0787
#
#
#
# Elastic Compliance Matrix: (Units=1/GPa)
#
#
# Indices 1 2 3 4 5 6 
#
# 1 0.015504 0.000593 -0.002533 0.000000 0.000000 0.000000
# 2 0.000593 0.012319 -0.003495 0.000000 0.000000 0.000000
# 3 -0.002533 -0.003495 0.009134 0.000000 0.000000 0.000000
# 4 0.000000 0.000000 0.000000 0.097178 0.000000 0.000000
# 5 0.000000 0.000000 0.000000 0.000000 0.052807 0.000000
# 6 0.000000 0.000000 0.000000 0.000000 0.000000 0.047441
#
#
# Mechanical properties :
#
#
# Convention : Reuss Voigt Hill
#
# Bulk Modulus (GPa) = 38.33504 44.69367 41.51435
# Shear Modulus (GPa) = 19.68895 25.38132 22.53513
#
# Velocity S-wave (km/s) = 3.10122 3.52110 3.31781
# Velocity P-wave (km/s) = 5.61686 6.19375 5.91234
#
# Compressibility (1/GPa) = 0.02608580
#
# Stress axis : x y z
#
# Youngs Moduli (GPa) = 64.49876 81.17397 109.48227
#
# Poissons Ratio (x) = -0.04810 0.27730
# Poissons Ratio (y) = -0.03822 0.38269
# Poissons Ratio (z) = 0.16337 0.28374
#
# Static dielectric constant tensor:
#      x y z
#    x 1.776290 0.000000 0.000000 
#    y 0.000000 1.707390 0.000000 
#    z 0.000000 0.000000 1.806620 
# 
# From -- ./inp_files/24630.got.cif
#   From: 2010.05.17/outbox.cif.g08.bks.cpg/sg57_13_cif.got.tgz:24630.got - 2010.06.03 13:58:18.
