data_PCOD9440116
_publ_section_title
;
Structure prediction by ZEFSAII (Michael W. Deem and Ramdas Pophale) SiO2 
 PCOD9440116
Probable space group: P B C M
;
_chemical_formula_sum "Si O2"
_cell_formula_units_Z 40
_cell_length_a 24.400018
_cell_length_b 8.885771
_cell_length_c 9.104358
_cell_angle_alpha 90.000000
_cell_angle_beta 90.000000
_cell_angle_gamma 90.000000
_cell_volume 1973.942919
_symmetry_space_group_name_H-M "P B C M"
_symmetry_group_IT_number 57
_symmetry_cell_setting 'orthorhombic'
loop_
_space_group_symop_operation_xyz
x,y,z
-x,-y,1/2+z
x,1/2-y,-z
-x,1/2+y,1/2-z
-x,-y,-z
x,y,1/2-z
-x,1/2+y,z
x,1/2-y,1/2+z
loop_
_atom_site_type_symbol
_atom_site_label
_atom_site_fract_x
_atom_site_fract_y
_atom_site_fract_z
Si Si1 0.837735 0.914459 0.572393
Si Si2 0.576817 0.919525 0.750000
Si Si3 0.461781 0.426722 0.250000
Si Si4 0.051946 0.082847 0.570278
Si Si5 0.742843 0.091336 0.082248
Si Si6 0.380936 0.569793 0.475195
O O1 0.835581 0.750000 0.500000
O O2 0.842524 0.910463 0.750000
O O3 0.891724 0.986638 0.495993
O O4 0.782538 0.992052 0.517024
O O5 0.553252 0.750253 0.750000
O O6 0.525669 0.036070 0.750000
O O7 0.614452 0.964329 0.615289
O O8 0.432266 0.510996 0.383271
O O9 0.049870 0.250000 0.500000
O O10 0.051915 0.084894 0.750000
O O11 0.000000 0.000000 0.500000
O O12 0.763421 0.100653 0.250000
O O13 0.679309 0.042453 0.088973
O O14 0.741866 0.250000 0.000000
O O15 0.386478 0.750000 0.500000
#
# Coordination Sequence:
#
# PCOD9440116 Si02
#       6
#     8   4   4   8   8   8
#     4  11  23  41  65  95 132 173 218 269 328 386
#     4  12  26  40  70  92 132 166 217 264 331 392
#     4  12  24  46  62 100 126 170 213 270 321 400
#     4  11  22  40  64  94 132 174 223 274 332 389
#     4  11  24  43  67  94 128 167 215 267 327 392
#     4  11  24  43  67  92 129 169 214 267 331 393
#
# _framework density 20.264011
#
# number of rings (size 3 to 8) (size 9 to 14) (size 15 to 20)
#    0.000    0.800    1.000    8.400    5.600    2.400 
#    0.000    4.000    0.000    0.000    0.000    0.000 
#    0.000    0.000    0.000    0.000    0.000    0.000 
#
# Total GULP energy -223209.118282 kJ/mol
# GULP energy per Si atom -5580.227957 kJ/mol
# Density = 2.021789 g / cm^3
# Si number density = 20.264011 Si / 1000 Ang^3
#
#
#
# Elastic Constant Matrix: (Units=GPa)
#
#
# Indices 1 2 3 4 5 6 
#
# 1 104.2146 41.0840 39.0518 0.0000 0.0000 0.0000
# 2 41.0840 82.8341 23.6488 0.0000 0.0000 0.0000
# 3 39.0518 23.6488 188.0111 0.0000 0.0000 0.0000
# 4 0.0000 0.0000 0.0000 23.9500 0.0000 0.0000
# 5 0.0000 0.0000 0.0000 0.0000 42.9527 0.0000
# 6 0.0000 0.0000 0.0000 0.0000 0.0000 -13.3922
#
#
#
# Elastic Compliance Matrix: (Units=1/GPa)
#
#
# Indices 1 2 3 4 5 6 
#
# 1 0.012544 -0.005682 -0.001891 0.000000 0.000000 0.000000
# 2 -0.005682 0.015096 -0.000719 0.000000 0.000000 0.000000
# 3 -0.001891 -0.000719 0.005802 0.000000 0.000000 0.000000
# 4 0.000000 0.000000 0.000000 0.041754 0.000000 0.000000
# 5 0.000000 0.000000 0.000000 0.000000 0.023281 0.000000
# 6 0.000000 0.000000 0.000000 0.000000 0.000000 -0.074670
#
#
# Mechanical properties :
#
#
# Convention : Reuss Voigt Hill
#
# Bulk Modulus (GPa) = 59.31520 64.73655 62.02588
# Shear Modulus (GPa) = 108.67624 28.78712 68.73168
#
# Velocity S-wave (km/s) = 7.33121 3.77318 5.83024
# Velocity P-wave (km/s) = 10.04972 7.14132 8.71766
#
# Compressibility (1/GPa) = 0.01685908
#
# Stress axis : x y z
#
# Youngs Moduli (GPa) = 79.71925 66.24489 172.35508
#
# Poissons Ratio (x) = 0.37639 0.32590
# Poissons Ratio (y) = 0.45294 0.12386
# Poissons Ratio (z) = 0.15074 0.04760
#
# Static dielectric constant tensor:
#      x y z
#    x 1.735540 0.000000 0.000000 
#    y 0.000000 1.499330 0.000000 
#    z 0.000000 0.000000 1.758880 
# 
# From -- ./inp_files/8994.got.cif
#   From: 2010.05.17/outbox.cif.g08.bks.cpg/sg57_5_cif.got.tgz:8994.got - 2010.06.03 13:58:18.
