data_PCOD9440988
_publ_section_title
;
Structure prediction by ZEFSAII (Michael W. Deem and Ramdas Pophale) SiO2 
 PCOD9440988
Probable space group: P N N M
;
_chemical_formula_sum "Si O2"
_cell_formula_units_Z 36
_cell_length_a 14.259108
_cell_length_b 11.790308
_cell_length_c 8.733857
_cell_angle_alpha 90.000000
_cell_angle_beta 90.000000
_cell_angle_gamma 90.000000
_cell_volume 1468.329708
_symmetry_space_group_name_H-M "P N N M"
_symmetry_group_IT_number 58
_symmetry_cell_setting 'orthorhombic'
loop_
_space_group_symop_operation_xyz
x,y,z
-x,-y,z
1/2+x,1/2-y,1/2-z
1/2-x,1/2+y,1/2-z
-x,-y,-z
x,y,-z
1/2-x,1/2+y,1/2+z
1/2+x,1/2-y,1/2+z
loop_
_atom_site_type_symbol
_atom_site_label
_atom_site_fract_x
_atom_site_fract_y
_atom_site_fract_z
Si Si1 0.124915 0.297930 0.670648
Si Si2 0.290700 0.469016 0.316059
Si Si3 0.838323 0.348786 0.170011
Si Si4 0.500000 0.000000 0.248764
Si Si5 0.455704 0.342102 0.181263
O O1 0.143672 0.255489 0.500000
O O2 0.219693 0.362051 0.727240
O O3 0.053556 0.403338 0.658265
O O4 0.056319 0.202949 0.745955
O O5 0.283991 0.481175 0.500000
O O6 0.250597 0.582152 0.234025
O O7 0.396294 0.440889 0.262993
O O8 0.918533 0.442828 0.156962
O O9 0.883948 0.262444 0.289613
O O10 0.829322 0.297822 0.000000
O O11 0.464201 0.364709 0.000000
#
# Coordination Sequence:
#
# PCOD9440988 Si02
#       5
#     8   8   8   4   8
#     4   8  15  27  45  67  94 124 154 187 232 283
#     4  10  19  32  49  71  97 127 159 194 234 280
#     4  10  18  29  46  70  97 125 155 192 235 281
#     4   8  14  24  42  68  95 118 147 188 235 280
#     4  10  19  32  49  71  97 127 159 194 234 280
#
# _framework density 24.517654
#
# number of rings (size 3 to 8) (size 9 to 14) (size 15 to 20)
#    0.000    2.667    0.000    2.667    0.000    5.333 
#    0.000    3.333    0.000    1.333    0.000    9.333 
#    0.000    0.000    0.000    0.000    0.000    0.000 
#
# Total GULP energy -200538.579585 kJ/mol
# GULP energy per Si atom -5570.516100 kJ/mol
# Density = 2.446185 g / cm^3
# Si number density = 24.517654 Si / 1000 Ang^3
#
#
#
# Elastic Constant Matrix: (Units=GPa)
#
#
# Indices 1 2 3 4 5 6 
#
# 1 140.3042 11.8549 5.6532 0.0000 0.0000 0.0000
# 2 11.8549 54.1745 -2.7336 0.0000 0.0000 0.0000
# 3 5.6532 -2.7336 74.5323 0.0000 0.0000 0.0000
# 4 0.0000 0.0000 0.0000 34.0784 0.0000 0.0000
# 5 0.0000 0.0000 0.0000 0.0000 -13.8729 0.0000
# 6 0.0000 0.0000 0.0000 0.0000 0.0000 45.8283
#
#
#
# Elastic Compliance Matrix: (Units=1/GPa)
#
#
# Indices 1 2 3 4 5 6 
#
# 1 0.007289 -0.001626 -0.000613 0.000000 0.000000 0.000000
# 2 -0.001626 0.018856 0.000815 0.000000 0.000000 0.000000
# 3 -0.000613 0.000815 0.013493 0.000000 0.000000 0.000000
# 4 0.000000 0.000000 0.000000 0.029344 0.000000 0.000000
# 5 0.000000 0.000000 0.000000 0.000000 -0.072083 0.000000
# 6 0.000000 0.000000 0.000000 0.000000 0.000000 0.021821
#
#
# Mechanical properties :
#
#
# Convention : Reuss Voigt Hill
#
# Bulk Modulus (GPa) = 27.18040 33.17335 30.17687
# Shear Modulus (GPa) = 147.79150 30.15587 88.97369
#
# Velocity S-wave (km/s) = 7.77242 3.51089 6.03062
# Velocity P-wave (km/s) = 9.57379 5.47676 7.79911
#
# Compressibility (1/GPa) = 0.03679122
#
# Stress axis : x y z
#
# Youngs Moduli (GPa) = 137.18470 53.03409 74.11063
#
# Poissons Ratio (x) = 0.08624 0.04540
# Poissons Ratio (y) = 0.22307 -0.06039
# Poissons Ratio (z) = 0.08403 -0.04322
#
# Static dielectric constant tensor:
#      x y z
#    x 1.996040 0.000000 0.000000 
#    y 0.000000 2.064060 0.000000 
#    z 0.000000 0.000000 1.863390 
# 
# From -- ./inp_files/3815.got.cif
#   From: 2010.05.17/outbox.cif.g08.bks.cpg/sg58_2_cif.got.tgz:3815.got - 2010.06.03 14:20:14.
