data_PCOD9440155
_publ_section_title
;
Structure prediction by ZEFSAII (Michael W. Deem and Ramdas Pophale) SiO2 
 PCOD9440155
Probable space group: P B C M
;
_chemical_formula_sum "Si O2"
_cell_formula_units_Z 48
_cell_length_a 15.972793
_cell_length_b 18.321730
_cell_length_c 8.705165
_cell_angle_alpha 90.000000
_cell_angle_beta 90.000000
_cell_angle_gamma 90.000000
_cell_volume 2547.559579
_symmetry_space_group_name_H-M "P B C M"
_symmetry_group_IT_number 57
_symmetry_cell_setting 'orthorhombic'
loop_
_space_group_symop_operation_xyz
x,y,z
-x,-y,1/2+z
x,1/2-y,-z
-x,1/2+y,1/2-z
-x,-y,-z
x,y,1/2-z
-x,1/2+y,z
x,1/2-y,1/2+z
loop_
_atom_site_type_symbol
_atom_site_label
_atom_site_fract_x
_atom_site_fract_y
_atom_site_fract_z
Si Si1 0.504712 0.418664 0.933913
Si Si2 0.178668 0.592075 0.435101
Si Si3 0.660627 0.330828 0.067064
Si Si4 0.653985 0.668404 0.935294
Si Si5 0.179307 0.080129 0.565871
Si Si6 0.993951 0.918197 0.933412
O O1 0.503485 0.420198 0.750000
O O2 0.500000 0.500000 0.000000
O O3 0.589566 0.381325 0.992625
O O4 0.426324 0.372690 0.996848
O O5 0.189572 0.597972 0.250000
O O6 0.249258 0.637536 0.519715
O O7 0.187090 0.505821 0.475823
O O8 0.083722 0.616612 0.474004
O O9 0.651117 0.329887 0.250000
O O10 0.651185 0.250000 0.000000
O O11 0.648206 0.669592 0.750000
O O12 0.738143 0.624337 0.979005
O O13 0.657467 0.750000 0.000000
O O14 0.171658 0.082350 0.750000
O O15 0.093440 0.111843 0.496317
O O16 0.990069 0.922072 0.750000
O O17 0.000000 0.000000 0.000000
#
# Coordination Sequence:
#
# PCOD9440155 Si02
#       6
#     8   8   8   8   8   8
#     4  12  25  43  66  91 117 148 189 237 285 341
#     4   9  18  35  57  84 115 150 193 243 290 339
#     4  12  25  41  61  86 117 155 193 236 288 344
#     4  11  23  40  60  86 120 157 194 237 287 342
#     4   9  19  35  57  83 115 152 192 238 287 337
#     4   9  17  30  53  82 114 148 188 237 287 337
#
# _framework density 18.841560999999999
#
# number of rings (size 3 to 8) (size 9 to 14) (size 15 to 20)
#    0.000    1.667    0.000    6.500    0.000    6.000 
#    0.000    0.833    0.000    2.000    0.000    0.000 
#    0.000    0.000    0.000    0.000    0.000    0.000 
#
# Total GULP energy -268167.490862 kJ/mol
# GULP energy per Si atom -5586.822726 kJ/mol
# Density = 1.879868 g / cm^3
# Si number density = 18.841561 Si / 1000 Ang^3
#
#
#
# Elastic Constant Matrix: (Units=GPa)
#
#
# Indices 1 2 3 4 5 6 
#
# 1 75.2607 -2.0678 27.7395 0.0000 0.0000 0.0000
# 2 -2.0678 56.1895 18.9962 0.0000 0.0000 0.0000
# 3 27.7395 18.9962 80.9975 0.0000 0.0000 0.0000
# 4 0.0000 0.0000 0.0000 29.5328 0.0000 0.0000
# 5 0.0000 0.0000 0.0000 0.0000 39.6506 0.0000
# 6 0.0000 0.0000 0.0000 0.0000 0.0000 -110.1662
#
#
#
# Elastic Compliance Matrix: (Units=1/GPa)
#
#
# Indices 1 2 3 4 5 6 
#
# 1 0.015542 0.002576 -0.005927 0.000000 0.000000 0.000000
# 2 0.002576 0.019756 -0.005516 0.000000 0.000000 0.000000
# 3 -0.005927 -0.005516 0.015669 0.000000 0.000000 0.000000
# 4 0.000000 0.000000 0.000000 0.033861 0.000000 0.000000
# 5 0.000000 0.000000 0.000000 0.000000 0.025220 0.000000
# 6 0.000000 0.000000 0.000000 0.000000 0.000000 -0.009077
#
#
# Mechanical properties :
#
#
# Convention : Reuss Voigt Hill
#
# Bulk Modulus (GPa) = 30.08901 33.53149 31.81025
# Shear Modulus (GPa) = 38.52562 2.98877 20.75720
#
# Velocity S-wave (km/s) = 4.52676 1.26084 3.32274
# Velocity P-wave (km/s) = 6.58226 4.46708 5.62499
#
# Compressibility (1/GPa) = 0.03323472
#
# Stress axis : x y z
#
# Youngs Moduli (GPa) = 64.33980 50.61663 63.81854
#
# Poissons Ratio (x) = -0.13037 0.37825
# Poissons Ratio (y) = -0.16572 0.35199
# Poissons Ratio (z) = 0.38134 0.27918
#
# Static dielectric constant tensor:
#      x y z
#    x 1.662110 0.000000 0.000000 
#    y 0.000000 1.608000 0.000000 
#    z 0.000000 0.000000 1.630420 
# 
# From -- ./inp_files/4686.got.cif
#   From: 2010.05.17/outbox.cif.g08.bks.cpg/sg57_3_cif.got.tgz:4686.got - 2010.06.03 13:58:18.
