data_PCOD9440340
_publ_section_title
;
Structure prediction by ZEFSAII (Michael W. Deem and Ramdas Pophale) SiO2 
 PCOD9440340
Probable space group: P B C M
;
_chemical_formula_sum "Si O2"
_cell_formula_units_Z 40
_cell_length_a 12.613140
_cell_length_b 8.735517
_cell_length_c 14.437781
_cell_angle_alpha 90.000000
_cell_angle_beta 90.000000
_cell_angle_gamma 90.000000
_cell_volume 1590.787901
_symmetry_space_group_name_H-M "P B C M"
_symmetry_group_IT_number 57
_symmetry_cell_setting 'orthorhombic'
loop_
_space_group_symop_operation_xyz
x,y,z
-x,-y,1/2+z
x,1/2-y,-z
-x,1/2+y,1/2-z
-x,-y,-z
x,y,1/2-z
-x,1/2+y,z
x,1/2-y,1/2+z
loop_
_atom_site_type_symbol
_atom_site_label
_atom_site_fract_x
_atom_site_fract_y
_atom_site_fract_z
Si Si1 0.573077 0.827017 0.097250
Si Si2 0.895766 0.919197 0.958164
Si Si3 0.157882 0.673108 0.250000
Si Si4 0.384415 0.108211 0.250000
Si Si5 0.413025 0.706799 0.750000
Si Si6 0.283699 0.608544 0.061649
Si Si7 0.944700 0.505761 0.250000
O O1 0.643181 0.712473 0.161099
O O2 0.465439 0.845585 0.153321
O O3 0.625636 0.989779 0.084137
O O4 0.559319 0.750000 0.000000
O O5 0.903727 0.923307 0.846812
O O6 0.889155 0.750000 0.000000
O O7 0.801524 0.018643 0.000241
O O8 0.000000 0.000000 0.000000
O O9 0.234539 0.662216 0.160576
O O10 0.072155 0.535974 0.250000
O O11 0.088471 0.827362 0.250000
O O12 0.517935 0.127831 0.250000
O O13 0.330817 0.941132 0.250000
O O14 0.316313 0.750000 0.000000
#
# Coordination Sequence:
#
# PCOD9440340 Si02
#       7
#     8   8   4   4   4   8   4
#     4   9  21  42  63  98 133 174 213 254 330 398
#     4  12  24  41  64  94 128 170 233 293 342 404
#     4  12  24  40  64  88 124 169 229 286 354 390
#     4   8  19  41  69 100 131 159 208 259 317 385
#     4   8  19  41  67  99 133 156 211 264 313 387
#     4  12  24  43  62  89 135 177 223 282 331 402
#     4  12  24  40  62  97 120 166 226 297 348 394
#
# _framework density 25.144770999999999
#
# number of rings (size 3 to 8) (size 9 to 14) (size 15 to 20)
#    1.200    0.000    4.000    3.600    0.000    0.800 
#    3.600    8.000    0.000    0.000    0.000    0.000 
#    0.000    0.000    0.000    0.000    0.000    0.000 
#
# Total GULP energy -223517.546795 kJ/mol
# GULP energy per Si atom -5587.938670 kJ/mol
# Density = 2.508754 g / cm^3
# Si number density = 25.144771 Si / 1000 Ang^3
#
#
#
# Elastic Constant Matrix: (Units=GPa)
#
#
# Indices 1 2 3 4 5 6 
#
# 1 30.3020 25.4115 32.3498 0.0000 0.0000 0.0000
# 2 25.4115 153.0247 67.0685 0.0000 0.0000 0.0000
# 3 32.3498 67.0685 251.2098 0.0000 0.0000 0.0000
# 4 0.0000 0.0000 0.0000 50.5278 0.0000 0.0000
# 5 0.0000 0.0000 0.0000 0.0000 254.1463 0.0000
# 6 0.0000 0.0000 0.0000 0.0000 0.0000 16.8603
#
#
#
# Elastic Compliance Matrix: (Units=1/GPa)
#
#
# Indices 1 2 3 4 5 6 
#
# 1 0.041574 -0.005161 -0.003976 0.000000 0.000000 0.000000
# 2 -0.005161 0.008042 -0.001482 0.000000 0.000000 0.000000
# 3 -0.003976 -0.001482 0.004888 0.000000 0.000000 0.000000
# 4 0.000000 0.000000 0.000000 0.019791 0.000000 0.000000
# 5 0.000000 0.000000 0.000000 0.000000 0.003935 0.000000
# 6 0.000000 0.000000 0.000000 0.000000 0.000000 0.059311
#
#
# Mechanical properties :
#
#
# Convention : Reuss Voigt Hill
#
# Bulk Modulus (GPa) = 30.06136 76.02178 53.04157
# Shear Modulus (GPa) = 29.43462 84.95399 57.19431
#
# Velocity S-wave (km/s) = 3.42512 5.81887 4.77445
# Velocity P-wave (km/s) = 5.25578 8.68591 7.17873
#
# Compressibility (1/GPa) = 0.03326530
#
# Stress axis : x y z
#
# Youngs Moduli (GPa) = 24.05353 124.35227 204.56291
#
# Poissons Ratio (x) = 0.64182 0.81329
# Poissons Ratio (y) = 0.12415 0.30323
# Poissons Ratio (z) = 0.09563 0.18433
#
# Static dielectric constant tensor:
#      x y z
#    x 2.136600 0.000000 0.000000 
#    y 0.000000 2.056230 0.000000 
#    z 0.000000 0.000000 1.963990 
# 
# From -- ./inp_files/18873.got.cif
#   From: 2010.05.17/outbox.cif.g08.bks.cpg/sg57_10_cif.got.tgz:18873.got - 2010.06.03 13:58:18.
