data_PCOD9440953
_publ_section_title
;
Structure prediction by ZEFSAII (Michael W. Deem and Ramdas Pophale) SiO2 
 PCOD9440953
Probable space group: P N N M
;
_chemical_formula_sum "Si O2"
_cell_formula_units_Z 56
_cell_length_a 18.989561
_cell_length_b 21.331807
_cell_length_c 8.688269
_cell_angle_alpha 90.000000
_cell_angle_beta 90.000000
_cell_angle_gamma 90.000000
_cell_volume 3519.458344
_symmetry_space_group_name_H-M "P N N M"
_symmetry_group_IT_number 58
_symmetry_cell_setting 'orthorhombic'
loop_
_space_group_symop_operation_xyz
x,y,z
-x,-y,z
1/2+x,1/2-y,1/2-z
1/2-x,1/2+y,1/2-z
-x,-y,-z
x,y,-z
1/2-x,1/2+y,1/2+z
1/2+x,1/2-y,1/2+z
loop_
_atom_site_type_symbol
_atom_site_label
_atom_site_fract_x
_atom_site_fract_y
_atom_site_fract_z
Si Si1 0.427081 0.753081 0.312893
Si Si2 0.082720 0.000727 0.184517
Si Si3 0.704105 0.177279 0.676910
Si Si4 0.145502 0.128541 0.316850
Si Si5 0.910987 0.250509 0.184486
Si Si6 0.345083 0.376786 0.186058
Si Si7 0.780056 0.313856 0.676972
O O1 0.421195 0.749928 0.500000
O O2 0.372515 0.806680 0.256244
O O3 0.400363 0.686729 0.247697
O O4 0.508194 0.764121 0.273527
O O5 0.117233 0.064417 0.245497
O O6 0.120554 0.940511 0.256680
O O7 0.088357 0.998013 0.000000
O O8 0.000000 0.000000 0.225337
O O9 0.692941 0.157488 0.500000
O O10 0.764000 0.131875 0.743199
O O11 0.742519 0.245269 0.676463
O O12 0.140076 0.126973 0.500000
O O13 0.226030 0.141926 0.266696
O O14 0.888540 0.182963 0.252200
O O15 0.855608 0.301215 0.247920
O O16 0.905441 0.247587 0.000000
O O17 0.344672 0.374036 0.000000
O O18 0.786570 0.333813 0.500000
#
# Coordination Sequence:
#
# PCOD9440953 Si02
#       7
#     8   8   8   8   8   8   8
#     4   9  17  30  47  68  97 128 153 184 232 282
#     4  11  23  36  48  64  91 127 161 192 231 279
#     4   7  13  27  45  63  85 117 151 182 223 272
#     4  11  21  32  48  69  93 122 160 199 232 277
#     4  10  18  28  46  72  98 124 156 191 228 275
#     4  10  19  31  47  66  91 124 160 196 232 272
#     4   9  17  31  48  65  91 124 155 190 235 280
#
# _framework density 15.91154
#
# number of rings (size 3 to 8) (size 9 to 14) (size 15 to 20)
#    0.000    2.429    0.000    5.571    0.000    5.714 
#    0.000    0.714    0.000    0.000    0.000    1.000 
#    0.000    8.000    0.000    0.000    0.000    0.000 
#
# Total GULP energy -312063.947055 kJ/mol
# GULP energy per Si atom -5572.570483 kJ/mol
# Density = 1.587532 g / cm^3
# Si number density = 15.911540 Si / 1000 Ang^3
#
#
#
# Elastic Constant Matrix: (Units=GPa)
#
#
# Indices 1 2 3 4 5 6 
#
# 1 163.0090 56.5706 40.4666 0.0000 0.0000 0.0000
# 2 56.5706 61.0872 19.1528 0.0000 0.0000 0.0000
# 3 40.4666 19.1528 48.6141 0.0000 0.0000 0.0000
# 4 0.0000 0.0000 0.0000 13.6614 0.0000 0.0000
# 5 0.0000 0.0000 0.0000 0.0000 21.6976 0.0000
# 6 0.0000 0.0000 0.0000 0.0000 0.0000 25.1300
#
#
#
# Elastic Compliance Matrix: (Units=1/GPa)
#
#
# Indices 1 2 3 4 5 6 
#
# 1 0.010153 -0.007704 -0.005416 0.000000 0.000000 0.000000
# 2 -0.007704 0.024523 -0.003249 0.000000 0.000000 0.000000
# 3 -0.005416 -0.003249 0.026358 0.000000 0.000000 0.000000
# 4 0.000000 0.000000 0.000000 0.073199 0.000000 0.000000
# 5 0.000000 0.000000 0.000000 0.000000 0.046088 0.000000
# 6 0.000000 0.000000 0.000000 0.000000 0.000000 0.039793
#
#
# Mechanical properties :
#
#
# Convention : Reuss Voigt Hill
#
# Bulk Modulus (GPa) = 35.33967 56.12114 45.73041
# Shear Modulus (GPa) = 19.06336 22.53251 20.79793
#
# Velocity S-wave (km/s) = 3.46509 3.76721 3.61930
# Velocity P-wave (km/s) = 6.18607 7.36680 6.80210
#
# Compressibility (1/GPa) = 0.02829681
#
# Stress axis : x y z
#
# Youngs Moduli (GPa) = 98.49578 40.77814 37.93865
#
# Poissons Ratio (x) = 0.31415 0.20548
# Poissons Ratio (y) = 0.75881 0.12325
# Poissons Ratio (z) = 0.53345 0.13247
#
# Static dielectric constant tensor:
#      x y z
#    x 1.566240 0.000000 0.000000 
#    y 0.000000 1.499040 0.000000 
#    z 0.000000 0.000000 1.540110 
# 
# From -- ./inp_files/8189.got.cif
#   From: 2010.05.17/outbox.cif.g08.bks.cpg/sg58_5_cif.got.tgz:8189.got - 2010.06.03 14:20:14.
