data_PCOD9440727
_publ_section_title
;
Structure prediction by ZEFSAII (Michael W. Deem and Ramdas Pophale) SiO2 
 PCOD9440727
Probable space group: P N N M
;
_chemical_formula_sum "Si O2"
_cell_formula_units_Z 64
_cell_length_a 19.094888
_cell_length_b 9.205386
_cell_length_c 15.111827
_cell_angle_alpha 90.000000
_cell_angle_beta 90.000000
_cell_angle_gamma 90.000000
_cell_volume 2656.293702
_symmetry_space_group_name_H-M "P N N M"
_symmetry_group_IT_number 58
_symmetry_cell_setting 'orthorhombic'
loop_
_space_group_symop_operation_xyz
x,y,z
-x,-y,z
1/2+x,1/2-y,1/2-z
1/2-x,1/2+y,1/2-z
-x,-y,-z
x,y,-z
1/2-x,1/2+y,1/2+z
1/2+x,1/2-y,1/2+z
loop_
_atom_site_type_symbol
_atom_site_label
_atom_site_fract_x
_atom_site_fract_y
_atom_site_fract_z
Si Si1 0.712049 0.942837 0.107475
Si Si2 0.565381 0.864311 0.899996
Si Si3 0.230736 0.376323 0.102017
Si Si4 0.914610 0.741845 0.396685
Si Si5 0.390549 0.772882 0.303215
Si Si6 0.648122 0.549538 0.337882
Si Si7 0.879314 0.048016 0.633244
Si Si8 0.016608 0.828144 0.899065
O O1 0.631386 0.953245 0.138685
O O2 0.735859 0.778930 0.131297
O O3 0.768767 0.054184 0.146418
O O4 0.715335 0.951981 0.000000
O O5 0.484951 0.848017 0.873353
O O6 0.593250 0.699176 0.902871
O O7 0.562695 0.914277 0.000000
O O8 0.160273 0.395641 0.157633
O O9 0.297724 0.481252 0.108727
O O10 0.210671 0.365457 0.000000
O O11 0.891550 0.710504 0.500000
O O12 0.875146 0.740396 0.301094
O O13 0.926378 0.915568 0.398139
O O14 0.369108 0.621691 0.354351
O O15 0.472750 0.771733 0.331061
O O16 0.622759 0.568533 0.238147
O O17 0.600937 0.664093 0.390758
O O18 0.996499 0.793524 0.000000
O O19 0.000000 0.000000 0.881729
#
# Coordination Sequence:
#
# PCOD9440727 Si02
#       8
#     8   8   8   8   8   8   8   8
#     4   8  14  25  39  56  82 119 156 185 221 269
#     4   9  16  25  39  60  88 121 153 185 222 270
#     4   9  16  27  42  59  84 119 155 191 230 274
#     4  10  18  27  41  63  91 121 150 185 234 285
#     4   9  17  27  39  59  87 119 154 189 225 274
#     4   9  16  24  37  59  88 117 148 186 229 274
#     4  10  17  25  39  62  91 120 151 187 231 279
#     4   9  15  23  37  57  83 116 151 190 234 273
#
# _framework density 24.093722
#
# number of rings (size 3 to 8) (size 9 to 14) (size 15 to 20)
#    0.000    2.875    0.000    3.750    0.000    6.000 
#    0.000    0.000    0.000    1.500    0.000    0.875 
#    0.000    9.000    0.000    0.125    0.000    0.375 
#
# Total GULP energy -356314.704219 kJ/mol
# GULP energy per Si atom -5567.417253 kJ/mol
# Density = 2.403888 g / cm^3
# Si number density = 24.093722 Si / 1000 Ang^3
#
#
#
# Elastic Constant Matrix: (Units=GPa)
#
#
# Indices 1 2 3 4 5 6 
#
# 1 131.5322 17.2150 11.2043 0.0000 0.0000 0.0000
# 2 17.2150 53.8590 5.4490 0.0000 0.0000 0.0000
# 3 11.2043 5.4490 93.3213 0.0000 0.0000 0.0000
# 4 0.0000 0.0000 0.0000 -0.8039 0.0000 0.0000
# 5 0.0000 0.0000 0.0000 0.0000 8.2902 0.0000
# 6 0.0000 0.0000 0.0000 0.0000 0.0000 27.8655
#
#
#
# Elastic Compliance Matrix: (Units=1/GPa)
#
#
# Indices 1 2 3 4 5 6 
#
# 1 0.007996 -0.002473 -0.000816 0.000000 0.000000 0.000000
# 2 -0.002473 0.019442 -0.000838 0.000000 0.000000 0.000000
# 3 -0.000816 -0.000838 0.010863 0.000000 0.000000 0.000000
# 4 0.000000 0.000000 0.000000 -1.243993 0.000000 0.000000
# 5 0.000000 0.000000 0.000000 0.000000 0.120625 0.000000
# 6 0.000000 0.000000 0.000000 0.000000 0.000000 0.035887
#
#
# Mechanical properties :
#
#
# Convention : Reuss Voigt Hill
#
# Bulk Modulus (GPa) = 33.28168 38.49434 35.88801
# Shear Modulus (GPa) = -4.85008 23.39332 9.27162
#
# Velocity S-wave (km/s) = -1.42034 3.11936 1.96380
# Velocity P-wave (km/s) = 3.33970 5.38381 4.47990
#
# Compressibility (1/GPa) = 0.03004656
#
# Stress axis : x y z
#
# Youngs Moduli (GPa) = 125.06460 51.43417 92.05958
#
# Poissons Ratio (x) = 0.12721 0.07508
# Poissons Ratio (y) = 0.30931 0.07717
# Poissons Ratio (z) = 0.10200 0.04312
#
# Static dielectric constant tensor:
#      x y z
#    x 2.114930 0.000000 0.000000 
#    y 0.000000 1.956910 0.000000 
#    z 0.000000 0.000000 1.900310 
# 
# From -- ./inp_files/23030.got.cif
#   From: 2010.05.17/outbox.cif.g08.bks.cpg/sg58_12_cif.got.tgz:23030.got - 2010.06.03 14:20:14.
