data_PCOD9440808
_publ_section_title
;
Structure prediction by ZEFSAII (Michael W. Deem and Ramdas Pophale) SiO2 
 PCOD9440808
Probable space group: P N N M
;
_chemical_formula_sum "Si O2"
_cell_formula_units_Z 32
_cell_length_a 7.535696
_cell_length_b 11.730285
_cell_length_c 14.112750
_cell_angle_alpha 90.000000
_cell_angle_beta 90.000000
_cell_angle_gamma 90.000000
_cell_volume 1247.508698
_symmetry_space_group_name_H-M "P N N M"
_symmetry_group_IT_number 58
_symmetry_cell_setting 'orthorhombic'
loop_
_space_group_symop_operation_xyz
x,y,z
-x,-y,z
1/2+x,1/2-y,1/2-z
1/2-x,1/2+y,1/2-z
-x,-y,-z
x,y,-z
1/2-x,1/2+y,1/2+z
1/2+x,1/2-y,1/2+z
loop_
_atom_site_type_symbol
_atom_site_label
_atom_site_fract_x
_atom_site_fract_y
_atom_site_fract_z
Si Si1 0.261067 0.457381 0.108507
Si Si2 0.911742 0.283837 0.605256
Si Si3 0.996024 0.871964 0.109053
Si Si4 0.580574 0.849197 0.695839
O O1 0.399251 0.353501 0.118610
O O2 0.242696 0.565238 0.177778
O O3 0.073668 0.393615 0.126805
O O4 0.272599 0.497681 0.000000
O O5 0.983775 0.307441 0.500000
O O6 0.707995 0.329480 0.607937
O O7 0.989647 0.345543 0.696983
O O8 0.111476 0.780650 0.166172
O O9 0.058154 0.873559 0.000000
O O10 0.000000 0.000000 0.145935
#
# Coordination Sequence:
#
# PCOD9440808 Si02
#       4
#     8   8   8   8
#     4   9  18  34  52  75  98 126 169 212 242 281
#     4   9  19  32  48  72 103 132 159 201 250 288
#     4   9  18  32  50  75 102 124 159 208 247 284
#     4  10  17  29  55  72  95 131 168 196 244 296
#
# _framework density 25.651125
#
# number of rings (size 3 to 8) (size 9 to 14) (size 15 to 20)
#    0.000    2.750    0.000    4.500    3.500    0.000 
#    0.000    2.500    0.000   18.750    0.000    0.000 
#    0.000    0.000    0.000    0.000    0.000    0.000 
#
# Total GULP energy -178800.492377 kJ/mol
# GULP energy per Si atom -5587.515387 kJ/mol
# Density = 2.559274 g / cm^3
# Si number density = 25.651125 Si / 1000 Ang^3
#
#
#
# Elastic Constant Matrix: (Units=GPa)
#
#
# Indices 1 2 3 4 5 6 
#
# 1 71.8458 10.6967 5.3593 0.0000 0.0000 0.0000
# 2 10.6967 167.6179 49.5584 0.0000 0.0000 0.0000
# 3 5.3593 49.5584 141.8822 0.0000 0.0000 0.0000
# 4 0.0000 0.0000 0.0000 -140.9710 0.0000 0.0000
# 5 0.0000 0.0000 0.0000 0.0000 -1.9276 0.0000
# 6 0.0000 0.0000 0.0000 0.0000 0.0000 -6.0499
#
#
#
# Elastic Compliance Matrix: (Units=1/GPa)
#
#
# Indices 1 2 3 4 5 6 
#
# 1 0.014060 -0.000825 -0.000243 0.000000 0.000000 0.000000
# 2 -0.000825 0.006701 -0.002310 0.000000 0.000000 0.000000
# 3 -0.000243 -0.002310 0.007864 0.000000 0.000000 0.000000
# 4 0.000000 0.000000 0.000000 -0.007094 0.000000 0.000000
# 5 0.000000 0.000000 0.000000 0.000000 -0.518793 0.000000
# 6 0.000000 0.000000 0.000000 0.000000 0.000000 -0.165293
#
#
# Mechanical properties :
#
#
# Convention : Reuss Voigt Hill
#
# Bulk Modulus (GPa) = 45.72562 56.95272 51.33917
# Shear Modulus (GPa) = -7.70999 -8.74092 -8.22546
#
# Velocity S-wave (km/s) = -1.73558 -1.84798 -1.79266
# Velocity P-wave (km/s) = 3.72134 4.20686 3.97152
#
# Compressibility (1/GPa) = 0.02186958
#
# Stress axis : x y z
#
# Youngs Moduli (GPa) = 71.12525 149.22052 127.16185
#
# Poissons Ratio (x) = 0.12318 0.03087
# Poissons Ratio (y) = 0.05871 0.29369
# Poissons Ratio (z) = 0.01727 0.34464
#
# Static dielectric constant tensor:
#      x y z
#    x 2.005920 0.000000 0.000000 
#    y 0.000000 2.045860 0.000000 
#    z 0.000000 0.000000 1.997220 
# 
# From -- ./inp_files/5061.got.cif
#   From: 2010.05.17/outbox.cif.g08.bks.cpg/sg58_3_cif.got.tgz:5061.got - 2010.06.03 14:20:14.
