data_PCOD9440699
_publ_section_title
;
Structure prediction by ZEFSAII (Michael W. Deem and Ramdas Pophale) SiO2 
 PCOD9440699
Probable space group: P N N M
;
_chemical_formula_sum "Si O2"
_cell_formula_units_Z 44
_cell_length_a 13.441577
_cell_length_b 7.222672
_cell_length_c 19.450278
_cell_angle_alpha 90.000000
_cell_angle_beta 90.000000
_cell_angle_gamma 90.000000
_cell_volume 1888.312770
_symmetry_space_group_name_H-M "P N N M"
_symmetry_group_IT_number 58
_symmetry_cell_setting 'orthorhombic'
loop_
_space_group_symop_operation_xyz
x,y,z
-x,-y,z
1/2+x,1/2-y,1/2-z
1/2-x,1/2+y,1/2-z
-x,-y,-z
x,y,-z
1/2-x,1/2+y,1/2+z
1/2+x,1/2-y,1/2+z
loop_
_atom_site_type_symbol
_atom_site_label
_atom_site_fract_x
_atom_site_fract_y
_atom_site_fract_z
Si Si1 0.183182 0.123380 0.331321
Si Si2 0.520186 0.282045 0.073535
Si Si3 0.500000 0.000000 0.692821
Si Si4 0.333056 0.200361 0.783634
Si Si5 0.303262 0.102417 0.073964
Si Si6 0.841645 0.547396 0.077460
O O1 0.091362 0.236455 0.361957
O O2 0.238602 0.205594 0.266384
O O3 0.151463 0.910618 0.311843
O O4 0.266602 0.106142 0.391426
O O5 0.500000 0.500000 0.072340
O O6 0.418431 0.170067 0.073335
O O7 0.568864 0.241892 0.000000
O O8 0.570734 0.873334 0.741414
O O9 0.422695 0.912516 0.637004
O O10 0.298569 0.061239 0.844860
O O11 0.228071 0.274729 0.071008
O O12 0.282498 0.007018 0.000000
O O13 0.878032 0.501447 0.000000
#
# Coordination Sequence:
#
# PCOD9440699 Si02
#       6
#     8   8   4   8   8   8
#     4  10  20  34  53  80 107 138 169 215 263 313
#     4  10  16  28  53  83 102 127 180 230 257 296
#     4  10  21  32  49  74 108 132 168 216 263 302
#     4  10  21  36  52  76 106 137 170 212 260 316
#     4   9  18  32  52  75 103 137 177 215 256 308
#     4   9  16  30  50  73  96 131 173 211 246 290
#
# _framework density 23.301226
#
# number of rings (size 3 to 8) (size 9 to 14) (size 15 to 20)
#    0.000    2.364    3.636    0.818    0.000    4.364 
#    0.000    0.455    0.000    6.545    0.000    6.364 
#    0.000    0.000    0.000    0.000    0.000    0.000 
#
# Total GULP energy -245099.876546 kJ/mol
# GULP energy per Si atom -5570.451740 kJ/mol
# Density = 2.324819 g / cm^3
# Si number density = 23.301226 Si / 1000 Ang^3
#
#
#
# Elastic Constant Matrix: (Units=GPa)
#
#
# Indices 1 2 3 4 5 6 
#
# 1 101.5375 3.6944 65.7126 0.0000 0.0000 0.0000
# 2 3.6944 32.7639 22.6183 0.0000 0.0000 0.0000
# 3 65.7126 22.6183 212.1964 0.0000 0.0000 0.0000
# 4 0.0000 0.0000 0.0000 -3.2504 0.0000 0.0000
# 5 0.0000 0.0000 0.0000 0.0000 59.4061 0.0000
# 6 0.0000 0.0000 0.0000 0.0000 0.0000 27.9524
#
#
#
# Elastic Compliance Matrix: (Units=1/GPa)
#
#
# Indices 1 2 3 4 5 6 
#
# 1 0.012372 0.001349 -0.003975 0.000000 0.000000 0.000000
# 2 0.001349 0.033093 -0.003945 0.000000 0.000000 0.000000
# 3 -0.003975 -0.003945 0.006364 0.000000 0.000000 0.000000
# 4 0.000000 0.000000 0.000000 -0.307654 0.000000 0.000000
# 5 0.000000 0.000000 0.000000 0.000000 0.016833 0.000000
# 6 0.000000 0.000000 0.000000 0.000000 0.000000 0.035775
#
#
# Mechanical properties :
#
#
# Convention : Reuss Voigt Hill
#
# Bulk Modulus (GPa) = 25.84871 58.94984 42.39927
# Shear Modulus (GPa) = -28.22019 33.78643 2.78312
#
# Velocity S-wave (km/s) = -3.48387 3.81200 1.09408
# Velocity P-wave (km/s) = 2.25072 6.68798 4.45328
#
# Compressibility (1/GPa) = 0.03868665
#
# Stress axis : x y z
#
# Youngs Moduli (GPa) = 80.82680 30.21802 157.12968
#
# Poissons Ratio (x) = -0.04077 0.62462
# Poissons Ratio (y) = -0.10905 0.61991
# Poissons Ratio (z) = 0.32130 0.11922
#
# Static dielectric constant tensor:
#      x y z
#    x 1.880020 0.000000 0.000000 
#    y 0.000000 1.982380 0.000000 
#    z 0.000000 0.000000 3.260110 
# 
# From -- ./inp_files/26755.got.cif
#   From: 2010.05.17/outbox.cif.g08.bks.cpg/sg58_14_cif.got.tgz:26755.got - 2010.06.03 14:20:14.
