data_PCOD9440450
_publ_section_title
;
Structure prediction by ZEFSAII (Michael W. Deem and Ramdas Pophale) SiO2 
 PCOD9440450
Probable space group: P B C M
;
_chemical_formula_sum "Si O2"
_cell_formula_units_Z 48
_cell_length_a 9.000000
_cell_length_b 9.000000
_cell_length_c 30.000000
_cell_angle_alpha 90.000000
_cell_angle_beta 90.000000
_cell_angle_gamma 90.000000
_cell_volume 2430.000000
_symmetry_space_group_name_H-M "P B C M"
_symmetry_group_IT_number 57
_symmetry_cell_setting 'orthorhombic'
loop_
_space_group_symop_operation_xyz
x,y,z
-x,-y,1/2+z
x,1/2-y,-z
-x,1/2+y,1/2-z
-x,-y,-z
x,y,1/2-z
-x,1/2+y,z
x,1/2-y,1/2+z
loop_
_atom_site_type_symbol
_atom_site_label
_atom_site_fract_x
_atom_site_fract_y
_atom_site_fract_z
Si Si1 0.348256 0.833787 0.072430
Si Si2 0.803659 0.817041 0.378010
Si Si3 0.333535 0.808943 0.799543
Si Si4 0.623001 0.841073 0.956394
Si Si5 0.516585 0.920312 0.336820
Si Si6 0.107396 0.656675 0.376125
O O1 0.450934 0.701846 0.053215
O O2 0.432578 0.894935 0.116618
O O3 0.193696 0.761377 0.088157
O O4 0.345788 0.982471 0.042308
O O5 0.715124 0.737572 0.417468
O O6 0.679412 0.845342 0.340138
O O7 0.939912 0.707897 0.369712
O O8 0.866147 0.983405 0.388012
O O9 0.312112 0.865535 0.750000
O O10 0.409142 0.648952 0.800449
O O11 0.187527 0.813509 0.829043
O O12 0.449319 0.909949 0.826931
O O13 0.665054 0.750000 0.000000
#
# Coordination Sequence:
#
# PCOD9440450 Si02
#       6
#     8   8   8   8   8   8
#     4  10  19  35  56  79 108 142 177 212 260 320
#     4  10  20  37  55  76 105 144 182 212 261 324
#     4  10  19  33  53  81 107 133 174 224 263 303
#     4  11  21  35  56  84 109 135 175 225 265 305
#     4   9  18  33  55  76 103 140 174 209 259 318
#     4  10  21  37  57  76 105 146 181 214 262 324
#
# _framework density 19.753086
#
# number of rings (size 3 to 8) (size 9 to 14) (size 15 to 20)
#    0.000    2.000    0.000    7.000    0.000    1.333 
#    0.000    8.333    0.000    0.000    0.000    0.000 
#    0.000    0.000    0.000    0.000    0.000    0.000 
#
# Total GULP energy -267581.965007 kJ/mol
# GULP energy per Si atom -5574.624271 kJ/mol
# Density = 1.970813 g / cm^3
# Si number density = 19.753086 Si / 1000 Ang^3
#
#
#
# Elastic Constant Matrix: (Units=GPa)
#
#
# Indices 1 2 3 4 5 6 
#
# 1 63.7669 16.1016 6.0866 0.0000 0.0000 0.0000
# 2 16.1016 47.1968 3.7997 0.0000 0.0000 0.0000
# 3 6.0866 3.7997 38.8292 0.0000 0.0000 0.0000
# 4 0.0000 0.0000 0.0000 13.1278 0.0000 0.0000
# 5 0.0000 0.0000 0.0000 0.0000 49.7818 0.0000
# 6 0.0000 0.0000 0.0000 0.0000 0.0000 -1.9867
#
#
#
# Elastic Compliance Matrix: (Units=1/GPa)
#
#
# Indices 1 2 3 4 5 6 
#
# 1 0.017338 -0.005741 -0.002156 0.000000 0.000000 0.000000
# 2 -0.005741 0.023257 -0.001376 0.000000 0.000000 0.000000
# 3 -0.002156 -0.001376 0.026226 0.000000 0.000000 0.000000
# 4 0.000000 0.000000 0.000000 0.076174 0.000000 0.000000
# 5 0.000000 0.000000 0.000000 0.000000 0.020088 0.000000
# 6 0.000000 0.000000 0.000000 0.000000 0.000000 -0.503351
#
#
# Mechanical properties :
#
#
# Convention : Reuss Voigt Hill
#
# Bulk Modulus (GPa) = 20.71460 22.41873 21.56666
# Shear Modulus (GPa) = -16.35969 20.43825 2.03928
#
# Velocity S-wave (km/s) = -2.88098 3.22014 1.01717
# Velocity P-wave (km/s) = 0.74648 5.01995 3.51017
#
# Compressibility (1/GPa) = 0.04827514
#
# Stress axis : x y z
#
# Youngs Moduli (GPa) = 57.67804 42.99718 38.12951
#
# Poissons Ratio (x) = 0.24686 0.08220
# Poissons Ratio (y) = 0.33115 0.05246
# Poissons Ratio (z) = 0.12435 0.05916
#
# Static dielectric constant tensor:
#      x y z
#    x 1.680100 0.000000 0.000000 
#    y 0.000000 1.722020 0.000000 
#    z 0.000000 0.000000 1.750890 
# 
# From -- ./inp_files/29444.got.cif
#   From: 2010.05.17/outbox.ucp.g08.bks.cvg/sg57_15_cif.got.tgz:29444.got - 2010.06.11 16:39:23.
