data_PCOD9440566
_publ_section_title
;
Structure prediction by ZEFSAII (Michael W. Deem and Ramdas Pophale) SiO2 
 PCOD9440566
Probable space group: P B C M
;
_chemical_formula_sum "Si O2"
_cell_formula_units_Z 32
_cell_length_a 21.000000
_cell_length_b 9.000000
_cell_length_c 9.000000
_cell_angle_alpha 90.000000
_cell_angle_beta 90.000000
_cell_angle_gamma 90.000000
_cell_volume 1701.000000
_symmetry_space_group_name_H-M "P B C M"
_symmetry_group_IT_number 57
_symmetry_cell_setting 'orthorhombic'
loop_
_space_group_symop_operation_xyz
x,y,z
-x,-y,1/2+z
x,1/2-y,-z
-x,1/2+y,1/2-z
-x,-y,-z
x,y,1/2-z
-x,1/2+y,z
x,1/2-y,1/2+z
loop_
_atom_site_type_symbol
_atom_site_label
_atom_site_fract_x
_atom_site_fract_y
_atom_site_fract_z
Si Si1 0.325585 0.413989 0.929157
Si Si2 0.942153 0.089530 0.929003
Si Si3 0.817355 0.589918 0.426622
Si Si4 0.558710 0.088252 0.429128
O O1 0.336073 0.409571 0.750000
O O2 0.253543 0.468552 0.958680
O O3 0.329978 0.250000 0.000000
O O4 0.377055 0.512461 0.012242
O O5 0.947508 0.093536 0.750000
O O6 0.875170 0.014232 0.970883
O O7 0.944095 0.250000 0.000000
O O8 0.000000 0.000000 0.000000
O O9 0.824495 0.750000 0.500000
O O10 0.820770 0.610693 0.250000
O O11 0.555965 0.250000 0.500000
O O12 0.555496 0.090291 0.250000
O O13 0.500000 0.000000 0.500000
#
# Coordination Sequence:
#
# PCOD9440566 Si02
#       4
#     8   8   8   8
#     4  10  20  38  61  88 119 154 192 235 284 340
#     4  11  23  39  58  84 115 152 193 239 289 343
#     4   9  20  37  59  85 116 151 191 234 284 340
#     4  12  25  42  62  87 117 153 193 238 287 341
#
# _framework density 18.812463000000001
#
# number of rings (size 3 to 8) (size 9 to 14) (size 15 to 20)
#    0.000    1.500    0.000    5.250    0.000    6.000 
#    0.000    2.500    0.000    0.000    0.000    0.000 
#    0.000    0.000    0.000    0.000    0.000    0.000 
#
# Total GULP energy -178755.061658 kJ/mol
# GULP energy per Si atom -5586.095677 kJ/mol
# Density = 1.876965 g / cm^3
# Si number density = 18.812463 Si / 1000 Ang^3
#
#
#
# Elastic Constant Matrix: (Units=GPa)
#
#
# Indices 1 2 3 4 5 6 
#
# 1 196.2159 132.4272 96.8330 0.0000 0.0000 0.0000
# 2 132.4272 129.0944 66.1710 0.0000 0.0000 0.0000
# 3 96.8330 66.1710 128.5453 0.0000 0.0000 0.0000
# 4 0.0000 0.0000 0.0000 34.4535 0.0000 0.0000
# 5 0.0000 0.0000 0.0000 0.0000 32.9845 0.0000
# 6 0.0000 0.0000 0.0000 0.0000 0.0000 28.7803
#
#
#
# Elastic Compliance Matrix: (Units=1/GPa)
#
#
# Indices 1 2 3 4 5 6 
#
# 1 0.019413 -0.016870 -0.005940 0.000000 0.000000 0.000000
# 2 -0.016870 0.025182 -0.000255 0.000000 0.000000 0.000000
# 3 -0.005940 -0.000255 0.012385 0.000000 0.000000 0.000000
# 4 0.000000 0.000000 0.000000 0.029025 0.000000 0.000000
# 5 0.000000 0.000000 0.000000 0.000000 0.030317 0.000000
# 6 0.000000 0.000000 0.000000 0.000000 0.000000 0.034746
#
#
# Mechanical properties :
#
#
# Convention : Reuss Voigt Hill
#
# Bulk Modulus (GPa) = 92.15579 116.07980 104.11780
# Shear Modulus (GPa) = 24.89844 29.80531 27.35188
#
# Velocity S-wave (km/s) = 3.64195 3.98469 3.81717
# Velocity P-wave (km/s) = 8.17178 9.11087 8.65407
#
# Compressibility (1/GPa) = 0.01085119
#
# Stress axis : x y z
#
# Youngs Moduli (GPa) = 51.51074 39.71026 80.74118
#
# Poissons Ratio (x) = 0.66991 0.47961
# Poissons Ratio (y) = 0.86898 0.02059
# Poissons Ratio (z) = 0.30598 0.01013
#
# Static dielectric constant tensor:
#      x y z
#    x 1.678020 0.000000 0.000000 
#    y 0.000000 1.372550 0.000000 
#    z 0.000000 0.000000 1.616100 
# 
# From -- ./inp_files/7529.got.cif
#   From: 2010.05.17/outbox.ucp.g08.bks.cvg/sg57_4_cif.got.tgz:7529.got - 2010.06.11 16:39:23.
