data_PCOD9440205
_publ_section_title
;
Structure prediction by ZEFSAII (Michael W. Deem and Ramdas Pophale) SiO2 
 PCOD9440205
Probable space group: P B C M
;
_chemical_formula_sum "Si O2"
_cell_formula_units_Z 40
_cell_length_a 6.205207
_cell_length_b 16.161342
_cell_length_c 17.062182
_cell_angle_alpha 90.000000
_cell_angle_beta 90.000000
_cell_angle_gamma 90.000000
_cell_volume 1711.071922
_symmetry_space_group_name_H-M "P B C M"
_symmetry_group_IT_number 57
_symmetry_cell_setting 'orthorhombic'
loop_
_space_group_symop_operation_xyz
x,y,z
-x,-y,1/2+z
x,1/2-y,-z
-x,1/2+y,1/2-z
-x,-y,-z
x,y,1/2-z
-x,1/2+y,z
x,1/2-y,1/2+z
loop_
_atom_site_type_symbol
_atom_site_label
_atom_site_fract_x
_atom_site_fract_y
_atom_site_fract_z
Si Si1 0.555472 0.112739 0.583980
Si Si2 0.480447 0.922306 0.250000
Si Si3 0.211444 0.750000 0.500000
Si Si4 0.264001 0.595880 0.250000
Si Si5 0.926785 0.850927 0.620697
Si Si6 0.240263 0.032556 0.001911
Si Si7 0.352688 0.266005 0.750000
O O1 0.641689 0.082617 0.667212
O O2 0.634857 0.202260 0.561108
O O3 0.304812 0.088696 0.572941
O O4 0.636642 0.053771 0.514145
O O5 0.594297 0.831404 0.250000
O O6 0.616457 0.007158 0.250000
O O7 0.056046 0.807476 0.550933
O O8 0.104724 0.604852 0.324561
O O9 0.438547 0.671995 0.250000
O O10 0.754958 0.911437 0.579836
O O11 0.793053 0.788669 0.675085
O O12 0.000000 0.000000 0.000000
#
# Coordination Sequence:
#
# PCOD9440205 Si02
#       7
#     8   4   4   4   8   8   4
#     4  11  27  44  70 106 147 187 245 306 369 434
#     4  12  26  44  78 104 140 200 236 305 371 451
#     4  12  26  44  70 108 146 192 244 306 368 442
#     4  11  25  51  71 106 148 190 245 309 383 438
#     4  11  26  44  73 103 146 193 242 309 366 452
#     4  11  23  46  73 104 137 193 250 298 363 444
#     4  11  27  47  71 108 150 196 245 306 384 439
#
# _framework density 23.37716
#
# number of rings (size 3 to 8) (size 9 to 14) (size 15 to 20)
#    0.000    0.800    2.000    3.600   11.200    3.200 
#    0.000    5.000    0.000    0.000    0.000    0.000 
#    0.000    0.000    0.000    0.000    0.000    0.000 
#
# Total GULP energy -223352.649389 kJ/mol
# GULP energy per Si atom -5583.816235 kJ/mol
# Density = 2.332395 g / cm^3
# Si number density = 23.377160 Si / 1000 Ang^3
#
#
#
# Elastic Constant Matrix: (Units=GPa)
#
#
# Indices 1 2 3 4 5 6 
#
# 1 38.6857 22.4093 10.7226 0.0000 0.0000 0.0000
# 2 22.4093 120.5666 20.6329 0.0000 0.0000 0.0000
# 3 10.7226 20.6329 105.4351 0.0000 0.0000 0.0000
# 4 0.0000 0.0000 0.0000 33.7334 0.0000 0.0000
# 5 0.0000 0.0000 0.0000 0.0000 32.1217 0.0000
# 6 0.0000 0.0000 0.0000 0.0000 0.0000 39.2719
#
#
#
# Elastic Compliance Matrix: (Units=1/GPa)
#
#
# Indices 1 2 3 4 5 6 
#
# 1 0.029364 -0.005118 -0.001985 0.000000 0.000000 0.000000
# 2 -0.005118 0.009474 -0.001333 0.000000 0.000000 0.000000
# 3 -0.001985 -0.001333 0.009947 0.000000 0.000000 0.000000
# 4 0.000000 0.000000 0.000000 0.029644 0.000000 0.000000
# 5 0.000000 0.000000 0.000000 0.000000 0.031132 0.000000
# 6 0.000000 0.000000 0.000000 0.000000 0.000000 0.025464
#
#
# Mechanical properties :
#
#
# Convention : Reuss Voigt Hill
#
# Bulk Modulus (GPa) = 31.33561 41.35744 36.34652
# Shear Modulus (GPa) = 30.76268 35.08691 32.92480
#
# Velocity S-wave (km/s) = 3.63151 3.87836 3.75696
# Velocity P-wave (km/s) = 5.56932 6.14698 5.86526
#
# Compressibility (1/GPa) = 0.03191257
#
# Stress axis : x y z
#
# Youngs Moduli (GPa) = 34.05507 105.55580 100.52993
#
# Poissons Ratio (x) = 0.54025 0.19952
# Poissons Ratio (y) = 0.17430 0.13405
# Poissons Ratio (z) = 0.06759 0.14075
#
# Static dielectric constant tensor:
#      x y z
#    x 2.870070 0.000000 0.000000 
#    y 0.000000 1.933330 0.000000 
#    z 0.000000 0.000000 2.149200 
# 
# From -- ./inp_files/20051.got.cif
#   From: 2010.05.17/outbox.cif.g08.bks.cpg/sg57_11_cif.got.tgz:20051.got - 2010.06.03 13:58:18.
