data_PCOD9440186
_publ_section_title
;
Structure prediction by ZEFSAII (Michael W. Deem and Ramdas Pophale) SiO2 
 PCOD9440186
Probable space group: P B C M
;
_chemical_formula_sum "Si O2"
_cell_formula_units_Z 36
_cell_length_a 6.601427
_cell_length_b 13.149896
_cell_length_c 18.559376
_cell_angle_alpha 90.000000
_cell_angle_beta 90.000000
_cell_angle_gamma 90.000000
_cell_volume 1611.103769
_symmetry_space_group_name_H-M "P B C M"
_symmetry_group_IT_number 57
_symmetry_cell_setting 'orthorhombic'
loop_
_space_group_symop_operation_xyz
x,y,z
-x,-y,1/2+z
x,1/2-y,-z
-x,1/2+y,1/2-z
-x,-y,-z
x,y,1/2-z
-x,1/2+y,z
x,1/2-y,1/2+z
loop_
_atom_site_type_symbol
_atom_site_label
_atom_site_fract_x
_atom_site_fract_y
_atom_site_fract_z
Si Si1 0.574759 0.288858 0.250000
Si Si2 0.018711 0.615130 0.750000
Si Si3 0.239382 0.313460 0.373701
Si Si4 0.108380 0.897972 0.750000
Si Si5 0.044690 0.118077 0.408597
Si Si6 0.730531 0.004704 0.020547
O O1 0.737812 0.382013 0.250000
O O2 0.431291 0.295536 0.320770
O O3 0.707611 0.183216 0.250000
O O4 0.953323 0.673784 0.821241
O O5 0.862221 0.519789 0.750000
O O6 0.183850 0.215510 0.421160
O O7 0.248042 0.414472 0.421083
O O8 0.980104 0.888968 0.823182
O O9 0.151049 0.022860 0.447173
O O10 0.822103 0.107738 0.444739
O O11 0.500000 0.000000 0.000000
#
# Coordination Sequence:
#
# PCOD9440186 Si02
#       6
#     4   4   8   4   8   8
#     4  11  26  43  76 109 139 186 244 289 364 431
#     4  11  23  43  71 105 137 186 231 300 359 423
#     4  11  24  47  69 108 143 184 245 295 359 434
#     4  12  23  46  75 100 140 186 239 299 363 412
#     4  11  25  47  71 102 143 184 241 302 356 429
#     4  11  27  47  70 106 144 195 244 289 374 436
#
# _framework density 22.344929
#
# number of rings (size 3 to 8) (size 9 to 14) (size 15 to 20)
#    0.000    0.889    4.444    1.333    6.222    0.000 
#    8.000    0.000    0.000    0.000    0.000    0.000 
#    0.000    0.000    0.000    0.000    0.000    0.000 
#
# Total GULP energy -200726.604771 kJ/mol
# GULP energy per Si atom -5575.739021 kJ/mol
# Density = 2.229407 g / cm^3
# Si number density = 22.344929 Si / 1000 Ang^3
#
#
#
# Elastic Constant Matrix: (Units=GPa)
#
#
# Indices 1 2 3 4 5 6 
#
# 1 135.9134 20.8587 55.7304 0.0000 0.0000 0.0000
# 2 20.8587 79.1430 29.9949 0.0000 0.0000 0.0000
# 3 55.7304 29.9949 147.8454 0.0000 0.0000 0.0000
# 4 0.0000 0.0000 0.0000 13.4858 0.0000 0.0000
# 5 0.0000 0.0000 0.0000 0.0000 10.7766 0.0000
# 6 0.0000 0.0000 0.0000 0.0000 0.0000 34.4933
#
#
#
# Elastic Compliance Matrix: (Units=1/GPa)
#
#
# Indices 1 2 3 4 5 6 
#
# 1 0.008798 -0.001150 -0.003083 0.000000 0.000000 0.000000
# 2 -0.001150 0.013838 -0.002374 0.000000 0.000000 0.000000
# 3 -0.003083 -0.002374 0.008408 0.000000 0.000000 0.000000
# 4 0.000000 0.000000 0.000000 0.074152 0.000000 0.000000
# 5 0.000000 0.000000 0.000000 0.000000 0.092794 0.000000
# 6 0.000000 0.000000 0.000000 0.000000 0.000000 0.028991
#
#
# Mechanical properties :
#
#
# Convention : Reuss Voigt Hill
#
# Bulk Modulus (GPa) = 56.08699 64.00774 60.04737
# Shear Modulus (GPa) = 20.31371 28.83900 24.57636
#
# Velocity S-wave (km/s) = 3.01840 3.59643 3.32002
# Velocity P-wave (km/s) = 6.10759 6.77888 6.45197
#
# Compressibility (1/GPa) = 0.01782945
#
# Stress axis : x y z
#
# Youngs Moduli (GPa) = 113.65687 72.26353 118.93948
#
# Poissons Ratio (x) = 0.08313 0.36671
# Poissons Ratio (y) = 0.13075 0.28235
# Poissons Ratio (z) = 0.35042 0.17154
#
# Static dielectric constant tensor:
#      x y z
#    x 1.888700 0.000000 0.000000 
#    y 0.000000 1.945280 0.000000 
#    z 0.000000 0.000000 2.043610 
# 
# From -- ./inp_files/23515.got.cif
#   From: 2010.05.17/outbox.cif.g08.bks.cpg/sg57_12_cif.got.tgz:23515.got - 2010.06.03 13:58:18.
