data_PCOD9440445
_publ_section_title
;
Structure prediction by ZEFSAII (Michael W. Deem and Ramdas Pophale) SiO2 
 PCOD9440445
Probable space group: P B C M
;
_chemical_formula_sum "Si O2"
_cell_formula_units_Z 64
_cell_length_a 21.000000
_cell_length_b 18.000000
_cell_length_c 9.000000
_cell_angle_alpha 90.000000
_cell_angle_beta 90.000000
_cell_angle_gamma 90.000000
_cell_volume 3402.000000
_symmetry_space_group_name_H-M "P B C M"
_symmetry_group_IT_number 57
_symmetry_cell_setting 'orthorhombic'
loop_
_space_group_symop_operation_xyz
x,y,z
-x,-y,1/2+z
x,1/2-y,-z
-x,1/2+y,1/2-z
-x,-y,-z
x,y,1/2-z
-x,1/2+y,z
x,1/2-y,1/2+z
loop_
_atom_site_type_symbol
_atom_site_label
_atom_site_fract_x
_atom_site_fract_y
_atom_site_fract_z
Si Si1 0.170498 0.534141 0.585246
Si Si2 0.058625 0.458960 0.076526
Si Si3 0.142895 0.828896 0.577659
Si Si4 0.586785 0.053614 0.081641
Si Si5 0.526615 0.886434 0.418256
Si Si6 0.004230 0.171863 0.421970
Si Si7 0.309826 0.020386 0.417195
Si Si8 0.357942 0.323016 0.925050
O O1 0.141178 0.539549 0.750000
O O2 0.123976 0.493558 0.474306
O O3 0.183060 0.614788 0.519197
O O4 0.235967 0.491841 0.593646
O O5 0.050223 0.462208 0.250000
O O6 0.052731 0.377054 0.013036
O O7 0.000000 0.500000 0.000000
O O8 0.145266 0.750000 0.500000
O O9 0.160589 0.825681 0.750000
O O10 0.069042 0.855991 0.570525
O O11 0.585408 0.079733 0.250000
O O12 0.555751 0.970399 0.078363
O O13 0.544302 0.104853 0.977574
O O14 0.656471 0.040149 0.018465
O O15 0.530478 0.859408 0.250000
O O16 0.569687 0.836929 0.524398
O O17 0.002146 0.250000 0.500000
O O18 0.021521 0.175271 0.250000
O O19 0.338641 0.015907 0.250000
O O20 0.322750 0.102569 0.475729
O O21 0.353420 0.316460 0.750000
O O22 0.331866 0.250000 0.000000
#
# Coordination Sequence:
#
# PCOD9440445 Si02
#       8
#     8   8   8   8   8   8   8   8
#     4  11  22  37  57  80 109 144 185 230 275 328
#     4  12  23  36  55  80 109 142 179 226 281 333
#     4  10  20  34  55  81 108 135 168 212 266 327
#     4   9  16  27  47  74 102 131 165 211 259 306
#     4   9  16  27  46  73 102 132 167 208 258 309
#     4  10  20  35  55  80 109 139 172 215 270 332
#     4   9  20  36  53  75 105 145 186 227 273 326
#     4  10  19  33  52  76 107 142 186 231 273 320
#
# _framework density 18.812463000000001
#
# number of rings (size 3 to 8) (size 9 to 14) (size 15 to 20)
#    0.000    2.000    1.250    3.375    0.000    5.500 
#    0.000    0.625    0.000    2.250    0.000    1.750 
#    0.000    0.000    0.000    0.000    0.000    0.000 
#
# Total GULP energy -356492.660703 kJ/mol
# GULP energy per Si atom -5570.197823 kJ/mol
# Density = 1.876965 g / cm^3
# Si number density = 18.812463 Si / 1000 Ang^3
#
#
#
# Elastic Constant Matrix: (Units=GPa)
#
#
# Indices 1 2 3 4 5 6 
#
# 1 46.4083 30.6531 24.6637 0.0000 0.0000 0.0000
# 2 30.6531 59.5588 25.2330 0.0000 0.0000 0.0000
# 3 24.6637 25.2330 83.8043 0.0000 0.0000 0.0000
# 4 0.0000 0.0000 0.0000 17.0825 0.0000 0.0000
# 5 0.0000 0.0000 0.0000 0.0000 16.0295 0.0000
# 6 0.0000 0.0000 0.0000 0.0000 0.0000 2.3346
#
#
#
# Elastic Compliance Matrix: (Units=1/GPa)
#
#
# Indices 1 2 3 4 5 6 
#
# 1 0.034762 -0.015539 -0.005552 0.000000 0.000000 0.000000
# 2 -0.015539 0.026191 -0.003313 0.000000 0.000000 0.000000
# 3 -0.005552 -0.003313 0.014564 0.000000 0.000000 0.000000
# 4 0.000000 0.000000 0.000000 0.058539 0.000000 0.000000
# 5 0.000000 0.000000 0.000000 0.000000 0.062385 0.000000
# 6 0.000000 0.000000 0.000000 0.000000 0.000000 0.428335
#
#
# Mechanical properties :
#
#
# Convention : Reuss Voigt Hill
#
# Bulk Modulus (GPa) = 37.43930 38.98565 38.21248
# Shear Modulus (GPa) = 7.32616 14.37077 10.84846
#
# Velocity S-wave (km/s) = 1.97554 2.76687 2.40399
# Velocity P-wave (km/s) = 5.01480 5.56558 5.29735
#
# Compressibility (1/GPa) = 0.02670990
#
# Stress axis : x y z
#
# Youngs Moduli (GPa) = 28.76708 38.18100 68.66264
#
# Poissons Ratio (x) = 0.59329 0.38120
# Poissons Ratio (y) = 0.44701 0.22747
# Poissons Ratio (z) = 0.15971 0.12649
#
# Static dielectric constant tensor:
#      x y z
#    x 1.657890 0.000000 0.000000 
#    y 0.000000 1.667440 0.000000 
#    z 0.000000 0.000000 1.640380 
# 
# From -- ./inp_files/8629.got.cif
#   From: 2010.05.17/outbox.ucp.g08.bks.cvg/sg57_5_cif.got.tgz:8629.got - 2010.06.11 16:39:23.
