data_PCOD9440891
_publ_section_title
;
Structure prediction by ZEFSAII (Michael W. Deem and Ramdas Pophale) SiO2 
 PCOD9440891
Probable space group: P N N M
;
_chemical_formula_sum "Si O2"
_cell_formula_units_Z 36
_cell_length_a 5.312949
_cell_length_b 12.792352
_cell_length_c 31.045472
_cell_angle_alpha 90.000000
_cell_angle_beta 90.000000
_cell_angle_gamma 90.000000
_cell_volume 2110.009036
_symmetry_space_group_name_H-M "P N N M"
_symmetry_group_IT_number 58
_symmetry_cell_setting 'orthorhombic'
loop_
_space_group_symop_operation_xyz
x,y,z
-x,-y,z
1/2+x,1/2-y,1/2-z
1/2-x,1/2+y,1/2-z
-x,-y,-z
x,y,-z
1/2-x,1/2+y,1/2+z
1/2+x,1/2-y,1/2+z
loop_
_atom_site_type_symbol
_atom_site_label
_atom_site_fract_x
_atom_site_fract_y
_atom_site_fract_z
Si Si1 0.489370 0.121918 0.906048
Si Si2 0.819103 0.913396 0.825199
Si Si3 0.520468 0.773436 0.275702
Si Si4 0.987677 0.127538 0.950342
Si Si5 0.000000 0.500000 0.247483
O O1 0.411463 0.117977 0.855943
O O2 0.756901 0.164758 0.920592
O O3 0.251853 0.167532 0.931618
O O4 0.500000 0.000000 0.919006
O O5 0.965767 0.808069 0.813482
O O6 0.719846 0.968519 0.781441
O O7 0.000000 0.000000 0.846903
O O8 0.806508 0.757643 0.259738
O O9 0.466545 0.896483 0.280877
O O10 0.948470 0.157078 0.000000
O O11 0.000000 0.000000 0.949533
#
# Coordination Sequence:
#
# PCOD9440891 Si02
#       5
#     8   8   8   8   4
#     4  10  18  26  41  62  84 116 148 184 220 254
#     4  11  19  31  46  67  92 118 154 197 221 274
#     4  10  21  33  48  67  87 120 152 195 237 268
#     4   9  17  28  40  57  84 117 151 177 210 264
#     4  10  20  34  48  64  91 120 161 194 226 280
#
# _framework density 17.061539
#
# number of rings (size 3 to 8) (size 9 to 14) (size 15 to 20)
#    0.000    2.000    3.333    2.667    0.000    2.667 
#    0.000    0.000    0.000    0.000    0.000    0.000 
#    0.000    0.000    0.000    6.000    0.000    2.444 
#
# Total GULP energy -200485.806386 kJ/mol
# GULP energy per Si atom -5569.050177 kJ/mol
# Density = 1.702271 g / cm^3
# Si number density = 17.061539 Si / 1000 Ang^3
#
#
#
# Elastic Constant Matrix: (Units=GPa)
#
#
# Indices 1 2 3 4 5 6 
#
# 1 79.1296 -2.5523 31.5847 0.0000 0.0000 0.0000
# 2 -2.5523 78.3221 18.7846 0.0000 0.0000 0.0000
# 3 31.5847 18.7846 62.4081 0.0000 0.0000 0.0000
# 4 0.0000 0.0000 0.0000 2.0216 0.0000 0.0000
# 5 0.0000 0.0000 0.0000 0.0000 23.3024 0.0000
# 6 0.0000 0.0000 0.0000 0.0000 0.0000 13.5268
#
#
#
# Elastic Compliance Matrix: (Units=1/GPa)
#
#
# Indices 1 2 3 4 5 6 
#
# 1 0.016355 0.002714 -0.009094 0.000000 0.000000 0.000000
# 2 0.002714 0.014212 -0.005651 0.000000 0.000000 0.000000
# 3 -0.009094 -0.005651 0.022327 0.000000 0.000000 0.000000
# 4 0.000000 0.000000 0.000000 0.494663 0.000000 0.000000
# 5 0.000000 0.000000 0.000000 0.000000 0.042914 0.000000
# 6 0.000000 0.000000 0.000000 0.000000 0.000000 0.073927
#
#
# Mechanical properties :
#
#
# Convention : Reuss Voigt Hill
#
# Bulk Modulus (GPa) = 34.68483 35.05489 34.86986
# Shear Modulus (GPa) = 7.16259 19.23967 13.20113
#
# Velocity S-wave (km/s) = 2.05115 3.36171 2.78463
# Velocity P-wave (km/s) = 5.09735 5.97151 5.55166
#
# Compressibility (1/GPa) = 0.02883105
#
# Stress axis : x y z
#
# Youngs Moduli (GPa) = 61.14342 70.36498 44.78859
#
# Poissons Ratio (x) = -0.19098 0.40732
# Poissons Ratio (y) = -0.16595 0.25311
# Poissons Ratio (z) = 0.55605 0.39765
#
# Static dielectric constant tensor:
#      x y z
#    x 1.669200 0.000000 0.000000 
#    y 0.000000 1.564200 0.000000 
#    z 0.000000 0.000000 1.608560 
# 
# From -- ./inp_files/34080.got.cif
#   From: 2010.05.17/outbox.cif.g08.bks.cpg/sg58_18_cif.got.tgz:34080.got - 2010.06.03 14:20:14.
