data_PCOD9440416
_publ_section_title
;
Structure prediction by ZEFSAII (Michael W. Deem and Ramdas Pophale) SiO2 
 PCOD9440416
Probable space group: P B C M
;
_chemical_formula_sum "Si O2"
_cell_formula_units_Z 64
_cell_length_a 15.000000
_cell_length_b 30.000000
_cell_length_c 9.000000
_cell_angle_alpha 90.000000
_cell_angle_beta 90.000000
_cell_angle_gamma 90.000000
_cell_volume 4050.000000
_symmetry_space_group_name_H-M "P B C M"
_symmetry_group_IT_number 57
_symmetry_cell_setting 'orthorhombic'
loop_
_space_group_symop_operation_xyz
x,y,z
-x,-y,1/2+z
x,1/2-y,-z
-x,1/2+y,1/2-z
-x,-y,-z
x,y,1/2-z
-x,1/2+y,z
x,1/2-y,1/2+z
loop_
_atom_site_type_symbol
_atom_site_label
_atom_site_fract_x
_atom_site_fract_y
_atom_site_fract_z
Si Si1 0.794830 0.965651 0.571333
Si Si2 0.822763 0.062581 0.426649
Si Si3 0.426739 0.704816 0.570839
Si Si4 0.986630 0.951963 0.927737
Si Si5 0.511440 0.451548 0.074088
Si Si6 0.673331 0.387242 0.074918
Si Si7 0.642602 0.896068 0.928680
Si Si8 0.623689 0.795631 0.571211
O O1 0.790848 0.972258 0.750000
O O2 0.886410 0.939728 0.532112
O O3 0.715814 0.932814 0.528829
O O4 0.796819 0.014577 0.498232
O O5 0.817020 0.057390 0.250000
O O6 0.759402 0.101361 0.481438
O O7 0.924738 0.074052 0.470500
O O8 0.386802 0.750000 0.500000
O O9 0.435090 0.709021 0.750000
O O10 0.373063 0.659627 0.537894
O O11 0.524075 0.700789 0.496267
O O12 0.988198 0.956258 0.750000
O O13 0.000000 0.000000 0.000000
O O14 0.496911 0.456297 0.250000
O O15 0.607524 0.429239 0.050276
O O16 0.500000 0.500000 0.000000
O O17 0.445027 0.414603 0.007923
O O18 0.693940 0.386261 0.250000
O O19 0.630277 0.897958 0.750000
O O20 0.664979 0.844432 0.963821
O O21 0.662500 0.750000 0.500000
O O22 0.620514 0.790651 0.750000
#
# Coordination Sequence:
#
# PCOD9440416 Si02
#       8
#     8   8   8   8   8   8   8   8
#     4   9  17  31  48  65  92 125 153 184 228 275
#     4  10  19  29  45  70  94 118 155 194 226 263
#     4  10  19  33  50  68  88 115 151 189 232 274
#     4   8  15  28  45  65  89 117 149 188 229 268
#     4  11  22  34  45  61  91 127 159 187 219 263
#     4  10  21  34  46  63  91 125 154 181 225 276
#     4  10  20  32  47  68  90 119 156 188 222 268
#     4  10  19  31  48  68  90 115 149 190 230 270
#
# _framework density 15.802469
#
# number of rings (size 3 to 8) (size 9 to 14) (size 15 to 20)
#    0.000    2.250    1.250    3.000    0.000    6.500 
#    0.000    0.000    0.000    0.000    0.000    0.875 
#    0.000    4.000    0.000    0.000    0.000    0.000 
#
# Total GULP energy -356304.357471 kJ/mol
# GULP energy per Si atom -5567.255585 kJ/mol
# Density = 1.576650 g / cm^3
# Si number density = 15.802469 Si / 1000 Ang^3
#
#
#
# Elastic Constant Matrix: (Units=GPa)
#
#
# Indices 1 2 3 4 5 6 
#
# 1 41.6572 -5.2980 16.4023 0.0000 0.0000 0.0000
# 2 -5.2980 54.7944 4.7286 0.0000 0.0000 0.0000
# 3 16.4023 4.7286 7.9709 0.0000 0.0000 0.0000
# 4 0.0000 0.0000 0.0000 26.0822 0.0000 0.0000
# 5 0.0000 0.0000 0.0000 0.0000 14.5786 0.0000
# 6 0.0000 0.0000 0.0000 0.0000 0.0000 -5.8129
#
#
#
# Elastic Compliance Matrix: (Units=1/GPa)
#
#
# Indices 1 2 3 4 5 6 
#
# 1 0.280829 0.081178 -0.626038 0.000000 0.000000 0.000000
# 2 0.081178 0.042701 -0.192377 0.000000 0.000000 0.000000
# 3 -0.626038 -0.192377 1.527819 0.000000 0.000000 0.000000
# 4 0.000000 0.000000 0.000000 0.038340 0.000000 0.000000
# 5 0.000000 0.000000 0.000000 0.000000 0.068594 0.000000
# 6 0.000000 0.000000 0.000000 0.000000 0.000000 -0.172031
#
#
# Mechanical properties :
#
#
# Convention : Reuss Voigt Hill
#
# Bulk Modulus (GPa) = 2.65339 15.12091 8.88715
# Shear Modulus (GPa) = 1.47652 12.87556 7.17604
#
# Velocity S-wave (km/s) = 0.96767 2.85753 2.13329
# Velocity P-wave (km/s) = 1.71209 4.52513 3.42112
#
# Compressibility (1/GPa) = 0.37687584
#
# Stress axis : x y z
#
# Youngs Moduli (GPa) = 3.56089 23.41887 0.65453
#
# Poissons Ratio (x) = -1.90110 0.40976
# Poissons Ratio (y) = -0.28907 0.12592
# Poissons Ratio (z) = 2.22925 4.50525
#
# Static dielectric constant tensor:
#      x y z
#    x 1.575900 0.000000 0.000000 
#    y 0.000000 1.517320 0.000000 
#    z 0.000000 0.000000 1.531890 
# 
# From -- ./inp_files/6022.got.cif
#   From: 2010.05.17/outbox.ucp.g08.bks.cvg/sg57_4_cif.got.tgz:6022.got - 2010.06.11 16:39:23.
