data_PCOD9440462
_publ_section_title
;
Structure prediction by ZEFSAII (Michael W. Deem and Ramdas Pophale) SiO2 
 PCOD9440462
Probable space group: P B C M
;
_chemical_formula_sum "Si O2"
_cell_formula_units_Z 40
_cell_length_a 9.000000
_cell_length_b 27.000000
_cell_length_c 9.000000
_cell_angle_alpha 90.000000
_cell_angle_beta 90.000000
_cell_angle_gamma 90.000000
_cell_volume 2187.000000
_symmetry_space_group_name_H-M "P B C M"
_symmetry_group_IT_number 57
_symmetry_cell_setting 'orthorhombic'
loop_
_space_group_symop_operation_xyz
x,y,z
-x,-y,1/2+z
x,1/2-y,-z
-x,1/2+y,1/2-z
-x,-y,-z
x,y,1/2-z
-x,1/2+y,z
x,1/2-y,1/2+z
loop_
_atom_site_type_symbol
_atom_site_label
_atom_site_fract_x
_atom_site_fract_y
_atom_site_fract_z
Si Si1 0.167100 0.105602 0.427816
Si Si2 0.165366 0.004863 0.930578
Si Si3 0.682601 0.799915 0.071232
Si Si4 0.813411 0.397877 0.572591
Si Si5 0.645621 0.300075 0.930802
O O1 0.193412 0.108044 0.250000
O O2 0.229055 0.054473 0.496721
O O3 0.232436 0.152082 0.513874
O O4 0.989487 0.105673 0.453868
O O5 0.157644 0.008494 0.750000
O O6 0.240351 0.952542 0.974394
O O7 0.000000 0.000000 0.000000
O O8 0.676225 0.796681 0.250000
O O9 0.750709 0.750000 0.000000
O O10 0.518888 0.803300 0.999022
O O11 0.793948 0.397139 0.750000
O O12 0.731137 0.349244 0.517837
O O13 0.640748 0.297036 0.750000
O O14 0.713553 0.250000 0.000000
#
# Coordination Sequence:
#
# PCOD9440462 Si02
#       5
#     8   8   8   8   8
#     4  10  19  34  54  79 106 135 169 212 257 303
#     4   9  16  30  50  75 104 137 171 209 255 306
#     4  11  22  37  54  75 101 135 172 210 253 305
#     4   8  17  32  53  77 104 133 168 210 254 299
#     4  10  19  35  54  74 100 134 168 207 254 303
#
# _framework density 18.289895000000001
#
# number of rings (size 3 to 8) (size 9 to 14) (size 15 to 20)
#    0.000    2.400    0.000    6.000    0.000    0.800 
#    0.000   15.000    0.000    0.000    0.000    0.000 
#    0.000    0.000    0.000    0.000    0.000    0.000 
#
# Total GULP energy -222809.042211 kJ/mol
# GULP energy per Si atom -5570.226055 kJ/mol
# Density = 1.824827 g / cm^3
# Si number density = 18.289895 Si / 1000 Ang^3
#
#
#
# Elastic Constant Matrix: (Units=GPa)
#
#
# Indices 1 2 3 4 5 6 
#
# 1 -6.4454 36.9129 20.1531 0.0000 0.0000 0.0000
# 2 36.9129 216.9365 63.2061 0.0000 0.0000 0.0000
# 3 20.1531 63.2061 118.5706 0.0000 0.0000 0.0000
# 4 0.0000 0.0000 0.0000 37.1625 0.0000 0.0000
# 5 0.0000 0.0000 0.0000 0.0000 19.9281 0.0000
# 6 0.0000 0.0000 0.0000 0.0000 0.0000 51.4595
#
#
#
# Elastic Compliance Matrix: (Units=1/GPa)
#
#
# Indices 1 2 3 4 5 6 
#
# 1 -0.073485 0.010495 0.006896 0.000000 0.000000 0.000000
# 2 0.010495 0.003958 -0.003894 0.000000 0.000000 0.000000
# 3 0.006896 -0.003894 0.009337 0.000000 0.000000 0.000000
# 4 0.000000 0.000000 0.000000 0.026909 0.000000 0.000000
# 5 0.000000 0.000000 0.000000 0.000000 0.050180 0.000000
# 6 0.000000 0.000000 0.000000 0.000000 0.000000 0.019433
#
#
# Mechanical properties :
#
#
# Convention : Reuss Voigt Hill
#
# Bulk Modulus (GPa) = -30.12407 63.28955 16.58274
# Shear Modulus (GPa) = -2898.00151 35.62932 -1431.18609
#
# Velocity S-wave (km/s) = -39.84874 4.41844 -28.00357
# Velocity P-wave (km/s) = 46.19238 7.79159 32.19493
#
# Compressibility (1/GPa) = -0.03319604
#
# Stress axis : x y z
#
# Youngs Moduli (GPa) = -13.60823 252.62636 107.09554
#
# Poissons Ratio (x) = -2.65125 -0.73849
# Poissons Ratio (y) = 0.14281 0.41702
# Poissons Ratio (z) = 0.09384 0.98369
#
# Static dielectric constant tensor:
#      x y z
#    x 1.666070 0.000000 0.000000 
#    y 0.000000 1.720860 0.000000 
#    z 0.000000 0.000000 1.603750 
# 
# From -- ./inp_files/1713.got.cif
#   From: 2010.05.17/outbox.ucp.g08.bks.cvg/sg57_1_cif.got.tgz:1713.got - 2010.06.11 16:39:23.
