data_PCOD9440929
_publ_section_title
;
Structure prediction by ZEFSAII (Michael W. Deem and Ramdas Pophale) SiO2 
 PCOD9440929
Probable space group: P N N M
;
_chemical_formula_sum "Si O2"
_cell_formula_units_Z 56
_cell_length_a 29.982276
_cell_length_b 14.130704
_cell_length_c 8.778289
_cell_angle_alpha 90.000000
_cell_angle_beta 90.000000
_cell_angle_gamma 90.000000
_cell_volume 3719.103559
_symmetry_space_group_name_H-M "P N N M"
_symmetry_group_IT_number 58
_symmetry_cell_setting 'orthorhombic'
loop_
_space_group_symop_operation_xyz
x,y,z
-x,-y,z
1/2+x,1/2-y,1/2-z
1/2-x,1/2+y,1/2-z
-x,-y,-z
x,y,-z
1/2-x,1/2+y,1/2+z
1/2+x,1/2-y,1/2+z
loop_
_atom_site_type_symbol
_atom_site_label
_atom_site_fract_x
_atom_site_fract_y
_atom_site_fract_z
Si Si1 0.408124 0.887871 0.183209
Si Si2 0.680986 0.791403 0.682806
Si Si3 0.729032 0.613888 0.183480
Si Si4 0.683537 0.209917 0.815376
Si Si5 0.595132 0.890507 0.181745
Si Si6 0.001613 0.614785 0.175743
Si Si7 0.270394 0.600191 0.815560
O O1 0.365108 0.827136 0.228725
O O2 0.454618 0.853688 0.254198
O O3 0.400574 0.998228 0.226003
O O4 0.412266 0.885127 0.000000
O O5 0.680966 0.786405 0.500000
O O6 0.694297 0.689611 0.750047
O O7 0.634506 0.831378 0.742307
O O8 0.721406 0.862036 0.730321
O O9 0.777614 0.646368 0.242595
O O10 0.720618 0.506263 0.235898
O O11 0.728209 0.617714 0.000000
O O12 0.694778 0.318040 0.770630
O O13 0.687265 0.203131 0.000000
O O14 0.546147 0.857383 0.234510
O O15 0.598654 0.884720 0.000000
O O16 0.000000 0.500000 0.182985
O O17 0.005328 0.642761 0.000000
O O18 0.270439 0.597701 0.000000
#
# Coordination Sequence:
#
# PCOD9440929 Si02
#       7
#     8   8   8   8   8   8   8
#     4   9  17  28  44  65  90 117 145 179 215 253
#     4  10  19  31  45  63  87 116 147 177 215 259
#     4  10  18  29  44  63  86 113 146 181 212 246
#     4   9  17  30  45  63  87 116 146 175 214 257
#     4  10  18  28  43  65  90 115 145 180 215 253
#     4   9  17  28  42  61  87 118 147 175 212 258
#     4   8  16  29  44  61  85 115 144 175 210 252
#
# _framework density 15.057392
#
# number of rings (size 3 to 8) (size 9 to 14) (size 15 to 20)
#    0.000    2.714    0.000    3.429    0.000    2.857 
#    0.000    6.429    0.000    0.000    0.000    1.000 
#    0.000    8.000    0.000    0.000    0.000    0.000 
#
# Total GULP energy -312052.639288 kJ/mol
# GULP energy per Si atom -5572.368559 kJ/mol
# Density = 1.502312 g / cm^3
# Si number density = 15.057392 Si / 1000 Ang^3
#
#
#
# Elastic Constant Matrix: (Units=GPa)
#
#
# Indices 1 2 3 4 5 6 
#
# 1 137.9059 67.9117 41.4341 0.0000 0.0000 0.0000
# 2 67.9117 104.2197 31.1075 0.0000 0.0000 0.0000
# 3 41.4341 31.1075 39.8205 0.0000 0.0000 0.0000
# 4 0.0000 0.0000 0.0000 16.0202 0.0000 0.0000
# 5 0.0000 0.0000 0.0000 0.0000 28.0087 0.0000
# 6 0.0000 0.0000 0.0000 0.0000 0.0000 23.6176
#
#
#
# Elastic Compliance Matrix: (Units=1/GPa)
#
#
# Indices 1 2 3 4 5 6 
#
# 1 0.012661 -0.005631 -0.008775 0.000000 0.000000 0.000000
# 2 -0.005631 0.015017 -0.005872 0.000000 0.000000 0.000000
# 3 -0.008775 -0.005872 0.038831 0.000000 0.000000 0.000000
# 4 0.000000 0.000000 0.000000 0.062421 0.000000 0.000000
# 5 0.000000 0.000000 0.000000 0.000000 0.035703 0.000000
# 6 0.000000 0.000000 0.000000 0.000000 0.000000 0.042341
#
#
# Mechanical properties :
#
#
# Convention : Reuss Voigt Hill
#
# Bulk Modulus (GPa) = 38.53226 62.53919 50.53572
# Shear Modulus (GPa) = 19.51748 22.96214 21.23981
#
# Velocity S-wave (km/s) = 3.60419 3.90933 3.75986
# Velocity P-wave (km/s) = 6.55485 7.87408 7.24456
#
# Compressibility (1/GPa) = 0.02595228
#
# Stress axis : x y z
#
# Youngs Moduli (GPa) = 78.98486 66.59123 25.75294
#
# Poissons Ratio (x) = 0.37496 0.22598
# Poissons Ratio (y) = 0.44475 0.15123
# Poissons Ratio (z) = 0.69309 0.39104
#
# Static dielectric constant tensor:
#      x y z
#    x 1.484770 0.000000 0.000000 
#    y 0.000000 1.493270 0.000000 
#    z 0.000000 0.000000 1.505380 
# 
# From -- ./inp_files/7111.got.cif
#   From: 2010.05.17/outbox.cif.g08.bks.cpg/sg58_4_cif.got.tgz:7111.got - 2010.06.03 14:20:14.
