data_PCOD9440671
_publ_section_title
;
Structure prediction by ZEFSAII (Michael W. Deem and Ramdas Pophale) SiO2 
 PCOD9440671
Probable space group: P N N M
;
_chemical_formula_sum "Si O2"
_cell_formula_units_Z 48
_cell_length_a 13.266862
_cell_length_b 12.159536
_cell_length_c 11.274050
_cell_angle_alpha 90.000000
_cell_angle_beta 90.000000
_cell_angle_gamma 90.000000
_cell_volume 1818.717188
_symmetry_space_group_name_H-M "P N N M"
_symmetry_group_IT_number 58
_symmetry_cell_setting 'orthorhombic'
loop_
_space_group_symop_operation_xyz
x,y,z
-x,-y,z
1/2+x,1/2-y,1/2-z
1/2-x,1/2+y,1/2-z
-x,-y,-z
x,y,-z
1/2-x,1/2+y,1/2+z
1/2+x,1/2-y,1/2+z
loop_
_atom_site_type_symbol
_atom_site_label
_atom_site_fract_x
_atom_site_fract_y
_atom_site_fract_z
Si Si1 0.594788 0.651402 0.370447
Si Si2 0.307676 0.125530 0.871576
Si Si3 0.437763 0.112829 0.365969
Si Si4 0.668201 0.224117 0.868352
Si Si5 0.306027 0.857109 0.627714
Si Si6 0.154705 0.027838 0.717160
O O1 0.575773 0.602560 0.500000
O O2 0.710499 0.699046 0.370131
O O3 0.580448 0.569557 0.260248
O O4 0.526208 0.759635 0.360800
O O5 0.375421 0.109161 0.756713
O O6 0.209308 0.053356 0.843039
O O7 0.265422 0.249612 0.874166
O O8 0.351730 0.098854 0.000000
O O9 0.389589 0.111715 0.500000
O O10 0.500000 0.000000 0.364813
O O11 0.636976 0.152559 0.753939
O O12 0.640849 0.351932 0.840452
O O13 0.629953 0.196012 0.000000
O O14 0.359882 0.858450 0.500000
O O15 0.234268 0.962407 0.636335
#
# Coordination Sequence:
#
# PCOD9440671 Si02
#       6
#     8   8   8   8   8   8
#     4   9  16  28  41  62  90 117 146 184 224 262
#     4  10  19  30  43  66  93 120 153 188 232 274
#     4  10  19  32  48  63  87 127 164 188 219 268
#     4   9  16  25  39  57  84 115 143 176 220 264
#     4   9  17  26  39  60  87 115 146 180 221 270
#     4  10  15  25  43  63  84 120 148 186 225 273
#
# _framework density 26.392226999999998
#
# number of rings (size 3 to 8) (size 9 to 14) (size 15 to 20)
#    0.000    2.500    5.000    1.000    0.000    2.333 
#    0.000    0.000    0.000    0.000    0.000    0.000 
#    0.000   12.000    0.000   86.167    0.000    5.500 
#
# Total GULP energy -267665.072417 kJ/mol
# GULP energy per Si atom -5576.355675 kJ/mol
# Density = 2.633216 g / cm^3
# Si number density = 26.392227 Si / 1000 Ang^3
#
#
#
# Elastic Constant Matrix: (Units=GPa)
#
#
# Indices 1 2 3 4 5 6 
#
# 1 34.2471 20.7148 22.1658 0.0000 0.0000 0.0000
# 2 20.7148 168.5863 44.5313 0.0000 0.0000 0.0000
# 3 22.1658 44.5313 251.9893 0.0000 0.0000 0.0000
# 4 0.0000 0.0000 0.0000 11.4649 0.0000 0.0000
# 5 0.0000 0.0000 0.0000 0.0000 13.3289 0.0000
# 6 0.0000 0.0000 0.0000 0.0000 0.0000 34.6851
#
#
#
# Elastic Compliance Matrix: (Units=1/GPa)
#
#
# Indices 1 2 3 4 5 6 
#
# 1 0.032742 -0.003422 -0.002275 0.000000 0.000000 0.000000
# 2 -0.003422 0.006580 -0.000862 0.000000 0.000000 0.000000
# 3 -0.002275 -0.000862 0.004321 0.000000 0.000000 0.000000
# 4 0.000000 0.000000 0.000000 0.087222 0.000000 0.000000
# 5 0.000000 0.000000 0.000000 0.000000 0.075025 0.000000
# 6 0.000000 0.000000 0.000000 0.000000 0.000000 0.028831
#
#
# Mechanical properties :
#
#
# Convention : Reuss Voigt Hill
#
# Bulk Modulus (GPa) = 32.76071 69.96073 51.36072
# Shear Modulus (GPa) = 19.37879 36.38985 27.88432
#
# Velocity S-wave (km/s) = 2.71267 3.71726 3.25397
# Velocity P-wave (km/s) = 4.71714 6.70743 5.79832
#
# Compressibility (1/GPa) = 0.03052437
#
# Stress axis : x y z
#
# Youngs Moduli (GPa) = 30.54163 151.98036 231.43548
#
# Poissons Ratio (x) = 0.52010 0.52660
# Poissons Ratio (y) = 0.10452 0.19944
# Poissons Ratio (z) = 0.06949 0.13097
#
# Static dielectric constant tensor:
#      x y z
#    x 2.233530 0.000000 0.000000 
#    y 0.000000 2.104140 0.000000 
#    z 0.000000 0.000000 2.029940 
# 
# From -- ./inp_files/14480.got.cif
#   From: 2010.05.17/outbox.cif.g08.bks.cpg/sg58_8_cif.got.tgz:14480.got - 2010.06.03 14:20:14.
