data_PCOD9440935
_publ_section_title
;
Structure prediction by ZEFSAII (Michael W. Deem and Ramdas Pophale) SiO2 
 PCOD9440935
Probable space group: P N N M
;
_chemical_formula_sum "Si O2"
_cell_formula_units_Z 64
_cell_length_a 26.998855
_cell_length_b 10.813679
_cell_length_c 13.461173
_cell_angle_alpha 90.000000
_cell_angle_beta 90.000000
_cell_angle_gamma 90.000000
_cell_volume 3930.083031
_symmetry_space_group_name_H-M "P N N M"
_symmetry_group_IT_number 58
_symmetry_cell_setting 'orthorhombic'
loop_
_space_group_symop_operation_xyz
x,y,z
-x,-y,z
1/2+x,1/2-y,1/2-z
1/2-x,1/2+y,1/2-z
-x,-y,-z
x,y,-z
1/2-x,1/2+y,1/2+z
1/2+x,1/2-y,1/2+z
loop_
_atom_site_type_symbol
_atom_site_label
_atom_site_fract_x
_atom_site_fract_y
_atom_site_fract_z
Si Si1 0.052240 0.975570 0.386569
Si Si2 0.706220 0.784025 0.385601
Si Si3 0.345720 0.109342 0.199318
Si Si4 0.149094 0.866557 0.616356
Si Si5 0.300593 0.602800 0.791115
Si Si6 0.942067 0.513048 0.381820
Si Si7 0.248307 0.489762 0.617747
Si Si8 0.387179 0.730849 0.888304
O O1 0.041587 0.932620 0.500000
O O2 0.080240 0.106375 0.389977
O O3 0.092238 0.879599 0.345913
O O4 0.000000 0.000000 0.335478
O O5 0.691076 0.793984 0.500000
O O6 0.665807 0.837498 0.308881
O O7 0.754874 0.863779 0.361452
O O8 0.725141 0.643231 0.367513
O O9 0.333460 0.228021 0.131031
O O10 0.306505 0.003363 0.166321
O O11 0.401570 0.067111 0.177491
O O12 0.149316 0.899777 0.500000
O O13 0.179461 0.969583 0.674359
O O14 0.280741 0.589050 0.679419
O O15 0.343486 0.702481 0.811339
O O16 0.938243 0.481888 0.500000
O O17 0.922451 0.653285 0.369452
O O18 0.000000 0.500000 0.354330
O O19 0.245090 0.511190 0.500000
O O20 0.365455 0.746898 0.000000
#
# Coordination Sequence:
#
# PCOD9440935 Si02
#       8
#     8   8   8   8   8   8   8   8
#     4   8  15  25  41  64  94 129 162 196 236 283
#     4  10  20  35  54  71  96 132 171 207 246 302
#     4  11  21  33  51  75 103 132 170 208 255 303
#     4  10  18  28  44  71 102 130 162 207 249 291
#     4  10  18  31  50  73  98 132 169 202 245 302
#     4  10  21  34  51  75 105 139 168 203 251 307
#     4  10  20  34  51  74 103 136 169 208 255 302
#     4   9  17  30  47  68  98 134 166 195 238 295
#
# _framework density 16.284642999999999
#
# number of rings (size 3 to 8) (size 9 to 14) (size 15 to 20)
#    0.000    2.250    1.250    3.750    1.750    2.000 
#    0.000    0.000    0.000    0.375    0.000    0.000 
#    0.000    5.000    0.000    0.000    0.000    0.000 
#
# Total GULP energy -356378.165361 kJ/mol
# GULP energy per Si atom -5568.408834 kJ/mol
# Density = 1.624758 g / cm^3
# Si number density = 16.284643 Si / 1000 Ang^3
#
#
#
# Elastic Constant Matrix: (Units=GPa)
#
#
# Indices 1 2 3 4 5 6 
#
# 1 105.9940 27.7732 48.8132 0.0000 0.0000 0.0000
# 2 27.7732 59.4392 29.3468 0.0000 0.0000 0.0000
# 3 48.8132 29.3468 84.4421 0.0000 0.0000 0.0000
# 4 0.0000 0.0000 0.0000 17.8486 0.0000 0.0000
# 5 0.0000 0.0000 0.0000 0.0000 20.6515 0.0000
# 6 0.0000 0.0000 0.0000 0.0000 0.0000 19.3113
#
#
#
# Elastic Compliance Matrix: (Units=1/GPa)
#
#
# Indices 1 2 3 4 5 6 
#
# 1 0.013262 -0.002911 -0.006655 0.000000 0.000000 0.000000
# 2 -0.002911 0.020948 -0.005597 0.000000 0.000000 0.000000
# 3 -0.006655 -0.005597 0.017634 0.000000 0.000000 0.000000
# 4 0.000000 0.000000 0.000000 0.056027 0.000000 0.000000
# 5 0.000000 0.000000 0.000000 0.000000 0.048423 0.000000
# 6 0.000000 0.000000 0.000000 0.000000 0.000000 0.051783
#
#
# Mechanical properties :
#
#
# Convention : Reuss Voigt Hill
#
# Bulk Modulus (GPa) = 46.47241 51.30465 48.88853
# Shear Modulus (GPa) = 20.36037 21.15842 20.75940
#
# Velocity S-wave (km/s) = 3.53977 3.60847 3.57428
# Velocity P-wave (km/s) = 6.73098 6.99534 6.86443
#
# Compressibility (1/GPa) = 0.02151814
#
# Stress axis : x y z
#
# Youngs Moduli (GPa) = 75.40396 47.73801 56.70718
#
# Poissons Ratio (x) = 0.13897 0.37736
# Poissons Ratio (y) = 0.21951 0.31740
# Poissons Ratio (z) = 0.50178 0.26720
#
# Static dielectric constant tensor:
#      x y z
#    x 1.581530 0.000000 0.000000 
#    y 0.000000 1.580300 0.000000 
#    z 0.000000 0.000000 1.541080 
# 
# From -- ./inp_files/17842.got.cif
#   From: 2010.05.17/outbox.cif.g08.bks.cpg/sg58_9_cif.got.tgz:17842.got - 2010.06.03 14:20:14.
