data_PCOD9440697
_publ_section_title
;
Structure prediction by ZEFSAII (Michael W. Deem and Ramdas Pophale) SiO2 
 PCOD9440697
Probable space group: P N N M
;
_chemical_formula_sum "Si O2"
_cell_formula_units_Z 56
_cell_length_a 19.169468
_cell_length_b 10.838437
_cell_length_c 13.495161
_cell_angle_alpha 90.000000
_cell_angle_beta 90.000000
_cell_angle_gamma 90.000000
_cell_volume 2803.850077
_symmetry_space_group_name_H-M "P N N M"
_symmetry_group_IT_number 58
_symmetry_cell_setting 'orthorhombic'
loop_
_space_group_symop_operation_xyz
x,y,z
-x,-y,z
1/2+x,1/2-y,1/2-z
1/2-x,1/2+y,1/2-z
-x,-y,-z
x,y,-z
1/2-x,1/2+y,1/2+z
1/2+x,1/2-y,1/2+z
loop_
_atom_site_type_symbol
_atom_site_label
_atom_site_fract_x
_atom_site_fract_y
_atom_site_fract_z
Si Si1 0.714350 0.907321 0.725392
Si Si2 0.212206 0.798354 0.611725
Si Si3 0.045267 0.625137 0.391394
Si Si4 0.430868 0.755381 0.218223
Si Si5 0.868289 0.588649 0.111966
Si Si6 0.172016 0.445435 0.388181
Si Si7 0.854461 0.944813 0.614926
O O1 0.710025 0.785336 0.790964
O O2 0.645585 0.959195 0.669122
O O3 0.729035 0.016531 0.807018
O O4 0.777868 0.896395 0.648850
O O5 0.204840 0.742721 0.500000
O O6 0.290026 0.855763 0.609454
O O7 0.155717 0.907702 0.619494
O O8 0.036523 0.682412 0.500000
O O9 0.009775 0.713557 0.312477
O O10 0.000000 0.500000 0.388068
O O11 0.121381 0.566277 0.384326
O O12 0.408715 0.616995 0.190850
O O13 0.414007 0.815816 0.324345
O O14 0.377242 0.834294 0.147629
O O15 0.893023 0.571740 0.000000
O O16 0.195875 0.425836 0.500000
O O17 0.869348 0.912757 0.500000
#
# Coordination Sequence:
#
# PCOD9440697 Si02
#       7
#     8   8   8   8   8   8   8
#     4  10  17  28  45  60  86 123 154 180 221 275
#     4   9  17  29  42  60  90 121 148 180 221 266
#     4   8  14  25  42  67  94 116 144 189 236 273
#     4  10  16  28  48  66  89 121 152 184 232 284
#     4   9  18  30  44  63  90 119 145 186 237 273
#     4   9  17  27  44  70  93 117 152 191 231 275
#     4  10  19  29  43  66  92 121 153 188 229 269
#
# _framework density 19.972536999999999
#
# number of rings (size 3 to 8) (size 9 to 14) (size 15 to 20)
#    0.000    2.714    1.429    3.857    0.000    0.000 
#    0.000    0.000    0.000   14.143    0.000    4.000 
#    0.000    0.000    0.000   33.429    0.000    3.714 
#
# Total GULP energy -311760.498944 kJ/mol
# GULP energy per Si atom -5567.151767 kJ/mol
# Density = 1.992708 g / cm^3
# Si number density = 19.972537 Si / 1000 Ang^3
#
#
#
# Elastic Constant Matrix: (Units=GPa)
#
#
# Indices 1 2 3 4 5 6 
#
# 1 20.4912 0.3470 -4.1932 0.0000 0.0000 0.0000
# 2 0.3470 33.2994 23.6604 0.0000 0.0000 0.0000
# 3 -4.1932 23.6604 133.8914 0.0000 0.0000 0.0000
# 4 0.0000 0.0000 0.0000 31.4495 0.0000 0.0000
# 5 0.0000 0.0000 0.0000 0.0000 16.5604 0.0000
# 6 0.0000 0.0000 0.0000 0.0000 0.0000 17.7093
#
#
#
# Elastic Compliance Matrix: (Units=1/GPa)
#
#
# Indices 1 2 3 4 5 6 
#
# 1 0.049214 -0.001839 0.001866 0.000000 0.000000 0.000000
# 2 -0.001839 0.034411 -0.006139 0.000000 0.000000 0.000000
# 3 0.001866 -0.006139 0.008612 0.000000 0.000000 0.000000
# 4 0.000000 0.000000 0.000000 0.031797 0.000000 0.000000
# 5 0.000000 0.000000 0.000000 0.000000 0.060385 0.000000
# 6 0.000000 0.000000 0.000000 0.000000 0.000000 0.056468
#
#
# Mechanical properties :
#
#
# Convention : Reuss Voigt Hill
#
# Bulk Modulus (GPa) = 12.49757 25.25669 18.87713
# Shear Modulus (GPa) = 17.87107 24.33502 21.10305
#
# Velocity S-wave (km/s) = 2.99454 3.49438 3.25407
# Velocity P-wave (km/s) = 4.26934 5.38090 4.85702
#
# Compressibility (1/GPa) = 0.08001556
#
# Stress axis : x y z
#
# Youngs Moduli (GPa) = 20.31922 29.06013 116.11775
#
# Poissons Ratio (x) = 0.05344 -0.21670
# Poissons Ratio (y) = 0.03736 0.71279
# Poissons Ratio (z) = -0.03792 0.17839
#
# Static dielectric constant tensor:
#      x y z
#    x 1.759240 0.000000 0.000000 
#    y 0.000000 1.812400 0.000000 
#    z 0.000000 0.000000 1.758510 
# 
# From -- ./inp_files/17790.got.cif
#   From: 2010.05.17/outbox.cif.g08.bks.cpg/sg58_9_cif.got.tgz:17790.got - 2010.06.03 14:20:14.
