data_PCOD9440192
_publ_section_title
;
Structure prediction by ZEFSAII (Michael W. Deem and Ramdas Pophale) SiO2 
 PCOD9440192
Probable space group: P B C M
;
_chemical_formula_sum "Si O2"
_cell_formula_units_Z 56
_cell_length_a 15.524416
_cell_length_b 10.636426
_cell_length_c 14.684033
_cell_angle_alpha 90.000000
_cell_angle_beta 90.000000
_cell_angle_gamma 90.000000
_cell_volume 2424.690699
_symmetry_space_group_name_H-M "P B C M"
_symmetry_group_IT_number 57
_symmetry_cell_setting 'orthorhombic'
loop_
_space_group_symop_operation_xyz
x,y,z
-x,-y,1/2+z
x,1/2-y,-z
-x,1/2+y,1/2-z
-x,-y,-z
x,y,1/2-z
-x,1/2+y,z
x,1/2-y,1/2+z
loop_
_atom_site_type_symbol
_atom_site_label
_atom_site_fract_x
_atom_site_fract_y
_atom_site_fract_z
Si Si1 0.369716 0.695876 0.348933
Si Si2 0.971027 0.029013 0.250000
Si Si3 0.894257 0.739320 0.250000
Si Si4 0.564541 0.696358 0.101730
Si Si5 0.945868 0.383466 0.956960
Si Si6 0.752464 0.788735 0.394763
Si Si7 0.244911 0.546096 0.470249
Si Si8 0.328899 0.983701 0.148512
O O1 0.350625 0.636065 0.250000
O O2 0.471946 0.716565 0.355599
O O3 0.325930 0.625856 0.433564
O O4 0.331395 0.834797 0.349126
O O5 0.940931 0.089984 0.152734
O O6 0.063810 0.099845 0.250000
O O7 0.951347 0.874798 0.250000
O O8 0.831728 0.742281 0.336370
O O9 0.655035 0.754629 0.137241
O O10 0.582610 0.547899 0.115176
O O11 0.558955 0.750000 0.000000
O O12 0.845581 0.387924 0.983189
O O13 0.979488 0.250000 0.000000
O O14 0.000000 0.500000 0.000000
O O15 0.759842 0.750000 0.500000
O O16 0.762198 0.938431 0.395381
O O17 0.265252 0.484843 0.567634
O O18 0.308403 0.027048 0.250000
#
# Coordination Sequence:
#
# PCOD9440192 Si02
#       8
#     8   4   4   8   8   8   8   8
#     4  11  27  43  70 109 154 202 257 314 376 463
#     4  12  28  52  80 121 153 209 261 328 406 492
#     4  12  28  50  84 111 159 195 261 326 396 484
#     4  11  23  44  69 104 148 200 256 313 383 452
#     4  12  29  52  81 115 156 202 259 330 400 486
#     4  11  26  47  76 111 149 200 252 318 385 467
#     4  12  25  50  76 106 152 202 250 315 392 457
#     4  11  24  45  69 105 147 194 254 317 386 461
#
# _framework density 23.095728000000001
#
# number of rings (size 3 to 8) (size 9 to 14) (size 15 to 20)
#    0.000    0.571    4.286    3.429    8.000    1.143 
#    2.571    0.000    0.000    0.000    0.000    0.000 
#    0.000    0.000    0.000    0.000    0.000    0.000 
#
# Total GULP energy -312130.523205 kJ/mol
# GULP energy per Si atom -5573.759343 kJ/mol
# Density = 2.304316 g / cm^3
# Si number density = 23.095728 Si / 1000 Ang^3
#
#
#
# Elastic Constant Matrix: (Units=GPa)
#
#
# Indices 1 2 3 4 5 6 
#
# 1 113.5889 32.7478 41.1381 0.0000 0.0000 0.0000
# 2 32.7478 91.3033 28.1104 0.0000 0.0000 0.0000
# 3 41.1381 28.1104 158.7951 0.0000 0.0000 0.0000
# 4 0.0000 0.0000 0.0000 29.2081 0.0000 0.0000
# 5 0.0000 0.0000 0.0000 0.0000 22.4950 0.0000
# 6 0.0000 0.0000 0.0000 0.0000 0.0000 -211.6952
#
#
#
# Elastic Compliance Matrix: (Units=1/GPa)
#
#
# Indices 1 2 3 4 5 6 
#
# 1 0.010480 -0.003091 -0.002168 0.000000 0.000000 0.000000
# 2 -0.003091 0.012496 -0.001411 0.000000 0.000000 0.000000
# 3 -0.002168 -0.001411 0.007109 0.000000 0.000000 0.000000
# 4 0.000000 0.000000 0.000000 0.034237 0.000000 0.000000
# 5 0.000000 0.000000 0.000000 0.000000 0.044454 0.000000
# 6 0.000000 0.000000 0.000000 0.000000 0.000000 -0.004724
#
#
# Mechanical properties :
#
#
# Convention : Reuss Voigt Hill
#
# Bulk Modulus (GPa) = 59.72323 63.07554 61.39938
# Shear Modulus (GPa) = 40.65889 -14.55236 13.05326
#
# Velocity S-wave (km/s) = 4.20032 -2.51288 2.37993
# Velocity P-wave (km/s) = 7.03127 4.35320 5.84761
#
# Compressibility (1/GPa) = 0.01674390
#
# Stress axis : x y z
#
# Youngs Moduli (GPa) = 95.41950 80.02693 140.67048
#
# Poissons Ratio (x) = 0.24740 0.30494
# Poissons Ratio (y) = 0.29499 0.19851
# Poissons Ratio (z) = 0.20684 0.11293
#
# Static dielectric constant tensor:
#      x y z
#    x 1.860440 0.000000 0.000000 
#    y 0.000000 2.037480 0.000000 
#    z 0.000000 0.000000 2.006700 
# 
# From -- ./inp_files/18599.got.cif
#   From: 2010.05.17/outbox.cif.g08.bks.cpg/sg57_10_cif.got.tgz:18599.got - 2010.06.03 13:58:18.
