data_PCOD9440884
_publ_section_title
;
Structure prediction by ZEFSAII (Michael W. Deem and Ramdas Pophale) SiO2 
 PCOD9440884
Probable space group: P N N M
;
_chemical_formula_sum "Si O2"
_cell_formula_units_Z 44
_cell_length_a 5.475637
_cell_length_b 19.722003
_cell_length_c 23.483605
_cell_angle_alpha 90.000000
_cell_angle_beta 90.000000
_cell_angle_gamma 90.000000
_cell_volume 2536.006935
_symmetry_space_group_name_H-M "P N N M"
_symmetry_group_IT_number 58
_symmetry_cell_setting 'orthorhombic'
loop_
_space_group_symop_operation_xyz
x,y,z
-x,-y,z
1/2+x,1/2-y,1/2-z
1/2-x,1/2+y,1/2-z
-x,-y,-z
x,y,-z
1/2-x,1/2+y,1/2+z
1/2+x,1/2-y,1/2+z
loop_
_atom_site_type_symbol
_atom_site_label
_atom_site_fract_x
_atom_site_fract_y
_atom_site_fract_z
Si Si1 0.248073 0.543576 0.000000
Si Si2 0.843146 0.239734 0.887323
Si Si3 0.198685 0.791108 0.762999
Si Si4 0.672557 0.608511 0.160658
Si Si5 0.344107 0.272962 0.064982
Si Si6 0.175813 0.599390 0.876342
O O1 0.500000 0.500000 0.000000
O O2 0.229358 0.587181 0.942692
O O3 0.000000 0.500000 0.000000
O O4 0.828236 0.195918 0.830162
O O5 0.596977 0.233623 0.923990
O O6 0.844974 0.319089 0.866562
O O7 0.097051 0.231957 0.920660
O O8 0.453783 0.750609 0.754448
O O9 0.206821 0.854696 0.720770
O O10 0.653582 0.665512 0.110205
O O11 0.410001 0.573783 0.157801
O O12 0.916091 0.570096 0.142524
O O13 0.332760 0.297555 0.000000
#
# Coordination Sequence:
#
# PCOD9440884 Si02
#       6
#     4   8   8   8   8   8
#     4  12  26  40  50  62  84 116 154 218 258 288
#     4  10  19  28  43  62  78 113 124 179 220 270
#     4  12  16  30  40  64  94 100 136 156 234 278
#     4  10  19  28  45  66  80 111 124 183 220 274
#     4  10  18  25  36  55  81 100 140 162 207 241
#     4  10  20  32  46  61  76 103 146 172 241 282
#
# _framework density 17.350111999999999
#
# number of rings (size 3 to 8) (size 9 to 14) (size 15 to 20)
#    0.000    1.455    7.273    1.636   10.182    0.000 
#    0.000    0.000    0.000    0.000    0.000    0.000 
#    0.000    0.000    0.000    0.000    0.000    0.000 
#
# Total GULP energy -245322.038613 kJ/mol
# GULP energy per Si atom -5575.500878 kJ/mol
# Density = 1.731062 g / cm^3
# Si number density = 17.350112 Si / 1000 Ang^3
#
#
#
# Elastic Constant Matrix: (Units=GPa)
#
#
# Indices 1 2 3 4 5 6 
#
# 1 176.1130 3.3657 10.2396 0.0000 0.0000 0.0000
# 2 3.3657 13.2966 16.7938 0.0000 0.0000 0.0000
# 3 10.2396 16.7938 77.5688 0.0000 0.0000 0.0000
# 4 0.0000 0.0000 0.0000 -8.6360 0.0000 0.0000
# 5 0.0000 0.0000 0.0000 0.0000 31.5453 0.0000
# 6 0.0000 0.0000 0.0000 0.0000 0.0000 13.2369
#
#
#
# Elastic Compliance Matrix: (Units=1/GPa)
#
#
# Indices 1 2 3 4 5 6 
#
# 1 0.005727 -0.000681 -0.000609 0.000000 0.000000 0.000000
# 2 -0.000681 0.103593 -0.022338 0.000000 0.000000 0.000000
# 3 -0.000609 -0.022338 0.017808 0.000000 0.000000 0.000000
# 4 0.000000 0.000000 0.000000 -0.115794 0.000000 0.000000
# 5 0.000000 0.000000 0.000000 0.000000 0.031700 0.000000
# 6 0.000000 0.000000 0.000000 0.000000 0.000000 0.075547
#
#
# Mechanical properties :
#
#
# Convention : Reuss Voigt Hill
#
# Bulk Modulus (GPa) = 12.51992 36.41964 24.46978
# Shear Modulus (GPa) = 25.97930 23.00119 24.49024
#
# Velocity S-wave (km/s) = 3.87377 3.64498 3.76111
# Velocity P-wave (km/s) = 5.21918 6.22504 5.74417
#
# Compressibility (1/GPa) = 0.07987272
#
# Stress axis : x y z
#
# Youngs Moduli (GPa) = 174.62469 9.65313 56.15326
#
# Poissons Ratio (x) = 0.00657 0.03417
# Poissons Ratio (y) = 0.11891 1.25437
# Poissons Ratio (z) = 0.10626 0.21563
#
# Static dielectric constant tensor:
#      x y z
#    x 1.811750 0.000000 0.000000 
#    y 0.000000 1.576120 0.000000 
#    z 0.000000 0.000000 1.744540 
# 
# From -- ./inp_files/30972.got.cif
#   From: 2010.05.17/outbox.cif.g08.bks.cpg/sg58_16_cif.got.tgz:30972.got - 2010.06.03 14:20:14.
