data_PCOD9440597
_publ_section_title
;
Structure prediction by ZEFSAII (Michael W. Deem and Ramdas Pophale) SiO2 
 PCOD9440597
Probable space group: P B C M
;
_chemical_formula_sum "Si O2"
_cell_formula_units_Z 64
_cell_length_a 24.000000
_cell_length_b 9.000000
_cell_length_c 15.000000
_cell_angle_alpha 90.000000
_cell_angle_beta 90.000000
_cell_angle_gamma 90.000000
_cell_volume 3240.000000
_symmetry_space_group_name_H-M "P B C M"
_symmetry_group_IT_number 57
_symmetry_cell_setting 'orthorhombic'
loop_
_space_group_symop_operation_xyz
x,y,z
-x,-y,1/2+z
x,1/2-y,-z
-x,1/2+y,1/2-z
-x,-y,-z
x,y,1/2-z
-x,1/2+y,z
x,1/2-y,1/2+z
loop_
_atom_site_type_symbol
_atom_site_label
_atom_site_fract_x
_atom_site_fract_y
_atom_site_fract_z
Si Si1 0.257666 0.641111 0.146904
Si Si2 0.680821 0.591501 0.977304
Si Si3 0.425828 0.099299 0.850936
Si Si4 0.461387 0.735166 0.106364
Si Si5 0.924625 0.596866 0.976512
Si Si6 0.651406 0.095455 0.849483
Si Si7 0.034423 0.906786 0.142231
Si Si8 0.128434 0.850720 0.853644
O O1 0.260317 0.587589 0.250000
O O2 0.278662 0.516237 0.078463
O O3 0.302299 0.774624 0.140257
O O4 0.193461 0.691048 0.131026
O O5 0.625046 0.619144 0.918762
O O6 0.707080 0.750000 0.000000
O O7 0.661693 0.514446 0.069023
O O8 0.404954 0.111679 0.750000
O O9 0.477828 0.209594 0.864327
O O10 0.450046 0.933806 0.865972
O O11 0.410168 0.833165 0.143232
O O12 0.458845 0.750000 0.000000
O O13 0.888560 0.476601 0.923793
O O14 0.976376 0.633702 0.908334
O O15 0.894686 0.750000 0.000000
O O16 0.944697 0.532221 0.072292
O O17 0.657636 0.030362 0.750000
O O18 0.027091 0.941390 0.250000
O O19 0.081900 0.778888 0.137338
O O20 0.124529 0.901668 0.750000
#
# Coordination Sequence:
#
# PCOD9440597 Si02
#       8
#     8   8   8   8   8   8   8   8
#     4  10  22  45  72  92 118 161 216 266 308 367
#     4  12  26  42  62  93 129 166 201 257 321 379
#     4  12  25  41  62  92 126 164 205 255 316 377
#     4  12  23  42  63  89 126 163 208 259 314 373
#     4  11  22  35  57  91 132 169 203 254 316 369
#     4  11  23  43  67  91 121 163 212 260 310 369
#     4  10  21  38  59  88 127 170 216 259 302 362
#     4  10  22  41  67  94 121 165 216 259 307 369
#
# _framework density 19.753086
#
# number of rings (size 3 to 8) (size 9 to 14) (size 15 to 20)
#    0.000    1.000    2.500    4.875    1.750    5.500 
#    0.000    0.000    0.000    3.000    0.000    0.000 
#    0.000    0.000    0.000    0.000    0.000    0.000 
#
# Total GULP energy -357656.235717 kJ/mol
# GULP energy per Si atom -5588.378683 kJ/mol
# Density = 1.970813 g / cm^3
# Si number density = 19.753086 Si / 1000 Ang^3
#
#
#
# Elastic Constant Matrix: (Units=GPa)
#
#
# Indices 1 2 3 4 5 6 
#
# 1 85.5337 1.9917 29.4421 0.0000 0.0000 0.0000
# 2 1.9917 52.0199 43.6297 0.0000 0.0000 0.0000
# 3 29.4421 43.6297 167.8250 0.0000 0.0000 0.0000
# 4 0.0000 0.0000 0.0000 -7.0966 0.0000 0.0000
# 5 0.0000 0.0000 0.0000 0.0000 -21.9247 0.0000
# 6 0.0000 0.0000 0.0000 0.0000 0.0000 17.1344
#
#
#
# Elastic Compliance Matrix: (Units=1/GPa)
#
#
# Indices 1 2 3 4 5 6 
#
# 1 0.012566 0.001749 -0.002659 0.000000 0.000000 0.000000
# 2 0.001749 0.024827 -0.006761 0.000000 0.000000 0.000000
# 3 -0.002659 -0.006761 0.008183 0.000000 0.000000 0.000000
# 4 0.000000 0.000000 0.000000 -0.140913 0.000000 0.000000
# 5 0.000000 0.000000 0.000000 0.000000 -0.045611 0.000000
# 6 0.000000 0.000000 0.000000 0.000000 0.000000 0.058362
#
#
# Mechanical properties :
#
#
# Convention : Reuss Voigt Hill
#
# Bulk Modulus (GPa) = 33.07598 50.61173 41.84385
# Shear Modulus (GPa) = -87.46614 12.97696 -37.24459
#
# Velocity S-wave (km/s) = -6.66152 2.56590 -4.34695
# Velocity P-wave (km/s) = 6.51051 5.86995 1.99129
#
# Compressibility (1/GPa) = 0.03023342
#
# Stress axis : x y z
#
# Youngs Moduli (GPa) = 79.58031 40.27848 122.20710
#
# Poissons Ratio (x) = -0.07046 0.32498
# Poissons Ratio (y) = -0.13920 0.82627
# Poissons Ratio (z) = 0.21162 0.27233
#
# Static dielectric constant tensor:
#      x y z
#    x 1.673670 0.000000 0.000000 
#    y 0.000000 1.710060 0.000000 
#    z 0.000000 0.000000 1.697730 
# 
# From -- ./inp_files/19480.got.cif
#   From: 2010.05.17/outbox.ucp.g08.bks.cvg/sg57_10_cif.got.tgz:19480.got - 2010.06.11 16:39:23.
