data_PCOD9440932
_publ_section_title
;
Structure prediction by ZEFSAII (Michael W. Deem and Ramdas Pophale) SiO2 
 PCOD9440932
Probable space group: P N N M
;
_chemical_formula_sum "Si O2"
_cell_formula_units_Z 56
_cell_length_a 14.095206
_cell_length_b 29.908889
_cell_length_c 8.890002
_cell_angle_alpha 90.000000
_cell_angle_beta 90.000000
_cell_angle_gamma 90.000000
_cell_volume 3747.775494
_symmetry_space_group_name_H-M "P N N M"
_symmetry_group_IT_number 58
_symmetry_cell_setting 'orthorhombic'
loop_
_space_group_symop_operation_xyz
x,y,z
-x,-y,z
1/2+x,1/2-y,1/2-z
1/2-x,1/2+y,1/2-z
-x,-y,-z
x,y,-z
1/2-x,1/2+y,1/2+z
1/2+x,1/2-y,1/2+z
loop_
_atom_site_type_symbol
_atom_site_label
_atom_site_fract_x
_atom_site_fract_y
_atom_site_fract_z
Si Si1 0.607385 0.771540 0.180826
Si Si2 0.108622 0.904015 0.181219
Si Si3 0.717643 0.318609 0.819649
Si Si4 0.610266 0.227156 0.818643
Si Si5 0.384949 0.503046 0.326951
Si Si6 0.286465 0.320112 0.180328
Si Si7 0.898824 0.905307 0.679889
O O1 0.681508 0.806729 0.247878
O O2 0.498799 0.777874 0.228510
O O3 0.645904 0.722078 0.221901
O O4 0.610406 0.774197 0.000000
O O5 0.173014 0.864645 0.245042
O O6 0.002236 0.898984 0.245897
O O7 0.145781 0.953692 0.224489
O O8 0.104302 0.902841 0.000000
O O9 0.647723 0.277156 0.782690
O O10 0.670135 0.365071 0.772327
O O11 0.727892 0.319391 0.000000
O O12 0.682782 0.193321 0.740207
O O13 0.616030 0.221947 0.000000
O O14 0.500000 0.500000 0.326351
O O15 0.355540 0.510201 0.500000
O O16 0.360457 0.546178 0.229350
O O17 0.286575 0.324241 0.000000
O O18 0.909951 0.903612 0.500000
#
# Coordination Sequence:
#
# PCOD9440932 Si02
#       7
#     8   8   8   8   8   8   8
#     4   9  18  31  46  64  88 117 149 183 214 252
#     4  10  19  30  44  63  89 120 149 178 216 261
#     4   9  18  30  44  64  90 117 145 178 216 257
#     4   9  17  31  46  61  87 119 147 178 215 252
#     4   8  16  29  42  60  87 116 146 178 213 259
#     4  10  19  30  45  67  90 113 147 184 216 255
#     4  10  18  28  44  66  91 118 147 181 219 257
#
# _framework density 14.942195999999999
#
# number of rings (size 3 to 8) (size 9 to 14) (size 15 to 20)
#    0.000    2.714    0.000    3.000    0.000    7.714 
#    0.000    2.857    0.000    0.000    0.000    1.000 
#    0.000    8.000    0.000    0.000    0.000    0.000 
#
# Total GULP energy -312065.702456 kJ/mol
# GULP energy per Si atom -5572.601830 kJ/mol
# Density = 1.490819 g / cm^3
# Si number density = 14.942196 Si / 1000 Ang^3
#
#
#
# Elastic Constant Matrix: (Units=GPa)
#
#
# Indices 1 2 3 4 5 6 
#
# 1 110.5131 69.0165 34.6889 0.0000 0.0000 0.0000
# 2 69.0165 138.3561 44.9465 0.0000 0.0000 0.0000
# 3 34.6889 44.9465 35.4980 0.0000 0.0000 0.0000
# 4 0.0000 0.0000 0.0000 24.0152 0.0000 0.0000
# 5 0.0000 0.0000 0.0000 0.0000 22.8614 0.0000
# 6 0.0000 0.0000 0.0000 0.0000 0.0000 24.3478
#
#
#
# Elastic Compliance Matrix: (Units=1/GPa)
#
#
# Indices 1 2 3 4 5 6 
#
# 1 0.014517 -0.004473 -0.008523 0.000000 0.000000 0.000000
# 2 -0.004473 0.013656 -0.012920 0.000000 0.000000 0.000000
# 3 -0.008523 -0.012920 0.052858 0.000000 0.000000 0.000000
# 4 0.000000 0.000000 0.000000 0.041640 0.000000 0.000000
# 5 0.000000 0.000000 0.000000 0.000000 0.043742 0.000000
# 6 0.000000 0.000000 0.000000 0.000000 0.000000 0.041071
#
#
# Mechanical properties :
#
#
# Convention : Reuss Voigt Hill
#
# Bulk Modulus (GPa) = 34.24667 64.63011 49.43839
# Shear Modulus (GPa) = 18.58384 23.29257 20.93821
#
# Velocity S-wave (km/s) = 3.53046 3.95250 3.74743
# Velocity P-wave (km/s) = 6.29190 8.01106 7.20295
#
# Compressibility (1/GPa) = 0.02919992
#
# Stress axis : x y z
#
# Youngs Moduli (GPa) = 68.88303 73.22666 18.91848
#
# Poissons Ratio (x) = 0.32754 0.16124
# Poissons Ratio (y) = 0.30811 0.24443
# Poissons Ratio (z) = 0.58709 0.94610
#
# Static dielectric constant tensor:
#      x y z
#    x 1.469160 0.000000 0.000000 
#    y 0.000000 1.503010 0.000000 
#    z 0.000000 0.000000 1.501070 
# 
# From -- ./inp_files/7107.got.cif
#   From: 2010.05.17/outbox.cif.g08.bks.cpg/sg58_4_cif.got.tgz:7107.got - 2010.06.03 14:20:14.
