data_PCOD9440193
_publ_section_title
;
Structure prediction by ZEFSAII (Michael W. Deem and Ramdas Pophale) SiO2 
 PCOD9440193
Probable space group: P B C M
;
_chemical_formula_sum "Si O2"
_cell_formula_units_Z 36
_cell_length_a 13.436432
_cell_length_b 9.408628
_cell_length_c 14.795769
_cell_angle_alpha 90.000000
_cell_angle_beta 90.000000
_cell_angle_gamma 90.000000
_cell_volume 1870.457301
_symmetry_space_group_name_H-M "P B C M"
_symmetry_group_IT_number 57
_symmetry_cell_setting 'orthorhombic'
loop_
_space_group_symop_operation_xyz
x,y,z
-x,-y,1/2+z
x,1/2-y,-z
-x,1/2+y,1/2-z
-x,-y,-z
x,y,1/2-z
-x,1/2+y,z
x,1/2-y,1/2+z
loop_
_atom_site_type_symbol
_atom_site_label
_atom_site_fract_x
_atom_site_fract_y
_atom_site_fract_z
Si Si1 0.746878 0.750000 0.500000
Si Si2 0.383219 0.973783 0.489216
Si Si3 0.091739 0.703209 0.104001
Si Si4 0.317122 0.767628 0.853369
Si Si5 0.896498 0.874031 0.147437
O O1 0.677304 0.617957 0.474136
O O2 0.817862 0.800033 0.418580
O O3 0.343603 0.900010 0.581494
O O4 0.362378 0.866529 0.406609
O O5 0.500000 0.000000 0.500000
O O6 0.197567 0.745277 0.145917
O O7 0.081440 0.533670 0.113596
O O8 0.997606 0.783137 0.145403
O O9 0.095927 0.750000 0.000000
O O10 0.351629 0.781759 0.750000
O O11 0.858609 0.883590 0.250000
#
# Coordination Sequence:
#
# PCOD9440193 Si02
#       5
#     4   8   8   8   8
#     4  12  24  42  68  96 136 176 218 278 336 392
#     4  11  25  46  69  96 129 172 224 279 335 393
#     4  12  23  44  66  97 136 178 217 266 328 397
#     4  11  23  44  70  96 132 175 217 270 333 395
#     4  12  26  41  65 101 138 176 221 269 323 400
#
# _framework density 19.246631000000001
#
# number of rings (size 3 to 8) (size 9 to 14) (size 15 to 20)
#    0.000    0.444    5.556    4.000    3.111    1.778 
#    0.000    2.222    0.000    0.000    0.000    0.000 
#    0.000    0.000    0.000    0.000    0.000    0.000 
#
# Total GULP energy -201366.012299 kJ/mol
# GULP energy per Si atom -5593.500342 kJ/mol
# Density = 1.920282 g / cm^3
# Si number density = 19.246631 Si / 1000 Ang^3
#
#
#
# Elastic Constant Matrix: (Units=GPa)
#
#
# Indices 1 2 3 4 5 6 
#
# 1 136.1904 61.6231 19.7863 0.0000 0.0000 0.0000
# 2 61.6231 161.3180 59.2665 0.0000 0.0000 0.0000
# 3 19.7863 59.2665 158.4349 0.0000 0.0000 0.0000
# 4 0.0000 0.0000 0.0000 -1.3945 0.0000 0.0000
# 5 0.0000 0.0000 0.0000 0.0000 -109.8016 0.0000
# 6 0.0000 0.0000 0.0000 0.0000 0.0000 56.4933
#
#
#
# Elastic Compliance Matrix: (Units=1/GPa)
#
#
# Indices 1 2 3 4 5 6 
#
# 1 0.008882 -0.003461 0.000185 0.000000 0.000000 0.000000
# 2 -0.003461 0.008535 -0.002761 0.000000 0.000000 0.000000
# 3 0.000185 -0.002761 0.007321 0.000000 0.000000 0.000000
# 4 0.000000 0.000000 0.000000 -0.717119 0.000000 0.000000
# 5 0.000000 0.000000 0.000000 0.000000 -0.009107 0.000000
# 6 0.000000 0.000000 0.000000 0.000000 0.000000 0.017701
#
#
# Mechanical properties :
#
#
# Convention : Reuss Voigt Hill
#
# Bulk Modulus (GPa) = 78.95132 81.92169 80.43650
# Shear Modulus (GPa) = -7.49071 10.07726 1.29327
#
# Velocity S-wave (km/s) = -1.97495 2.29068 0.82061
# Velocity P-wave (km/s) = 5.99244 7.04648 6.54073
#
# Compressibility (1/GPa) = 0.01266603
#
# Stress axis : x y z
#
# Youngs Moduli (GPa) = 112.59095 117.16174 136.58875
#
# Poissons Ratio (x) = 0.40549 -0.02533
# Poissons Ratio (y) = 0.38967 0.37706
# Poissons Ratio (z) = -0.02088 0.32343
#
# Static dielectric constant tensor:
#      x y z
#    x 1.650850 0.000000 0.000000 
#    y 0.000000 1.659010 0.000000 
#    z 0.000000 0.000000 1.665820 
# 
# From -- ./inp_files/18151.got.cif
#   From: 2010.05.17/outbox.cif.g08.bks.cpg/sg57_10_cif.got.tgz:18151.got - 2010.06.03 13:58:18.
