data_PCOD9440972
_publ_section_title
;
Structure prediction by ZEFSAII (Michael W. Deem and Ramdas Pophale) SiO2 
 PCOD9440972
Probable space group: P N N M
;
_chemical_formula_sum "Si O2"
_cell_formula_units_Z 52
_cell_length_a 30.104601
_cell_length_b 5.530252
_cell_length_c 13.725646
_cell_angle_alpha 90.000000
_cell_angle_beta 90.000000
_cell_angle_gamma 90.000000
_cell_volume 2285.128310
_symmetry_space_group_name_H-M "P N N M"
_symmetry_group_IT_number 58
_symmetry_cell_setting 'orthorhombic'
loop_
_space_group_symop_operation_xyz
x,y,z
-x,-y,z
1/2+x,1/2-y,1/2-z
1/2-x,1/2+y,1/2-z
-x,-y,-z
x,y,-z
1/2-x,1/2+y,1/2+z
1/2+x,1/2-y,1/2+z
loop_
_atom_site_type_symbol
_atom_site_label
_atom_site_fract_x
_atom_site_fract_y
_atom_site_fract_z
Si Si1 0.365986 0.252438 0.666855
Si Si2 0.878462 0.243898 0.605038
Si Si3 0.760522 0.266135 0.195595
Si Si4 0.331359 0.755935 0.136477
Si Si5 0.471763 0.749894 0.000000
Si Si6 0.471949 0.749993 0.211614
Si Si7 0.885204 0.747620 0.163488
O O1 0.390285 0.255089 0.776762
O O2 0.312690 0.247281 0.676205
O O3 0.378841 0.497367 0.614039
O O4 0.379782 0.008497 0.614369
O O5 0.905626 0.243628 0.500000
O O6 0.851427 0.492754 0.600519
O O7 0.850915 0.996618 0.600258
O O8 0.750119 0.531246 0.238530
O O9 0.721111 0.240115 0.117808
O O10 0.347328 0.753456 0.250563
O O11 0.500000 0.500000 0.000000
O O12 0.448361 0.750032 0.104460
O O13 0.500000 0.000000 0.000000
O O14 0.500000 0.500000 0.217168
O O15 0.433644 0.750342 0.289455
O O16 0.500000 0.000000 0.217142
#
# Coordination Sequence:
#
# PCOD9440972 Si02
#       7
#     8   8   8   8   4   8   8
#     4  10  19  30  43  64  81 103 129 167 214 241
#     4  10  18  29  39  55  85 107 129 159 199 254
#     4  12  16  30  48  61  82 103 132 166 209 248
#     4  10  19  30  44  62  79 105 134 166 212 244
#     4   8  16  30  44  54  66  88 132 170 200 246
#     4  10  19  32  45  54  71  99 129 166 208 247
#     4  10  18  30  42  60  80  92 128 168 205 256
#
# _framework density 22.755832000000002
#
# number of rings (size 3 to 8) (size 9 to 14) (size 15 to 20)
#    0.000    1.846    6.154    1.385    0.000    0.000 
#   11.077    0.000    3.385    0.000    0.000    0.000 
#    0.000    0.000    0.000    0.000    0.000    0.000 
#
# Total GULP energy -289500.328469 kJ/mol
# GULP energy per Si atom -5567.314009 kJ/mol
# Density = 2.270404 g / cm^3
# Si number density = 22.755832 Si / 1000 Ang^3
#
#
#
# Elastic Constant Matrix: (Units=GPa)
#
#
# Indices 1 2 3 4 5 6 
#
# 1 111.9054 51.8321 10.6424 0.0000 0.0000 0.0000
# 2 51.8321 224.7020 15.6361 0.0000 0.0000 0.0000
# 3 10.6424 15.6361 67.4512 0.0000 0.0000 0.0000
# 4 0.0000 0.0000 0.0000 -2.3524 0.0000 0.0000
# 5 0.0000 0.0000 0.0000 0.0000 -0.1854 0.0000
# 6 0.0000 0.0000 0.0000 0.0000 0.0000 28.5791
#
#
#
# Elastic Compliance Matrix: (Units=1/GPa)
#
#
# Indices 1 2 3 4 5 6 
#
# 1 0.010080 -0.002251 -0.001069 0.000000 0.000000 0.000000
# 2 -0.002251 0.005026 -0.000810 0.000000 0.000000 0.000000
# 3 -0.001069 -0.000810 0.015182 0.000000 0.000000 0.000000
# 4 0.000000 0.000000 0.000000 -0.425104 0.000000 0.000000
# 5 0.000000 0.000000 0.000000 0.000000 -5.393997 0.000000
# 6 0.000000 0.000000 0.000000 0.000000 0.000000 0.034991
#
#
# Mechanical properties :
#
#
# Convention : Reuss Voigt Hill
#
# Bulk Modulus (GPa) = 45.39438 62.25330 53.82384
# Shear Modulus (GPa) = -0.87135 26.93815 13.03340
#
# Velocity S-wave (km/s) = -0.61947 3.44436 2.39582
# Velocity P-wave (km/s) = 4.41363 6.57530 5.59976
#
# Compressibility (1/GPa) = 0.02202916
#
# Stress axis : x y z
#
# Youngs Moduli (GPa) = 99.20341 198.96917 65.86791
#
# Poissons Ratio (x) = 0.44785 0.07039
# Poissons Ratio (y) = 0.22329 0.05335
# Poissons Ratio (z) = 0.10602 0.16115
#
# Static dielectric constant tensor:
#      x y z
#    x 1.859630 0.000000 0.000000 
#    y 0.000000 1.922590 0.000000 
#    z 0.000000 0.000000 1.919770 
# 
# From -- ./inp_files/30635.got.cif
#   From: 2010.05.17/outbox.cif.g08.bks.cpg/sg58_16_cif.got.tgz:30635.got - 2010.06.03 14:20:14.
