data_PCOD9440389
_publ_section_title
;
Structure prediction by ZEFSAII (Michael W. Deem and Ramdas Pophale) SiO2 
 PCOD9440389
Probable space group: P B C M
;
_chemical_formula_sum "Si O2"
_cell_formula_units_Z 40
_cell_length_a 9.000000
_cell_length_b 27.000000
_cell_length_c 9.000000
_cell_angle_alpha 90.000000
_cell_angle_beta 90.000000
_cell_angle_gamma 90.000000
_cell_volume 2187.000000
_symmetry_space_group_name_H-M "P B C M"
_symmetry_group_IT_number 57
_symmetry_cell_setting 'orthorhombic'
loop_
_space_group_symop_operation_xyz
x,y,z
-x,-y,1/2+z
x,1/2-y,-z
-x,1/2+y,1/2-z
-x,-y,-z
x,y,1/2-z
-x,1/2+y,z
x,1/2-y,1/2+z
loop_
_atom_site_type_symbol
_atom_site_label
_atom_site_fract_x
_atom_site_fract_y
_atom_site_fract_z
Si Si1 0.661438 0.504387 0.569570
Si Si2 0.182227 0.099102 0.070571
Si Si3 0.834924 0.799703 0.429389
Si Si4 0.167254 0.593565 0.071510
Si Si5 0.167787 0.701166 0.430011
O O1 0.500000 0.500000 0.500000
O O2 0.659075 0.506675 0.750000
O O3 0.735727 0.552812 0.500397
O O4 0.750920 0.455338 0.519363
O O5 0.197980 0.101581 0.250000
O O6 0.007042 0.092623 0.034121
O O7 0.234423 0.150054 0.993895
O O8 0.766070 0.750000 0.500000
O O9 0.838118 0.798202 0.250000
O O10 0.002812 0.800543 0.497365
O O11 0.174456 0.592492 0.250000
O O12 0.233194 0.647326 0.029395
O O13 0.241120 0.750000 0.500000
O O14 0.156079 0.705335 0.250000
#
# Coordination Sequence:
#
# PCOD9440389 Si02
#       5
#     8   8   8   8   8
#     4  11  22  37  53  73 100 135 173 214 260 311
#     4  10  19  34  54  78 103 132 168 212 257 303
#     4  10  17  27  45  73 105 136 165 202 247 297
#     4   8  17  32  52  75 103 133 167 207 253 302
#     4   9  15  26  44  71 102 132 162 201 248 297
#
# _framework density 18.289895000000001
#
# number of rings (size 3 to 8) (size 9 to 14) (size 15 to 20)
#    0.000    2.400    0.000    6.600    0.000    0.000 
#    0.000   11.000    0.000    1.200    0.000    5.600 
#    0.000    0.000    0.000    0.000    0.000    0.000 
#
# Total GULP energy -222802.371577 kJ/mol
# GULP energy per Si atom -5570.059289 kJ/mol
# Density = 1.824827 g / cm^3
# Si number density = 18.289895 Si / 1000 Ang^3
#
#
#
# Elastic Constant Matrix: (Units=GPa)
#
#
# Indices 1 2 3 4 5 6 
#
# 1 35.7773 63.3489 25.0787 0.0000 0.0000 0.0000
# 2 63.3489 240.5235 70.7213 0.0000 0.0000 0.0000
# 3 25.0787 70.7213 121.0323 0.0000 0.0000 0.0000
# 4 0.0000 0.0000 0.0000 31.7887 0.0000 0.0000
# 5 0.0000 0.0000 0.0000 0.0000 16.5973 0.0000
# 6 0.0000 0.0000 0.0000 0.0000 0.0000 -16.7665
#
#
#
# Elastic Compliance Matrix: (Units=1/GPa)
#
#
# Indices 1 2 3 4 5 6 
#
# 1 0.053541 -0.013088 -0.003446 0.000000 0.000000 0.000000
# 2 -0.013088 0.008220 -0.002091 0.000000 0.000000 0.000000
# 3 -0.003446 -0.002091 0.010198 0.000000 0.000000 0.000000
# 4 0.000000 0.000000 0.000000 0.031458 0.000000 0.000000
# 5 0.000000 0.000000 0.000000 0.000000 0.060251 0.000000
# 6 0.000000 0.000000 0.000000 0.000000 0.000000 -0.059643
#
#
# Mechanical properties :
#
#
# Convention : Reuss Voigt Hill
#
# Bulk Modulus (GPa) = 28.81192 79.51455 54.16324
# Shear Modulus (GPa) = 32.71288 22.20285 27.45787
#
# Velocity S-wave (km/s) = 4.23374 3.48795 3.87881
# Velocity P-wave (km/s) = 6.29973 7.73240 7.05254
#
# Compressibility (1/GPa) = 0.03470785
#
# Stress axis : x y z
#
# Youngs Moduli (GPa) = 18.67718 121.66083 98.05764
#
# Poissons Ratio (x) = 1.59234 0.33794
# Poissons Ratio (y) = 0.24445 0.20502
# Poissons Ratio (z) = 0.06437 0.25437
#
# Static dielectric constant tensor:
#      x y z
#    x 1.676050 0.000000 0.000000 
#    y 0.000000 1.754670 0.000000 
#    z 0.000000 0.000000 1.601730 
# 
# From -- ./inp_files/1706.got.cif
#   From: 2010.05.17/outbox.ucp.g08.bks.cvg/sg57_1_cif.got.tgz:1706.got - 2010.06.11 16:39:23.
