data_PCOD9440514
_publ_section_title
;
Structure prediction by ZEFSAII (Michael W. Deem and Ramdas Pophale) SiO2 
 PCOD9440514
Probable space group: P B C M
;
_chemical_formula_sum "Si O2"
_cell_formula_units_Z 64
_cell_length_a 15.000000
_cell_length_b 24.000000
_cell_length_c 9.000000
_cell_angle_alpha 90.000000
_cell_angle_beta 90.000000
_cell_angle_gamma 90.000000
_cell_volume 3240.000000
_symmetry_space_group_name_H-M "P B C M"
_symmetry_group_IT_number 57
_symmetry_cell_setting 'orthorhombic'
loop_
_space_group_symop_operation_xyz
x,y,z
-x,-y,1/2+z
x,1/2-y,-z
-x,1/2+y,1/2-z
-x,-y,-z
x,y,1/2-z
-x,1/2+y,z
x,1/2-y,1/2+z
loop_
_atom_site_type_symbol
_atom_site_label
_atom_site_fract_x
_atom_site_fract_y
_atom_site_fract_z
Si Si1 0.123823 0.897661 0.071564
Si Si2 0.563824 0.340587 0.923175
Si Si3 0.737964 0.304587 0.424855
Si Si4 0.027415 0.309955 0.070935
Si Si5 0.637567 0.808695 0.926904
Si Si6 0.788372 0.999765 0.428064
Si Si7 0.586601 0.473267 0.575878
Si Si8 0.206977 0.127836 0.572620
O O1 0.119975 0.904223 0.250000
O O2 0.208874 0.859619 0.030901
O O3 0.039885 0.859675 0.026341
O O4 0.142856 0.956804 0.998462
O O5 0.578953 0.325426 0.750000
O O6 0.464116 0.323734 0.964942
O O7 0.576496 0.406794 0.936609
O O8 0.637002 0.311592 0.023773
O O9 0.777837 0.250000 0.500000
O O10 0.744676 0.298403 0.250000
O O11 0.020885 0.304806 0.250000
O O12 0.126444 0.331042 0.032137
O O13 0.008302 0.250000 0.000000
O O14 0.644669 0.805035 0.750000
O O15 0.661498 0.750000 0.000000
O O16 0.704106 0.854674 0.988964
O O17 0.787924 0.008062 0.250000
O O18 0.685471 0.009651 0.480508
O O19 0.815072 0.936308 0.459832
O O20 0.500000 0.500000 0.500000
O O21 0.583892 0.488673 0.750000
O O22 0.221318 0.132199 0.750000
#
# Coordination Sequence:
#
# PCOD9440514 Si02
#       8
#     8   8   8   8   8   8   8   8
#     4  10  22  39  59  86 119 154 193 240 290 346
#     4  10  21  37  55  80 114 152 194 239 289 348
#     4  11  22  35  55  82 112 149 190 234 286 342
#     4  10  22  41  63  89 120 153 196 245 296 355
#     4  11  23  38  58  84 116 154 197 246 298 352
#     4  10  21  38  60  87 120 157 196 241 294 352
#     4  10  20  34  54  80 113 153 197 242 285 340
#     4  10  22  40  62  88 119 155 196 245 298 351
#
# _framework density 19.753086
#
# number of rings (size 3 to 8) (size 9 to 14) (size 15 to 20)
#    0.000    1.750    1.250    2.625    0.000    6.500 
#    0.000    0.000    0.000    0.000    0.000    0.000 
#    0.000    0.000    0.000    0.000    0.000    0.000 
#
# Total GULP energy -357505.006620 kJ/mol
# GULP energy per Si atom -5586.015728 kJ/mol
# Density = 1.970813 g / cm^3
# Si number density = 19.753086 Si / 1000 Ang^3
#
#
#
# Elastic Constant Matrix: (Units=GPa)
#
#
# Indices 1 2 3 4 5 6 
#
# 1 51.0982 9.9133 15.5730 0.0000 0.0000 0.0000
# 2 9.9133 68.0939 25.4780 0.0000 0.0000 0.0000
# 3 15.5730 25.4780 7.0466 0.0000 0.0000 0.0000
# 4 0.0000 0.0000 0.0000 28.0140 0.0000 0.0000
# 5 0.0000 0.0000 0.0000 0.0000 -11.3788 0.0000
# 6 0.0000 0.0000 0.0000 0.0000 0.0000 36.1498
#
#
#
# Elastic Compliance Matrix: (Units=1/GPa)
#
#
# Indices 1 2 3 4 5 6 
#
# 1 0.009410 -0.018171 0.044904 0.000000 0.000000 0.000000
# 2 -0.018171 -0.006534 0.063783 0.000000 0.000000 0.000000
# 3 0.044904 0.063783 -0.187942 0.000000 0.000000 0.000000
# 4 0.000000 0.000000 0.000000 0.035696 0.000000 0.000000
# 5 0.000000 0.000000 0.000000 0.000000 -0.087883 0.000000
# 6 0.000000 0.000000 0.000000 0.000000 0.000000 0.027663
#
#
# Mechanical properties :
#
#
# Convention : Reuss Voigt Hill
#
# Bulk Modulus (GPa) = -247.88873 25.35192 -111.26841
# Shear Modulus (GPa) = -12.75623 15.57529 1.40953
#
# Velocity S-wave (km/s) = -2.54399 2.81107 0.84565
# Velocity P-wave (km/s) = 11.59290 4.83719 7.44973
#
# Compressibility (1/GPa) = -0.00403407
#
# Stress axis : x y z
#
# Youngs Moduli (GPa) = 106.26671 -153.04579 -5.32079
#
# Poissons Ratio (x) = -2.78103 0.23892
# Poissons Ratio (y) = 1.93100 0.33938
# Poissons Ratio (z) = -4.77180 9.76172
#
# Static dielectric constant tensor:
#      x y z
#    x 1.691110 0.000000 0.000000 
#    y 0.000000 1.706950 0.000000 
#    z 0.000000 0.000000 1.668460 
# 
# From -- ./inp_files/5726.got.cif
#   From: 2010.05.17/outbox.ucp.g08.bks.cvg/sg57_3_cif.got.tgz:5726.got - 2010.06.11 16:39:23.
