data_PCOD9440794
_publ_section_title
;
Structure prediction by ZEFSAII (Michael W. Deem and Ramdas Pophale) SiO2 
 PCOD9440794
Probable space group: P N N M
;
_chemical_formula_sum "Si O2"
_cell_formula_units_Z 48
_cell_length_a 8.496401
_cell_length_b 7.285997
_cell_length_c 30.027906
_cell_angle_alpha 90.000000
_cell_angle_beta 90.000000
_cell_angle_gamma 90.000000
_cell_volume 1858.870080
_symmetry_space_group_name_H-M "P N N M"
_symmetry_group_IT_number 58
_symmetry_cell_setting 'orthorhombic'
loop_
_space_group_symop_operation_xyz
x,y,z
-x,-y,z
1/2+x,1/2-y,1/2-z
1/2-x,1/2+y,1/2-z
-x,-y,-z
x,y,-z
1/2-x,1/2+y,1/2+z
1/2+x,1/2-y,1/2+z
loop_
_atom_site_type_symbol
_atom_site_label
_atom_site_fract_x
_atom_site_fract_y
_atom_site_fract_z
Si Si1 0.511156 0.223534 0.079713
Si Si2 0.847935 0.196439 0.051894
Si Si3 0.158279 0.712504 0.760475
Si Si4 0.616118 0.334701 0.311142
Si Si5 0.172469 0.218280 0.911109
Si Si6 0.456881 0.780972 0.817691
O O1 0.673356 0.280559 0.056470
O O2 0.335182 0.289766 0.067299
O O3 0.534216 0.273376 0.131363
O O4 0.500000 0.000000 0.075552
O O5 0.001840 0.289924 0.073610
O O6 0.833580 0.997843 0.075792
O O7 0.881990 0.171287 0.000000
O O8 0.272707 0.591519 0.728591
O O9 0.281629 0.750629 0.799786
O O10 0.993257 0.686209 0.786377
O O11 0.081158 0.812222 0.716234
O O12 0.500000 0.500000 0.323011
O O13 0.687022 0.269822 0.357521
O O14 0.500000 0.000000 0.816510
#
# Coordination Sequence:
#
# PCOD9440794 Si02
#       6
#     8   8   8   8   8   8
#     4   9  18  28  44  60  84 126 153 198 236 273
#     4  10  19  28  42  68  88 117 173 201 224 291
#     4  10  21  27  46  70  82 118 172 208 240 285
#     4  11  19  33  47  65  94 125 167 214 243 280
#     4  10  17  29  46  60  84 130 153 198 237 278
#     4  10  18  32  44  63  92 119 163 210 234 277
#
# _framework density 25.822140000000001
#
# number of rings (size 3 to 8) (size 9 to 14) (size 15 to 20)
#    0.000    2.000    3.333    3.000    2.333    3.667 
#    0.000    0.000    0.000    0.000    0.000    0.000 
#    0.000    0.000    0.000    0.000    0.000  618.333 
#
# Total GULP energy -267244.083919 kJ/mol
# GULP energy per Si atom -5567.585082 kJ/mol
# Density = 2.576337 g / cm^3
# Si number density = 25.822140 Si / 1000 Ang^3
#
#
#
# Elastic Constant Matrix: (Units=GPa)
#
#
# Indices 1 2 3 4 5 6 
#
# 1 164.7114 4.8615 34.9477 0.0000 0.0000 0.0000
# 2 4.8615 66.3053 7.6344 0.0000 0.0000 0.0000
# 3 34.9477 7.6344 126.3052 0.0000 0.0000 0.0000
# 4 0.0000 0.0000 0.0000 3.9053 0.0000 0.0000
# 5 0.0000 0.0000 0.0000 0.0000 29.1986 0.0000
# 6 0.0000 0.0000 0.0000 0.0000 0.0000 0.1773
#
#
#
# Elastic Compliance Matrix: (Units=1/GPa)
#
#
# Indices 1 2 3 4 5 6 
#
# 1 0.006455 -0.000269 -0.001770 0.000000 0.000000 0.000000
# 2 -0.000269 0.015199 -0.000844 0.000000 0.000000 0.000000
# 3 -0.001770 -0.000844 0.008458 0.000000 0.000000 0.000000
# 4 0.000000 0.000000 0.000000 0.256065 0.000000 0.000000
# 5 0.000000 0.000000 0.000000 0.000000 0.034248 0.000000
# 6 0.000000 0.000000 0.000000 0.000000 0.000000 5.641624
#
#
# Mechanical properties :
#
#
# Convention : Reuss Voigt Hill
#
# Bulk Modulus (GPa) = 41.07648 50.24546 45.66097
# Shear Modulus (GPa) = 0.83669 27.31477 14.07573
#
# Velocity S-wave (km/s) = 0.56985 3.25592 2.33728
# Velocity P-wave (km/s) = 4.04660 5.79959 5.00051
#
# Compressibility (1/GPa) = 0.02434483
#
# Stress axis : x y z
#
# Youngs Moduli (GPa) = 154.92684 65.79511 118.23116
#
# Poissons Ratio (x) = 0.01773 0.20923
# Poissons Ratio (y) = 0.04175 0.09980
# Poissons Ratio (z) = 0.27417 0.05554
#
# Static dielectric constant tensor:
#      x y z
#    x 2.253410 0.000000 0.000000 
#    y 0.000000 2.243340 0.000000 
#    z 0.000000 0.000000 1.901690 
# 
# From -- ./inp_files/31532.got.cif
#   From: 2010.05.17/outbox.cif.g08.bks.cpg/sg58_16_cif.got.tgz:31532.got - 2010.06.03 14:20:14.
