data_PCOD9440032
_publ_section_title
;
Structure prediction by ZEFSAII (Michael W. Deem and Ramdas Pophale) SiO2 
 PCOD9440032
Probable space group: P B C M
;
_chemical_formula_sum "Si O2"
_cell_formula_units_Z 52
_cell_length_a 5.661514
_cell_length_b 17.114739
_cell_length_c 25.621838
_cell_angle_alpha 90.000000
_cell_angle_beta 90.000000
_cell_angle_gamma 90.000000
_cell_volume 2482.636562
_symmetry_space_group_name_H-M "P B C M"
_symmetry_group_IT_number 57
_symmetry_cell_setting 'orthorhombic'
loop_
_space_group_symop_operation_xyz
x,y,z
-x,-y,1/2+z
x,1/2-y,-z
-x,1/2+y,1/2-z
-x,-y,-z
x,y,1/2-z
-x,1/2+y,z
x,1/2-y,1/2+z
loop_
_atom_site_type_symbol
_atom_site_label
_atom_site_fract_x
_atom_site_fract_y
_atom_site_fract_z
Si Si1 0.918051 0.444970 0.417301
Si Si2 0.264679 0.418765 0.848139
Si Si3 0.226908 0.861377 0.689952
Si Si4 0.584308 0.815161 0.933570
Si Si5 0.205660 0.777171 0.395519
Si Si6 0.292569 0.545065 0.029352
Si Si7 0.083537 0.250000 0.500000
O O1 0.753413 0.506882 0.386595
O O2 0.886661 0.364631 0.385505
O O3 0.854811 0.429040 0.478266
O O4 0.161882 0.491302 0.427970
O O5 0.523268 0.407504 0.821265
O O6 0.258659 0.344615 0.886569
O O7 0.016164 0.411715 0.817167
O O8 0.236905 0.835571 0.750000
O O9 0.207368 0.785379 0.651697
O O10 0.473147 0.732399 0.917877
O O11 0.378400 0.877959 0.941180
O O12 0.733975 0.818546 0.986024
O O13 0.058661 0.757187 0.447546
O O14 0.500000 0.500000 0.000000
#
# Coordination Sequence:
#
# PCOD9440032 Si02
#       7
#     8   8   8   8   8   8   4
#     4  11  23  37  59  98 140 181 231 278 345 405
#     4  11  23  44  70  96 128 174 231 284 336 411
#     4  11  25  50  74  96 125 177 237 292 354 416
#     4  11  22  38  59  92 138 185 225 263 333 418
#     4  11  24  39  63  98 139 174 224 286 342 414
#     4  11  21  35  58  93 148 194 221 268 324 421
#     4  12  20  36  60  98 140 176 224 268 336 418
#
# _framework density 20.945473
#
# number of rings (size 3 to 8) (size 9 to 14) (size 15 to 20)
#    0.000    0.923    3.077    5.538    2.154    0.000 
#    0.000    1.538    0.000    0.000    0.000    0.000 
#    0.000    0.000    0.000    0.000    0.000    0.000 
#
# Total GULP energy -289508.231269 kJ/mol
# GULP energy per Si atom -5567.465986 kJ/mol
# Density = 2.089780 g / cm^3
# Si number density = 20.945473 Si / 1000 Ang^3
#
#
#
# Elastic Constant Matrix: (Units=GPa)
#
#
# Indices 1 2 3 4 5 6 
#
# 1 111.2971 51.2014 47.6904 0.0000 0.0000 0.0000
# 2 51.2014 80.4696 26.5813 0.0000 0.0000 0.0000
# 3 47.6904 26.5813 120.4352 0.0000 0.0000 0.0000
# 4 0.0000 0.0000 0.0000 21.1940 0.0000 0.0000
# 5 0.0000 0.0000 0.0000 0.0000 27.3627 0.0000
# 6 0.0000 0.0000 0.0000 0.0000 0.0000 27.4807
#
#
#
# Elastic Compliance Matrix: (Units=1/GPa)
#
#
# Indices 1 2 3 4 5 6 
#
# 1 0.014238 -0.007763 -0.003925 0.000000 0.000000 0.000000
# 2 -0.007763 0.017637 -0.000819 0.000000 0.000000 0.000000
# 3 -0.003925 -0.000819 0.010038 0.000000 0.000000 0.000000
# 4 0.000000 0.000000 0.000000 0.047183 0.000000 0.000000
# 5 0.000000 0.000000 0.000000 0.000000 0.036546 0.000000
# 6 0.000000 0.000000 0.000000 0.000000 0.000000 0.036389
#
#
# Mechanical properties :
#
#
# Convention : Reuss Voigt Hill
#
# Bulk Modulus (GPa) = 59.17020 62.57200 60.87110
# Shear Modulus (GPa) = 25.95013 27.65605 26.80309
#
# Velocity S-wave (km/s) = 3.52367 3.63765 3.58111
# Velocity P-wave (km/s) = 6.69821 6.89797 6.79882
#
# Compressibility (1/GPa) = 0.01690040
#
# Stress axis : x y z
#
# Youngs Moduli (GPa) = 70.23489 56.69933 99.62146
#
# Poissons Ratio (x) = 0.44015 0.39098
# Poissons Ratio (y) = 0.54523 0.08155
# Poissons Ratio (z) = 0.27565 0.04642
#
# Static dielectric constant tensor:
#      x y z
#    x 1.920300 0.000000 0.000000 
#    y 0.000000 1.800850 0.000000 
#    z 0.000000 0.000000 1.752990 
# 
# From -- ./inp_files/28040.got.cif
#   From: 2010.05.17/outbox.cif.g08.bks.cpg/sg57_15_cif.got.tgz:28040.got - 2010.06.03 13:58:18.
