data_PCOD9440628
_publ_section_title
;
Structure prediction by ZEFSAII (Michael W. Deem and Ramdas Pophale) SiO2 
 PCOD9440628
Probable space group: P B C M
;
_chemical_formula_sum "Si O2"
_cell_formula_units_Z 44
_cell_length_a 9.000000
_cell_length_b 18.000000
_cell_length_c 15.000000
_cell_angle_alpha 90.000000
_cell_angle_beta 90.000000
_cell_angle_gamma 90.000000
_cell_volume 2430.000000
_symmetry_space_group_name_H-M "P B C M"
_symmetry_group_IT_number 57
_symmetry_cell_setting 'orthorhombic'
loop_
_space_group_symop_operation_xyz
x,y,z
-x,-y,1/2+z
x,1/2-y,-z
-x,1/2+y,1/2-z
-x,-y,-z
x,y,1/2-z
-x,1/2+y,z
x,1/2-y,1/2+z
loop_
_atom_site_type_symbol
_atom_site_label
_atom_site_fract_x
_atom_site_fract_y
_atom_site_fract_z
Si Si1 0.627954 0.706894 0.147879
Si Si2 0.456672 0.547526 0.351940
Si Si3 0.214855 0.890582 0.526890
Si Si4 0.574959 0.250000 0.000000
Si Si5 0.071560 0.367700 0.646541
Si Si6 0.236338 0.973085 0.351795
O O1 0.627806 0.732203 0.250000
O O2 0.541172 0.627474 0.145364
O O3 0.535087 0.759374 0.083656
O O4 0.797474 0.689695 0.120655
O O5 0.405221 0.536927 0.250000
O O6 0.317996 0.550947 0.418327
O O7 0.588630 0.489264 0.370358
O O8 0.319399 0.819768 0.513502
O O9 0.175393 0.922143 0.430097
O O10 0.071066 0.869403 0.584118
O O11 0.030413 0.353090 0.750000
O O12 0.150011 0.448541 0.644560
O O13 0.223334 0.945031 0.250000
#
# Coordination Sequence:
#
# PCOD9440628 Si02
#       6
#     8   8   8   4   8   8
#     4   8  16  33  51  66  92 129 165 202 242 290
#     4   8  15  29  49  71  94 123 164 206 244 290
#     4  11  19  30  49  77 103 130 166 211 249 289
#     4  10  22  32  48  74 100 134 172 200 240 300
#     4   9  18  33  54  74  92 124 169 213 256 298
#     4   9  18  32  49  72 102 132 159 198 258 311
#
# _framework density 18.106995999999999
#
# number of rings (size 3 to 8) (size 9 to 14) (size 15 to 20)
#    0.000    2.909    0.000    3.818    0.000    2.182 
#    0.000    0.000    0.000    1.091    0.000    0.000 
#    0.000    0.000    0.000    0.000    0.000    0.000 
#
# Total GULP energy -245137.882987 kJ/mol
# GULP energy per Si atom -5571.315522 kJ/mol
# Density = 1.806578 g / cm^3
# Si number density = 18.106996 Si / 1000 Ang^3
#
#
#
# Elastic Constant Matrix: (Units=GPa)
#
#
# Indices 1 2 3 4 5 6 
#
# 1 116.9264 18.3270 78.4047 0.0000 0.0000 0.0000
# 2 18.3270 15.3584 21.8687 0.0000 0.0000 0.0000
# 3 78.4047 21.8687 102.3726 0.0000 0.0000 0.0000
# 4 0.0000 0.0000 0.0000 16.9383 0.0000 0.0000
# 5 0.0000 0.0000 0.0000 0.0000 34.8098 0.0000
# 6 0.0000 0.0000 0.0000 0.0000 0.0000 6.5937
#
#
#
# Elastic Compliance Matrix: (Units=1/GPa)
#
#
# Indices 1 2 3 4 5 6 
#
# 1 0.017654 -0.002607 -0.012964 0.000000 0.000000 0.000000
# 2 -0.002607 0.093958 -0.018074 0.000000 0.000000 0.000000
# 3 -0.012964 -0.018074 0.023558 0.000000 0.000000 0.000000
# 4 0.000000 0.000000 0.000000 0.059038 0.000000 0.000000
# 5 0.000000 0.000000 0.000000 0.000000 0.028728 0.000000
# 6 0.000000 0.000000 0.000000 0.000000 0.000000 0.151661
#
#
# Mechanical properties :
#
#
# Convention : Reuss Voigt Hill
#
# Bulk Modulus (GPa) = 14.73206 52.42869 33.58037
# Shear Modulus (GPa) = 10.76396 19.40548 15.08472
#
# Velocity S-wave (km/s) = 2.44081 3.27725 2.88946
# Velocity P-wave (km/s) = 4.01213 6.58318 5.45140
#
# Compressibility (1/GPa) = 0.06787918
#
# Stress axis : x y z
#
# Youngs Moduli (GPa) = 56.64500 10.64304 42.44869
#
# Poissons Ratio (x) = 0.02775 0.55029
# Poissons Ratio (y) = 0.14769 0.76724
# Poissons Ratio (z) = 0.73433 0.19237
#
# Static dielectric constant tensor:
#      x y z
#    x 1.608140 0.000000 0.000000 
#    y 0.000000 1.623990 0.000000 
#    z 0.000000 0.000000 1.644030 
# 
# From -- ./inp_files/11905.got.cif
#   From: 2010.05.17/outbox.ucp.g08.bks.cvg/sg57_6_cif.got.tgz:11905.got - 2010.06.11 16:39:23.
