data_PCOD9440288
_publ_section_title
;
Structure prediction by ZEFSAII (Michael W. Deem and Ramdas Pophale) SiO2 
 PCOD9440288
Probable space group: P B C M
;
_chemical_formula_sum "Si O2"
_cell_formula_units_Z 40
_cell_length_a 21.458424
_cell_length_b 9.454988
_cell_length_c 9.489002
_cell_angle_alpha 90.000000
_cell_angle_beta 90.000000
_cell_angle_gamma 90.000000
_cell_volume 1925.215469
_symmetry_space_group_name_H-M "P B C M"
_symmetry_group_IT_number 57
_symmetry_cell_setting 'orthorhombic'
loop_
_space_group_symop_operation_xyz
x,y,z
-x,-y,1/2+z
x,1/2-y,-z
-x,1/2+y,1/2-z
-x,-y,-z
x,y,1/2-z
-x,1/2+y,z
x,1/2-y,1/2+z
loop_
_atom_site_type_symbol
_atom_site_label
_atom_site_fract_x
_atom_site_fract_y
_atom_site_fract_z
Si Si1 0.386525 0.250000 0.000000
Si Si2 0.579457 0.182531 0.250000
Si Si3 0.331727 0.750000 0.500000
Si Si4 0.951985 0.101596 0.418082
Si Si5 0.277928 0.040621 0.409788
Si Si6 0.842390 0.616779 0.585519
Si Si7 0.532024 0.619879 0.750000
O O1 0.340406 0.368740 0.936395
O O2 0.430519 0.178901 0.883996
O O3 0.623877 0.180204 0.384054
O O4 0.537737 0.322277 0.250000
O O5 0.534293 0.048697 0.250000
O O6 0.292339 0.624539 0.568469
O O7 0.950322 0.250000 0.500000
O O8 0.966790 0.117776 0.250000
O O9 0.886030 0.020024 0.427850
O O10 0.000000 0.000000 0.500000
O O11 0.256709 0.066002 0.250000
O O12 0.225024 0.086524 0.519106
O O13 0.869806 0.750000 0.500000
O O14 0.837547 0.651989 0.750000
#
# Coordination Sequence:
#
# PCOD9440288 Si02
#       7
#     4   4   4   8   8   8   4
#     4  12  25  44  68  98 127 174 218 278 338 410
#     4  12  28  46  68  98 128 174 217 282 339 418
#     4  12  27  46  68  96 133 170 226 278 348 410
#     4  11  25  46  73 107 147 195 243 295 351 409
#     4  12  26  44  70  99 133 180 227 281 345 410
#     4  11  26  44  70 106 144 185 235 286 343 409
#     4  12  28  44  70  94 134 166 223 276 341 414
#
# _framework density 20.776895
#
# number of rings (size 3 to 8) (size 9 to 14) (size 15 to 20)
#    0.000    0.400    5.000    2.400    7.000    6.400 
#    0.000    0.000    0.000    0.000    0.000    0.000 
#    0.000    0.000    0.000    0.000    0.000    0.000 
#
# Total GULP energy -223933.500003 kJ/mol
# GULP energy per Si atom -5598.337500 kJ/mol
# Density = 2.072961 g / cm^3
# Si number density = 20.776895 Si / 1000 Ang^3
#
#
#
# Elastic Constant Matrix: (Units=GPa)
#
#
# Indices 1 2 3 4 5 6 
#
# 1 48.9857 3.8870 27.6475 0.0000 0.0000 0.0000
# 2 3.8870 124.2891 36.5916 0.0000 0.0000 0.0000
# 3 27.6475 36.5916 154.4790 0.0000 0.0000 0.0000
# 4 0.0000 0.0000 0.0000 32.0760 0.0000 0.0000
# 5 0.0000 0.0000 0.0000 0.0000 30.3185 0.0000
# 6 0.0000 0.0000 0.0000 0.0000 0.0000 37.3400
#
#
#
# Elastic Compliance Matrix: (Units=1/GPa)
#
#
# Indices 1 2 3 4 5 6 
#
# 1 0.022740 0.000524 -0.004194 0.000000 0.000000 0.000000
# 2 0.000524 0.008661 -0.002145 0.000000 0.000000 0.000000
# 3 -0.004194 -0.002145 0.007732 0.000000 0.000000 0.000000
# 4 0.000000 0.000000 0.000000 0.031176 0.000000 0.000000
# 5 0.000000 0.000000 0.000000 0.000000 0.032983 0.000000
# 6 0.000000 0.000000 0.000000 0.000000 0.000000 0.026781
#
#
# Mechanical properties :
#
#
# Convention : Reuss Voigt Hill
#
# Bulk Modulus (GPa) = 36.36148 51.55622 43.95885
# Shear Modulus (GPa) = 33.14096 37.25543 35.19820
#
# Velocity S-wave (km/s) = 3.99819 4.23912 4.12041
# Velocity P-wave (km/s) = 6.23321 6.98772 6.62122
#
# Compressibility (1/GPa) = 0.02750163
#
# Stress axis : x y z
#
# Youngs Moduli (GPa) = 43.97630 115.46072 129.33135
#
# Poissons Ratio (x) = -0.06045 0.54238
# Poissons Ratio (y) = -0.02302 0.27744
# Poissons Ratio (z) = 0.18443 0.24769
#
# Static dielectric constant tensor:
#      x y z
#    x 1.705990 0.000000 0.000000 
#    y 0.000000 1.737640 0.000000 
#    z 0.000000 0.000000 1.707600 
# 
# From -- ./inp_files/9028.got.cif
#   From: 2010.05.17/outbox.cif.g08.bks.cpg/sg57_5_cif.got.tgz:9028.got - 2010.06.03 13:58:18.
