data_PCOD9440960
_publ_section_title
;
Structure prediction by ZEFSAII (Michael W. Deem and Ramdas Pophale) SiO2 
 PCOD9440960
Probable space group: P N N M
;
_chemical_formula_sum "Si O2"
_cell_formula_units_Z 56
_cell_length_a 25.888271
_cell_length_b 14.933371
_cell_length_c 7.460223
_cell_angle_alpha 90.000000
_cell_angle_beta 90.000000
_cell_angle_gamma 90.000000
_cell_volume 2884.115911
_symmetry_space_group_name_H-M "P N N M"
_symmetry_group_IT_number 58
_symmetry_cell_setting 'orthorhombic'
loop_
_space_group_symop_operation_xyz
x,y,z
-x,-y,z
1/2+x,1/2-y,1/2-z
1/2-x,1/2+y,1/2-z
-x,-y,-z
x,y,-z
1/2-x,1/2+y,1/2+z
1/2+x,1/2-y,1/2+z
loop_
_atom_site_type_symbol
_atom_site_label
_atom_site_fract_x
_atom_site_fract_y
_atom_site_fract_z
Si Si1 0.788245 0.762345 0.212779
Si Si2 0.185081 0.842061 0.713451
Si Si3 0.782590 0.965434 0.784699
Si Si4 0.889576 0.647535 0.715603
Si Si5 0.106736 0.699441 0.281977
Si Si6 0.498572 0.105542 0.219300
Si Si7 0.832227 0.473841 0.717700
O O1 0.738868 0.704338 0.282736
O O2 0.792242 0.864526 0.282263
O O3 0.843355 0.714468 0.237495
O O4 0.779518 0.769196 0.000000
O O5 0.186276 0.828700 0.500000
O O6 0.133820 0.790762 0.779913
O O7 0.183199 0.948346 0.742830
O O8 0.725337 0.991361 0.719812
O O9 0.781658 0.959924 0.000000
O O10 0.891364 0.646688 0.500000
O O11 0.948694 0.655426 0.775574
O O12 0.870619 0.550296 0.779060
O O13 0.103013 0.702774 0.500000
O O14 0.148210 0.623367 0.233006
O O15 0.051634 0.661076 0.220361
O O16 0.500000 0.000000 0.273071
O O17 0.496865 0.103286 0.000000
O O18 0.832036 0.476654 0.500000
#
# Coordination Sequence:
#
# PCOD9440960 Si02
#       7
#     8   8   8   8   8   8   8
#     4  10  20  32  47  68  96 130 159 186 233 288
#     4  10  19  30  47  71  96 123 155 193 236 277
#     4  10  19  32  48  67  95 130 161 188 227 281
#     4  10  18  28  47  74  99 123 156 195 231 273
#     4   9  15  26  44  69 101 126 149 187 236 285
#     4   9  15  24  44  75 100 120 152 193 236 282
#     4   9  14  23  43  70  97 122 148 184 227 274
#
# _framework density 19.416696999999999
#
# number of rings (size 3 to 8) (size 9 to 14) (size 15 to 20)
#    0.000    2.429    4.286    0.000    0.000    0.571 
#    0.000    0.000    0.000    3.000    0.000    6.000 
#    0.000    0.000    0.000    0.000    0.000    0.000 
#
# Total GULP energy -312091.260449 kJ/mol
# GULP energy per Si atom -5573.058222 kJ/mol
# Density = 1.937250 g / cm^3
# Si number density = 19.416697 Si / 1000 Ang^3
#
#
#
# Elastic Constant Matrix: (Units=GPa)
#
#
# Indices 1 2 3 4 5 6 
#
# 1 66.7419 16.9379 -0.2448 0.0000 0.0000 0.0000
# 2 16.9379 78.3623 -1.1179 0.0000 0.0000 0.0000
# 3 -0.2448 -1.1179 55.5077 0.0000 0.0000 0.0000
# 4 0.0000 0.0000 0.0000 13.7755 0.0000 0.0000
# 5 0.0000 0.0000 0.0000 0.0000 10.2360 0.0000
# 6 0.0000 0.0000 0.0000 0.0000 0.0000 27.7770
#
#
#
# Elastic Compliance Matrix: (Units=1/GPa)
#
#
# Indices 1 2 3 4 5 6 
#
# 1 0.015853 -0.003427 0.000001 0.000000 0.000000 0.000000
# 2 -0.003427 0.013506 0.000257 0.000000 0.000000 0.000000
# 3 0.000001 0.000257 0.018021 0.000000 0.000000 0.000000
# 4 0.000000 0.000000 0.000000 0.072593 0.000000 0.000000
# 5 0.000000 0.000000 0.000000 0.000000 0.097694 0.000000
# 6 0.000000 0.000000 0.000000 0.000000 0.000000 0.036001
#
#
# Mechanical properties :
#
#
# Convention : Reuss Voigt Hill
#
# Bulk Modulus (GPa) = 24.36559 25.75135 25.05847
# Shear Modulus (GPa) = 18.26921 22.69350 20.48136
#
# Velocity S-wave (km/s) = 3.07074 3.42243 3.25134
# Velocity P-wave (km/s) = 5.01484 5.37667 5.19890
#
# Compressibility (1/GPa) = 0.04104149
#
# Stress axis : x y z
#
# Youngs Moduli (GPa) = 63.08084 74.04364 55.49170
#
# Poissons Ratio (x) = 0.25371 -0.00005
# Poissons Ratio (y) = 0.21615 -0.01426
# Poissons Ratio (z) = -0.00006 -0.01902
#
# Static dielectric constant tensor:
#      x y z
#    x 1.688210 0.000000 0.000000 
#    y 0.000000 1.684380 0.000000 
#    z 0.000000 0.000000 1.769400 
# 
# From -- ./inp_files/14748.got.cif
#   From: 2010.05.17/outbox.cif.g08.bks.cpg/sg58_8_cif.got.tgz:14748.got - 2010.06.03 14:20:14.
