data_PCOD9440348
_publ_section_title
;
Structure prediction by ZEFSAII (Michael W. Deem and Ramdas Pophale) SiO2 
 PCOD9440348
Probable space group: P B C M
;
_chemical_formula_sum "Si O2"
_cell_formula_units_Z 28
_cell_length_a 11.333497
_cell_length_b 5.308258
_cell_length_c 17.699582
_cell_angle_alpha 90.000000
_cell_angle_beta 90.000000
_cell_angle_gamma 90.000000
_cell_volume 1064.826785
_symmetry_space_group_name_H-M "P B C M"
_symmetry_group_IT_number 57
_symmetry_cell_setting 'orthorhombic'
loop_
_space_group_symop_operation_xyz
x,y,z
-x,-y,1/2+z
x,1/2-y,-z
-x,1/2+y,1/2-z
-x,-y,-z
x,y,1/2-z
-x,1/2+y,z
x,1/2-y,1/2+z
loop_
_atom_site_type_symbol
_atom_site_label
_atom_site_fract_x
_atom_site_fract_y
_atom_site_fract_z
Si Si1 0.268884 0.065383 0.750000
Si Si2 0.577167 0.491604 0.900257
Si Si3 0.035442 0.176201 0.903267
Si Si4 0.107587 0.571935 0.750000
Si Si5 0.247538 0.250000 0.500000
O O1 0.348980 0.041466 0.676064
O O2 0.189566 0.321647 0.750000
O O3 0.187432 0.818344 0.750000
O O4 0.517904 0.218738 0.900965
O O5 0.665135 0.535684 0.970202
O O6 0.949870 0.392682 0.934311
O O7 0.976505 0.090268 0.823475
O O8 0.160901 0.297466 0.928343
#
# Coordination Sequence:
#
# PCOD9440348 Si02
#       5
#     4   8   8   4   4
#     4  12  26  48  78 104 138 183 232 293 354 402
#     4  12  27  50  74 102 136 182 241 296 344 402
#     4  12  26  44  69 104 146 186 228 276 341 424
#     4  12  24  46  72 108 144 181 224 281 348 426
#     4  12  28  46  72 104 144 190 228 282 348 410
#
# _framework density 26.295356999999999
#
# number of rings (size 3 to 8) (size 9 to 14) (size 15 to 20)
#    0.000    0.000    0.000   10.286    0.000    5.714 
#    0.000    0.000    0.000    0.000    0.000    0.000 
#    0.000    0.000    0.000    0.000    0.000    0.000 
#
# Total GULP energy -156482.946017 kJ/mol
# GULP energy per Si atom -5588.676643 kJ/mol
# Density = 2.623551 g / cm^3
# Si number density = 26.295357 Si / 1000 Ang^3
#
#
#
# Elastic Constant Matrix: (Units=GPa)
#
#
# Indices 1 2 3 4 5 6 
#
# 1 149.5144 67.7730 91.3662 0.0000 0.0000 0.0000
# 2 67.7730 188.1552 55.9248 0.0000 0.0000 0.0000
# 3 91.3662 55.9248 195.4964 0.0000 0.0000 0.0000
# 4 0.0000 0.0000 0.0000 41.8388 0.0000 0.0000
# 5 0.0000 0.0000 0.0000 0.0000 99.7236 0.0000
# 6 0.0000 0.0000 0.0000 0.0000 0.0000 32.0956
#
#
#
# Elastic Compliance Matrix: (Units=1/GPa)
#
#
# Indices 1 2 3 4 5 6 
#
# 1 0.010337 -0.002500 -0.004116 0.000000 0.000000 0.000000
# 2 -0.002500 0.006413 -0.000666 0.000000 0.000000 0.000000
# 3 -0.004116 -0.000666 0.007229 0.000000 0.000000 0.000000
# 4 0.000000 0.000000 0.000000 0.023901 0.000000 0.000000
# 5 0.000000 0.000000 0.000000 0.000000 0.010028 0.000000
# 6 0.000000 0.000000 0.000000 0.000000 0.000000 0.031157
#
#
# Mechanical properties :
#
#
# Convention : Reuss Voigt Hill
#
# Bulk Modulus (GPa) = 106.20978 107.03268 106.62123
# Shear Modulus (GPa) = 46.83092 55.93841 51.38467
#
# Velocity S-wave (km/s) = 4.22472 4.61728 4.42536
# Velocity P-wave (km/s) = 8.01726 8.31974 8.16990
#
# Compressibility (1/GPa) = 0.00941533
#
# Stress axis : x y z
#
# Youngs Moduli (GPa) = 96.74428 155.92712 138.32658
#
# Poissons Ratio (x) = 0.38980 0.56931
# Poissons Ratio (y) = 0.24185 0.09216
# Poissons Ratio (z) = 0.39817 0.10389
#
# Static dielectric constant tensor:
#      x y z
#    x 2.047500 0.000000 0.000000 
#    y 0.000000 2.224290 0.000000 
#    z 0.000000 0.000000 2.369400 
# 
# From -- ./inp_files/24776.got.cif
#   From: 2010.05.17/outbox.cif.g08.bks.cpg/sg57_13_cif.got.tgz:24776.got - 2010.06.03 13:58:18.
