data_PCOD9440385
_publ_section_title
;
Structure prediction by ZEFSAII (Michael W. Deem and Ramdas Pophale) SiO2 
 PCOD9440385
Probable space group: P B C M
;
_chemical_formula_sum "Si O2"
_cell_formula_units_Z 64
_cell_length_a 25.094179
_cell_length_b 7.273789
_cell_length_c 14.496393
_cell_angle_alpha 90.000000
_cell_angle_beta 90.000000
_cell_angle_gamma 90.000000
_cell_volume 2646.023181
_symmetry_space_group_name_H-M "P B C M"
_symmetry_group_IT_number 57
_symmetry_cell_setting 'orthorhombic'
loop_
_space_group_symop_operation_xyz
x,y,z
-x,-y,1/2+z
x,1/2-y,-z
-x,1/2+y,1/2-z
-x,-y,-z
x,y,1/2-z
-x,1/2+y,z
x,1/2-y,1/2+z
loop_
_atom_site_type_symbol
_atom_site_label
_atom_site_fract_x
_atom_site_fract_y
_atom_site_fract_z
Si Si1 0.425434 0.058304 0.145044
Si Si2 0.753046 0.029437 0.022759
Si Si3 0.812146 0.943221 0.645319
Si Si4 0.542878 0.370430 0.854354
Si Si5 0.154313 0.864926 0.645363
Si Si6 0.636157 0.470434 0.522120
Si Si7 0.927940 0.640327 0.355209
Si Si8 0.958933 0.062624 0.356081
O O1 0.414418 0.119918 0.250000
O O2 0.436153 0.837906 0.148424
O O3 0.482371 0.133904 0.110415
O O4 0.378452 0.077855 0.071562
O O5 0.765709 0.920504 0.928624
O O6 0.751658 0.250000 0.000000
O O7 0.804186 0.011965 0.089159
O O8 0.694552 0.982409 0.059430
O O9 0.803344 0.874126 0.750000
O O10 0.820430 0.163545 0.651305
O O11 0.869303 0.880702 0.605347
O O12 0.538979 0.442533 0.750000
O O13 0.585617 0.487187 0.910739
O O14 0.148248 0.935958 0.750000
O O15 0.094249 0.841230 0.605899
O O16 0.638054 0.250000 0.500000
O O17 0.922908 0.563879 0.250000
O O18 0.940651 0.853996 0.351647
O O19 0.982078 0.562648 0.399127
O O20 0.966851 0.133748 0.250000
#
# Coordination Sequence:
#
# PCOD9440385 Si02
#       8
#     8   8   8   8   8   8   8   8
#     4   9  17  29  47  71  97 124 154 189 230 275
#     4   9  18  31  47  69  94 120 156 197 230 267
#     4   9  17  30  48  68  91 120 152 188 231 276
#     4   9  17  29  47  71  97 124 154 189 230 275
#     4   9  17  30  48  68  91 120 152 188 231 276
#     4   9  17  29  46  69  95 122 155 195 232 267
#     4   9  16  27  46  71  96 121 151 189 233 281
#     4   9  16  27  46  71  96 121 151 189 233 281
#
# _framework density 24.187242999999999
#
# number of rings (size 3 to 8) (size 9 to 14) (size 15 to 20)
#    0.000    3.000    0.000    1.125    0.000    4.000 
#    0.000    6.250    0.000    3.000    0.000    7.000 
#    0.000    0.000    0.000    0.000    0.000    0.000 
#
# Total GULP energy -357333.145954 kJ/mol
# GULP energy per Si atom -5583.330406 kJ/mol
# Density = 2.413219 g / cm^3
# Si number density = 24.187243 Si / 1000 Ang^3
#
#
#
# Elastic Constant Matrix: (Units=GPa)
#
#
# Indices 1 2 3 4 5 6 
#
# 1 141.3423 -3.2854 44.9491 0.0000 0.0000 0.0000
# 2 -3.2854 39.6058 5.1787 0.0000 0.0000 0.0000
# 3 44.9491 5.1787 61.3345 0.0000 0.0000 0.0000
# 4 0.0000 0.0000 0.0000 13.7636 0.0000 0.0000
# 5 0.0000 0.0000 0.0000 0.0000 31.6081 0.0000
# 6 0.0000 0.0000 0.0000 0.0000 0.0000 26.1429
#
#
#
# Elastic Compliance Matrix: (Units=1/GPa)
#
#
# Indices 1 2 3 4 5 6 
#
# 1 0.009335 0.001688 -0.006984 0.000000 0.000000 0.000000
# 2 0.001688 0.025836 -0.003418 0.000000 0.000000 0.000000
# 3 -0.006984 -0.003418 0.021711 0.000000 0.000000 0.000000
# 4 0.000000 0.000000 0.000000 0.072656 0.000000 0.000000
# 5 0.000000 0.000000 0.000000 0.000000 0.031637 0.000000
# 6 0.000000 0.000000 0.000000 0.000000 0.000000 0.038251
#
#
# Mechanical properties :
#
#
# Convention : Reuss Voigt Hill
#
# Bulk Modulus (GPa) = 25.34666 37.32970 31.33818
# Shear Modulus (GPa) = 21.73859 27.33227 24.53543
#
# Velocity S-wave (km/s) = 3.00119 3.36524 3.18841
# Velocity P-wave (km/s) = 4.74464 5.52873 5.15163
#
# Compressibility (1/GPa) = 0.03945293
#
# Stress axis : x y z
#
# Youngs Moduli (GPa) = 107.12128 38.70606 46.06017
#
# Poissons Ratio (x) = -0.06532 0.32168
# Poissons Ratio (y) = -0.18077 0.15744
# Poissons Ratio (z) = 0.74811 0.13230
#
# Static dielectric constant tensor:
#      x y z
#    x 1.936090 0.000000 0.000000 
#    y 0.000000 1.982350 0.000000 
#    z 0.000000 0.000000 1.970970 
# 
# From -- ./inp_files/19498.got.cif
#   From: 2010.05.17/outbox.cif.g08.bks.cpg/sg57_10_cif.got.tgz:19498.got - 2010.06.03 13:58:18.
