data_PCOD9440618
_publ_section_title
;
Structure prediction by ZEFSAII (Michael W. Deem and Ramdas Pophale) SiO2 
 PCOD9440618
Probable space group: P B C M
;
_chemical_formula_sum "Si O2"
_cell_formula_units_Z 64
_cell_length_a 24.000000
_cell_length_b 9.000000
_cell_length_c 15.000000
_cell_angle_alpha 90.000000
_cell_angle_beta 90.000000
_cell_angle_gamma 90.000000
_cell_volume 3240.000000
_symmetry_space_group_name_H-M "P B C M"
_symmetry_group_IT_number 57
_symmetry_cell_setting 'orthorhombic'
loop_
_space_group_symop_operation_xyz
x,y,z
-x,-y,1/2+z
x,1/2-y,-z
-x,1/2+y,1/2-z
-x,-y,-z
x,y,1/2-z
-x,1/2+y,z
x,1/2-y,1/2+z
loop_
_atom_site_type_symbol
_atom_site_label
_atom_site_fract_x
_atom_site_fract_y
_atom_site_fract_z
Si Si1 0.630048 0.081495 0.976682
Si Si2 0.824738 0.107959 0.356393
Si Si3 0.947392 0.500684 0.648908
Si Si4 0.575144 0.551503 0.856429
Si Si5 0.256716 0.602669 0.855414
Si Si6 0.179078 0.084886 0.469093
Si Si7 0.456537 0.398153 0.855602
Si Si8 0.054728 0.332145 0.586597
O O1 0.689034 0.096871 0.921520
O O2 0.585923 0.997354 0.913100
O O3 0.613667 0.250000 0.000000
O O4 0.623311 0.995149 0.072612
O O5 0.819134 0.061600 0.250000
O O6 0.892293 0.098157 0.374101
O O7 0.785708 0.254969 0.364224
O O8 0.807322 0.010488 0.442193
O O9 0.957271 0.463533 0.750000
O O10 0.934930 0.679341 0.643284
O O11 0.006367 0.448861 0.608419
O O12 0.589862 0.536144 0.750000
O O13 0.520427 0.448373 0.873762
O O14 0.555992 0.723078 0.871454
O O15 0.272529 0.593729 0.750000
O O16 0.217415 0.468724 0.888361
O O17 0.191316 0.250000 0.500000
O O18 0.113779 0.089307 0.437407
O O19 0.447480 0.425754 0.750000
O O20 0.032446 0.250000 0.500000
#
# Coordination Sequence:
#
# PCOD9440618 Si02
#       8
#     8   8   8   8   8   8   8   8
#     4  12  24  41  64  95 133 179 229 282 331 392
#     4  10  22  43  65  92 127 168 217 270 326 397
#     4  11  23  39  62  94 129 166 210 263 324 399
#     4  10  22  40  67 104 142 185 224 273 333 391
#     4  11  27  47  70  94 123 173 231 282 336 397
#     4  11  23  43  67  95 128 169 209 270 337 399
#     4  10  21  40  67 102 145 183 227 275 328 392
#     4  11  23  39  60  95 131 165 206 259 329 401
#
# _framework density 19.753086
#
# number of rings (size 3 to 8) (size 9 to 14) (size 15 to 20)
#    0.000    1.250    2.500    3.750    1.750    4.500 
#    0.000    0.625    0.000    0.000    0.000    0.000 
#    0.000    0.000    0.000    0.000    0.000    0.000 
#
# Total GULP energy -356363.318256 kJ/mol
# GULP energy per Si atom -5568.176848 kJ/mol
# Density = 1.970813 g / cm^3
# Si number density = 19.753086 Si / 1000 Ang^3
#
#
#
# Elastic Constant Matrix: (Units=GPa)
#
#
# Indices 1 2 3 4 5 6 
#
# 1 95.5202 49.5904 61.0623 0.0000 0.0000 0.0000
# 2 49.5904 72.4972 50.1422 0.0000 0.0000 0.0000
# 3 61.0623 50.1422 105.3763 0.0000 0.0000 0.0000
# 4 0.0000 0.0000 0.0000 37.5167 0.0000 0.0000
# 5 0.0000 0.0000 0.0000 0.0000 53.6052 0.0000
# 6 0.0000 0.0000 0.0000 0.0000 0.0000 32.7813
#
#
#
# Elastic Compliance Matrix: (Units=1/GPa)
#
#
# Indices 1 2 3 4 5 6 
#
# 1 0.019430 -0.008203 -0.007356 0.000000 0.000000 0.000000
# 2 -0.008203 0.024024 -0.006678 0.000000 0.000000 0.000000
# 3 -0.007356 -0.006678 0.016930 0.000000 0.000000 0.000000
# 4 0.000000 0.000000 0.000000 0.026655 0.000000 0.000000
# 5 0.000000 0.000000 0.000000 0.000000 0.018655 0.000000
# 6 0.000000 0.000000 0.000000 0.000000 0.000000 0.030505
#
#
# Mechanical properties :
#
#
# Convention : Reuss Voigt Hill
#
# Bulk Modulus (GPa) = 62.85412 66.10928 64.48170
# Shear Modulus (GPa) = 26.88534 32.28722 29.58628
#
# Velocity S-wave (km/s) = 3.69327 4.04733 3.87435
# Velocity P-wave (km/s) = 7.07644 7.44189 7.26146
#
# Compressibility (1/GPa) = 0.01590986
#
# Stress axis : x y z
#
# Youngs Moduli (GPa) = 51.46691 41.62579 59.06757
#
# Poissons Ratio (x) = 0.34147 0.43448
# Poissons Ratio (y) = 0.42219 0.39444
# Poissons Ratio (z) = 0.37857 0.27797
#
# Static dielectric constant tensor:
#      x y z
#    x 1.709310 0.000000 0.000000 
#    y 0.000000 1.735020 0.000000 
#    z 0.000000 0.000000 1.765360 
# 
# From -- ./inp_files/19505.got.cif
#   From: 2010.05.17/outbox.ucp.g08.bks.cvg/sg57_10_cif.got.tgz:19505.got - 2010.06.11 16:39:23.
