data_PCOD9440239
_publ_section_title
;
Structure prediction by ZEFSAII (Michael W. Deem and Ramdas Pophale) SiO2 
 PCOD9440239
Probable space group: P B C M
;
_chemical_formula_sum "Si O2"
_cell_formula_units_Z 32
_cell_length_a 18.380573
_cell_length_b 8.961326
_cell_length_c 9.313266
_cell_angle_alpha 90.000000
_cell_angle_beta 90.000000
_cell_angle_gamma 90.000000
_cell_volume 1534.028152
_symmetry_space_group_name_H-M "P B C M"
_symmetry_group_IT_number 57
_symmetry_cell_setting 'orthorhombic'
loop_
_space_group_symop_operation_xyz
x,y,z
-x,-y,1/2+z
x,1/2-y,-z
-x,1/2+y,1/2-z
-x,-y,-z
x,y,1/2-z
-x,1/2+y,z
x,1/2-y,1/2+z
loop_
_atom_site_type_symbol
_atom_site_label
_atom_site_fract_x
_atom_site_fract_y
_atom_site_fract_z
Si Si1 0.818129 0.404963 0.415522
Si Si2 0.651224 0.074127 0.974510
Si Si3 0.398416 0.069503 0.750000
Si Si4 0.449257 0.413705 0.750000
Si Si5 0.934967 0.908861 0.425034
O O1 0.828492 0.250000 0.500000
O O2 0.845404 0.400422 0.250000
O O3 0.731717 0.433447 0.409790
O O4 0.860249 0.521978 0.514191
O O5 0.588494 0.998034 0.881876
O O6 0.635513 0.250000 0.000000
O O7 0.650239 0.974216 0.115748
O O8 0.429524 0.237964 0.750000
O O9 0.466003 0.952995 0.750000
O O10 0.941117 0.750000 0.500000
O O11 0.938511 0.907634 0.250000
O O12 0.000000 0.000000 0.500000
#
# Coordination Sequence:
#
# PCOD9440239 Si02
#       5
#     8   8   4   4   8
#     4  11  24  44  71 101 138 180 229 281 346 416
#     4  11  24  43  68  96 134 177 228 282 348 417
#     4  12  26  40  70  92 135 174 229 286 352 418
#     4  12  24  46  62 100 129 178 225 288 348 420
#     4  12  26  46  72 104 144 186 234 285 343 405
#
# _framework density 20.860112000000001
#
# number of rings (size 3 to 8) (size 9 to 14) (size 15 to 20)
#    0.000    0.500    1.250    7.500    7.000    2.000 
#    0.000    0.000    0.000    0.000    0.000    0.000 
#    0.000    0.000    0.000    0.000    0.000    0.000 
#
# Total GULP energy -178810.520769 kJ/mol
# GULP energy per Si atom -5587.828774 kJ/mol
# Density = 2.081263 g / cm^3
# Si number density = 20.860112 Si / 1000 Ang^3
#
#
#
# Elastic Constant Matrix: (Units=GPa)
#
#
# Indices 1 2 3 4 5 6 
#
# 1 44.7715 52.0540 29.6719 0.0000 0.0000 0.0000
# 2 52.0540 155.3565 44.6093 0.0000 0.0000 0.0000
# 3 29.6719 44.6093 195.7070 0.0000 0.0000 0.0000
# 4 0.0000 0.0000 0.0000 18.3343 0.0000 0.0000
# 5 0.0000 0.0000 0.0000 0.0000 8.1113 0.0000
# 6 0.0000 0.0000 0.0000 0.0000 0.0000 27.6911
#
#
#
# Elastic Compliance Matrix: (Units=1/GPa)
#
#
# Indices 1 2 3 4 5 6 
#
# 1 0.038249 -0.011931 -0.003079 0.000000 0.000000 0.000000
# 2 -0.011931 0.010610 -0.000609 0.000000 0.000000 0.000000
# 3 -0.003079 -0.000609 0.005715 0.000000 0.000000 0.000000
# 4 0.000000 0.000000 0.000000 0.054543 0.000000 0.000000
# 5 0.000000 0.000000 0.000000 0.000000 0.123285 0.000000
# 6 0.000000 0.000000 0.000000 0.000000 0.000000 0.036113
#
#
# Mechanical properties :
#
#
# Convention : Reuss Voigt Hill
#
# Bulk Modulus (GPa) = 42.85722 72.05617 57.45670
# Shear Modulus (GPa) = 16.25846 28.79399 22.52623
#
# Velocity S-wave (km/s) = 2.79481 3.71932 3.28970
# Velocity P-wave (km/s) = 5.56815 7.28437 6.48330
#
# Compressibility (1/GPa) = 0.02333329
#
# Stress axis : x y z
#
# Youngs Moduli (GPa) = 26.14471 94.25477 174.96425
#
# Poissons Ratio (x) = 1.12459 0.53878
# Poissons Ratio (y) = 0.31194 0.10662
# Poissons Ratio (z) = 0.08051 0.05744
#
# Static dielectric constant tensor:
#      x y z
#    x 1.728070 0.000000 0.000000 
#    y 0.000000 1.838440 0.000000 
#    z 0.000000 0.000000 1.584450 
# 
# From -- ./inp_files/7560.got.cif
#   From: 2010.05.17/outbox.cif.g08.bks.cpg/sg57_4_cif.got.tgz:7560.got - 2010.06.03 13:58:18.
