data_PCOD9440607
_publ_section_title
;
Structure prediction by ZEFSAII (Michael W. Deem and Ramdas Pophale) SiO2 
 PCOD9440607
Probable space group: P B C M
;
_chemical_formula_sum "Si O2"
_cell_formula_units_Z 48
_cell_length_a 9.000000
_cell_length_b 15.000000
_cell_length_c 18.000000
_cell_angle_alpha 90.000000
_cell_angle_beta 90.000000
_cell_angle_gamma 90.000000
_cell_volume 2430.000000
_symmetry_space_group_name_H-M "P B C M"
_symmetry_group_IT_number 57
_symmetry_cell_setting 'orthorhombic'
loop_
_space_group_symop_operation_xyz
x,y,z
-x,-y,1/2+z
x,1/2-y,-z
-x,1/2+y,1/2-z
-x,-y,-z
x,y,1/2-z
-x,1/2+y,z
x,1/2-y,1/2+z
loop_
_atom_site_type_symbol
_atom_site_label
_atom_site_fract_x
_atom_site_fract_y
_atom_site_fract_z
Si Si1 0.441210 0.085292 0.094811
Si Si2 0.388482 0.620589 0.946538
Si Si3 0.820970 0.708917 0.077284
Si Si4 0.631028 0.667164 0.666319
Si Si5 0.283721 0.959290 0.829700
Si Si6 0.090707 0.589063 0.027122
O O1 0.285000 0.130776 0.105665
O O2 0.560217 0.091526 0.160020
O O3 0.409424 0.982223 0.077492
O O4 0.521317 0.128062 0.023277
O O5 0.483711 0.676555 0.885921
O O6 0.212567 0.627176 0.967380
O O7 0.780379 0.785799 0.135486
O O8 0.977281 0.665001 0.055353
O O9 0.764786 0.750000 0.000000
O O10 0.598480 0.696570 0.750000
O O11 0.672266 0.562973 0.667564
O O12 0.213900 0.938641 0.750000
O O13 0.184835 0.939655 0.900979
O O14 0.000000 0.500000 0.000000
#
# Coordination Sequence:
#
# PCOD9440607 Si02
#       6
#     8   8   8   8   8   8
#     4   9  17  33  63  83 108 150 201 251 284 364
#     4   9  17  37  59  85 113 153 206 246 297 361
#     4  12  22  36  58  93 124 153 196 258 318 361
#     4  10  21  38  63  89 121 163 205 253 309 370
#     4   9  20  40  62  84 116 162 206 249 303 368
#     4  11  21  36  62  93 123 162 208 258 307 378
#
# _framework density 19.753086
#
# number of rings (size 3 to 8) (size 9 to 14) (size 15 to 20)
#    0.000    2.000    3.333    2.000    0.000    1.333 
#    6.000    0.833    0.000    1.000    0.000    0.000 
#    0.000    0.000    0.000    0.000    0.000    0.000 
#
# Total GULP energy -267246.502174 kJ/mol
# GULP energy per Si atom -5567.635462 kJ/mol
# Density = 1.970813 g / cm^3
# Si number density = 19.753086 Si / 1000 Ang^3
#
#
#
# Elastic Constant Matrix: (Units=GPa)
#
#
# Indices 1 2 3 4 5 6 
#
# 1 123.7991 30.9825 41.0363 0.0000 0.0000 0.0000
# 2 30.9825 45.4836 32.6838 0.0000 0.0000 0.0000
# 3 41.0363 32.6838 109.4733 0.0000 0.0000 0.0000
# 4 0.0000 0.0000 0.0000 10.2970 0.0000 0.0000
# 5 0.0000 0.0000 0.0000 0.0000 16.8373 0.0000
# 6 0.0000 0.0000 0.0000 0.0000 0.0000 26.7958
#
#
#
# Elastic Compliance Matrix: (Units=1/GPa)
#
#
# Indices 1 2 3 4 5 6 
#
# 1 0.010142 -0.005318 -0.002214 0.000000 0.000000 0.000000
# 2 -0.005318 0.030779 -0.007196 0.000000 0.000000 0.000000
# 3 -0.002214 -0.007196 0.012113 0.000000 0.000000 0.000000
# 4 0.000000 0.000000 0.000000 0.097116 0.000000 0.000000
# 5 0.000000 0.000000 0.000000 0.000000 0.059392 0.000000
# 6 0.000000 0.000000 0.000000 0.000000 0.000000 0.037319
#
#
# Mechanical properties :
#
#
# Convention : Reuss Voigt Hill
#
# Bulk Modulus (GPa) = 42.41089 54.24014 48.32552
# Shear Modulus (GPa) = 17.59468 22.38958 19.99213
#
# Velocity S-wave (km/s) = 2.98775 3.37036 3.18481
# Velocity P-wave (km/s) = 5.78094 6.53180 6.16781
#
# Compressibility (1/GPa) = 0.02357885
#
# Stress axis : x y z
#
# Youngs Moduli (GPa) = 98.59588 32.48956 82.55559
#
# Poissons Ratio (x) = 0.17277 0.18280
# Poissons Ratio (y) = 0.52430 0.59406
# Poissons Ratio (z) = 0.21832 0.23379
#
# Static dielectric constant tensor:
#      x y z
#    x 1.703260 0.000000 0.000000 
#    y 0.000000 1.765480 0.000000 
#    z 0.000000 0.000000 1.739720 
# 
# From -- ./inp_files/20948.got.cif
#   From: 2010.05.17/outbox.ucp.g08.bks.cvg/sg57_11_cif.got.tgz:20948.got - 2010.06.11 16:39:23.
