data_PCOD9440280
_publ_section_title
;
Structure prediction by ZEFSAII (Michael W. Deem and Ramdas Pophale) SiO2 
 PCOD9440280
Probable space group: P B C M
;
_chemical_formula_sum "Si O2"
_cell_formula_units_Z 56
_cell_length_a 4.895626
_cell_length_b 16.665708
_cell_length_c 28.185069
_cell_angle_alpha 90.000000
_cell_angle_beta 90.000000
_cell_angle_gamma 90.000000
_cell_volume 2299.593663
_symmetry_space_group_name_H-M "P B C M"
_symmetry_group_IT_number 57
_symmetry_cell_setting 'orthorhombic'
loop_
_space_group_symop_operation_xyz
x,y,z
-x,-y,1/2+z
x,1/2-y,-z
-x,1/2+y,1/2-z
-x,-y,-z
x,y,1/2-z
-x,1/2+y,z
x,1/2-y,1/2+z
loop_
_atom_site_type_symbol
_atom_site_label
_atom_site_fract_x
_atom_site_fract_y
_atom_site_fract_z
Si Si1 0.571623 0.665712 0.072901
Si Si2 0.165861 0.719821 0.154491
Si Si3 0.374032 0.462190 0.163561
Si Si4 0.076093 0.381188 0.250000
Si Si5 0.202162 0.164477 0.899237
Si Si6 0.433532 0.725351 0.750000
Si Si7 0.128033 0.434215 0.852789
Si Si8 0.748837 0.560522 0.990409
O O1 0.306766 0.682802 0.106572
O O2 0.709188 0.751873 0.078484
O O3 0.725675 0.592634 0.099147
O O4 0.620779 0.636976 0.019587
O O5 0.357366 0.732434 0.200181
O O6 0.023932 0.802634 0.138002
O O7 0.950733 0.651106 0.170100
O O8 0.193781 0.431819 0.206812
O O9 0.425389 0.383689 0.131807
O O10 0.646826 0.511709 0.173635
O O11 0.151763 0.519048 0.138135
O O12 0.251099 0.298887 0.250000
O O13 0.761238 0.354938 0.250000
O O14 0.152420 0.102882 0.941570
O O15 0.500000 0.500000 0.000000
O O16 0.000000 0.500000 0.000000
#
# Coordination Sequence:
#
# PCOD9440280 Si02
#       8
#     8   8   8   4   8   4   8   8
#     4  11  25  50  74 113 145 198 251 319 383 472
#     4  11  26  48  80 109 160 202 264 323 398 472
#     4  12  24  45  72 104 146 201 248 314 386 456
#     4  12  26  44  69 109 152 195 260 316 375 470
#     4  11  26  45  78 105 147 200 246 320 385 461
#     4  12  26  48  73 115 152 205 260 316 389 480
#     4  11  25  45  71 103 151 190 252 312 384 453
#     4  12  29  50  75 109 148 193 252 318 387 464
#
# _framework density 24.352129999999999
#
# number of rings (size 3 to 8) (size 9 to 14) (size 15 to 20)
#    0.000    0.571    2.857    3.857   10.000    1.143 
#    0.000    0.714    0.000    0.000    0.000    0.000 
#    0.000    0.000    0.000    0.000    0.000    0.000 
#
# Total GULP energy -312147.822267 kJ/mol
# GULP energy per Si atom -5574.068255 kJ/mol
# Density = 2.429670 g / cm^3
# Si number density = 24.352130 Si / 1000 Ang^3
#
#
#
# Elastic Constant Matrix: (Units=GPa)
#
#
# Indices 1 2 3 4 5 6 
#
# 1 132.4914 58.8659 5.8881 0.0000 0.0000 0.0000
# 2 58.8659 122.6110 52.6531 0.0000 0.0000 0.0000
# 3 5.8881 52.6531 71.1638 0.0000 0.0000 0.0000
# 4 0.0000 0.0000 0.0000 -11.0109 0.0000 0.0000
# 5 0.0000 0.0000 0.0000 0.0000 16.4575 0.0000
# 6 0.0000 0.0000 0.0000 0.0000 0.0000 46.5931
#
#
#
# Elastic Compliance Matrix: (Units=1/GPa)
#
#
# Indices 1 2 3 4 5 6 
#
# 1 0.010364 -0.006753 0.004139 0.000000 0.000000 0.000000
# 2 -0.006753 0.016355 -0.011542 0.000000 0.000000 0.000000
# 3 0.004139 -0.011542 0.022249 0.000000 0.000000 0.000000
# 4 0.000000 0.000000 0.000000 -0.090819 0.000000 0.000000
# 5 0.000000 0.000000 0.000000 0.000000 0.060763 0.000000
# 6 0.000000 0.000000 0.000000 0.000000 0.000000 0.021462
#
#
# Mechanical properties :
#
#
# Convention : Reuss Voigt Hill
#
# Bulk Modulus (GPa) = 48.41179 62.34229 55.37704
# Shear Modulus (GPa) = 66.16284 24.33189 45.24736
#
# Velocity S-wave (km/s) = 5.21807 3.16439 4.31518
# Velocity P-wave (km/s) = 7.49849 6.24557 6.90052
#
# Compressibility (1/GPa) = 0.02065613
#
# Stress axis : x y z
#
# Youngs Moduli (GPa) = 96.48546 61.14477 44.94540
#
# Poissons Ratio (x) = 0.41294 -0.18604
# Poissons Ratio (y) = 0.65161 0.51875
# Poissons Ratio (z) = -0.39938 0.70572
#
# Static dielectric constant tensor:
#      x y z
#    x 1.920240 0.000000 0.000000 
#    y 0.000000 1.960910 0.000000 
#    z 0.000000 0.000000 1.946500 
# 
# From -- ./inp_files/29223.got.cif
#   From: 2010.05.17/outbox.cif.g08.bks.cpg/sg57_15_cif.got.tgz:29223.got - 2010.06.03 13:58:18.
