data_PCOD9440234
_publ_section_title
;
Structure prediction by ZEFSAII (Michael W. Deem and Ramdas Pophale) SiO2 
 PCOD9440234
Probable space group: P B C M
;
_chemical_formula_sum "Si O2"
_cell_formula_units_Z 44
_cell_length_a 8.698700
_cell_length_b 17.590717
_cell_length_c 14.853300
_cell_angle_alpha 90.000000
_cell_angle_beta 90.000000
_cell_angle_gamma 90.000000
_cell_volume 2272.798048
_symmetry_space_group_name_H-M "P B C M"
_symmetry_group_IT_number 57
_symmetry_cell_setting 'orthorhombic'
loop_
_space_group_symop_operation_xyz
x,y,z
-x,-y,1/2+z
x,1/2-y,-z
-x,1/2+y,1/2-z
-x,-y,-z
x,y,1/2-z
-x,1/2+y,z
x,1/2-y,1/2+z
loop_
_atom_site_type_symbol
_atom_site_label
_atom_site_fract_x
_atom_site_fract_y
_atom_site_fract_z
Si Si1 0.575868 0.449837 0.422415
Si Si2 0.487649 0.176067 0.250000
Si Si3 0.870870 0.876915 0.750000
Si Si4 0.644824 0.278295 0.101248
Si Si5 0.079872 0.997739 0.403495
Si Si6 0.409375 0.989773 0.750000
Si Si7 0.913209 0.268060 0.250000
Si Si8 0.099143 0.086839 0.750000
O O1 0.500000 0.500000 0.500000
O O2 0.559929 0.359118 0.414230
O O3 0.755755 0.463112 0.423706
O O4 0.508052 0.487225 0.334546
O O5 0.306911 0.152851 0.250000
O O6 0.533659 0.224102 0.160982
O O7 0.599132 0.101582 0.250000
O O8 0.895477 0.927488 0.840796
O O9 0.005834 0.814016 0.750000
O O10 0.799245 0.282174 0.163990
O O11 0.679966 0.250000 0.000000
O O12 0.000000 0.000000 0.500000
O O13 0.984163 0.943554 0.338713
O O14 0.261102 0.043749 0.750000
O O15 0.060490 0.324316 0.250000
#
# Coordination Sequence:
#
# PCOD9440234 Si02
#       8
#     8   4   4   8   8   4   4   4
#     4  12  24  44  71  98 134 182 235 284 341 412
#     4  11  24  47  69 101 143 178 228 289 350 417
#     4  11  26  43  70 101 138 183 232 288 354 413
#     4  11  26  44  68  99 138 181 228 281 356 414
#     4  11  24  45  70  98 136 178 236 290 338 417
#     4  12  23  43  72  96 133 185 225 285 341 403
#     4  11  25  44  66  95 143 182 223 288 345 418
#     4  11  24  43  65  99 137 178 234 280 342 403
#
# _framework density 19.359397999999999
#
# number of rings (size 3 to 8) (size 9 to 14) (size 15 to 20)
#    0.000    0.727    3.636    3.818   10.182    0.000 
#    0.000    0.909    0.000    0.000    0.000    0.000 
#    0.000    0.000    0.000    0.000    0.000    0.000 
#
# Total GULP energy -245384.493457 kJ/mol
# GULP energy per Si atom -5576.920306 kJ/mol
# Density = 1.931533 g / cm^3
# Si number density = 19.359398 Si / 1000 Ang^3
#
#
#
# Elastic Constant Matrix: (Units=GPa)
#
#
# Indices 1 2 3 4 5 6 
#
# 1 70.8031 4.8310 31.7322 0.0000 0.0000 0.0000
# 2 4.8310 114.1529 40.3882 0.0000 0.0000 0.0000
# 3 31.7322 40.3882 180.1899 0.0000 0.0000 0.0000
# 4 0.0000 0.0000 0.0000 280.5150 0.0000 0.0000
# 5 0.0000 0.0000 0.0000 0.0000 -6.6589 0.0000
# 6 0.0000 0.0000 0.0000 0.0000 0.0000 29.8707
#
#
#
# Elastic Compliance Matrix: (Units=1/GPa)
#
#
# Indices 1 2 3 4 5 6 
#
# 1 0.015346 0.000333 -0.002777 0.000000 0.000000 0.000000
# 2 0.000333 0.009522 -0.002193 0.000000 0.000000 0.000000
# 3 -0.002777 -0.002193 0.006530 0.000000 0.000000 0.000000
# 4 0.000000 0.000000 0.000000 0.003565 0.000000 0.000000
# 5 0.000000 0.000000 0.000000 0.000000 -0.150175 0.000000
# 6 0.000000 0.000000 0.000000 0.000000 0.000000 0.033478
#
#
# Mechanical properties :
#
#
# Convention : Reuss Voigt Hill
#
# Bulk Modulus (GPa) = 45.19976 57.67209 51.43592
# Shear Modulus (GPa) = -76.82064 79.95834 1.56885
#
# Velocity S-wave (km/s) = -6.30614 6.43364 0.90119
# Velocity P-wave (km/s) = 5.44287 9.22192 5.26398
#
# Compressibility (1/GPa) = 0.02212401
#
# Stress axis : x y z
#
# Youngs Moduli (GPa) = 65.16538 105.02039 153.13253
#
# Poissons Ratio (x) = -0.03498 0.42526
# Poissons Ratio (y) = -0.02171 0.33581
# Poissons Ratio (z) = 0.18097 0.23030
#
# Static dielectric constant tensor:
#      x y z
#    x 1.662580 0.000000 0.000000 
#    y 0.000000 1.747870 0.000000 
#    z 0.000000 0.000000 1.646470 
# 
# From -- ./inp_files/16274.got.cif
#   From: 2010.05.17/outbox.cif.g08.bks.cpg/sg57_9_cif.got.tgz:16274.got - 2010.06.03 13:58:18.
