data_PCOD9440016
_publ_section_title
;
Structure prediction by ZEFSAII (Michael W. Deem and Ramdas Pophale) SiO2 
 PCOD9440016
Probable space group: P B C M
;
_chemical_formula_sum "Si O2"
_cell_formula_units_Z 32
_cell_length_a 11.884398
_cell_length_b 17.783598
_cell_length_c 8.507109
_cell_angle_alpha 90.000000
_cell_angle_beta 90.000000
_cell_angle_gamma 90.000000
_cell_volume 1797.954999
_symmetry_space_group_name_H-M "P B C M"
_symmetry_group_IT_number 57
_symmetry_cell_setting 'orthorhombic'
loop_
_space_group_symop_operation_xyz
x,y,z
-x,-y,1/2+z
x,1/2-y,-z
-x,1/2+y,1/2-z
-x,-y,-z
x,y,1/2-z
-x,1/2+y,z
x,1/2-y,1/2+z
loop_
_atom_site_type_symbol
_atom_site_label
_atom_site_fract_x
_atom_site_fract_y
_atom_site_fract_z
Si Si1 0.562483 0.115685 0.433023
Si Si2 0.875576 0.486077 0.936534
Si Si3 0.345948 0.040044 0.062418
Si Si4 0.782019 0.329636 0.066336
O O1 0.577189 0.135307 0.250000
O O2 0.429822 0.109530 0.470498
O O3 0.647401 0.164165 0.536021
O O4 0.606775 0.030542 0.463095
O O5 0.871422 0.495301 0.750000
O O6 0.784353 0.541955 0.016307
O O7 0.837032 0.401351 0.981208
O O8 0.000000 0.500000 0.000000
O O9 0.355984 0.024056 0.250000
O O10 0.804762 0.335740 0.250000
O O11 0.821534 0.250000 0.000000
#
# Coordination Sequence:
#
# PCOD9440016 Si02
#       4
#     8   8   8   8
#     4   9  16  27  45  70  98 126 157 195 242 294
#     4  11  21  34  52  75 103 136 177 219 260 306
#     4   9  16  27  45  70  98 126 158 198 244 291
#     4  11  21  34  52  75 103 134 170 212 261 313
#
# _framework density 17.797999000000001
#
# number of rings (size 3 to 8) (size 9 to 14) (size 15 to 20)
#    0.000    2.000    0.000    9.000    0.000    3.000 
#    0.000    0.000    0.000    1.500    0.000    3.500 
#    0.000    0.000    0.000    0.000    0.000    0.000 
#
# Total GULP energy -178321.517740 kJ/mol
# GULP energy per Si atom -5572.547429 kJ/mol
# Density = 1.775749 g / cm^3
# Si number density = 17.797999 Si / 1000 Ang^3
#
#
#
# Elastic Constant Matrix: (Units=GPa)
#
#
# Indices 1 2 3 4 5 6 
#
# 1 127.7674 17.2748 16.9017 0.0000 0.0000 0.0000
# 2 17.2748 38.5887 4.8165 0.0000 0.0000 0.0000
# 3 16.9017 4.8165 78.6974 0.0000 0.0000 0.0000
# 4 0.0000 0.0000 0.0000 20.2851 0.0000 0.0000
# 5 0.0000 0.0000 0.0000 0.0000 31.0229 0.0000
# 6 0.0000 0.0000 0.0000 0.0000 0.0000 10.5480
#
#
#
# Elastic Compliance Matrix: (Units=1/GPa)
#
#
# Indices 1 2 3 4 5 6 
#
# 1 0.008529 -0.003617 -0.001610 0.000000 0.000000 0.000000
# 2 -0.003617 0.027648 -0.000915 0.000000 0.000000 0.000000
# 3 -0.001610 -0.000915 0.013109 0.000000 0.000000 0.000000
# 4 0.000000 0.000000 0.000000 0.049297 0.000000 0.000000
# 5 0.000000 0.000000 0.000000 0.000000 0.032234 0.000000
# 6 0.000000 0.000000 0.000000 0.000000 0.000000 0.094805
#
#
# Mechanical properties :
#
#
# Convention : Reuss Voigt Hill
#
# Bulk Modulus (GPa) = 27.02703 35.89328 31.46015
# Shear Modulus (GPa) = 19.98077 26.10856 23.04467
#
# Velocity S-wave (km/s) = 3.35422 3.83422 3.60222
# Velocity P-wave (km/s) = 5.49722 6.30971 5.91743
#
# Compressibility (1/GPa) = 0.03699999
#
# Stress axis : x y z
#
# Youngs Moduli (GPa) = 117.25003 36.16926 76.28484
#
# Poissons Ratio (x) = 0.13083 0.12284
# Poissons Ratio (y) = 0.42410 0.06982
# Poissons Ratio (z) = 0.18881 0.03311
#
# Static dielectric constant tensor:
#      x y z
#    x 1.670750 0.000000 0.000000 
#    y 0.000000 1.618010 0.000000 
#    z 0.000000 0.000000 1.590160 
# 
# From -- ./inp_files/2377.got.cif
#   From: 2010.05.17/outbox.cif.g08.bks.cpg/sg57_2_cif.got.tgz:2377.got - 2010.06.03 13:58:18.
