data_PCOD9440227
_publ_section_title
;
Structure prediction by ZEFSAII (Michael W. Deem and Ramdas Pophale) SiO2 
 PCOD9440227
Probable space group: P B C M
;
_chemical_formula_sum "Si O2"
_cell_formula_units_Z 32
_cell_length_a 4.863460
_cell_length_b 9.193648
_cell_length_c 22.811110
_cell_angle_alpha 90.000000
_cell_angle_beta 90.000000
_cell_angle_gamma 90.000000
_cell_volume 1019.951777
_symmetry_space_group_name_H-M "P B C M"
_symmetry_group_IT_number 57
_symmetry_cell_setting 'orthorhombic'
loop_
_space_group_symop_operation_xyz
x,y,z
-x,-y,1/2+z
x,1/2-y,-z
-x,1/2+y,1/2-z
-x,-y,-z
x,y,1/2-z
-x,1/2+y,z
x,1/2-y,1/2+z
loop_
_atom_site_type_symbol
_atom_site_label
_atom_site_fract_x
_atom_site_fract_y
_atom_site_fract_z
Si Si1 0.505552 0.695095 0.563401
Si Si2 0.881486 0.943567 0.939390
Si Si3 0.018077 0.540945 0.684748
Si Si4 0.591781 0.792599 0.686937
O O1 0.390885 0.750000 0.500000
O O2 0.410527 0.529216 0.563453
O O3 0.803940 0.726040 0.438540
O O4 0.423795 0.746925 0.629359
O O5 0.048894 0.987801 0.881588
O O6 0.000000 0.000000 0.000000
O O7 0.921361 0.489004 0.750000
O O8 0.321820 0.462306 0.686077
O O9 0.876559 0.700005 0.684861
O O10 0.462420 0.755553 0.750000
#
# Coordination Sequence:
#
# PCOD9440227 Si02
#       4
#     8   8   8   8
#     4  11  24  42  65  96 132 174 227 276 335 405
#     4  11  25  44  67  97 136 178 223 283 340 399
#     4   9  19  37  62  93 130 174 220 268 329 397
#     4   9  19  37  61  92 129 170 218 271 329 399
#
# _framework density 31.374034000000002
#
# number of rings (size 3 to 8) (size 9 to 14) (size 15 to 20)
#    0.000    2.000    0.000    2.250    0.000    8.000 
#    0.000    1.250    0.000    1.500    0.000    0.000 
#    0.000    0.000    0.000    0.000    0.000    0.000 
#
# Total GULP energy -178336.787399 kJ/mol
# GULP energy per Si atom -5573.024606 kJ/mol
# Density = 3.130263 g / cm^3
# Si number density = 31.374034 Si / 1000 Ang^3
#
#
#
# Elastic Constant Matrix: (Units=GPa)
#
#
# Indices 1 2 3 4 5 6 
#
# 1 101.1399 44.6745 52.7850 0.0000 0.0000 0.0000
# 2 44.6745 156.9578 52.9892 0.0000 0.0000 0.0000
# 3 52.7850 52.9892 401.4064 0.0000 0.0000 0.0000
# 4 0.0000 0.0000 0.0000 62.3142 0.0000 0.0000
# 5 0.0000 0.0000 0.0000 0.0000 23.3038 0.0000
# 6 0.0000 0.0000 0.0000 0.0000 0.0000 56.4360
#
#
#
# Elastic Compliance Matrix: (Units=1/GPa)
#
#
# Indices 1 2 3 4 5 6 
#
# 1 0.011804 -0.002968 -0.001160 0.000000 0.000000 0.000000
# 2 -0.002968 0.007415 -0.000589 0.000000 0.000000 0.000000
# 3 -0.001160 -0.000589 0.002722 0.000000 0.000000 0.000000
# 4 0.000000 0.000000 0.000000 0.016048 0.000000 0.000000
# 5 0.000000 0.000000 0.000000 0.000000 0.042911 0.000000
# 6 0.000000 0.000000 0.000000 0.000000 0.000000 0.017719
#
#
# Mechanical properties :
#
#
# Convention : Reuss Voigt Hill
#
# Bulk Modulus (GPa) = 79.96002 106.71128 93.33565
# Shear Modulus (GPa) = 44.55498 62.34780 53.45139
#
# Velocity S-wave (km/s) = 3.77254 4.46269 4.13205
# Velocity P-wave (km/s) = 6.67214 7.78720 7.25114
#
# Compressibility (1/GPa) = 0.01250625
#
# Stress axis : x y z
#
# Youngs Moduli (GPa) = 84.71777 134.86937 367.44123
#
# Poissons Ratio (x) = 0.40029 0.42639
# Poissons Ratio (y) = 0.25144 0.21624
# Poissons Ratio (z) = 0.09831 0.07937
#
# Static dielectric constant tensor:
#      x y z
#    x 2.413930 0.000000 0.000000 
#    y 0.000000 2.458820 0.000000 
#    z 0.000000 0.000000 2.400930 
# 
# From -- ./inp_files/23345.got.cif
#   From: 2010.05.17/outbox.cif.g08.bks.cpg/sg57_12_cif.got.tgz:23345.got - 2010.06.03 13:58:18.
