data_PCOD9440930
_publ_section_title
;
Structure prediction by ZEFSAII (Michael W. Deem and Ramdas Pophale) SiO2 
 PCOD9440930
Probable space group: P N N M
;
_chemical_formula_sum "Si O2"
_cell_formula_units_Z 40
_cell_length_a 13.169194
_cell_length_b 14.533029
_cell_length_c 8.950901
_cell_angle_alpha 90.000000
_cell_angle_beta 90.000000
_cell_angle_gamma 90.000000
_cell_volume 1713.097532
_symmetry_space_group_name_H-M "P N N M"
_symmetry_group_IT_number 58
_symmetry_cell_setting 'orthorhombic'
loop_
_space_group_symop_operation_xyz
x,y,z
-x,-y,z
1/2+x,1/2-y,1/2-z
1/2-x,1/2+y,1/2-z
-x,-y,-z
x,y,-z
1/2-x,1/2+y,1/2+z
1/2+x,1/2-y,1/2+z
loop_
_atom_site_type_symbol
_atom_site_label
_atom_site_fract_x
_atom_site_fract_y
_atom_site_fract_z
Si Si1 0.317230 0.720727 0.174286
Si Si2 0.422540 0.899071 0.827683
Si Si3 0.980270 0.233963 0.175623
Si Si4 0.389231 0.452925 0.321123
Si Si5 0.197294 0.552482 0.176395
O O1 0.322855 0.831210 0.182942
O O2 0.407276 0.693045 0.286357
O O3 0.218641 0.660678 0.206878
O O4 0.344408 0.699691 0.000000
O O5 0.505406 0.833633 0.750009
O O6 0.389784 0.994999 0.758455
O O7 0.447429 0.908454 0.000000
O O8 0.904710 0.153930 0.226190
O O9 0.966510 0.246022 0.000000
O O10 0.500000 0.500000 0.302329
O O11 0.365653 0.456056 0.500000
O O12 0.302717 0.504494 0.228320
O O13 0.181319 0.541737 0.000000
#
# Coordination Sequence:
#
# PCOD9440930 Si02
#       5
#     8   8   8   8   8
#     4   8  17  30  43  62  91 122 149 186 226 264
#     4   9  18  32  45  62  91 123 156 190 229 272
#     4   9  16  28  45  62  88 121 152 183 219 269
#     4  10  18  28  43  67  96 124 151 183 230 280
#     4  11  20  29  46  71  95 123 159 190 227 276
#
# _framework density 23.349516999999999
#
# number of rings (size 3 to 8) (size 9 to 14) (size 15 to 20)
#    1.200    1.400    2.000    1.200    0.000    2.800 
#    0.000    0.000    0.000    0.000    0.000    1.400 
#    0.000   11.200    0.000    0.000    0.000    0.000 
#
# Total GULP energy -223130.975977 kJ/mol
# GULP energy per Si atom -5578.274399 kJ/mol
# Density = 2.329637 g / cm^3
# Si number density = 23.349517 Si / 1000 Ang^3
#
#
#
# Elastic Constant Matrix: (Units=GPa)
#
#
# Indices 1 2 3 4 5 6 
#
# 1 86.0585 24.0252 7.4442 0.0000 0.0000 0.0000
# 2 24.0252 180.5633 36.8542 0.0000 0.0000 0.0000
# 3 7.4442 36.8542 35.2119 0.0000 0.0000 0.0000
# 4 0.0000 0.0000 0.0000 16.2392 0.0000 0.0000
# 5 0.0000 0.0000 0.0000 0.0000 5.7997 0.0000
# 6 0.0000 0.0000 0.0000 0.0000 0.0000 44.3427
#
#
#
# Elastic Compliance Matrix: (Units=1/GPa)
#
#
# Indices 1 2 3 4 5 6 
#
# 1 0.012102 -0.001384 -0.001110 0.000000 0.000000 0.000000
# 2 -0.001384 0.007201 -0.007244 0.000000 0.000000 0.000000
# 3 -0.001110 -0.007244 0.036216 0.000000 0.000000 0.000000
# 4 0.000000 0.000000 0.000000 0.061579 0.000000 0.000000
# 5 0.000000 0.000000 0.000000 0.000000 0.172424 0.000000
# 6 0.000000 0.000000 0.000000 0.000000 0.000000 0.022552
#
#
# Mechanical properties :
#
#
# Convention : Reuss Voigt Hill
#
# Bulk Modulus (GPa) = 27.74459 48.72011 38.23235
# Shear Modulus (GPa) = 14.55327 28.84363 21.69845
#
# Velocity S-wave (km/s) = 2.49926 3.51849 3.05173
# Velocity P-wave (km/s) = 4.49850 6.11697 5.36907
#
# Compressibility (1/GPa) = 0.03604306
#
# Stress axis : x y z
#
# Youngs Moduli (GPa) = 82.62864 138.87079 27.61177
#
# Poissons Ratio (x) = 0.19215 0.03066
# Poissons Ratio (y) = 0.11433 0.20003
# Poissons Ratio (z) = 0.09175 1.00602
#
# Static dielectric constant tensor:
#      x y z
#    x 1.965130 0.000000 0.000000 
#    y 0.000000 1.953150 0.000000 
#    z 0.000000 0.000000 1.766870 
# 
# From -- ./inp_files/7450.got.cif
#   From: 2010.05.17/outbox.cif.g08.bks.cpg/sg58_4_cif.got.tgz:7450.got - 2010.06.03 14:20:14.
