data_PCOD9440553
_publ_section_title
;
Structure prediction by ZEFSAII (Michael W. Deem and Ramdas Pophale) SiO2 
 PCOD9440553
Probable space group: P B C M
;
_chemical_formula_sum "Si O2"
_cell_formula_units_Z 56
_cell_length_a 9.000000
_cell_length_b 15.000000
_cell_length_c 21.000000
_cell_angle_alpha 90.000000
_cell_angle_beta 90.000000
_cell_angle_gamma 90.000000
_cell_volume 2835.000000
_symmetry_space_group_name_H-M "P B C M"
_symmetry_group_IT_number 57
_symmetry_cell_setting 'orthorhombic'
loop_
_space_group_symop_operation_xyz
x,y,z
-x,-y,1/2+z
x,1/2-y,-z
-x,1/2+y,1/2-z
-x,-y,-z
x,y,1/2-z
-x,1/2+y,z
x,1/2-y,1/2+z
loop_
_atom_site_type_symbol
_atom_site_label
_atom_site_fract_x
_atom_site_fract_y
_atom_site_fract_z
Si Si1 0.859303 0.473769 0.571446
Si Si2 0.646071 0.693157 0.324760
Si Si3 0.595712 0.461662 0.825382
Si Si4 0.044510 0.110032 0.324228
Si Si5 0.543043 0.349213 0.326030
Si Si6 0.881999 0.295907 0.326045
Si Si7 0.004667 0.151985 0.533208
O O1 0.717678 0.460466 0.618349
O O2 0.887477 0.399560 0.515335
O O3 0.991519 0.460852 0.623778
O O4 0.871345 0.572797 0.540653
O O5 0.681046 0.708944 0.250000
O O6 0.510580 0.623908 0.328230
O O7 0.799139 0.650942 0.348083
O O8 0.584444 0.784633 0.353977
O O9 0.650765 0.467460 0.750000
O O10 0.493959 0.548419 0.838284
O O11 0.058637 0.078376 0.250000
O O12 0.926491 0.191551 0.324050
O O13 0.531863 0.338797 0.250000
O O14 0.709311 0.316772 0.339629
O O15 0.913090 0.326159 0.250000
O O16 0.959989 0.330618 0.391911
O O17 0.034951 0.250000 0.500000
#
# Coordination Sequence:
#
# PCOD9440553 Si02
#       7
#     8   8   8   8   8   8   8
#     4  11  24  41  66  90 125 180 217 260 327 390
#     4   9  19  34  55  91 136 165 203 270 324 368
#     4  10  21  38  63  98 134 168 215 270 327 387
#     4  10  20  36  64 100 129 166 220 268 314 378
#     4   9  19  35  58  90 127 165 204 262 328 374
#     4  10  21  39  68  94 120 164 217 265 318 386
#     4  11  25  44  64  91 131 168 216 269 326 377
#
# _framework density 19.753086
#
# number of rings (size 3 to 8) (size 9 to 14) (size 15 to 20)
#    0.000    2.000    1.429    1.286    4.000    3.429 
#    0.000    0.714    0.000    0.857    0.000    0.000 
#    0.000    0.000    0.000    0.000    0.000    0.000 
#
# Total GULP energy -311809.761760 kJ/mol
# GULP energy per Si atom -5568.031460 kJ/mol
# Density = 1.970813 g / cm^3
# Si number density = 19.753086 Si / 1000 Ang^3
#
#
#
# Elastic Constant Matrix: (Units=GPa)
#
#
# Indices 1 2 3 4 5 6 
#
# 1 31.3250 -10.0500 10.3759 0.0000 0.0000 0.0000
# 2 -10.0500 85.1708 17.5072 0.0000 0.0000 0.0000
# 3 10.3759 17.5072 96.8099 0.0000 0.0000 0.0000
# 4 0.0000 0.0000 0.0000 28.4865 0.0000 0.0000
# 5 0.0000 0.0000 0.0000 0.0000 25.4077 0.0000
# 6 0.0000 0.0000 0.0000 0.0000 0.0000 16.8664
#
#
#
# Elastic Compliance Matrix: (Units=1/GPa)
#
#
# Indices 1 2 3 4 5 6 
#
# 1 0.035114 0.005107 -0.004687 0.000000 0.000000 0.000000
# 2 0.005107 0.012937 -0.002887 0.000000 0.000000 0.000000
# 3 -0.004687 -0.002887 0.011354 0.000000 0.000000 0.000000
# 4 0.000000 0.000000 0.000000 0.035104 0.000000 0.000000
# 5 0.000000 0.000000 0.000000 0.000000 0.039358 0.000000
# 6 0.000000 0.000000 0.000000 0.000000 0.000000 0.059289
#
#
# Mechanical properties :
#
#
# Convention : Reuss Voigt Hill
#
# Bulk Modulus (GPa) = 18.35831 27.66356 23.01094
# Shear Modulus (GPa) = 23.12154 27.18362 25.15258
#
# Velocity S-wave (km/s) = 3.42501 3.71370 3.57227
# Velocity P-wave (km/s) = 4.99550 5.69420 5.35625
#
# Compressibility (1/GPa) = 0.05447124
#
# Stress axis : x y z
#
# Youngs Moduli (GPa) = 28.47841 77.29690 88.07515
#
# Poissons Ratio (x) = -0.39475 0.41281
# Poissons Ratio (y) = -0.14544 0.25427
# Poissons Ratio (z) = 0.13348 0.22315
#
# Static dielectric constant tensor:
#      x y z
#    x 1.728940 0.000000 0.000000 
#    y 0.000000 1.753780 0.000000 
#    z 0.000000 0.000000 1.706070 
# 
# From -- ./inp_files/24419.got.cif
#   From: 2010.05.17/outbox.ucp.g08.bks.cvg/sg57_13_cif.got.tgz:24419.got - 2010.06.11 16:39:23.
