data_PCOD9440224
_publ_section_title
;
Structure prediction by ZEFSAII (Michael W. Deem and Ramdas Pophale) SiO2 
 PCOD9440224
Probable space group: P B C M
;
_chemical_formula_sum "Si O2"
_cell_formula_units_Z 40
_cell_length_a 26.143663
_cell_length_b 9.085373
_cell_length_c 8.627523
_cell_angle_alpha 90.000000
_cell_angle_beta 90.000000
_cell_angle_gamma 90.000000
_cell_volume 2049.251796
_symmetry_space_group_name_H-M "P B C M"
_symmetry_group_IT_number 57
_symmetry_cell_setting 'orthorhombic'
loop_
_space_group_symop_operation_xyz
x,y,z
-x,-y,1/2+z
x,1/2-y,-z
-x,1/2+y,1/2-z
-x,-y,-z
x,y,1/2-z
-x,1/2+y,z
x,1/2-y,1/2+z
loop_
_atom_site_type_symbol
_atom_site_label
_atom_site_fract_x
_atom_site_fract_y
_atom_site_fract_z
Si Si1 0.246908 0.084807 0.064149
Si Si2 0.549366 0.915306 0.064794
Si Si3 0.049562 0.415667 0.935873
Si Si4 0.851476 0.415493 0.564490
Si Si5 0.647692 0.084980 0.935631
O O1 0.240199 0.087678 0.250000
O O2 0.299774 0.000724 0.029076
O O3 0.248971 0.250000 0.000000
O O4 0.199729 0.998869 0.988383
O O5 0.547284 0.911899 0.250000
O O6 0.550061 0.750000 0.000000
O O7 0.500000 0.000000 0.000000
O O8 0.600020 0.000003 0.009589
O O9 0.048533 0.413877 0.750000
O O10 0.049794 0.250000 0.000000
O O11 0.099949 0.499297 0.994914
O O12 0.000000 0.500000 0.000000
O O13 0.850668 0.250000 0.500000
O O14 0.854949 0.413287 0.750000
O O15 0.641301 0.088800 0.750000
O O16 0.650196 0.250000 0.000000
#
# Coordination Sequence:
#
# PCOD9440224 Si02
#       5
#     8   8   8   8   8
#     4  11  24  42  65  94 128 167 210 259 313 372
#     4  12  25  43  66  93 127 165 209 258 313 372
#     4  12  25  44  67  95 129 167 211 259 314 373
#     4  12  25  43  66  94 128 167 211 260 314 373
#     4  11  24  42  65  94 128 166 210 258 313 372
#
# _framework density 19.519317999999998
#
# number of rings (size 3 to 8) (size 9 to 14) (size 15 to 20)
#    0.000    0.400    0.000    9.600    0.000    6.400 
#    0.000    0.000    0.000    0.000    0.000    0.000 
#    0.000    0.000    0.000    0.000    0.000    0.000 
#
# Total GULP energy -224142.224273 kJ/mol
# GULP energy per Si atom -5603.555607 kJ/mol
# Density = 1.947489 g / cm^3
# Si number density = 19.519318 Si / 1000 Ang^3
#
#
#
# Elastic Constant Matrix: (Units=GPa)
#
#
# Indices 1 2 3 4 5 6 
#
# 1 206.9013 130.4070 124.7239 0.0000 0.0000 0.0000
# 2 130.4070 242.0323 112.0766 0.0000 0.0000 0.0000
# 3 124.7239 112.0766 203.0029 0.0000 0.0000 0.0000
# 4 0.0000 0.0000 0.0000 41.7890 0.0000 0.0000
# 5 0.0000 0.0000 0.0000 0.0000 34.0207 0.0000
# 6 0.0000 0.0000 0.0000 0.0000 0.0000 30.8772
#
#
#
# Elastic Compliance Matrix: (Units=1/GPa)
#
#
# Indices 1 2 3 4 5 6 
#
# 1 0.009154 -0.003127 -0.003897 0.000000 0.000000 0.000000
# 2 -0.003127 0.006619 -0.001733 0.000000 0.000000 0.000000
# 3 -0.003897 -0.001733 0.008277 0.000000 0.000000 0.000000
# 4 0.000000 0.000000 0.000000 0.023930 0.000000 0.000000
# 5 0.000000 0.000000 0.000000 0.000000 0.029394 0.000000
# 6 0.000000 0.000000 0.000000 0.000000 0.000000 0.032386
#
#
# Mechanical properties :
#
#
# Convention : Reuss Voigt Hill
#
# Bulk Modulus (GPa) = 153.02668 154.03906 153.53287
# Shear Modulus (GPa) = 38.62371 40.31930 39.47150
#
# Velocity S-wave (km/s) = 4.45313 4.54983 4.50174
# Velocity P-wave (km/s) = 10.24735 10.32903 10.28827
#
# Compressibility (1/GPa) = 0.00653481
#
# Stress axis : x y z
#
# Youngs Moduli (GPa) = 109.24466 151.07682 120.81057
#
# Poissons Ratio (x) = 0.47246 0.47086
# Poissons Ratio (y) = 0.34164 0.20937
# Poissons Ratio (z) = 0.42578 0.26182
#
# Static dielectric constant tensor:
#      x y z
#    x 1.643190 0.000000 0.000000 
#    y 0.000000 1.634290 0.000000 
#    z 0.000000 0.000000 1.653350 
# 
# From -- ./inp_files/8897.got.cif
#   From: 2010.05.17/outbox.cif.g08.bks.cpg/sg57_5_cif.got.tgz:8897.got - 2010.06.03 13:58:18.
