data_PCOD9440402
_publ_section_title
;
Structure prediction by ZEFSAII (Michael W. Deem and Ramdas Pophale) SiO2 
 PCOD9440402
Probable space group: P B C M
;
_chemical_formula_sum "Si O2"
_cell_formula_units_Z 64
_cell_length_a 30.000000
_cell_length_b 15.000000
_cell_length_c 9.000000
_cell_angle_alpha 90.000000
_cell_angle_beta 90.000000
_cell_angle_gamma 90.000000
_cell_volume 4050.000000
_symmetry_space_group_name_H-M "P B C M"
_symmetry_group_IT_number 57
_symmetry_cell_setting 'orthorhombic'
loop_
_space_group_symop_operation_xyz
x,y,z
-x,-y,1/2+z
x,1/2-y,-z
-x,1/2+y,1/2-z
-x,-y,-z
x,y,1/2-z
-x,1/2+y,z
x,1/2-y,1/2+z
loop_
_atom_site_type_symbol
_atom_site_label
_atom_site_fract_x
_atom_site_fract_y
_atom_site_fract_z
Si Si1 0.478407 0.853073 0.069377
Si Si2 0.926516 0.849123 0.929522
Si Si3 0.432536 0.029808 0.571227
Si Si4 0.885668 0.351840 0.567784
Si Si5 0.655453 0.651108 0.568774
Si Si6 0.018744 0.849926 0.431435
Si Si7 0.840422 0.976056 0.928298
Si Si8 0.754061 0.651195 0.431133
O O1 0.473259 0.846209 0.250000
O O2 0.527314 0.898610 0.038720
O O3 0.474679 0.750000 0.000000
O O4 0.445092 0.933206 0.006233
O O5 0.933032 0.841709 0.750000
O O6 0.882885 0.910231 0.956148
O O7 0.919457 0.750000 0.000000
O O8 0.971876 0.888425 0.005294
O O9 0.432870 0.014717 0.750000
O O10 0.384926 0.079800 0.535132
O O11 0.877554 0.250000 0.500000
O O12 0.887175 0.346772 0.750000
O O13 0.933975 0.382249 0.499302
O O14 0.851082 0.429743 0.513007
O O15 0.644985 0.750000 0.500000
O O16 0.658685 0.657472 0.750000
O O17 0.704779 0.627420 0.500045
O O18 0.016916 0.750000 0.500000
O O19 0.019673 0.850966 0.250000
O O20 0.839328 0.993942 0.750000
O O21 0.794325 0.920413 0.964016
O O22 0.764686 0.750000 0.500000
O O23 0.750760 0.657835 0.250000
#
# Coordination Sequence:
#
# PCOD9440402 Si02
#       8
#     8   8   8   8   8   8   8   8
#     4  10  19  31  49  73 105 143 180 220 264 309
#     4  10  19  32  50  73 103 134 164 198 238 289
#     4   9  19  33  49  73 104 140 181 221 260 306
#     4  11  22  37  57  76  97 126 162 204 247 294
#     4  10  19  32  52  77 106 138 173 213 255 301
#     4  10  18  31  50  71  99 130 162 199 239 287
#     4  10  22  37  53  75 102 132 165 203 247 297
#     4  10  20  35  55  79 108 137 167 206 252 303
#
# _framework density 15.802469
#
# number of rings (size 3 to 8) (size 9 to 14) (size 15 to 20)
#    0.000    2.000    0.000    6.750    0.000    4.000 
#    0.000    0.000    0.000    0.750    0.000    5.250 
#    0.000    0.000    0.000    0.000    0.000    0.000 
#
# Total GULP energy -356477.542260 kJ/mol
# GULP energy per Si atom -5569.961598 kJ/mol
# Density = 1.576650 g / cm^3
# Si number density = 15.802469 Si / 1000 Ang^3
#
#
#
# Elastic Constant Matrix: (Units=GPa)
#
#
# Indices 1 2 3 4 5 6 
#
# 1 131.6242 62.5793 46.0972 0.0000 0.0000 0.0000
# 2 62.5793 124.4806 49.4371 0.0000 0.0000 0.0000
# 3 46.0972 49.4371 126.9163 0.0000 0.0000 0.0000
# 4 0.0000 0.0000 0.0000 36.1815 0.0000 0.0000
# 5 0.0000 0.0000 0.0000 0.0000 31.1726 0.0000
# 6 0.0000 0.0000 0.0000 0.0000 0.0000 39.3039
#
#
#
# Elastic Compliance Matrix: (Units=1/GPa)
#
#
# Indices 1 2 3 4 5 6 
#
# 1 0.010421 -0.004419 -0.002064 0.000000 0.000000 0.000000
# 2 -0.004419 0.011378 -0.002827 0.000000 0.000000 0.000000
# 3 -0.002064 -0.002827 0.009730 0.000000 0.000000 0.000000
# 4 0.000000 0.000000 0.000000 0.027638 0.000000 0.000000
# 5 0.000000 0.000000 0.000000 0.000000 0.032079 0.000000
# 6 0.000000 0.000000 0.000000 0.000000 0.000000 0.025443
#
#
# Mechanical properties :
#
#
# Convention : Reuss Voigt Hill
#
# Bulk Modulus (GPa) = 77.46386 77.69424 77.57905
# Shear Modulus (GPa) = 35.81347 36.32543 36.06945
#
# Velocity S-wave (km/s) = 4.76575 4.79970 4.78276
# Velocity P-wave (km/s) = 8.91121 8.94364 8.92744
#
# Compressibility (1/GPa) = 0.01290925
#
# Stress axis : x y z
#
# Youngs Moduli (GPa) = 95.95736 87.89057 102.77680
#
# Poissons Ratio (x) = 0.38843 0.21209
# Poissons Ratio (y) = 0.42408 0.29052
# Poissons Ratio (z) = 0.19802 0.24844
#
# Static dielectric constant tensor:
#      x y z
#    x 1.557990 0.000000 0.000000 
#    y 0.000000 1.550970 0.000000 
#    z 0.000000 0.000000 1.541490 
# 
# From -- ./inp_files/10339.got.cif
#   From: 2010.05.17/outbox.ucp.g08.bks.cvg/sg57_6_cif.got.tgz:10339.got - 2010.06.11 16:39:23.
