data_PCOD9440029
_publ_section_title
;
Structure prediction by ZEFSAII (Michael W. Deem and Ramdas Pophale) SiO2 
 PCOD9440029
Probable space group: P B C M
;
_chemical_formula_sum "Si O2"
_cell_formula_units_Z 64
_cell_length_a 22.201749
_cell_length_b 18.257229
_cell_length_c 8.672210
_cell_angle_alpha 90.000000
_cell_angle_beta 90.000000
_cell_angle_gamma 90.000000
_cell_volume 3515.214551
_symmetry_space_group_name_H-M "P B C M"
_symmetry_group_IT_number 57
_symmetry_cell_setting 'orthorhombic'
loop_
_space_group_symop_operation_xyz
x,y,z
-x,-y,1/2+z
x,1/2-y,-z
-x,1/2+y,1/2-z
-x,-y,-z
x,y,1/2-z
-x,1/2+y,z
x,1/2-y,1/2+z
loop_
_atom_site_type_symbol
_atom_site_label
_atom_site_fract_x
_atom_site_fract_y
_atom_site_fract_z
Si Si1 0.187788 0.948107 0.064405
Si Si2 0.609279 0.073382 0.062529
Si Si3 0.503841 0.830065 0.565072
Si Si4 0.935510 0.978405 0.563864
Si Si5 0.249282 0.102658 0.064489
Si Si6 0.124666 0.327606 0.564441
Si Si7 0.724820 0.331664 0.565397
Si Si8 0.378446 0.095442 0.934625
O O1 0.189036 0.940804 0.250000
O O2 0.119485 0.967916 0.017599
O O3 0.228052 0.019780 0.025074
O O4 0.217126 0.877330 0.988821
O O5 0.610251 0.072507 0.250000
O O6 0.547560 0.112480 0.014080
O O7 0.666308 0.121864 0.011864
O O8 0.613923 0.989220 0.011997
O O9 0.489655 0.750000 0.500000
O O10 0.503844 0.827330 0.750000
O O11 0.568456 0.856677 0.505919
O O12 0.937155 0.979050 0.750000
O O13 0.915630 0.896672 0.514857
O O14 0.000000 0.000000 0.500000
O O15 0.255421 0.106165 0.250000
O O16 0.193506 0.154043 0.017677
O O17 0.312310 0.120302 0.986550
O O18 0.105036 0.250000 0.500000
O O19 0.123731 0.325967 0.750000
O O20 0.723604 0.250000 0.500000
O O21 0.723442 0.328414 0.750000
O O22 0.382861 0.097676 0.750000
#
# Coordination Sequence:
#
# PCOD9440029 Si02
#       8
#     8   8   8   8   8   8   8   8
#     4   9  18  35  56  79 109 144 182 226 271 321
#     4   9  20  37  57  80 108 138 181 231 274 328
#     4  11  23  40  56  75 105 143 183 228 280 333
#     4   9  19  36  58  84 114 148 188 228 268 318
#     4   9  18  34  55  79 108 143 181 222 271 324
#     4   9  19  35  55  82 115 146 182 227 270 319
#     4  11  21  35  55  83 113 143 180 229 280 332
#     4  11  21  36  57  83 110 140 180 228 276 331
#
# _framework density 18.206568999999998
#
# number of rings (size 3 to 8) (size 9 to 14) (size 15 to 20)
#    0.000    2.250    1.250    3.375    0.000    2.000 
#    0.000    8.125    0.000    1.500    0.000    0.000 
#    0.000    0.000    0.000    0.000    0.000    0.000 
#
# Total GULP energy -357273.193337 kJ/mol
# GULP energy per Si atom -5582.393646 kJ/mol
# Density = 1.816513 g / cm^3
# Si number density = 18.206569 Si / 1000 Ang^3
#
#
#
# Elastic Constant Matrix: (Units=GPa)
#
#
# Indices 1 2 3 4 5 6 
#
# 1 111.8328 11.8675 18.1719 0.0000 0.0000 0.0000
# 2 11.8675 44.3889 8.4579 0.0000 0.0000 0.0000
# 3 18.1719 8.4579 25.6912 0.0000 0.0000 0.0000
# 4 0.0000 0.0000 0.0000 25.3793 0.0000 0.0000
# 5 0.0000 0.0000 0.0000 0.0000 24.7953 0.0000
# 6 0.0000 0.0000 0.0000 0.0000 0.0000 17.9020
#
#
#
# Elastic Compliance Matrix: (Units=1/GPa)
#
#
# Indices 1 2 3 4 5 6 
#
# 1 0.010189 -0.001441 -0.006732 0.000000 0.000000 0.000000
# 2 -0.001441 0.024240 -0.006961 0.000000 0.000000 0.000000
# 3 -0.006732 -0.006961 0.045977 0.000000 0.000000 0.000000
# 4 0.000000 0.000000 0.000000 0.039402 0.000000 0.000000
# 5 0.000000 0.000000 0.000000 0.000000 0.040330 0.000000
# 6 0.000000 0.000000 0.000000 0.000000 0.000000 0.055860
#
#
# Mechanical properties :
#
#
# Convention : Reuss Voigt Hill
#
# Bulk Modulus (GPa) = 19.94513 28.76750 24.35631
# Shear Modulus (GPa) = 19.01294 23.17636 21.09465
#
# Velocity S-wave (km/s) = 3.23505 3.57174 3.40756
# Velocity P-wave (km/s) = 4.99327 5.73103 5.37482
#
# Compressibility (1/GPa) = 0.05013755
#
# Stress axis : x y z
#
# Youngs Moduli (GPa) = 98.14691 41.25450 21.74985
#
# Poissons Ratio (x) = 0.05946 0.14643
# Poissons Ratio (y) = 0.14145 0.15139
# Poissons Ratio (z) = 0.66075 0.28716
#
# Static dielectric constant tensor:
#      x y z
#    x 1.609330 0.000000 0.000000 
#    y 0.000000 1.609860 0.000000 
#    z 0.000000 0.000000 1.613120 
# 
# From -- ./inp_files/8513.got.cif
#   From: 2010.05.17/outbox.cif.g08.bks.cpg/sg57_5_cif.got.tgz:8513.got - 2010.06.03 13:58:18.
