data_PCOD9440301
_publ_section_title
;
Structure prediction by ZEFSAII (Michael W. Deem and Ramdas Pophale) SiO2 
 PCOD9440301
Probable space group: P B C M
;
_chemical_formula_sum "Si O2"
_cell_formula_units_Z 40
_cell_length_a 13.441094
_cell_length_b 13.713279
_cell_length_c 9.513653
_cell_angle_alpha 90.000000
_cell_angle_beta 90.000000
_cell_angle_gamma 90.000000
_cell_volume 1753.570526
_symmetry_space_group_name_H-M "P B C M"
_symmetry_group_IT_number 57
_symmetry_cell_setting 'orthorhombic'
loop_
_space_group_symop_operation_xyz
x,y,z
-x,-y,1/2+z
x,1/2-y,-z
-x,1/2+y,1/2-z
-x,-y,-z
x,y,1/2-z
-x,1/2+y,z
x,1/2-y,1/2+z
loop_
_atom_site_type_symbol
_atom_site_label
_atom_site_fract_x
_atom_site_fract_y
_atom_site_fract_z
Si Si1 0.491225 0.346859 0.908539
Si Si2 0.338370 0.997263 0.006662
Si Si3 0.838669 0.750000 0.500000
Si Si4 0.009520 0.899551 0.583888
Si Si5 0.256307 0.374859 0.250000
Si Si6 0.800681 0.332932 0.089037
O O1 0.512464 0.316021 0.750000
O O2 0.577571 0.418311 0.963507
O O3 0.479172 0.250000 0.000000
O O4 0.393473 0.414696 0.914698
O O5 0.288455 0.045293 0.871527
O O6 0.258480 0.934076 0.090087
O O7 0.776534 0.702755 0.625605
O O8 0.912513 0.833641 0.560153
O O9 0.026882 0.915101 0.750000
O O10 0.102424 0.850051 0.506093
O O11 0.000000 0.000000 0.500000
O O12 0.821915 0.303657 0.250000
O O13 0.742695 0.250000 0.000000
#
# Coordination Sequence:
#
# PCOD9440301 Si02
#       6
#     8   8   4   8   4   8
#     4  11  26  48  80 115 158 199 256 320 399 476
#     4  11  27  48  78 113 155 205 262 322 399 475
#     4  12  28  50  76 110 158 200 268 328 398 462
#     4  12  27  47  75 108 150 208 266 330 400 466
#     4  12  28  50  78 110 156 206 262 330 392 480
#     4  12  27  46  74 109 157 209 273 332 396 479
#
# _framework density 22.810601999999999
#
# number of rings (size 3 to 8) (size 9 to 14) (size 15 to 20)
#    0.000    0.400    3.000    3.600   11.200    3.200 
#    1.800    0.000    0.000    0.000    0.000    0.000 
#    0.000    0.000    0.000    0.000    0.000    0.000 
#
# Total GULP energy -222875.755318 kJ/mol
# GULP energy per Si atom -5571.893883 kJ/mol
# Density = 2.275868 g / cm^3
# Si number density = 22.810602 Si / 1000 Ang^3
#
#
#
# Elastic Constant Matrix: (Units=GPa)
#
#
# Indices 1 2 3 4 5 6 
#
# 1 35.4281 44.5822 32.3676 0.0000 0.0000 0.0000
# 2 44.5822 183.2785 65.7742 0.0000 0.0000 0.0000
# 3 32.3676 65.7742 203.5864 0.0000 0.0000 0.0000
# 4 0.0000 0.0000 0.0000 32.9835 0.0000 0.0000
# 5 0.0000 0.0000 0.0000 0.0000 -0.7052 0.0000
# 6 0.0000 0.0000 0.0000 0.0000 0.0000 47.7336
#
#
#
# Elastic Compliance Matrix: (Units=1/GPa)
#
#
# Indices 1 2 3 4 5 6 
#
# 1 0.043300 -0.009119 -0.003938 0.000000 0.000000 0.000000
# 2 -0.009119 0.008092 -0.001165 0.000000 0.000000 0.000000
# 3 -0.003938 -0.001165 0.005914 0.000000 0.000000 0.000000
# 4 0.000000 0.000000 0.000000 0.030318 0.000000 0.000000
# 5 0.000000 0.000000 0.000000 0.000000 -1.418015 0.000000
# 6 0.000000 0.000000 0.000000 0.000000 0.000000 0.020950
#
#
# Mechanical properties :
#
#
# Convention : Reuss Voigt Hill
#
# Bulk Modulus (GPa) = 34.64690 78.63787 56.64239
# Shear Modulus (GPa) = -3.93275 34.64030 15.35378
#
# Velocity S-wave (km/s) = -1.31447 3.90116 2.59723
# Velocity P-wave (km/s) = 3.59418 7.40548 5.82062
#
# Compressibility (1/GPa) = 0.02886261
#
# Stress axis : x y z
#
# Youngs Moduli (GPa) = 23.09495 123.57283 169.08342
#
# Poissons Ratio (x) = 1.12690 0.66582
# Poissons Ratio (y) = 0.21061 0.19692
# Poissons Ratio (z) = 0.09094 0.14391
#
# Static dielectric constant tensor:
#      x y z
#    x 1.944010 0.000000 0.000000 
#    y 0.000000 1.943740 0.000000 
#    z 0.000000 0.000000 1.797190 
# 
# From -- ./inp_files/4309.got.cif
#   From: 2010.05.17/outbox.cif.g08.bks.cpg/sg57_3_cif.got.tgz:4309.got - 2010.06.03 13:58:18.
