data_PCOD9440740
_publ_section_title
;
Structure prediction by ZEFSAII (Michael W. Deem and Ramdas Pophale) SiO2 
 PCOD9440740
Probable space group: P N N M
;
_chemical_formula_sum "Si O2"
_cell_formula_units_Z 64
_cell_length_a 27.164072
_cell_length_b 18.909114
_cell_length_c 8.807904
_cell_angle_alpha 90.000000
_cell_angle_beta 90.000000
_cell_angle_gamma 90.000000
_cell_volume 4524.166979
_symmetry_space_group_name_H-M "P N N M"
_symmetry_group_IT_number 58
_symmetry_cell_setting 'orthorhombic'
loop_
_space_group_symop_operation_xyz
x,y,z
-x,-y,z
1/2+x,1/2-y,1/2-z
1/2-x,1/2+y,1/2-z
-x,-y,-z
x,y,-z
1/2-x,1/2+y,1/2+z
1/2+x,1/2-y,1/2+z
loop_
_atom_site_type_symbol
_atom_site_label
_atom_site_fract_x
_atom_site_fract_y
_atom_site_fract_z
Si Si1 0.150460 0.342746 0.679828
Si Si2 0.442952 0.917360 0.683791
Si Si3 0.945391 0.418650 0.815946
Si Si4 0.756025 0.575264 0.816823
Si Si5 0.697066 0.707185 0.825274
Si Si6 0.802821 0.787293 0.174816
Si Si7 0.348962 0.162527 0.681664
Si Si8 0.744431 0.919859 0.817006
O O1 0.153412 0.350767 0.500000
O O2 0.098348 0.369234 0.741850
O O3 0.193202 0.390695 0.756109
O O4 0.161950 0.261896 0.726837
O O5 0.439561 0.912476 0.500000
O O6 0.499035 0.899887 0.730973
O O7 0.434695 0.999845 0.726289
O O8 0.901701 0.367355 0.766284
O O9 0.946008 0.417797 0.000000
O O10 0.711759 0.628780 0.772203
O O11 0.749667 0.497500 0.750488
O O12 0.758168 0.573993 0.000000
O O13 0.749783 0.747684 0.824468
O O14 0.661215 0.756693 0.729539
O O15 0.680268 0.704617 0.000000
O O16 0.788861 0.866268 0.225853
O O17 0.819980 0.788307 0.000000
O O18 0.345613 0.156064 0.500000
O O19 0.305964 0.114705 0.754749
O O20 0.742188 0.921462 0.000000
#
# Coordination Sequence:
#
# PCOD9440740 Si02
#       8
#     8   8   8   8   8   8   8   8
#     4  11  20  28  41  62  84 107 140 175 205 238
#     4   9  16  30  46  57  78 110 141 172 206 241
#     4   8  16  28  43  61  78 105 143 174 200 240
#     4  10  19  30  43  58  80 111 142 168 201 245
#     4   8  16  29  41  56  79 107 138 169 201 238
#     4   8  16  30  43  56  79 110 137 163 200 244
#     4  10  17  26  42  62  83 109 141 170 201 241
#     4  10  19  29  42  62  85 107 136 171 205 241
#
# _framework density 14.146250999999999
#
# number of rings (size 3 to 8) (size 9 to 14) (size 15 to 20)
#    0.000    2.750    0.000    5.250    0.000    6.500 
#    0.000    3.125    0.000    0.000    0.000    0.000 
#    0.000    1.000    0.000   11.250    0.000    5.625 
#
# Total GULP energy -356464.397651 kJ/mol
# GULP energy per Si atom -5569.756213 kJ/mol
# Density = 1.411405 g / cm^3
# Si number density = 14.146251 Si / 1000 Ang^3
#
#
#
# Elastic Constant Matrix: (Units=GPa)
#
#
# Indices 1 2 3 4 5 6 
#
# 1 88.3480 60.8526 36.0274 0.0000 0.0000 0.0000
# 2 60.8526 119.1866 39.9108 0.0000 0.0000 0.0000
# 3 36.0274 39.9108 49.8844 0.0000 0.0000 0.0000
# 4 0.0000 0.0000 0.0000 30.7096 0.0000 0.0000
# 5 0.0000 0.0000 0.0000 0.0000 15.7218 0.0000
# 6 0.0000 0.0000 0.0000 0.0000 0.0000 24.8019
#
#
#
# Elastic Compliance Matrix: (Units=1/GPa)
#
#
# Indices 1 2 3 4 5 6 
#
# 1 0.019774 -0.007258 -0.008474 0.000000 0.000000 0.000000
# 2 -0.007258 0.014125 -0.006059 0.000000 0.000000 0.000000
# 3 -0.008474 -0.006059 0.031014 0.000000 0.000000 0.000000
# 4 0.000000 0.000000 0.000000 0.032563 0.000000 0.000000
# 5 0.000000 0.000000 0.000000 0.000000 0.063606 0.000000
# 6 0.000000 0.000000 0.000000 0.000000 0.000000 0.040320
#
#
# Mechanical properties :
#
#
# Convention : Reuss Voigt Hill
#
# Bulk Modulus (GPa) = 46.88111 59.00007 52.94059
# Shear Modulus (GPa) = 19.83394 22.28853 21.06123
#
# Velocity S-wave (km/s) = 3.74848 3.97366 3.86271
# Velocity P-wave (km/s) = 7.20743 7.92787 7.57622
#
# Compressibility (1/GPa) = 0.02133055
#
# Stress axis : x y z
#
# Youngs Moduli (GPa) = 50.57200 70.79711 32.24379
#
# Poissons Ratio (x) = 0.51386 0.27323
# Poissons Ratio (y) = 0.36706 0.19536
# Poissons Ratio (z) = 0.42854 0.42894
#
# Static dielectric constant tensor:
#      x y z
#    x 1.450620 0.000000 0.000000 
#    y 0.000000 1.479590 0.000000 
#    z 0.000000 0.000000 1.476450 
# 
# From -- ./inp_files/8539.got.cif
#   From: 2010.05.17/outbox.cif.g08.bks.cpg/sg58_5_cif.got.tgz:8539.got - 2010.06.03 14:20:14.
