data_PCOD9440985
_publ_section_title
;
Structure prediction by ZEFSAII (Michael W. Deem and Ramdas Pophale) SiO2 
 PCOD9440985
Probable space group: P N N M
;
_chemical_formula_sum "Si O2"
_cell_formula_units_Z 56
_cell_length_a 8.280654
_cell_length_b 20.502471
_cell_length_c 19.280195
_cell_angle_alpha 90.000000
_cell_angle_beta 90.000000
_cell_angle_gamma 90.000000
_cell_volume 3273.273291
_symmetry_space_group_name_H-M "P N N M"
_symmetry_group_IT_number 58
_symmetry_cell_setting 'orthorhombic'
loop_
_space_group_symop_operation_xyz
x,y,z
-x,-y,z
1/2+x,1/2-y,1/2-z
1/2-x,1/2+y,1/2-z
-x,-y,-z
x,y,-z
1/2-x,1/2+y,1/2+z
1/2+x,1/2-y,1/2+z
loop_
_atom_site_type_symbol
_atom_site_label
_atom_site_fract_x
_atom_site_fract_y
_atom_site_fract_z
Si Si1 0.680148 0.854796 0.862563
Si Si2 0.810124 0.984550 0.079188
Si Si3 0.952111 0.771213 0.190836
Si Si4 0.164171 0.407063 0.671303
Si Si5 0.209709 0.785062 0.917964
Si Si6 0.703076 0.663205 0.208025
Si Si7 0.540894 0.718672 0.919083
O O1 0.767104 0.908895 0.909701
O O2 0.814549 0.826464 0.811020
O O3 0.524886 0.888891 0.827728
O O4 0.620721 0.789792 0.903054
O O5 0.705880 0.025957 0.133488
O O6 0.770541 0.003478 0.000000
O O7 0.000000 0.000000 0.090254
O O8 0.869125 0.703184 0.206277
O O9 0.041296 0.766738 0.117051
O O10 0.081760 0.792061 0.247209
O O11 0.238597 0.351258 0.620880
O O12 0.254513 0.399406 0.745294
O O13 0.351034 0.732053 0.904266
O O14 0.199564 0.795092 0.000000
O O15 0.623799 0.666188 0.131953
O O16 0.560415 0.703293 0.000000
#
# Coordination Sequence:
#
# PCOD9440985 Si02
#       7
#     8   8   8   8   8   8   8
#     4  10  20  32  48  68  94 125 161 195 230 276
#     4  11  22  34  48  68  96 129 164 197 227 268
#     4  10  18  29  46  66  90 124 160 193 234 274
#     4  10  20  32  46  66  93 128 164 194 232 274
#     4   9  17  29  44  65  93 123 157 191 227 277
#     4  10  18  30  46  65  91 121 158 196 233 279
#     4   9  18  31  48  69  93 123 155 191 237 282
#
# _framework density 17.108256000000001
#
# number of rings (size 3 to 8) (size 9 to 14) (size 15 to 20)
#    0.000    2.143    0.000    6.429    0.000    6.286 
#    0.000    0.000    0.000    0.000    0.000    0.000 
#    0.000    7.429    0.000    2.286    0.000    4.429 
#
# Total GULP energy -312164.318328 kJ/mol
# GULP energy per Si atom -5574.362827 kJ/mol
# Density = 1.706932 g / cm^3
# Si number density = 17.108256 Si / 1000 Ang^3
#
#
#
# Elastic Constant Matrix: (Units=GPa)
#
#
# Indices 1 2 3 4 5 6 
#
# 1 72.2362 15.7154 24.6595 0.0000 0.0000 0.0000
# 2 15.7154 39.3684 25.5821 0.0000 0.0000 0.0000
# 3 24.6595 25.5821 78.0458 0.0000 0.0000 0.0000
# 4 0.0000 0.0000 0.0000 17.6331 0.0000 0.0000
# 5 0.0000 0.0000 0.0000 0.0000 22.8747 0.0000
# 6 0.0000 0.0000 0.0000 0.0000 0.0000 20.4575
#
#
#
# Elastic Compliance Matrix: (Units=1/GPa)
#
#
# Indices 1 2 3 4 5 6 
#
# 1 0.015984 -0.003937 -0.003760 0.000000 0.000000 0.000000
# 2 -0.003937 0.033246 -0.009653 0.000000 0.000000 0.000000
# 3 -0.003760 -0.009653 0.017165 0.000000 0.000000 0.000000
# 4 0.000000 0.000000 0.000000 0.056711 0.000000 0.000000
# 5 0.000000 0.000000 0.000000 0.000000 0.043716 0.000000
# 6 0.000000 0.000000 0.000000 0.000000 0.000000 0.048882
#
#
# Mechanical properties :
#
#
# Convention : Reuss Voigt Hill
#
# Bulk Modulus (GPa) = 31.55204 35.72940 33.64072
# Shear Modulus (GPa) = 19.15935 20.43928 19.79931
#
# Velocity S-wave (km/s) = 3.35010 3.46020 3.40560
# Velocity P-wave (km/s) = 5.78333 6.07401 5.93045
#
# Compressibility (1/GPa) = 0.03169367
#
# Stress axis : x y z
#
# Youngs Moduli (GPa) = 62.56451 30.07906 58.25783
#
# Poissons Ratio (x) = 0.11843 0.21902
# Poissons Ratio (y) = 0.24634 0.56238
# Poissons Ratio (z) = 0.23521 0.29036
#
# Static dielectric constant tensor:
#      x y z
#    x 1.631720 0.000000 0.000000 
#    y 0.000000 1.574900 0.000000 
#    z 0.000000 0.000000 1.597660 
# 
# From -- ./inp_files/25606.got.cif
#   From: 2010.05.17/outbox.cif.g08.bks.cpg/sg58_13_cif.got.tgz:25606.got - 2010.06.03 14:20:14.
