data_PCOD9440426
_publ_section_title
;
Structure prediction by ZEFSAII (Michael W. Deem and Ramdas Pophale) SiO2 
 PCOD9440426
Probable space group: P B C M
;
_chemical_formula_sum "Si O2"
_cell_formula_units_Z 64
_cell_length_a 24.000000
_cell_length_b 15.000000
_cell_length_c 9.000000
_cell_angle_alpha 90.000000
_cell_angle_beta 90.000000
_cell_angle_gamma 90.000000
_cell_volume 3240.000000
_symmetry_space_group_name_H-M "P B C M"
_symmetry_group_IT_number 57
_symmetry_cell_setting 'orthorhombic'
loop_
_space_group_symop_operation_xyz
x,y,z
-x,-y,1/2+z
x,1/2-y,-z
-x,1/2+y,1/2-z
-x,-y,-z
x,y,1/2-z
-x,1/2+y,z
x,1/2-y,1/2+z
loop_
_atom_site_type_symbol
_atom_site_label
_atom_site_fract_x
_atom_site_fract_y
_atom_site_fract_z
Si Si1 0.206920 0.155074 0.427431
Si Si2 0.347608 0.653362 0.571782
Si Si3 0.888512 0.340009 0.080067
Si Si4 0.310707 0.467199 0.929235
Si Si5 0.528666 0.347478 0.071968
Si Si6 0.592951 0.650557 0.570868
Si Si7 0.103940 0.464648 0.570566
Si Si8 0.023242 0.341142 0.420154
O O1 0.215925 0.250000 0.500000
O O2 0.207388 0.165791 0.250000
O O3 0.255155 0.085887 0.466921
O O4 0.148896 0.109995 0.469431
O O5 0.338173 0.750000 0.500000
O O6 0.345367 0.664998 0.750000
O O7 0.308375 0.571335 0.528513
O O8 0.410167 0.618206 0.531086
O O9 0.868908 0.336281 0.250000
O O10 0.875781 0.438159 0.017351
O O11 0.956145 0.340264 0.079268
O O12 0.869598 0.250000 0.000000
O O13 0.318801 0.464169 0.750000
O O14 0.360689 0.414207 0.006202
O O15 0.528389 0.340137 0.250000
O O16 0.468809 0.387630 0.030862
O O17 0.527366 0.250000 0.000000
O O18 0.598452 0.750000 0.500000
O O19 0.597306 0.657970 0.750000
O O20 0.098788 0.470585 0.750000
O O21 0.047314 0.426982 0.502738
O O22 0.041596 0.250000 0.500000
O O23 0.042121 0.341069 0.250000
#
# Coordination Sequence:
#
# PCOD9440426 Si02
#       8
#     8   8   8   8   8   8   8   8
#     4  10  22  39  57  76 101 132 167 209 255 301
#     4   9  18  34  54  74 100 132 166 205 250 300
#     4   9  19  34  52  76 108 142 173 208 252 302
#     4  10  21  36  53  74 100 133 170 209 255 302
#     4   8  15  28  46  70  99 130 162 198 244 298
#     4  10  19  31  49  74 103 133 166 205 250 302
#     4  10  20  35  54  76 103 137 176 216 257 300
#     4  10  19  31  50  78 109 140 173 210 254 305
#
# _framework density 19.753086
#
# number of rings (size 3 to 8) (size 9 to 14) (size 15 to 20)
#    0.000    2.500    0.000    1.875    0.000    5.500 
#    0.000    0.625    0.000    0.000    0.000    0.000 
#    0.000    0.000    0.000    0.000    0.000    0.000 
#
# Total GULP energy -356731.431787 kJ/mol
# GULP energy per Si atom -5573.928622 kJ/mol
# Density = 1.970813 g / cm^3
# Si number density = 19.753086 Si / 1000 Ang^3
#
#
#
# Elastic Constant Matrix: (Units=GPa)
#
#
# Indices 1 2 3 4 5 6 
#
# 1 38.7716 34.4375 16.9154 0.0000 0.0000 0.0000
# 2 34.4375 119.0943 24.8126 0.0000 0.0000 0.0000
# 3 16.9154 24.8126 15.5307 0.0000 0.0000 0.0000
# 4 0.0000 0.0000 0.0000 27.7305 0.0000 0.0000
# 5 0.0000 0.0000 0.0000 0.0000 12.8001 0.0000
# 6 0.0000 0.0000 0.0000 0.0000 0.0000 11.7829
#
#
#
# Elastic Compliance Matrix: (Units=1/GPa)
#
#
# Indices 1 2 3 4 5 6 
#
# 1 0.050874 -0.004746 -0.047827 0.000000 0.000000 0.000000
# 2 -0.004746 0.013029 -0.015646 0.000000 0.000000 0.000000
# 3 -0.047827 -0.015646 0.141477 0.000000 0.000000 0.000000
# 4 0.000000 0.000000 0.000000 0.036061 0.000000 0.000000
# 5 0.000000 0.000000 0.000000 0.000000 0.078125 0.000000
# 6 0.000000 0.000000 0.000000 0.000000 0.000000 0.084868
#
#
# Mechanical properties :
#
#
# Convention : Reuss Voigt Hill
#
# Bulk Modulus (GPa) = 14.50515 36.19195 25.34855
# Shear Modulus (GPa) = 8.86757 16.94476 12.90616
#
# Velocity S-wave (km/s) = 2.12107 2.93205 2.55889
# Velocity P-wave (km/s) = 3.65483 5.46118 4.64663
#
# Compressibility (1/GPa) = 0.06894105
#
# Stress axis : x y z
#
# Youngs Moduli (GPa) = 19.65648 76.75198 7.06831
#
# Poissons Ratio (x) = 0.36429 0.33805
# Poissons Ratio (y) = 0.09330 0.11059
# Poissons Ratio (z) = 0.94010 1.20088
#
# Static dielectric constant tensor:
#      x y z
#    x 1.772840 0.000000 0.000000 
#    y 0.000000 1.689700 0.000000 
#    z 0.000000 0.000000 1.668490 
# 
# From -- ./inp_files/9338.got.cif
#   From: 2010.05.17/outbox.ucp.g08.bks.cvg/sg57_5_cif.got.tgz:9338.got - 2010.06.11 16:39:23.
