data_PCOD9440855
_publ_section_title
;
Structure prediction by ZEFSAII (Michael W. Deem and Ramdas Pophale) SiO2 
 PCOD9440855
Probable space group: P N N M
;
_chemical_formula_sum "Si O2"
_cell_formula_units_Z 52
_cell_length_a 14.956933
_cell_length_b 8.059244
_cell_length_c 20.797397
_cell_angle_alpha 90.000000
_cell_angle_beta 90.000000
_cell_angle_gamma 90.000000
_cell_volume 2506.950939
_symmetry_space_group_name_H-M "P N N M"
_symmetry_group_IT_number 58
_symmetry_cell_setting 'orthorhombic'
loop_
_space_group_symop_operation_xyz
x,y,z
-x,-y,z
1/2+x,1/2-y,1/2-z
1/2-x,1/2+y,1/2-z
-x,-y,-z
x,y,-z
1/2-x,1/2+y,1/2+z
1/2+x,1/2-y,1/2+z
loop_
_atom_site_type_symbol
_atom_site_label
_atom_site_fract_x
_atom_site_fract_y
_atom_site_fract_z
Si Si1 0.629877 0.360990 0.706339
Si Si2 0.886729 0.293270 0.931107
Si Si3 0.319478 0.819356 0.924783
Si Si4 0.369953 0.017320 0.304248
Si Si5 0.500000 0.500000 0.396829
Si Si6 0.158341 0.004448 0.658684
Si Si7 0.838832 0.367420 0.332482
O O1 0.579850 0.450470 0.649704
O O2 0.611945 0.445975 0.774550
O O3 0.734542 0.366378 0.688380
O O4 0.601528 0.170213 0.707612
O O5 0.788950 0.206670 0.922372
O O6 0.907501 0.400445 0.868348
O O7 0.882148 0.385051 0.000000
O O8 0.962983 0.155754 0.934344
O O9 0.356653 0.648349 0.893653
O O10 0.348409 0.976820 0.880905
O O11 0.343198 0.839604 0.000000
O O12 0.263650 0.012286 0.321461
O O13 0.385913 0.110405 0.236959
O O14 0.138694 0.814511 0.639658
#
# Coordination Sequence:
#
# PCOD9440855 Si02
#       7
#     8   8   8   8   4   8   8
#     4  10  19  32  50  76  99 134 181 225 257 302
#     4  10  21  36  49  71 107 147 182 217 258 307
#     4  10  19  33  52  79 111 137 169 216 271 324
#     4   9  18  33  55  72  97 133 181 228 269 305
#     4  12  21  32  50  70 105 150 186 218 249 302
#     4   9  18  31  53  78 103 129 171 224 276 309
#     4  10  17  32  55  78 101 133 176 224 268 312
#
# _framework density 20.742329000000002
#
# number of rings (size 3 to 8) (size 9 to 14) (size 15 to 20)
#    0.000    2.154    3.077    1.154    4.308    1.231 
#    0.000    4.615    0.000    0.000    0.000    0.538 
#    0.000    4.000    0.000    0.154    0.000    0.000 
#
# Total GULP energy -290076.695486 kJ/mol
# GULP energy per Si atom -5578.397990 kJ/mol
# Density = 2.069512 g / cm^3
# Si number density = 20.742329 Si / 1000 Ang^3
#
#
#
# Elastic Constant Matrix: (Units=GPa)
#
#
# Indices 1 2 3 4 5 6 
#
# 1 16.6531 5.1979 19.4992 0.0000 0.0000 0.0000
# 2 5.1979 148.8670 86.5858 0.0000 0.0000 0.0000
# 3 19.4992 86.5858 164.2826 0.0000 0.0000 0.0000
# 4 0.0000 0.0000 0.0000 53.7339 0.0000 0.0000
# 5 0.0000 0.0000 0.0000 0.0000 -2.1038 0.0000
# 6 0.0000 0.0000 0.0000 0.0000 0.0000 10.3655
#
#
#
# Elastic Compliance Matrix: (Units=1/GPa)
#
#
# Indices 1 2 3 4 5 6 
#
# 1 0.070979 0.003492 -0.010265 0.000000 0.000000 0.000000
# 2 0.003492 0.009859 -0.005611 0.000000 0.000000 0.000000
# 3 -0.010265 -0.005611 0.010263 0.000000 0.000000 0.000000
# 4 0.000000 0.000000 0.000000 0.018610 0.000000 0.000000
# 5 0.000000 0.000000 0.000000 0.000000 -0.475324 0.000000
# 6 0.000000 0.000000 0.000000 0.000000 0.000000 0.096474
#
#
# Mechanical properties :
#
#
# Convention : Reuss Voigt Hill
#
# Bulk Modulus (GPa) = 15.07550 61.37427 38.22488
# Shear Modulus (GPa) = -22.49604 26.96709 2.23552
#
# Velocity S-wave (km/s) = -3.29682 3.60960 1.03928
# Velocity P-wave (km/s) = 2.68482 6.85751 4.46190
#
# Compressibility (1/GPa) = 0.06633279
#
# Stress axis : x y z
#
# Youngs Moduli (GPa) = 14.08875 101.43231 97.44117
#
# Poissons Ratio (x) = -0.35424 1.00027
# Poissons Ratio (y) = -0.04920 0.54671
# Poissons Ratio (z) = 0.14463 0.56910
#
# Static dielectric constant tensor:
#      x y z
#    x 1.792590 0.000000 0.000000 
#    y 0.000000 1.755870 0.000000 
#    z 0.000000 0.000000 1.736150 
# 
# From -- ./inp_files/27263.got.cif
#   From: 2010.05.17/outbox.cif.g08.bks.cpg/sg58_14_cif.got.tgz:27263.got - 2010.06.03 14:20:14.
