data_PCOD9440107
_publ_section_title
;
Structure prediction by ZEFSAII (Michael W. Deem and Ramdas Pophale) SiO2 
 PCOD9440107
Probable space group: P B C M
;
_chemical_formula_sum "Si O2"
_cell_formula_units_Z 32
_cell_length_a 8.342903
_cell_length_b 9.493888
_cell_length_c 15.311488
_cell_angle_alpha 90.000000
_cell_angle_beta 90.000000
_cell_angle_gamma 90.000000
_cell_volume 1212.770701
_symmetry_space_group_name_H-M "P B C M"
_symmetry_group_IT_number 57
_symmetry_cell_setting 'orthorhombic'
loop_
_space_group_symop_operation_xyz
x,y,z
-x,-y,1/2+z
x,1/2-y,-z
-x,1/2+y,1/2-z
-x,-y,-z
x,y,1/2-z
-x,1/2+y,z
x,1/2-y,1/2+z
loop_
_atom_site_type_symbol
_atom_site_label
_atom_site_fract_x
_atom_site_fract_y
_atom_site_fract_z
Si Si1 0.307442 0.807032 0.904327
Si Si2 0.493709 0.057001 0.653622
Si Si3 0.003685 0.508414 0.393989
Si Si4 0.804801 0.747877 0.894002
O O1 0.359602 0.664113 0.857453
O O2 0.158912 0.897537 0.869808
O O3 0.452255 0.923489 0.908122
O O4 0.267044 0.750000 0.000000
O O5 0.491396 0.994274 0.750000
O O6 0.347747 0.167886 0.641984
O O7 0.045513 0.351429 0.366771
O O8 0.000000 0.500000 0.500000
O O9 0.848048 0.594796 0.365367
O O10 0.791729 0.750000 0.000000
#
# Coordination Sequence:
#
# PCOD9440107 Si02
#       4
#     8   8   8   8
#     4  11  22  39  64  89 117 160 210 255 304 366
#     4  11  24  40  56  85 125 160 196 251 309 368
#     4   9  18  34  59  90 116 145 195 255 299 349
#     4   9  18  35  58  84 115 151 196 245 297 359
#
# _framework density 26.385861999999999
#
# number of rings (size 3 to 8) (size 9 to 14) (size 15 to 20)
#    0.000    2.000    0.000    4.500    0.000    6.000 
#    0.000    6.250    0.000    0.000    0.000    0.000 
#    0.000    0.000    0.000    0.000    0.000    0.000 
#
# Total GULP energy -178918.385529 kJ/mol
# GULP energy per Si atom -5591.199548 kJ/mol
# Density = 2.632581 g / cm^3
# Si number density = 26.385862 Si / 1000 Ang^3
#
#
#
# Elastic Constant Matrix: (Units=GPa)
#
#
# Indices 1 2 3 4 5 6 
#
# 1 49.4485 50.1963 -0.2388 0.0000 0.0000 0.0000
# 2 50.1963 174.8603 5.5321 0.0000 0.0000 0.0000
# 3 -0.2388 5.5321 36.5289 0.0000 0.0000 0.0000
# 4 0.0000 0.0000 0.0000 13.9022 0.0000 0.0000
# 5 0.0000 0.0000 0.0000 0.0000 -7.9618 0.0000
# 6 0.0000 0.0000 0.0000 0.0000 0.0000 68.1071
#
#
#
# Elastic Compliance Matrix: (Units=1/GPa)
#
#
# Indices 1 2 3 4 5 6 
#
# 1 0.028615 -0.008260 0.001438 0.000000 0.000000 0.000000
# 2 -0.008260 0.008131 -0.001285 0.000000 0.000000 0.000000
# 3 0.001438 -0.001285 0.027580 0.000000 0.000000 0.000000
# 4 0.000000 0.000000 0.000000 0.071931 0.000000 0.000000
# 5 0.000000 0.000000 0.000000 0.000000 -0.125600 0.000000
# 6 0.000000 0.000000 0.000000 0.000000 0.000000 0.014683
#
#
# Mechanical properties :
#
#
# Convention : Reuss Voigt Hill
#
# Bulk Modulus (GPa) = 20.78539 41.31297 31.04918
# Shear Modulus (GPa) = 86.82024 28.49938 57.65981
#
# Velocity S-wave (km/s) = 5.74243 3.29005 4.67974
# Velocity P-wave (km/s) = 7.20152 5.48852 6.40257
#
# Compressibility (1/GPa) = 0.04811072
#
# Stress axis : x y z
#
# Youngs Moduli (GPa) = 34.94712 122.99210 36.25858
#
# Poissons Ratio (x) = 1.01589 -0.05214
# Poissons Ratio (y) = 0.28865 0.04660
# Poissons Ratio (z) = -0.05025 0.15809
#
# Static dielectric constant tensor:
#      x y z
#    x 2.199850 0.000000 0.000000 
#    y 0.000000 1.990630 0.000000 
#    z 0.000000 0.000000 2.120550 
# 
# From -- ./inp_files/23941.got.cif
#   From: 2010.05.17/outbox.cif.g08.bks.cpg/sg57_12_cif.got.tgz:23941.got - 2010.06.03 13:58:18.
