data_PCOD9440604
_publ_section_title
;
Structure prediction by ZEFSAII (Michael W. Deem and Ramdas Pophale) SiO2 
 PCOD9440604
Probable space group: P B C M
;
_chemical_formula_sum "Si O2"
_cell_formula_units_Z 40
_cell_length_a 12.000000
_cell_length_b 12.000000
_cell_length_c 15.000000
_cell_angle_alpha 90.000000
_cell_angle_beta 90.000000
_cell_angle_gamma 90.000000
_cell_volume 2160.000000
_symmetry_space_group_name_H-M "P B C M"
_symmetry_group_IT_number 57
_symmetry_cell_setting 'orthorhombic'
loop_
_space_group_symop_operation_xyz
x,y,z
-x,-y,1/2+z
x,1/2-y,-z
-x,1/2+y,1/2-z
-x,-y,-z
x,y,1/2-z
-x,1/2+y,z
x,1/2-y,1/2+z
loop_
_atom_site_type_symbol
_atom_site_label
_atom_site_fract_x
_atom_site_fract_y
_atom_site_fract_z
Si Si1 0.100179 0.329933 0.085942
Si Si2 0.392969 0.072570 0.985641
Si Si3 0.178698 0.569182 0.467866
Si Si4 0.863380 0.291088 0.146912
Si Si5 0.339478 0.258616 0.855729
O O1 0.104589 0.458913 0.053762
O O2 0.214248 0.289259 0.131531
O O3 0.995885 0.308817 0.148393
O O4 0.085392 0.250000 0.000000
O O5 0.410238 0.163130 0.906956
O O6 0.299089 0.985390 0.957335
O O7 0.354562 0.136243 0.076866
O O8 0.500000 0.000000 0.000000
O O9 0.171681 0.620489 0.568469
O O10 0.159562 0.669727 0.397832
O O11 0.821069 0.301451 0.250000
O O12 0.362429 0.275814 0.750000
#
# Coordination Sequence:
#
# PCOD9440604 Si02
#       5
#     8   8   8   8   8
#     4  11  19  40  62  85 117 160 195 240 287 352
#     4  10  22  41  62  83 115 156 193 249 304 340
#     4  10  22  41  58  82 123 154 198 243 292 351
#     4  11  24  36  58  91 124 159 192 236 296 353
#     4  10  21  38  61  89 114 148 202 244 287 354
#
# _framework density 18.518519000000001
#
# number of rings (size 3 to 8) (size 9 to 14) (size 15 to 20)
#    0.000    1.600    6.000    1.200    0.000    8.800 
#    0.000    2.000    0.000    0.000    0.000    0.000 
#    0.000    0.000    0.000    0.000    0.000    0.000 
#
# Total GULP energy -222794.793902 kJ/mol
# GULP energy per Si atom -5569.869848 kJ/mol
# Density = 1.847637 g / cm^3
# Si number density = 18.518519 Si / 1000 Ang^3
#
#
#
# Elastic Constant Matrix: (Units=GPa)
#
#
# Indices 1 2 3 4 5 6 
#
# 1 59.9848 30.7317 -4.0353 0.0000 0.0000 0.0000
# 2 30.7317 132.0324 37.4542 0.0000 0.0000 0.0000
# 3 -4.0353 37.4542 141.9089 0.0000 0.0000 0.0000
# 4 0.0000 0.0000 0.0000 14.7068 0.0000 0.0000
# 5 0.0000 0.0000 0.0000 0.0000 13.6057 0.0000
# 6 0.0000 0.0000 0.0000 0.0000 0.0000 21.2012
#
#
#
# Elastic Compliance Matrix: (Units=1/GPa)
#
#
# Indices 1 2 3 4 5 6 
#
# 1 0.019383 -0.005046 0.001883 0.000000 0.000000 0.000000
# 2 -0.005046 0.009500 -0.002651 0.000000 0.000000 0.000000
# 3 0.001883 -0.002651 0.007800 0.000000 0.000000 0.000000
# 4 0.000000 0.000000 0.000000 0.067996 0.000000 0.000000
# 5 0.000000 0.000000 0.000000 0.000000 0.073498 0.000000
# 6 0.000000 0.000000 0.000000 0.000000 0.000000 0.047167
#
#
# Mechanical properties :
#
#
# Convention : Reuss Voigt Hill
#
# Bulk Modulus (GPa) = 39.91133 51.35859 45.63496
# Shear Modulus (GPa) = 20.38128 27.88778 24.13453
#
# Velocity S-wave (km/s) = 3.32111 3.88485 3.61399
# Velocity P-wave (km/s) = 6.02539 6.92218 6.48930
#
# Compressibility (1/GPa) = 0.02505554
#
# Stress axis : x y z
#
# Youngs Moduli (GPa) = 51.59284 105.25992 128.20563
#
# Poissons Ratio (x) = 0.53110 -0.24139
# Poissons Ratio (y) = 0.26032 0.33986
# Poissons Ratio (z) = -0.09714 0.27903
#
# Static dielectric constant tensor:
#      x y z
#    x 1.699980 0.000000 0.000000 
#    y 0.000000 1.614180 0.000000 
#    z 0.000000 0.000000 1.648110 
# 
# From -- ./inp_files/17380.got.cif
#   From: 2010.05.17/outbox.ucp.g08.bks.cvg/sg57_9_cif.got.tgz:17380.got - 2010.06.11 16:39:23.
