data_PCOD9440356
_publ_section_title
;
Structure prediction by ZEFSAII (Michael W. Deem and Ramdas Pophale) SiO2 
 PCOD9440356
Probable space group: P B C M
;
_chemical_formula_sum "Si O2"
_cell_formula_units_Z 32
_cell_length_a 7.131830
_cell_length_b 8.237697
_cell_length_c 22.380956
_cell_angle_alpha 90.000000
_cell_angle_beta 90.000000
_cell_angle_gamma 90.000000
_cell_volume 1314.877911
_symmetry_space_group_name_H-M "P B C M"
_symmetry_group_IT_number 57
_symmetry_cell_setting 'orthorhombic'
loop_
_space_group_symop_operation_xyz
x,y,z
-x,-y,1/2+z
x,1/2-y,-z
-x,1/2+y,1/2-z
-x,-y,-z
x,y,1/2-z
-x,1/2+y,z
x,1/2-y,1/2+z
loop_
_atom_site_type_symbol
_atom_site_label
_atom_site_fract_x
_atom_site_fract_y
_atom_site_fract_z
Si Si1 0.721327 0.605016 0.630199
Si Si2 0.380207 0.887963 0.455959
Si Si3 0.786772 0.439679 0.250000
Si Si4 0.073162 0.056576 0.375262
Si Si5 0.604590 0.421735 0.750000
O O1 0.535868 0.657387 0.594196
O O2 0.659386 0.525245 0.692082
O O3 0.859602 0.466822 0.603650
O O4 0.853983 0.761558 0.632579
O O5 0.310645 0.750000 0.500000
O O6 0.212197 0.974047 0.422084
O O7 0.500000 0.000000 0.500000
O O8 0.902163 0.472382 0.189828
O O9 0.620883 0.574268 0.250000
O O10 0.697663 0.257480 0.250000
#
# Coordination Sequence:
#
# PCOD9440356 Si02
#       5
#     8   8   4   8   4
#     4  12  27  47  75 108 143 187 236 295 356 423
#     4  12  28  49  72 102 143 190 242 290 350 418
#     4  12  25  44  75 107 145 185 230 294 357 430
#     4  12  27  47  75 107 145 185 237 293 358 421
#     4  12  25  44  75 107 145 183 234 288 365 422
#
# _framework density 24.336862
#
# number of rings (size 3 to 8) (size 9 to 14) (size 15 to 20)
#    0.000    0.000    5.000    4.500    7.000    2.000 
#    0.000    0.000    0.000    0.000    0.000    0.000 
#    0.000    0.000    0.000    0.000    0.000    0.000 
#
# Total GULP energy -179326.151894 kJ/mol
# GULP energy per Si atom -5603.942247 kJ/mol
# Density = 2.428147 g / cm^3
# Si number density = 24.336862 Si / 1000 Ang^3
#
#
#
# Elastic Constant Matrix: (Units=GPa)
#
#
# Indices 1 2 3 4 5 6 
#
# 1 90.0221 -28.8577 14.0247 0.0000 0.0000 0.0000
# 2 -28.8577 64.3757 19.8206 0.0000 0.0000 0.0000
# 3 14.0247 19.8206 107.8873 0.0000 0.0000 0.0000
# 4 0.0000 0.0000 0.0000 22.8068 0.0000 0.0000
# 5 0.0000 0.0000 0.0000 0.0000 0.5503 0.0000
# 6 0.0000 0.0000 0.0000 0.0000 0.0000 43.3841
#
#
#
# Elastic Compliance Matrix: (Units=1/GPa)
#
#
# Indices 1 2 3 4 5 6 
#
# 1 0.013902 0.007196 -0.003129 0.000000 0.000000 0.000000
# 2 0.007196 0.020189 -0.004644 0.000000 0.000000 0.000000
# 3 -0.003129 -0.004644 0.010529 0.000000 0.000000 0.000000
# 4 0.000000 0.000000 0.000000 0.043847 0.000000 0.000000
# 5 0.000000 0.000000 0.000000 0.000000 1.817046 0.000000
# 6 0.000000 0.000000 0.000000 0.000000 0.000000 0.023050
#
#
# Mechanical properties :
#
#
# Convention : Reuss Voigt Hill
#
# Bulk Modulus (GPa) = 23.00726 30.25114 26.62920
# Shear Modulus (GPa) = 2.57174 30.50141 16.53657
#
# Velocity S-wave (km/s) = 1.02909 3.54404 2.60952
# Velocity P-wave (km/s) = 3.29943 5.40408 4.47718
#
# Compressibility (1/GPa) = 0.04346454
#
# Stress axis : x y z
#
# Youngs Moduli (GPa) = 71.92954 49.53111 94.97613
#
# Poissons Ratio (x) = -0.35640 0.29720
# Poissons Ratio (y) = -0.51757 0.44111
# Poissons Ratio (z) = 0.22508 0.23005
#
# Static dielectric constant tensor:
#      x y z
#    x 1.962170 0.000000 0.000000 
#    y 0.000000 1.991440 0.000000 
#    z 0.000000 0.000000 1.923550 
# 
# From -- ./inp_files/23964.got.cif
#   From: 2010.05.17/outbox.cif.g08.bks.cpg/sg57_12_cif.got.tgz:23964.got - 2010.06.03 13:58:18.
