data_PCOD9440689
_publ_section_title
;
Structure prediction by ZEFSAII (Michael W. Deem and Ramdas Pophale) SiO2 
 PCOD9440689
Probable space group: P N N M
;
_chemical_formula_sum "Si O2"
_cell_formula_units_Z 52
_cell_length_a 7.050968
_cell_length_b 18.366669
_cell_length_c 14.415787
_cell_angle_alpha 90.000000
_cell_angle_beta 90.000000
_cell_angle_gamma 90.000000
_cell_volume 1866.884714
_symmetry_space_group_name_H-M "P N N M"
_symmetry_group_IT_number 58
_symmetry_cell_setting 'orthorhombic'
loop_
_space_group_symop_operation_xyz
x,y,z
-x,-y,z
1/2+x,1/2-y,1/2-z
1/2-x,1/2+y,1/2-z
-x,-y,-z
x,y,-z
1/2-x,1/2+y,1/2+z
1/2+x,1/2-y,1/2+z
loop_
_atom_site_type_symbol
_atom_site_label
_atom_site_fract_x
_atom_site_fract_y
_atom_site_fract_z
Si Si1 0.295773 0.672476 0.857017
Si Si2 0.274671 0.490860 0.628036
Si Si3 0.784922 0.802849 0.137438
Si Si4 0.931411 0.391745 0.500000
Si Si5 0.705649 0.665371 0.369850
Si Si6 0.740744 0.645691 0.149104
Si Si7 0.774411 0.989102 0.349316
O O1 0.253481 0.684368 0.746989
O O2 0.247620 0.751861 0.897047
O O3 0.519192 0.659036 0.871008
O O4 0.216401 0.591793 0.881152
O O5 0.500000 0.500000 0.611352
O O6 0.154025 0.550373 0.578051
O O7 0.210888 0.410164 0.589638
O O8 0.247657 0.504220 0.737935
O O9 0.603075 0.826293 0.080613
O O10 0.838083 0.718903 0.116184
O O11 0.979747 0.843974 0.114789
O O12 0.748938 0.652870 0.261187
O O13 0.805387 0.566478 0.115651
O O14 0.000000 0.000000 0.365540
#
# Coordination Sequence:
#
# PCOD9440689 Si02
#       7
#     8   8   8   4   8   8   8
#     4   9  15  30  48  68  92 121 157 203 240 270
#     4  10  16  26  41  70  97 127 159 186 224 280
#     4  10  18  28  42  73  95 125 156 188 237 282
#     4  12  19  26  48  69 106 129 157 187 224 297
#     4   9  17  26  44  68  95 120 158 201 230 271
#     4   8  16  28  46  64  95 121 155 199 239 275
#     4   8  13  26  46  69  91 118 159 200 234 270
#
# _framework density 27.853888000000001
#
# number of rings (size 3 to 8) (size 9 to 14) (size 15 to 20)
#    0.000    2.769    3.077    2.077    0.000    0.000 
#    0.000    0.769    0.000    3.692    0.000    8.077 
#    0.000    0.000    0.000    0.000    0.000    0.000 
#
# Total GULP energy -289636.044630 kJ/mol
# GULP energy per Si atom -5569.923935 kJ/mol
# Density = 2.779049 g / cm^3
# Si number density = 27.853888 Si / 1000 Ang^3
#
#
#
# Elastic Constant Matrix: (Units=GPa)
#
#
# Indices 1 2 3 4 5 6 
#
# 1 81.0112 28.1867 -3.2131 0.0000 0.0000 0.0000
# 2 28.1867 314.4804 -6.7670 0.0000 0.0000 0.0000
# 3 -3.2131 -6.7670 66.9170 0.0000 0.0000 0.0000
# 4 0.0000 0.0000 0.0000-3313.4575 0.0000 0.0000
# 5 0.0000 0.0000 0.0000 0.0000 -6.9956 0.0000
# 6 0.0000 0.0000 0.0000 0.0000 0.0000 50.2939
#
#
#
# Elastic Compliance Matrix: (Units=1/GPa)
#
#
# Indices 1 2 3 4 5 6 
#
# 1 0.012758 -0.001133 0.000498 0.000000 0.000000 0.000000
# 2 -0.001133 0.003287 0.000278 0.000000 0.000000 0.000000
# 3 0.000498 0.000278 0.014996 0.000000 0.000000 0.000000
# 4 0.000000 0.000000 0.000000 -0.000302 0.000000 0.000000
# 5 0.000000 0.000000 0.000000 0.000000 -0.142946 0.000000
# 6 0.000000 0.000000 0.000000 0.000000 0.000000 0.019883
#
#
# Mechanical properties :
#
#
# Convention : Reuss Voigt Hill
#
# Bulk Modulus (GPa) = 32.97308 55.42464 44.19886
# Shear Modulus (GPa) = -61.34870 -624.41839 -342.88355
#
# Velocity S-wave (km/s) = -4.69819 -14.98876 -11.10712
# Velocity P-wave (km/s) = 4.19131 16.72152 12.18967
#
# Compressibility (1/GPa) = 0.03032777
#
# Stress axis : x y z
#
# Youngs Moduli (GPa) = 78.38307 304.19545 66.68477
#
# Poissons Ratio (x) = 0.34458 -0.03321
# Poissons Ratio (y) = 0.08879 -0.01854
# Poissons Ratio (z) = -0.03904 -0.08458
#
# Static dielectric constant tensor:
#      x y z
#    x 2.296940 0.000000 0.000000 
#    y 0.000000 2.250010 0.000000 
#    z 0.000000 0.000000 2.247870 
# 
# From -- ./inp_files/25487.got.cif
#   From: 2010.05.17/outbox.cif.g08.bks.cpg/sg58_13_cif.got.tgz:25487.got - 2010.06.03 14:20:14.
