data_PCOD9440394
_publ_section_title
;
Structure prediction by ZEFSAII (Michael W. Deem and Ramdas Pophale) SiO2 
 PCOD9440394
Probable space group: P B C M
;
_chemical_formula_sum "Si O2"
_cell_formula_units_Z 64
_cell_length_a 15.000000
_cell_length_b 30.000000
_cell_length_c 9.000000
_cell_angle_alpha 90.000000
_cell_angle_beta 90.000000
_cell_angle_gamma 90.000000
_cell_volume 4050.000000
_symmetry_space_group_name_H-M "P B C M"
_symmetry_group_IT_number 57
_symmetry_cell_setting 'orthorhombic'
loop_
_space_group_symop_operation_xyz
x,y,z
-x,-y,1/2+z
x,1/2-y,-z
-x,1/2+y,1/2-z
-x,-y,-z
x,y,1/2-z
-x,1/2+y,z
x,1/2-y,1/2+z
loop_
_atom_site_type_symbol
_atom_site_label
_atom_site_fract_x
_atom_site_fract_y
_atom_site_fract_z
Si Si1 0.458144 0.885885 0.571364
Si Si2 0.507725 0.204072 0.926949
Si Si3 0.869979 0.474918 0.928785
Si Si4 0.950882 0.936361 0.571581
Si Si5 0.630840 0.942086 0.926882
Si Si6 0.332117 0.533562 0.428759
Si Si7 0.793704 0.878637 0.572678
Si Si8 0.701753 0.704386 0.573610
O O1 0.457835 0.879718 0.750000
O O2 0.445121 0.839157 0.491976
O O3 0.553216 0.907818 0.529769
O O4 0.384919 0.922298 0.529185
O O5 0.514624 0.206401 0.750000
O O6 0.402657 0.198736 0.967469
O O7 0.538839 0.250000 0.000000
O O8 0.868463 0.479384 0.750000
O O9 0.770381 0.464909 0.979282
O O10 0.944945 0.438235 0.966766
O O11 0.905255 0.520753 0.997736
O O12 0.942830 0.941147 0.750000
O O13 0.892689 0.893747 0.529939
O O14 0.623894 0.948974 0.750000
O O15 0.725861 0.919376 0.959139
O O16 0.623742 0.989148 0.006827
O O17 0.334243 0.530611 0.250000
O O18 0.789097 0.870529 0.750000
O O19 0.757712 0.836464 0.486960
O O20 0.733058 0.750000 0.500000
O O21 0.706770 0.707350 0.750000
#
# Coordination Sequence:
#
# PCOD9440394 Si02
#       8
#     8   8   8   8   8   8   8   8
#     4  10  20  33  46  64  92 126 158 189 228 272
#     4  10  20  33  50  70  91 118 151 189 230 272
#     4   9  17  29  44  64  89 117 153 193 227 263
#     4   9  17  29  45  64  88 119 152 186 227 269
#     4  10  19  30  44  63  92 128 160 189 221 266
#     4  10  20  31  45  65  92 125 160 197 231 264
#     4  10  18  29  46  67  92 123 155 186 226 273
#     4  10  20  32  48  69  93 120 150 186 227 273
#
# _framework density 15.802469
#
# number of rings (size 3 to 8) (size 9 to 14) (size 15 to 20)
#    0.000    2.250    2.500    1.125    0.000    3.000 
#    0.000    0.000    0.000    0.000    0.000    0.875 
#    0.000    0.000    0.000    0.000    0.000    0.000 
#
# Total GULP energy -356749.811418 kJ/mol
# GULP energy per Si atom -5574.215803 kJ/mol
# Density = 1.576650 g / cm^3
# Si number density = 15.802469 Si / 1000 Ang^3
#
#
#
# Elastic Constant Matrix: (Units=GPa)
#
#
# Indices 1 2 3 4 5 6 
#
# 1 37.6133 26.9668 12.1110 0.0000 0.0000 0.0000
# 2 26.9668 116.0960 35.0435 0.0000 0.0000 0.0000
# 3 12.1110 35.0435 4.6492 0.0000 0.0000 0.0000
# 4 0.0000 0.0000 0.0000 28.1230 0.0000 0.0000
# 5 0.0000 0.0000 0.0000 0.0000 11.7773 0.0000
# 6 0.0000 0.0000 0.0000 0.0000 0.0000 10.8282
#
#
#
# Elastic Compliance Matrix: (Units=1/GPa)
#
#
# Indices 1 2 3 4 5 6 
#
# 1 0.029404 -0.012775 0.019695 0.000000 0.000000 0.000000
# 2 -0.012775 -0.001205 0.042357 0.000000 0.000000 0.000000
# 3 0.019695 0.042357 -0.155482 0.000000 0.000000 0.000000
# 4 0.000000 0.000000 0.000000 0.035558 0.000000 0.000000
# 5 0.000000 0.000000 0.000000 0.000000 0.084909 0.000000
# 6 0.000000 0.000000 0.000000 0.000000 0.000000 0.092351
#
#
# Mechanical properties :
#
#
# Convention : Reuss Voigt Hill
#
# Bulk Modulus (GPa) = -34.80941 34.06678 -0.37131
# Shear Modulus (GPa) = -221.28518 15.76154 -102.76182
#
# Velocity S-wave (km/s) = -11.84635 3.16161 -8.07280
# Velocity P-wave (km/s) = 14.46341 5.91036 9.33429
#
# Compressibility (1/GPa) = -0.02872787
#
# Stress axis : x y z
#
# Youngs Moduli (GPa) = 34.00933 -830.14431 -6.43162
#
# Poissons Ratio (x) = -10.60492 0.12667
# Poissons Ratio (y) = 0.43446 0.27243
# Poissons Ratio (z) = -0.66981 35.16265
#
# Static dielectric constant tensor:
#      x y z
#    x 1.547020 0.000000 0.000000 
#    y 0.000000 1.512080 0.000000 
#    z 0.000000 0.000000 1.522090 
# 
# From -- ./inp_files/6030.got.cif
#   From: 2010.05.17/outbox.ucp.g08.bks.cvg/sg57_4_cif.got.tgz:6030.got - 2010.06.11 16:39:23.
