data_PCOD9440067
_publ_section_title
;
Structure prediction by ZEFSAII (Michael W. Deem and Ramdas Pophale) SiO2 
 PCOD9440067
Probable space group: P B C M
;
_chemical_formula_sum "Si O2"
_cell_formula_units_Z 48
_cell_length_a 9.573457
_cell_length_b 20.722549
_cell_length_c 13.774452
_cell_angle_alpha 90.000000
_cell_angle_beta 90.000000
_cell_angle_gamma 90.000000
_cell_volume 2732.664382
_symmetry_space_group_name_H-M "P B C M"
_symmetry_group_IT_number 57
_symmetry_cell_setting 'orthorhombic'
loop_
_space_group_symop_operation_xyz
x,y,z
-x,-y,1/2+z
x,1/2-y,-z
-x,1/2+y,1/2-z
-x,-y,-z
x,y,1/2-z
-x,1/2+y,z
x,1/2-y,1/2+z
loop_
_atom_site_type_symbol
_atom_site_label
_atom_site_fract_x
_atom_site_fract_y
_atom_site_fract_z
Si Si1 0.390224 0.928394 0.631700
Si Si2 0.290911 0.445403 0.632270
Si Si3 0.216347 0.677903 0.479239
Si Si4 0.862782 0.992434 0.137711
Si Si5 0.871285 0.077579 0.866514
Si Si6 0.970437 0.870761 0.637239
O O1 0.382427 0.924020 0.750000
O O2 0.549776 0.937904 0.601339
O O3 0.323212 0.864526 0.584864
O O4 0.290479 0.988637 0.601561
O O5 0.290229 0.441684 0.750000
O O6 0.223296 0.514953 0.610908
O O7 0.183692 0.389368 0.600187
O O8 0.263684 0.750000 0.500000
O O9 0.188661 0.638315 0.577695
O O10 0.067567 0.677054 0.422899
O O11 0.845348 0.973593 0.250000
O O12 0.945922 0.060642 0.136055
O O13 0.972373 0.940994 0.096197
O O14 0.873984 0.085360 0.750000
O O15 0.962598 0.850557 0.750000
#
# Coordination Sequence:
#
# PCOD9440067 Si02
#       6
#     8   8   8   8   8   8
#     4   9  17  31  52  76  99 120 152 199 244 291
#     4   8  15  30  53  77  96 118 149 194 255 299
#     4  11  22  32  45  68  95 134 172 192 225 276
#     4   7  12  25  46  70  91 112 142 186 238 279
#     4   9  18  32  48  69  97 123 153 198 245 288
#     4   8  15  30  50  70  92 117 153 197 234 277
#
# _framework density 17.565273999999999
#
# number of rings (size 3 to 8) (size 9 to 14) (size 15 to 20)
#    0.000    3.333    0.000    3.500    0.000    8.000 
#    0.000    0.833    0.000    0.000    0.000    7.000 
#    0.000    0.000    0.000    0.000    0.000    0.000 
#
# Total GULP energy -267318.750789 kJ/mol
# GULP energy per Si atom -5569.140641 kJ/mol
# Density = 1.752530 g / cm^3
# Si number density = 17.565274 Si / 1000 Ang^3
#
#
#
# Elastic Constant Matrix: (Units=GPa)
#
#
# Indices 1 2 3 4 5 6 
#
# 1 144.3005 24.8994 25.4205 0.0000 0.0000 0.0000
# 2 24.8994 51.4070 15.9864 0.0000 0.0000 0.0000
# 3 25.4205 15.9864 75.7077 0.0000 0.0000 0.0000
# 4 0.0000 0.0000 0.0000 1.9612 0.0000 0.0000
# 5 0.0000 0.0000 0.0000 0.0000 0.8107 0.0000
# 6 0.0000 0.0000 0.0000 0.0000 0.0000 10.2124
#
#
#
# Elastic Compliance Matrix: (Units=1/GPa)
#
#
# Indices 1 2 3 4 5 6 
#
# 1 0.007823 -0.003181 -0.001955 0.000000 0.000000 0.000000
# 2 -0.003181 0.022113 -0.003601 0.000000 0.000000 0.000000
# 3 -0.001955 -0.003601 0.014626 0.000000 0.000000 0.000000
# 4 0.000000 0.000000 0.000000 0.509899 0.000000 0.000000
# 5 0.000000 0.000000 0.000000 0.000000 1.233427 0.000000
# 6 0.000000 0.000000 0.000000 0.000000 0.000000 0.097920
#
#
# Mechanical properties :
#
#
# Convention : Reuss Voigt Hill
#
# Bulk Modulus (GPa) = 36.91807 44.89199 40.90503
# Shear Modulus (GPa) = 2.61463 16.27079 9.44271
#
# Velocity S-wave (km/s) = 1.22137 3.04683 2.32109
# Velocity P-wave (km/s) = 4.80128 6.16362 5.52461
#
# Compressibility (1/GPa) = 0.02708701
#
# Stress axis : x y z
#
# Youngs Moduli (GPa) = 127.82262 45.22142 68.37325
#
# Poissons Ratio (x) = 0.14386 0.13368
# Poissons Ratio (y) = 0.40664 0.24623
# Poissons Ratio (z) = 0.24990 0.16285
#
# Static dielectric constant tensor:
#      x y z
#    x 1.640220 0.000000 0.000000 
#    y 0.000000 1.566130 0.000000 
#    z 0.000000 0.000000 1.654450 
# 
# From -- ./inp_files/16551.got.cif
#   From: 2010.05.17/outbox.cif.g08.bks.cpg/sg57_9_cif.got.tgz:16551.got - 2010.06.03 13:58:18.
