data_PCOD9440102
_publ_section_title
;
Structure prediction by ZEFSAII (Michael W. Deem and Ramdas Pophale) SiO2 
 PCOD9440102
Probable space group: P B C M
;
_chemical_formula_sum "Si O2"
_cell_formula_units_Z 32
_cell_length_a 21.044134
_cell_length_b 9.237337
_cell_length_c 8.555563
_cell_angle_alpha 90.000000
_cell_angle_beta 90.000000
_cell_angle_gamma 90.000000
_cell_volume 1663.130929
_symmetry_space_group_name_H-M "P B C M"
_symmetry_group_IT_number 57
_symmetry_cell_setting 'orthorhombic'
loop_
_space_group_symop_operation_xyz
x,y,z
-x,-y,1/2+z
x,1/2-y,-z
-x,1/2+y,1/2-z
-x,-y,-z
x,y,1/2-z
-x,1/2+y,z
x,1/2-y,1/2+z
loop_
_atom_site_type_symbol
_atom_site_label
_atom_site_fract_x
_atom_site_fract_y
_atom_site_fract_z
Si Si1 0.696195 0.414477 0.437330
Si Si2 0.817159 0.913287 0.062698
Si Si3 0.061030 0.586342 0.937359
Si Si4 0.439839 0.913194 0.562832
O O1 0.704084 0.250000 0.500000
O O2 0.697064 0.411860 0.250000
O O3 0.752668 0.512519 0.502293
O O4 0.627619 0.468713 0.497264
O O5 0.818366 0.913163 0.250000
O O6 0.821746 0.750000 0.000000
O O7 0.876133 0.005978 0.998443
O O8 0.060645 0.587243 0.750000
O O9 0.059680 0.750000 0.000000
O O10 0.000000 0.500000 0.000000
O O11 0.445339 0.750000 0.500000
O O12 0.438324 0.914068 0.750000
O O13 0.500000 0.000000 0.500000
#
# Coordination Sequence:
#
# PCOD9440102 Si02
#       4
#     8   8   8   8
#     4  11  22  40  63  90 121 160 203 250 303 363
#     4  12  25  43  64  92 125 162 204 253 305 362
#     4  12  25  44  67  95 127 165 206 252 303 360
#     4  11  22  39  61  89 121 159 202 251 304 363
#
# _framework density 19.240818000000001
#
# number of rings (size 3 to 8) (size 9 to 14) (size 15 to 20)
#    0.000    0.500    0.000   12.000    0.000    1.000 
#    0.000    5.000    0.000    0.000    0.000    0.000 
#    0.000    0.000    0.000    0.000    0.000    0.000 
#
# Total GULP energy -179194.704248 kJ/mol
# GULP energy per Si atom -5599.834508 kJ/mol
# Density = 1.919702 g / cm^3
# Si number density = 19.240818 Si / 1000 Ang^3
#
#
#
# Elastic Constant Matrix: (Units=GPa)
#
#
# Indices 1 2 3 4 5 6 
#
# 1 225.6322 119.8572 103.0658 0.0000 0.0000 0.0000
# 2 119.8572 146.5945 81.4608 0.0000 0.0000 0.0000
# 3 103.0658 81.4608 266.9083 0.0000 0.0000 0.0000
# 4 0.0000 0.0000 0.0000 40.0083 0.0000 0.0000
# 5 0.0000 0.0000 0.0000 0.0000 41.7207 0.0000
# 6 0.0000 0.0000 0.0000 0.0000 0.0000 46.4236
#
#
#
# Elastic Compliance Matrix: (Units=1/GPa)
#
#
# Indices 1 2 3 4 5 6 
#
# 1 0.008221 -0.005970 -0.001352 0.000000 0.000000 0.000000
# 2 -0.005970 0.012550 -0.001525 0.000000 0.000000 0.000000
# 3 -0.001352 -0.001525 0.004734 0.000000 0.000000 0.000000
# 4 0.000000 0.000000 0.000000 0.024995 0.000000 0.000000
# 5 0.000000 0.000000 0.000000 0.000000 0.023969 0.000000
# 6 0.000000 0.000000 0.000000 0.000000 0.000000 0.021541
#
#
# Mechanical properties :
#
#
# Convention : Reuss Voigt Hill
#
# Bulk Modulus (GPa) = 128.03394 138.65587 133.34490
# Shear Modulus (GPa) = 42.98897 47.94727 45.46812
#
# Velocity S-wave (km/s) = 4.73192 4.99736 4.86645
# Velocity P-wave (km/s) = 9.82559 10.27220 10.05137
#
# Compressibility (1/GPa) = 0.00781043
#
# Stress axis : x y z
#
# Youngs Moduli (GPa) = 121.63716 79.67988 211.22504
#
# Poissons Ratio (x) = 0.47570 0.28568
# Poissons Ratio (y) = 0.72619 0.32212
# Poissons Ratio (z) = 0.16451 0.12151
#
# Static dielectric constant tensor:
#      x y z
#    x 1.655490 0.000000 0.000000 
#    y 0.000000 1.629610 0.000000 
#    z 0.000000 0.000000 1.638060 
# 
# From -- ./inp_files/7547.got.cif
#   From: 2010.05.17/outbox.cif.g08.bks.cpg/sg57_4_cif.got.tgz:7547.got - 2010.06.03 13:58:18.
