data_PCOD9440439
_publ_section_title
;
Structure prediction by ZEFSAII (Michael W. Deem and Ramdas Pophale) SiO2 
 PCOD9440439
Probable space group: P B C M
;
_chemical_formula_sum "Si O2"
_cell_formula_units_Z 64
_cell_length_a 21.000000
_cell_length_b 9.000000
_cell_length_c 18.000000
_cell_angle_alpha 90.000000
_cell_angle_beta 90.000000
_cell_angle_gamma 90.000000
_cell_volume 3402.000000
_symmetry_space_group_name_H-M "P B C M"
_symmetry_group_IT_number 57
_symmetry_cell_setting 'orthorhombic'
loop_
_space_group_symop_operation_xyz
x,y,z
-x,-y,1/2+z
x,1/2-y,-z
-x,1/2+y,1/2-z
-x,-y,-z
x,y,1/2-z
-x,1/2+y,z
x,1/2-y,1/2+z
loop_
_atom_site_type_symbol
_atom_site_label
_atom_site_fract_x
_atom_site_fract_y
_atom_site_fract_z
Si Si1 0.417100 0.862626 0.159063
Si Si2 0.028578 0.507780 0.162158
Si Si3 0.167649 0.922708 0.838850
Si Si4 0.459375 0.188790 0.159514
Si Si5 0.296316 0.693791 0.339680
Si Si6 0.072689 0.296324 0.587281
Si Si7 0.789967 0.730330 0.912757
Si Si8 0.666236 0.642599 0.839359
O O1 0.416039 0.864971 0.250000
O O2 0.471160 0.744515 0.136427
O O3 0.347180 0.813429 0.132573
O O4 0.439835 0.024718 0.134723
O O5 0.012617 0.509987 0.250000
O O6 0.092989 0.606364 0.151031
O O7 0.048676 0.343162 0.136459
O O8 0.972426 0.569341 0.111069
O O9 0.175529 0.959508 0.750000
O O10 0.221249 0.800726 0.858172
O O11 0.185838 0.066057 0.888038
O O12 0.460444 0.187156 0.250000
O O13 0.403046 0.300921 0.137200
O O14 0.299344 0.700508 0.250000
O O15 0.320524 0.528344 0.361035
O O16 0.068802 0.250000 0.500000
O O17 0.147187 0.327151 0.604807
O O18 0.723284 0.745118 0.870234
O O19 0.778074 0.750000 0.000000
O O20 0.668865 0.648286 0.750000
#
# Coordination Sequence:
#
# PCOD9440439 Si02
#       8
#     8   8   8   8   8   8   8   8
#     4   9  15  23  37  60  90 120 148 182 224 271
#     4  10  19  32  51  74  99 128 165 207 249 297
#     4   8  15  28  46  67  91 120 154 191 233 283
#     4   9  16  24  36  59  90 118 145 181 226 271
#     4   8  13  23  40  59  81 112 148 183 222 268
#     4  10  20  34  51  72 100 132 166 205 250 300
#     4   9  17  29  47  69  91 120 158 195 233 282
#     4   9  16  27  43  64  89 116 147 186 231 276
#
# _framework density 18.812463000000001
#
# number of rings (size 3 to 8) (size 9 to 14) (size 15 to 20)
#    0.000    3.000    0.000    2.625    0.000    4.500 
#    0.000    1.250    0.000    3.000    0.000   10.500 
#    0.000    0.000    0.000    0.000    0.000    0.000 
#
# Total GULP energy -356296.006025 kJ/mol
# GULP energy per Si atom -5567.125094 kJ/mol
# Density = 1.876965 g / cm^3
# Si number density = 18.812463 Si / 1000 Ang^3
#
#
#
# Elastic Constant Matrix: (Units=GPa)
#
#
# Indices 1 2 3 4 5 6 
#
# 1 27.8602 -21.0002 -14.5920 0.0000 0.0000 0.0000
# 2 -21.0002 13.6681 -13.7273 0.0000 0.0000 0.0000
# 3 -14.5920 -13.7273 21.7450 0.0000 0.0000 0.0000
# 4 0.0000 0.0000 0.0000 8.6466 0.0000 0.0000
# 5 0.0000 0.0000 0.0000 0.0000 13.7873 0.0000
# 6 0.0000 0.0000 0.0000 0.0000 0.0000 22.8130
#
#
#
# Elastic Compliance Matrix: (Units=1/GPa)
#
#
# Indices 1 2 3 4 5 6 
#
# 1 -0.006083 -0.036737 -0.027273 0.000000 0.000000 0.000000
# 2 -0.036737 -0.021971 -0.038522 0.000000 0.000000 0.000000
# 3 -0.027273 -0.038522 0.003367 0.000000 0.000000 0.000000
# 4 0.000000 0.000000 0.000000 0.115652 0.000000 0.000000
# 5 0.000000 0.000000 0.000000 0.000000 0.072530 0.000000
# 6 0.000000 0.000000 0.000000 0.000000 0.000000 0.043835
#
#
# Mechanical properties :
#
#
# Convention : Reuss Voigt Hill
#
# Bulk Modulus (GPa) = -4.35252 -3.92953 -4.14103
# Shear Modulus (GPa) = 14.88925 16.55559 15.72242
#
# Velocity S-wave (km/s) = 2.81634 2.96975 2.89406
# Velocity P-wave (km/s) = 2.87350 3.10901 2.99357
#
# Compressibility (1/GPa) = -0.22975179
#
# Stress axis : x y z
#
# Youngs Moduli (GPa) = -164.40265 -45.51533 296.98555
#
# Poissons Ratio (x) = -1.67211 8.09980
# Poissons Ratio (y) = -6.03969 11.44055
# Poissons Ratio (z) = -4.48382 -1.75335
#
# Static dielectric constant tensor:
#      x y z
#    x 1.701620 0.000000 0.000000 
#    y 0.000000 1.662100 0.000000 
#    z 0.000000 0.000000 1.623640 
# 
# From -- ./inp_files/23051.got.cif
#   From: 2010.05.17/outbox.ucp.g08.bks.cvg/sg57_12_cif.got.tgz:23051.got - 2010.06.11 16:39:23.
