data_PCOD9440419
_publ_section_title
;
Structure prediction by ZEFSAII (Michael W. Deem and Ramdas Pophale) SiO2 
 PCOD9440419
Probable space group: P B C M
;
_chemical_formula_sum "Si O2"
_cell_formula_units_Z 64
_cell_length_a 24.000000
_cell_length_b 18.000000
_cell_length_c 9.000000
_cell_angle_alpha 90.000000
_cell_angle_beta 90.000000
_cell_angle_gamma 90.000000
_cell_volume 3888.000000
_symmetry_space_group_name_H-M "P B C M"
_symmetry_group_IT_number 57
_symmetry_cell_setting 'orthorhombic'
loop_
_space_group_symop_operation_xyz
x,y,z
-x,-y,1/2+z
x,1/2-y,-z
-x,1/2+y,1/2-z
-x,-y,-z
x,y,1/2-z
-x,1/2+y,z
x,1/2-y,1/2+z
loop_
_atom_site_type_symbol
_atom_site_label
_atom_site_fract_x
_atom_site_fract_y
_atom_site_fract_z
Si Si1 0.036286 0.934072 0.428328
Si Si2 0.259846 0.030629 0.570897
Si Si3 0.062241 0.330334 0.428313
Si Si4 0.370730 0.547539 0.428601
Si Si5 0.316732 0.172181 0.425968
Si Si6 0.569347 0.591487 0.426751
Si Si7 0.545326 0.169415 0.429398
Si Si8 0.869258 0.519914 0.570780
O O1 0.037499 0.940739 0.250000
O O2 0.000519 0.860118 0.464107
O O3 0.096512 0.952669 0.495689
O O4 0.000000 0.000000 0.500000
O O5 0.261836 0.037871 0.750000
O O6 0.280783 0.106711 0.497932
O O7 0.195835 0.015967 0.530888
O O8 0.306954 0.969978 0.526814
O O9 0.073606 0.250000 0.500000
O O10 0.066421 0.323013 0.250000
O O11 0.103533 0.399312 0.471105
O O12 0.372715 0.544492 0.250000
O O13 0.409612 0.481766 0.490582
O O14 0.399301 0.624351 0.474554
O O15 0.303167 0.250000 0.500000
O O16 0.307662 0.174580 0.250000
O O17 0.381723 0.151691 0.452225
O O18 0.567377 0.576476 0.250000
O O19 0.509537 0.622415 0.473974
O O20 0.543173 0.250000 0.500000
O O21 0.543997 0.175461 0.250000
O O22 0.124840 0.014399 0.750000
#
# Coordination Sequence:
#
# PCOD9440419 Si02
#       8
#     8   8   8   8   8   8   8   8
#     4   9  17  30  48  70  95 123 156 190 224 266
#     4   9  18  33  50  67  91 124 160 197 235 277
#     4   9  18  30  45  69  98 123 148 181 222 268
#     4   9  18  32  50  70  92 121 157 195 236 284
#     4  10  19  30  44  64  92 125 158 192 234 283
#     4   9  18  31  47  68  93 120 153 193 237 289
#     4  10  20  32  47  70  95 119 152 194 242 294
#     4   9  18  32  49  70  94 123 160 196 231 273
#
# _framework density 16.460905
#
# number of rings (size 3 to 8) (size 9 to 14) (size 15 to 20)
#    0.000    2.750    0.000    2.250    0.000    5.000 
#    0.000    1.250    0.000    0.750    0.000    3.500 
#    0.000    0.000    0.000    0.000    0.000    0.000 
#
# Total GULP energy -356505.863122 kJ/mol
# GULP energy per Si atom -5570.404111 kJ/mol
# Density = 1.642344 g / cm^3
# Si number density = 16.460905 Si / 1000 Ang^3
#
#
#
# Elastic Constant Matrix: (Units=GPa)
#
#
# Indices 1 2 3 4 5 6 
#
# 1 135.3650 43.7712 28.8131 0.0000 0.0000 0.0000
# 2 43.7712 49.5895 12.0642 0.0000 0.0000 0.0000
# 3 28.8131 12.0642 9.9807 0.0000 0.0000 0.0000
# 4 0.0000 0.0000 0.0000 25.1969 0.0000 0.0000
# 5 0.0000 0.0000 0.0000 0.0000 19.8496 0.0000
# 6 0.0000 0.0000 0.0000 0.0000 0.0000 10.6795
#
#
#
# Elastic Compliance Matrix: (Units=1/GPa)
#
#
# Indices 1 2 3 4 5 6 
#
# 1 0.020040 -0.005120 -0.051664 0.000000 0.000000 0.000000
# 2 -0.005120 0.029874 -0.021330 0.000000 0.000000 0.000000
# 3 -0.051664 -0.021330 0.275123 0.000000 0.000000 0.000000
# 4 0.000000 0.000000 0.000000 0.039687 0.000000 0.000000
# 5 0.000000 0.000000 0.000000 0.000000 0.050379 0.000000
# 6 0.000000 0.000000 0.000000 0.000000 0.000000 0.093637
#
#
# Mechanical properties :
#
#
# Convention : Reuss Voigt Hill
#
# Bulk Modulus (GPa) = 5.92385 40.47025 23.19705
# Shear Modulus (GPa) = 6.93253 18.49765 12.71509
#
# Velocity S-wave (km/s) = 2.05442 3.35585 2.78230
# Velocity P-wave (km/s) = 3.03876 6.29720 4.94413
#
# Compressibility (1/GPa) = 0.16880928
#
# Stress axis : x y z
#
# Youngs Moduli (GPa) = 49.90055 33.47418 3.63474
#
# Poissons Ratio (x) = 0.17138 0.18779
# Poissons Ratio (y) = 0.25548 0.07753
# Poissons Ratio (z) = 2.57806 0.71400
#
# Static dielectric constant tensor:
#      x y z
#    x 1.588900 0.000000 0.000000 
#    y 0.000000 1.530590 0.000000 
#    z 0.000000 0.000000 1.545890 
# 
# From -- ./inp_files/9536.got.cif
#   From: 2010.05.17/outbox.ucp.g08.bks.cvg/sg57_5_cif.got.tgz:9536.got - 2010.06.11 16:39:23.
