data_PCOD9440746
_publ_section_title
;
Structure prediction by ZEFSAII (Michael W. Deem and Ramdas Pophale) SiO2 
 PCOD9440746
Probable space group: P N N M
;
_chemical_formula_sum "Si O2"
_cell_formula_units_Z 64
_cell_length_a 15.090123
_cell_length_b 31.839018
_cell_length_c 7.436271
_cell_angle_alpha 90.000000
_cell_angle_beta 90.000000
_cell_angle_gamma 90.000000
_cell_volume 3572.791336
_symmetry_space_group_name_H-M "P N N M"
_symmetry_group_IT_number 58
_symmetry_cell_setting 'orthorhombic'
loop_
_space_group_symop_operation_xyz
x,y,z
-x,-y,z
1/2+x,1/2-y,1/2-z
1/2-x,1/2+y,1/2-z
-x,-y,-z
x,y,-z
1/2-x,1/2+y,1/2+z
1/2+x,1/2-y,1/2+z
loop_
_atom_site_type_symbol
_atom_site_label
_atom_site_fract_x
_atom_site_fract_y
_atom_site_fract_z
Si Si1 0.994009 0.177616 0.281129
Si Si2 0.002568 0.726495 0.716558
Si Si3 0.101393 0.048258 0.280785
Si Si4 0.323177 0.633547 0.219080
Si Si5 0.896009 0.046525 0.719137
Si Si6 0.318010 0.368912 0.215882
Si Si7 0.703306 0.790941 0.286994
Si Si8 0.807615 0.707344 0.714095
O O1 0.991898 0.177606 0.500000
O O2 0.995127 0.225378 0.221038
O O3 0.906317 0.154548 0.218219
O O4 0.083354 0.154417 0.230672
O O5 0.999457 0.726372 0.500000
O O6 0.097836 0.707645 0.763548
O O7 0.908915 0.708073 0.781814
O O8 0.101682 0.048433 0.500000
O O9 0.167045 0.085265 0.221032
O O10 0.998333 0.056612 0.229880
O O11 0.123932 0.000980 0.222133
O O12 0.249291 0.666476 0.283097
O O13 0.317676 0.632232 0.000000
O O14 0.895649 0.045998 0.500000
O O15 0.828958 0.083038 0.778856
O O16 0.238086 0.337595 0.257225
O O17 0.321971 0.370721 0.000000
O O18 0.720783 0.790386 0.500000
O O19 0.748458 0.747244 0.216872
O O20 0.811945 0.713306 0.500000
#
# Coordination Sequence:
#
# PCOD9440746 Si02
#       8
#     8   8   8   8   8   8   8   8
#     4   9  14  22  39  61  84 113 143 166 199 248
#     4  10  19  32  45  58  83 118 149 175 207 249
#     4   8  12  19  34  60  92 115 134 166 210 255
#     4   9  14  23  39  60  87 118 142 165 206 257
#     4   8  13  20  34  62  92 112 135 172 209 247
#     4  10  17  26  43  65  88 115 146 175 206 246
#     4  10  19  29  43  64  86 109 143 181 210 242
#     4  10  20  31  43  61  86 115 146 176 208 251
#
# _framework density 17.913166
#
# number of rings (size 3 to 8) (size 9 to 14) (size 15 to 20)
#    0.000    2.750    3.750    0.750    0.000    0.500 
#    0.000    0.000    0.000    0.750    0.000    3.500 
#    0.000    7.000    0.000    0.000    0.000    0.000 
#
# Total GULP energy -356629.064638 kJ/mol
# GULP energy per Si atom -5572.329135 kJ/mol
# Density = 1.787240 g / cm^3
# Si number density = 17.913166 Si / 1000 Ang^3
#
#
#
# Elastic Constant Matrix: (Units=GPa)
#
#
# Indices 1 2 3 4 5 6 
#
# 1 112.1827 88.7190 -0.3291 0.0000 0.0000 0.0000
# 2 88.7190 168.6439 6.2100 0.0000 0.0000 0.0000
# 3 -0.3291 6.2100 53.5573 0.0000 0.0000 0.0000
# 4 0.0000 0.0000 0.0000 -0.3957 0.0000 0.0000
# 5 0.0000 0.0000 0.0000 0.0000 10.4528 0.0000
# 6 0.0000 0.0000 0.0000 0.0000 0.0000 17.8241
#
#
#
# Elastic Compliance Matrix: (Units=1/GPa)
#
#
# Indices 1 2 3 4 5 6 
#
# 1 0.015322 -0.008098 0.001033 0.000000 0.000000 0.000000
# 2 -0.008098 0.010235 -0.001237 0.000000 0.000000 0.000000
# 3 0.001033 -0.001237 0.018821 0.000000 0.000000 0.000000
# 4 0.000000 0.000000 0.000000 -2.527189 0.000000 0.000000
# 5 0.000000 0.000000 0.000000 0.000000 0.095668 0.000000
# 6 0.000000 0.000000 0.000000 0.000000 0.000000 0.056104
#
#
# Mechanical properties :
#
#
# Convention : Reuss Voigt Hill
#
# Bulk Modulus (GPa) = 36.00374 58.17597 47.08986
# Shear Modulus (GPa) = -2.16903 21.56185 9.69641
#
# Velocity S-wave (km/s) = -1.10158 3.47318 2.32911
# Velocity P-wave (km/s) = 4.30403 6.97360 5.79465
#
# Compressibility (1/GPa) = 0.02777489
#
# Stress axis : x y z
#
# Youngs Moduli (GPa) = 65.26753 97.69931 53.13129
#
# Poissons Ratio (x) = 0.79120 -0.05489
# Poissons Ratio (y) = 0.52856 0.06570
# Poissons Ratio (z) = -0.06743 0.12081
#
# Static dielectric constant tensor:
#      x y z
#    x 1.604170 0.000000 0.000000 
#    y 0.000000 1.641320 0.000000 
#    z 0.000000 0.000000 1.712220 
# 
# From -- ./inp_files/7166.got.cif
#   From: 2010.05.17/outbox.cif.g08.bks.cpg/sg58_4_cif.got.tgz:7166.got - 2010.06.03 14:20:14.
