data_PCOD9440934
_publ_section_title
;
Structure prediction by ZEFSAII (Michael W. Deem and Ramdas Pophale) SiO2 
 PCOD9440934
Probable space group: P N N M
;
_chemical_formula_sum "Si O2"
_cell_formula_units_Z 48
_cell_length_a 17.029351
_cell_length_b 15.824080
_cell_length_c 7.367603
_cell_angle_alpha 90.000000
_cell_angle_beta 90.000000
_cell_angle_gamma 90.000000
_cell_volume 1985.376070
_symmetry_space_group_name_H-M "P N N M"
_symmetry_group_IT_number 58
_symmetry_cell_setting 'orthorhombic'
loop_
_space_group_symop_operation_xyz
x,y,z
-x,-y,z
1/2+x,1/2-y,1/2-z
1/2-x,1/2+y,1/2-z
-x,-y,-z
x,y,-z
1/2-x,1/2+y,1/2+z
1/2+x,1/2-y,1/2+z
loop_
_atom_site_type_symbol
_atom_site_label
_atom_site_fract_x
_atom_site_fract_y
_atom_site_fract_z
Si Si1 0.908356 0.233113 0.220026
Si Si2 0.584941 0.007411 0.797561
Si Si3 0.760046 0.723808 0.282367
Si Si4 0.748920 0.025429 0.221658
Si Si5 0.082507 0.965040 0.220331
Si Si6 0.074205 0.304421 0.786812
O O1 0.822216 0.264716 0.281884
O O2 0.913688 0.134006 0.263570
O O3 0.990019 0.273245 0.282004
O O4 0.909089 0.239963 0.000000
O O5 0.668504 0.981049 0.714425
O O6 0.593300 0.108289 0.810629
O O7 0.500000 0.000000 0.705968
O O8 0.578247 0.969434 0.000000
O O9 0.758056 0.725350 0.500000
O O10 0.753567 0.624775 0.224578
O O11 0.847514 0.753174 0.229487
O O12 0.834786 0.993760 0.279186
O O13 0.745843 0.022903 0.000000
O O14 0.081717 0.971741 0.000000
O O15 0.000000 0.000000 0.287492
O O16 0.065957 0.322207 0.000000
#
# Coordination Sequence:
#
# PCOD9440934 Si02
#       6
#     8   8   8   8   8   8
#     4   8  15  27  42  61  87 118 146 175 218 268
#     4   9  17  30  46  62  83 113 148 181 215 263
#     4   8  14  28  46  59  80 119 155 173 201 262
#     4   7  11  21  38  57  75 101 137 170 200 242
#     4   8  12  20  37  59  81 106 137 171 208 251
#     4  10  18  28  44  67  92 114 143 187 230 261
#
# _framework density 24.176779
#
# number of rings (size 3 to 8) (size 9 to 14) (size 15 to 20)
#    0.000    3.667    0.000    3.500    0.000    0.333 
#    0.000    3.333    0.000    4.000    0.000    0.000 
#    0.000   62.000    0.000    0.000    0.000    0.000 
#
# Total GULP energy -267215.489845 kJ/mol
# GULP energy per Si atom -5566.989372 kJ/mol
# Density = 2.412175 g / cm^3
# Si number density = 24.176779 Si / 1000 Ang^3
#
#
#
# Elastic Constant Matrix: (Units=GPa)
#
#
# Indices 1 2 3 4 5 6 
#
# 1 293.1346 31.9004 10.2991 0.0000 0.0000 0.0000
# 2 31.9004 13.0530 -2.5189 0.0000 0.0000 0.0000
# 3 10.2991 -2.5189 95.8928 0.0000 0.0000 0.0000
# 4 0.0000 0.0000 0.0000 -1.4752 0.0000 0.0000
# 5 0.0000 0.0000 0.0000 0.0000 3.2096 0.0000
# 6 0.0000 0.0000 0.0000 0.0000 0.0000 30.9062
#
#
#
# Elastic Compliance Matrix: (Units=1/GPa)
#
#
# Indices 1 2 3 4 5 6 
#
# 1 0.004710 -0.011666 -0.000812 0.000000 0.000000 0.000000
# 2 -0.011666 0.105901 0.004035 0.000000 0.000000 0.000000
# 3 -0.000812 0.004035 0.010622 0.000000 0.000000 0.000000
# 4 0.000000 0.000000 0.000000 -0.677860 0.000000 0.000000
# 5 0.000000 0.000000 0.000000 0.000000 0.311566 0.000000
# 6 0.000000 0.000000 0.000000 0.000000 0.000000 0.032356
#
#
# Mechanical properties :
#
#
# Convention : Reuss Voigt Hill
#
# Bulk Modulus (GPa) = 9.58363 53.49350 31.53856
# Shear Modulus (GPa) = -31.04890 30.68809 -0.18040
#
# Velocity S-wave (km/s) = -3.58752 3.56662 -0.27346
# Velocity P-wave (km/s) = 3.63151 6.25580 3.60189
#
# Compressibility (1/GPa) = 0.10434460
#
# Stress axis : x y z
#
# Youngs Moduli (GPa) = 212.33453 9.44275 94.14832
#
# Poissons Ratio (x) = 0.11016 0.07647
# Poissons Ratio (y) = 2.47720 -0.37987
# Poissons Ratio (z) = 0.17247 -0.03810
#
# Static dielectric constant tensor:
#      x y z
#    x 2.101820 0.000000 0.000000 
#    y 0.000000 1.908390 0.000000 
#    z 0.000000 0.000000 1.917390 
# 
# From -- ./inp_files/6039.got.cif
#   From: 2010.05.17/outbox.cif.g08.bks.cpg/sg58_4_cif.got.tgz:6039.got - 2010.06.03 14:20:14.
