data_PCOD9440779
_publ_section_title
;
Structure prediction by ZEFSAII (Michael W. Deem and Ramdas Pophale) SiO2 
 PCOD9440779
Probable space group: P N N M
;
_chemical_formula_sum "Si O2"
_cell_formula_units_Z 64
_cell_length_a 31.701559
_cell_length_b 14.932970
_cell_length_c 7.473625
_cell_angle_alpha 90.000000
_cell_angle_beta 90.000000
_cell_angle_gamma 90.000000
_cell_volume 3538.002338
_symmetry_space_group_name_H-M "P N N M"
_symmetry_group_IT_number 58
_symmetry_cell_setting 'orthorhombic'
loop_
_space_group_symop_operation_xyz
x,y,z
-x,-y,z
1/2+x,1/2-y,1/2-z
1/2-x,1/2+y,1/2-z
-x,-y,-z
x,y,-z
1/2-x,1/2+y,1/2+z
1/2+x,1/2-y,1/2+z
loop_
_atom_site_type_symbol
_atom_site_label
_atom_site_fract_x
_atom_site_fract_y
_atom_site_fract_z
Si Si1 0.730627 0.005890 0.286827
Si Si2 0.547958 0.403137 0.286859
Si Si3 0.952818 0.107157 0.780538
Si Si4 0.673281 0.521960 0.781931
Si Si5 0.364513 0.666838 0.213556
Si Si6 0.707475 0.807765 0.719923
Si Si7 0.127044 0.796747 0.203825
Si Si8 0.707917 0.202895 0.785974
O O1 0.733507 0.995805 0.500000
O O2 0.778281 0.021374 0.222871
O O3 0.706109 0.097471 0.251105
O O4 0.713455 0.910545 0.222226
O O5 0.544827 0.411081 0.500000
O O6 0.557714 0.504812 0.222071
O O7 0.501143 0.376685 0.224810
O O8 0.585704 0.335030 0.249024
O O9 0.918623 0.179332 0.716142
O O10 0.950867 0.108322 0.000000
O O11 0.652677 0.429055 0.723214
O O12 0.649481 0.606509 0.704115
O O13 0.671510 0.527816 0.000000
O O14 0.333127 0.743601 0.282027
O O15 0.359955 0.666966 0.000000
O O16 0.707030 0.804059 0.500000
O O17 0.662890 0.767574 0.783325
O O18 0.748099 0.748486 0.778124
O O19 0.119977 0.765727 0.000000
O O20 0.709052 0.213175 0.000000
#
# Coordination Sequence:
#
# PCOD9440779 Si02
#       8
#     8   8   8   8   8   8   8   8
#     4  10  19  32  45  62  90 120 148 183 222 255
#     4   9  16  28  44  63  91 118 146 185 225 263
#     4   8  15  26  42  66  91 115 144 187 227 256
#     4  10  18  27  41  62  91 120 144 179 219 251
#     4  10  19  30  44  64  92 123 151 179 220 265
#     4   9  17  29  46  65  87 116 148 181 218 259
#     4  10  17  28  47  66  85 118 157 179 208 267
#     4  10  19  32  47  65  89 119 152 185 218 260
#
# _framework density 18.089303000000001
#
# number of rings (size 3 to 8) (size 9 to 14) (size 15 to 20)
#    0.000    2.500    3.750    0.750    0.000    0.500 
#    0.000    3.125    0.000    0.000    0.000    0.875 
#    0.000    7.000    0.000    0.000    0.000    0.000 
#
# Total GULP energy -356809.165141 kJ/mol
# GULP energy per Si atom -5575.143205 kJ/mol
# Density = 1.804813 g / cm^3
# Si number density = 18.089303 Si / 1000 Ang^3
#
#
#
# Elastic Constant Matrix: (Units=GPa)
#
#
# Indices 1 2 3 4 5 6 
#
# 1 123.0266 50.5754 -4.9876 0.0000 0.0000 0.0000
# 2 50.5754 94.2616 -5.3806 0.0000 0.0000 0.0000
# 3 -4.9876 -5.3806 49.5749 0.0000 0.0000 0.0000
# 4 0.0000 0.0000 0.0000 11.9137 0.0000 0.0000
# 5 0.0000 0.0000 0.0000 0.0000 3.7672 0.0000
# 6 0.0000 0.0000 0.0000 0.0000 0.0000 25.8409
#
#
#
# Elastic Compliance Matrix: (Units=1/GPa)
#
#
# Indices 1 2 3 4 5 6 
#
# 1 0.010438 -0.005575 0.000445 0.000000 0.000000 0.000000
# 2 -0.005575 0.013653 0.000921 0.000000 0.000000 0.000000
# 3 0.000445 0.000921 0.020316 0.000000 0.000000 0.000000
# 4 0.000000 0.000000 0.000000 0.083937 0.000000 0.000000
# 5 0.000000 0.000000 0.000000 0.000000 0.265452 0.000000
# 6 0.000000 0.000000 0.000000 0.000000 0.000000 0.038698
#
#
# Mechanical properties :
#
#
# Convention : Reuss Voigt Hill
#
# Bulk Modulus (GPa) = 27.78649 38.58640 33.18644
# Shear Modulus (GPa) = 11.03973 23.41475 17.22724
#
# Velocity S-wave (km/s) = 2.47309 3.60168 3.08936
# Velocity P-wave (km/s) = 4.85273 6.21880 5.57774
#
# Compressibility (1/GPa) = 0.03598872
#
# Stress axis : x y z
#
# Youngs Moduli (GPa) = 95.80114 73.24581 49.22171
#
# Poissons Ratio (x) = 0.40836 -0.02191
# Poissons Ratio (y) = 0.53411 -0.04533
# Poissons Ratio (z) = -0.04264 -0.06745
#
# Static dielectric constant tensor:
#      x y z
#    x 1.667690 0.000000 0.000000 
#    y 0.000000 1.606130 0.000000 
#    z 0.000000 0.000000 1.694040 
# 
# From -- ./inp_files/7144.got.cif
#   From: 2010.05.17/outbox.cif.g08.bks.cpg/sg58_4_cif.got.tgz:7144.got - 2010.06.03 14:20:14.
