data_PCOD9440977
_publ_section_title
;
Structure prediction by ZEFSAII (Michael W. Deem and Ramdas Pophale) SiO2 
 PCOD9440977
Probable space group: P N N M
;
_chemical_formula_sum "Si O2"
_cell_formula_units_Z 64
_cell_length_a 19.168893
_cell_length_b 27.095634
_cell_length_c 8.358947
_cell_angle_alpha 90.000000
_cell_angle_beta 90.000000
_cell_angle_gamma 90.000000
_cell_volume 4341.581141
_symmetry_space_group_name_H-M "P N N M"
_symmetry_group_IT_number 58
_symmetry_cell_setting 'orthorhombic'
loop_
_space_group_symop_operation_xyz
x,y,z
-x,-y,z
1/2+x,1/2-y,1/2-z
1/2-x,1/2+y,1/2-z
-x,-y,-z
x,y,-z
1/2-x,1/2+y,1/2+z
1/2+x,1/2-y,1/2+z
loop_
_atom_site_type_symbol
_atom_site_label
_atom_site_fract_x
_atom_site_fract_y
_atom_site_fract_z
Si Si1 0.842181 0.354921 0.810170
Si Si2 0.833821 0.647375 0.193500
Si Si3 0.082097 0.448166 0.811006
Si Si4 0.429814 0.056235 0.814105
Si Si5 0.712056 0.302831 0.311607
Si Si6 0.917754 0.745914 0.195551
Si Si7 0.211590 0.794766 0.191396
Si Si8 0.924018 0.255622 0.805916
O O1 0.872043 0.403655 0.729430
O O2 0.761754 0.342450 0.772037
O O3 0.888263 0.307390 0.755822
O O4 0.850730 0.359343 0.000000
O O5 0.868617 0.596217 0.245327
O O6 0.882993 0.693620 0.243542
O O7 0.756517 0.657993 0.259255
O O8 0.831498 0.647809 0.000000
O O9 0.093142 0.500580 0.726720
O O10 0.001218 0.433895 0.782521
O O11 0.092673 0.455087 0.000000
O O12 0.447473 0.059191 0.000000
O O13 0.710669 0.313342 0.500000
O O14 0.633704 0.290424 0.254288
O O15 0.750687 0.250649 0.280388
O O16 0.997135 0.749758 0.252455
O O17 0.917708 0.746165 0.000000
O O18 0.130281 0.788130 0.234305
O O19 0.217771 0.787278 0.000000
O O20 0.927314 0.257417 0.000000
#
# Coordination Sequence:
#
# PCOD9440977 Si02
#       8
#     8   8   8   8   8   8   8   8
#     4  10  18  29  44  59  80 112 145 172 202 246
#     4   9  17  28  43  59  78 109 143 172 203 241
#     4  10  19  32  47  61  80 110 144 173 206 247
#     4  11  21  31  43  62  86 108 135 175 214 243
#     4   9  16  26  40  58  80 106 137 174 210 242
#     4   8  13  23  39  58  80 105 135 168 200 237
#     4   9  16  25  39  58  81 108 137 171 207 245
#     4   8  14  24  39  59  80 106 139 169 199 239
#
# _framework density 14.741173
#
# number of rings (size 3 to 8) (size 9 to 14) (size 15 to 20)
#    0.000    2.750    0.000    5.625    0.000    3.000 
#    0.000    0.000    0.000   14.250    0.000    0.000 
#    0.000    1.000    0.000   11.500    0.000    2.875 
#
# Total GULP energy -356348.371504 kJ/mol
# GULP energy per Si atom -5567.943305 kJ/mol
# Density = 1.470762 g / cm^3
# Si number density = 14.741173 Si / 1000 Ang^3
#
#
#
# Elastic Constant Matrix: (Units=GPa)
#
#
# Indices 1 2 3 4 5 6 
#
# 1 108.2261 43.4065 3.4718 0.0000 0.0000 0.0000
# 2 43.4065 63.4159 2.2001 0.0000 0.0000 0.0000
# 3 3.4718 2.2001 10.3979 0.0000 0.0000 0.0000
# 4 0.0000 0.0000 0.0000 18.8375 0.0000 0.0000
# 5 0.0000 0.0000 0.0000 0.0000 17.9621 0.0000
# 6 0.0000 0.0000 0.0000 0.0000 0.0000 25.7883
#
#
#
# Elastic Compliance Matrix: (Units=1/GPa)
#
#
# Indices 1 2 3 4 5 6 
#
# 1 0.012797 -0.008675 -0.002437 0.000000 0.000000 0.000000
# 2 -0.008675 0.021766 -0.001709 0.000000 0.000000 0.000000
# 3 -0.002437 -0.001709 0.097348 0.000000 0.000000 0.000000
# 4 0.000000 0.000000 0.000000 0.053086 0.000000 0.000000
# 5 0.000000 0.000000 0.000000 0.000000 0.055673 0.000000
# 6 0.000000 0.000000 0.000000 0.000000 0.000000 0.038777
#
#
# Mechanical properties :
#
#
# Convention : Reuss Voigt Hill
#
# Bulk Modulus (GPa) = 9.41006 31.13295 20.27151
# Shear Modulus (GPa) = 14.68373 21.38170 18.03271
#
# Velocity S-wave (km/s) = 3.15953 3.81264 3.50135
# Velocity P-wave (km/s) = 4.43932 6.36767 5.48884
#
# Compressibility (1/GPa) = 0.10626926
#
# Stress axis : x y z
#
# Youngs Moduli (GPa) = 78.14118 45.94343 10.27238
#
# Poissons Ratio (x) = 0.39855 0.02504
# Poissons Ratio (y) = 0.67786 0.01755
# Poissons Ratio (z) = 0.19046 0.07851
#
# Static dielectric constant tensor:
#      x y z
#    x 1.513200 0.000000 0.000000 
#    y 0.000000 1.477130 0.000000 
#    z 0.000000 0.000000 1.505440 
# 
# From -- ./inp_files/8543.got.cif
#   From: 2010.05.17/outbox.cif.g08.bks.cpg/sg58_5_cif.got.tgz:8543.got - 2010.06.03 14:20:14.
