data_PCOD9440044
_publ_section_title
;
Structure prediction by ZEFSAII (Michael W. Deem and Ramdas Pophale) SiO2 
 PCOD9440044
Probable space group: P B C M
;
_chemical_formula_sum "Si O2"
_cell_formula_units_Z 48
_cell_length_a 11.355162
_cell_length_b 8.949886
_cell_length_c 25.059013
_cell_angle_alpha 90.000000
_cell_angle_beta 90.000000
_cell_angle_gamma 90.000000
_cell_volume 2546.682473
_symmetry_space_group_name_H-M "P B C M"
_symmetry_group_IT_number 57
_symmetry_cell_setting 'orthorhombic'
loop_
_space_group_symop_operation_xyz
x,y,z
-x,-y,1/2+z
x,1/2-y,-z
-x,1/2+y,1/2-z
-x,-y,-z
x,y,1/2-z
-x,1/2+y,z
x,1/2-y,1/2+z
loop_
_atom_site_type_symbol
_atom_site_label
_atom_site_fract_x
_atom_site_fract_y
_atom_site_fract_z
Si Si1 0.473251 0.743764 0.859308
Si Si2 0.645190 0.817520 0.050306
Si Si3 0.293464 0.647671 0.447667
Si Si4 0.844496 0.891329 0.596443
Si Si5 0.948871 0.291208 0.061731
Si Si6 0.337876 0.029673 0.188223
O O1 0.562993 0.658939 0.898868
O O2 0.386521 0.822607 0.901223
O O3 0.395439 0.630713 0.825006
O O4 0.557412 0.853601 0.826226
O O5 0.742038 0.691867 0.063225
O O6 0.701109 0.975559 0.036738
O O7 0.575982 0.750000 0.000000
O O8 0.310670 0.750000 0.500000
O O9 0.165374 0.691526 0.426400
O O10 0.774403 0.940460 0.649822
O O11 0.945374 0.764551 0.599096
O O12 0.905912 0.037890 0.570186
O O13 0.981338 0.250000 0.000000
O O14 0.306249 0.042192 0.250000
#
# Coordination Sequence:
#
# PCOD9440044 Si02
#       6
#     8   8   8   8   8   8
#     4  11  22  39  63  88 123 161 202 256 310 365
#     4  11  22  35  58  91 132 164 201 243 301 374
#     4  11  22  35  59  94 130 169 200 238 302 376
#     4  11  23  40  62  91 123 167 205 253 303 360
#     4  11  21  37  62  90 130 165 201 240 301 373
#     4  11  24  44  65  88 118 160 212 265 314 357
#
# _framework density 18.848050000000001
#
# number of rings (size 3 to 8) (size 9 to 14) (size 15 to 20)
#    0.000    1.000    3.333    5.000    2.333    1.333 
#    0.000    0.833    0.000    0.000    0.000    0.000 
#    0.000    0.000    0.000    0.000    0.000    0.000 
#
# Total GULP energy -267892.270846 kJ/mol
# GULP energy per Si atom -5581.088976 kJ/mol
# Density = 1.880515 g / cm^3
# Si number density = 18.848050 Si / 1000 Ang^3
#
#
#
# Elastic Constant Matrix: (Units=GPa)
#
#
# Indices 1 2 3 4 5 6 
#
# 1 101.0981 21.7090 38.3669 0.0000 0.0000 0.0000
# 2 21.7090 77.5773 57.9215 0.0000 0.0000 0.0000
# 3 38.3669 57.9215 105.5545 0.0000 0.0000 0.0000
# 4 0.0000 0.0000 0.0000 17.7995 0.0000 0.0000
# 5 0.0000 0.0000 0.0000 0.0000 17.2089 0.0000
# 6 0.0000 0.0000 0.0000 0.0000 0.0000 26.2770
#
#
#
# Elastic Compliance Matrix: (Units=1/GPa)
#
#
# Indices 1 2 3 4 5 6 
#
# 1 0.011475 -0.000164 -0.004081 0.000000 0.000000 0.000000
# 2 -0.000164 0.021839 -0.011924 0.000000 0.000000 0.000000
# 3 -0.004081 -0.011924 0.017500 0.000000 0.000000 0.000000
# 4 0.000000 0.000000 0.000000 0.056181 0.000000 0.000000
# 5 0.000000 0.000000 0.000000 0.000000 0.058109 0.000000
# 6 0.000000 0.000000 0.000000 0.000000 0.000000 0.038056
#
#
# Mechanical properties :
#
#
# Convention : Reuss Voigt Hill
#
# Bulk Modulus (GPa) = 54.12401 57.80277 55.96339
# Shear Modulus (GPa) = 20.69022 23.33924 22.01473
#
# Velocity S-wave (km/s) = 3.31681 3.52274 3.42133
# Velocity P-wave (km/s) = 6.59140 6.87609 6.73525
#
# Compressibility (1/GPa) = 0.01847609
#
# Stress axis : x y z
#
# Youngs Moduli (GPa) = 87.14311 45.78873 57.14143
#
# Poissons Ratio (x) = 0.00752 0.23319
# Poissons Ratio (y) = 0.01432 0.68138
# Poissons Ratio (z) = 0.35562 0.54600
#
# Static dielectric constant tensor:
#      x y z
#    x 1.668270 0.000000 0.000000 
#    y 0.000000 1.711310 0.000000 
#    z 0.000000 0.000000 1.647740 
# 
# From -- ./inp_files/27109.got.cif
#   From: 2010.05.17/outbox.cif.g08.bks.cpg/sg57_14_cif.got.tgz:27109.got - 2010.06.03 13:58:18.
