data_PCOD9440786
_publ_section_title
;
Structure prediction by ZEFSAII (Michael W. Deem and Ramdas Pophale) SiO2 
 PCOD9440786
Probable space group: P N N M
;
_chemical_formula_sum "Si O2"
_cell_formula_units_Z 56
_cell_length_a 14.705135
_cell_length_b 19.467645
_cell_length_c 7.384751
_cell_angle_alpha 90.000000
_cell_angle_beta 90.000000
_cell_angle_gamma 90.000000
_cell_volume 2114.064777
_symmetry_space_group_name_H-M "P N N M"
_symmetry_group_IT_number 58
_symmetry_cell_setting 'orthorhombic'
loop_
_space_group_symop_operation_xyz
x,y,z
-x,-y,z
1/2+x,1/2-y,1/2-z
1/2-x,1/2+y,1/2-z
-x,-y,-z
x,y,-z
1/2-x,1/2+y,1/2+z
1/2+x,1/2-y,1/2+z
loop_
_atom_site_type_symbol
_atom_site_label
_atom_site_fract_x
_atom_site_fract_y
_atom_site_fract_z
Si Si1 0.565957 0.213950 0.278470
Si Si2 0.395778 0.989707 0.716703
Si Si3 0.546576 0.650832 0.280660
Si Si4 0.787635 0.072131 0.785647
Si Si5 0.374442 0.570215 0.279957
Si Si6 0.268520 0.708235 0.282809
Si Si7 0.597067 0.865311 0.287321
O O1 0.568353 0.210571 0.500000
O O2 0.506287 0.280691 0.223702
O O3 0.668285 0.229521 0.217178
O O4 0.503045 0.151615 0.214603
O O5 0.400483 0.983674 0.500000
O O6 0.358561 0.064473 0.782120
O O7 0.500000 0.000000 0.778192
O O8 0.320651 0.932960 0.762013
O O9 0.547688 0.656224 0.500000
O O10 0.648210 0.633583 0.215197
O O11 0.478959 0.587640 0.233414
O O12 0.831027 0.000589 0.713966
O O13 0.801821 0.072151 0.000000
O O14 0.371497 0.568704 0.500000
O O15 0.317844 0.637637 0.222123
O O16 0.270752 0.709201 0.500000
O O17 0.164603 0.698631 0.230053
O O18 0.585227 0.876880 0.500000
#
# Coordination Sequence:
#
# PCOD9440786 Si02
#       7
#     8   8   8   8   8   8   8
#     4   8  16  31  50  74 101 129 166 203 245 303
#     4  10  22  38  51  66  96 138 177 206 240 291
#     4   8  14  25  45  75 105 125 147 192 249 303
#     4  10  17  28  51  78  99 122 158 204 250 289
#     4   8  13  23  44  74 100 120 147 186 237 295
#     4   9  16  30  52  75  98 125 161 206 247 293
#     4  10  19  34  55  72  94 133 172 206 243 290
#
# _framework density 26.489253999999999
#
# number of rings (size 3 to 8) (size 9 to 14) (size 15 to 20)
#    0.000    3.000    1.429    2.143    0.000    2.000 
#    2.571    0.714    0.000    5.143    0.000    0.000 
#    0.000    0.000    0.000    0.000    0.000    0.000 
#
# Total GULP energy -312652.271114 kJ/mol
# GULP energy per Si atom -5583.076270 kJ/mol
# Density = 2.642896 g / cm^3
# Si number density = 26.489254 Si / 1000 Ang^3
#
#
#
# Elastic Constant Matrix: (Units=GPa)
#
#
# Indices 1 2 3 4 5 6 
#
# 1 158.2408 20.6329 -15.2769 0.0000 0.0000 0.0000
# 2 20.6329 60.1849 -5.3299 0.0000 0.0000 0.0000
# 3 -15.2769 -5.3299 88.6394 0.0000 0.0000 0.0000
# 4 0.0000 0.0000 0.0000 -2.4441 0.0000 0.0000
# 5 0.0000 0.0000 0.0000 0.0000 7.7805 0.0000
# 6 0.0000 0.0000 0.0000 0.0000 0.0000 47.0427
#
#
#
# Elastic Compliance Matrix: (Units=1/GPa)
#
#
# Indices 1 2 3 4 5 6 
#
# 1 0.006706 -0.002208 0.001023 0.000000 0.000000 0.000000
# 2 -0.002208 0.017432 0.000668 0.000000 0.000000 0.000000
# 3 0.001023 0.000668 0.011498 0.000000 0.000000 0.000000
# 4 0.000000 0.000000 0.000000 -0.409141 0.000000 0.000000
# 5 0.000000 0.000000 0.000000 0.000000 0.128526 0.000000
# 6 0.000000 0.000000 0.000000 0.000000 0.000000 0.021257
#
#
# Mechanical properties :
#
#
# Convention : Reuss Voigt Hill
#
# Bulk Modulus (GPa) = 28.90155 34.12415 31.51285
# Shear Modulus (GPa) = -23.67953 30.94508 3.63278
#
# Velocity S-wave (km/s) = -2.99311 3.42162 1.17235
# Velocity P-wave (km/s) = 1.00528 5.34043 3.70875
#
# Compressibility (1/GPa) = 0.03460022
#
# Stress axis : x y z
#
# Youngs Moduli (GPa) = 149.11565 57.36674 86.97075
#
# Poissons Ratio (x) = 0.12669 -0.08897
# Poissons Ratio (y) = 0.32932 -0.05806
# Poissons Ratio (z) = -0.15255 -0.03829
#
# Static dielectric constant tensor:
#      x y z
#    x 2.109560 0.000000 0.000000 
#    y 0.000000 2.145690 0.000000 
#    z 0.000000 0.000000 2.024050 
# 
# From -- ./inp_files/14722.got.cif
#   From: 2010.05.17/outbox.cif.g08.bks.cpg/sg58_8_cif.got.tgz:14722.got - 2010.06.03 14:20:14.
