data_PCOD9440810
_publ_section_title
;
Structure prediction by ZEFSAII (Michael W. Deem and Ramdas Pophale) SiO2 
 PCOD9440810
Probable space group: P N N M
;
_chemical_formula_sum "Si O2"
_cell_formula_units_Z 56
_cell_length_a 9.077574
_cell_length_b 17.557395
_cell_length_c 20.769825
_cell_angle_alpha 90.000000
_cell_angle_beta 90.000000
_cell_angle_gamma 90.000000
_cell_volume 3310.264641
_symmetry_space_group_name_H-M "P N N M"
_symmetry_group_IT_number 58
_symmetry_cell_setting 'orthorhombic'
loop_
_space_group_symop_operation_xyz
x,y,z
-x,-y,z
1/2+x,1/2-y,1/2-z
1/2-x,1/2+y,1/2-z
-x,-y,-z
x,y,-z
1/2-x,1/2+y,1/2+z
1/2+x,1/2-y,1/2+z
loop_
_atom_site_type_symbol
_atom_site_label
_atom_site_fract_x
_atom_site_fract_y
_atom_site_fract_z
Si Si1 0.161522 0.471993 0.786053
Si Si2 0.162831 0.828745 0.315404
Si Si3 0.834917 0.872616 0.294525
Si Si4 0.860338 0.585773 0.361949
Si Si5 0.169789 0.772195 0.833372
Si Si6 0.158826 0.189587 0.852589
Si Si7 0.823744 0.432866 0.424836
O O1 0.223093 0.397952 0.821804
O O2 0.273754 0.542022 0.794610
O O3 0.149942 0.445718 0.711131
O O4 0.000000 0.500000 0.805811
O O5 0.166024 0.799064 0.241419
O O6 0.220376 0.756876 0.355656
O O7 0.997844 0.860011 0.323188
O O8 0.729977 0.813267 0.331552
O O9 0.835527 0.846598 0.219406
O O10 0.779329 0.666608 0.365698
O O11 0.789559 0.519910 0.405852
O O12 0.030154 0.589499 0.383982
O O13 0.005400 0.778456 0.860050
O O14 0.197123 0.123845 0.902533
O O15 0.856163 0.427318 0.500000
#
# Coordination Sequence:
#
# PCOD9440810 Si02
#       7
#     8   8   8   8   8   8   8
#     4  11  17  27  46  71 100 130 157 193 240 294
#     4   9  19  28  46  69  97 128 159 193 241 308
#     4  10  17  30  45  70  98 128 161 189 242 308
#     4  10  18  33  46  67  93 129 167 205 246 281
#     4   9  19  29  49  67  93 128 159 199 248 303
#     4  10  18  33  45  67  95 125 163 207 250 284
#     4  11  21  34  51  68  93 134 181 215 244 284
#
# _framework density 16.917076000000002
#
# number of rings (size 3 to 8) (size 9 to 14) (size 15 to 20)
#    0.000    2.000    2.857    3.000    0.000    5.143 
#    0.000    2.143    0.000    0.000    0.000    0.000 
#    0.000   15.429    0.000    0.000    0.000    0.143 
#
# Total GULP energy -312237.706291 kJ/mol
# GULP energy per Si atom -5575.673327 kJ/mol
# Density = 1.687857 g / cm^3
# Si number density = 16.917076 Si / 1000 Ang^3
#
#
#
# Elastic Constant Matrix: (Units=GPa)
#
#
# Indices 1 2 3 4 5 6 
#
# 1 24.0664 -8.8044 0.7576 0.0000 0.0000 0.0000
# 2 -8.8044 56.1894 7.3532 0.0000 0.0000 0.0000
# 3 0.7576 7.3532 21.7626 0.0000 0.0000 0.0000
# 4 0.0000 0.0000 0.0000 7.7520 0.0000 0.0000
# 5 0.0000 0.0000 0.0000 0.0000 -6.5374 0.0000
# 6 0.0000 0.0000 0.0000 0.0000 0.0000 32.8835
#
#
#
# Elastic Compliance Matrix: (Units=1/GPa)
#
#
# Indices 1 2 3 4 5 6 
#
# 1 0.044422 0.007494 -0.004079 0.000000 0.000000 0.000000
# 2 0.007494 0.019885 -0.006980 0.000000 0.000000 0.000000
# 3 -0.004079 -0.006980 0.048451 0.000000 0.000000 0.000000
# 4 0.000000 0.000000 0.000000 0.129000 0.000000 0.000000
# 5 0.000000 0.000000 0.000000 0.000000 -0.152966 0.000000
# 6 0.000000 0.000000 0.000000 0.000000 0.000000 0.030410
#
#
# Mechanical properties :
#
#
# Convention : Reuss Voigt Hill
#
# Bulk Modulus (GPa) = 9.46708 11.18125 10.32416
# Shear Modulus (GPa) = 30.95224 13.66707 22.30965
#
# Velocity S-wave (km/s) = 4.28207 2.84542 3.63542
# Velocity P-wave (km/s) = 5.48238 4.17361 4.87214
#
# Compressibility (1/GPa) = 0.10562919
#
# Stress axis : x y z
#
# Youngs Moduli (GPa) = 22.51147 50.29012 20.63952
#
# Poissons Ratio (x) = -0.37689 0.08418
# Poissons Ratio (y) = -0.16871 0.14406
# Poissons Ratio (z) = 0.09182 0.35100
#
# Static dielectric constant tensor:
#      x y z
#    x 1.596810 0.000000 0.000000 
#    y 0.000000 1.570340 0.000000 
#    z 0.000000 0.000000 1.537280 
# 
# From -- ./inp_files/28954.got.cif
#   From: 2010.05.17/outbox.cif.g08.bks.cpg/sg58_15_cif.got.tgz:28954.got - 2010.06.03 14:20:14.
