data_PCOD9440387
_publ_section_title
;
Structure prediction by ZEFSAII (Michael W. Deem and Ramdas Pophale) SiO2 
 PCOD9440387
Probable space group: P B C M
;
_chemical_formula_sum "Si O2"
_cell_formula_units_Z 32
_cell_length_a 8.109626
_cell_length_b 9.837120
_cell_length_c 14.384098
_cell_angle_alpha 90.000000
_cell_angle_beta 90.000000
_cell_angle_gamma 90.000000
_cell_volume 1147.496655
_symmetry_space_group_name_H-M "P B C M"
_symmetry_group_IT_number 57
_symmetry_cell_setting 'orthorhombic'
loop_
_space_group_symop_operation_xyz
x,y,z
-x,-y,1/2+z
x,1/2-y,-z
-x,1/2+y,1/2-z
-x,-y,-z
x,y,1/2-z
-x,1/2+y,z
x,1/2-y,1/2+z
loop_
_atom_site_type_symbol
_atom_site_label
_atom_site_fract_x
_atom_site_fract_y
_atom_site_fract_z
Si Si1 0.694233 0.741936 0.387853
Si Si2 0.499620 0.011814 0.889439
Si Si3 0.828624 0.319128 0.360995
Si Si4 0.977321 0.433148 0.857621
O O1 0.695188 0.750000 0.500000
O O2 0.549154 0.638059 0.355602
O O3 0.500000 0.000000 0.500000
O O4 0.654344 0.896199 0.357311
O O5 0.861615 0.833189 0.858792
O O6 0.656513 0.106764 0.869561
O O7 0.857984 0.306510 0.250000
O O8 0.964288 0.425141 0.401112
O O9 0.840147 0.166586 0.400408
O O10 0.940444 0.461766 0.750000
#
# Coordination Sequence:
#
# PCOD9440387 Si02
#       4
#     8   8   8   8
#     4   9  18  33  49  70  98 129 163 199 242 288
#     4   9  18  33  50  70  99 131 164 203 243 287
#     4   9  18  33  52  74 100 129 162 201 244 290
#     4   9  18  33  51  72  99 127 159 201 244 289
#
# _framework density 27.886790000000001
#
# number of rings (size 3 to 8) (size 9 to 14) (size 15 to 20)
#    0.000    3.000    0.000    0.000    0.000    3.000 
#    0.000   15.000    0.000    0.000    0.000    0.000 
#    0.000    0.000    0.000    0.000    0.000    0.000 
#
# Total GULP energy -179038.150327 kJ/mol
# GULP energy per Si atom -5594.942198 kJ/mol
# Density = 2.782332 g / cm^3
# Si number density = 27.886790 Si / 1000 Ang^3
#
#
#
# Elastic Constant Matrix: (Units=GPa)
#
#
# Indices 1 2 3 4 5 6 
#
# 1 63.9919 19.6319 3.7063 0.0000 0.0000 0.0000
# 2 19.6319 184.6196 26.8755 0.0000 0.0000 0.0000
# 3 3.7063 26.8755 119.2120 0.0000 0.0000 0.0000
# 4 0.0000 0.0000 0.0000 22.7046 0.0000 0.0000
# 5 0.0000 0.0000 0.0000 0.0000 32.4873 0.0000
# 6 0.0000 0.0000 0.0000 0.0000 0.0000 67.0074
#
#
#
# Elastic Compliance Matrix: (Units=1/GPa)
#
#
# Indices 1 2 3 4 5 6 
#
# 1 0.016156 -0.001701 -0.000119 0.000000 0.000000 0.000000
# 2 -0.001701 0.005779 -0.001250 0.000000 0.000000 0.000000
# 3 -0.000119 -0.001250 0.008674 0.000000 0.000000 0.000000
# 4 0.000000 0.000000 0.000000 0.044044 0.000000 0.000000
# 5 0.000000 0.000000 0.000000 0.000000 0.030781 0.000000
# 6 0.000000 0.000000 0.000000 0.000000 0.000000 0.014924
#
#
# Mechanical properties :
#
#
# Convention : Reuss Voigt Hill
#
# Bulk Modulus (GPa) = 40.86675 52.02789 46.44732
# Shear Modulus (GPa) = 37.13235 45.61385 41.37310
#
# Velocity S-wave (km/s) = 3.65298 4.04874 3.85594
# Velocity P-wave (km/s) = 5.69901 6.36818 6.04287
#
# Compressibility (1/GPa) = 0.02446977
#
# Stress axis : x y z
#
# Youngs Moduli (GPa) = 61.89803 173.02965 115.28806
#
# Poissons Ratio (x) = 0.29426 0.01371
# Poissons Ratio (y) = 0.10527 0.14412
# Poissons Ratio (z) = 0.00736 0.21629
#
# Static dielectric constant tensor:
#      x y z
#    x 2.293430 0.000000 0.000000 
#    y 0.000000 2.234670 0.000000 
#    z 0.000000 0.000000 2.029700 
# 
# From -- ./inp_files/26470.got.cif
#   From: 2010.05.17/outbox.cif.g08.bks.cpg/sg57_14_cif.got.tgz:26470.got - 2010.06.03 13:58:18.
