data_PCOD9440323
_publ_section_title
;
Structure prediction by ZEFSAII (Michael W. Deem and Ramdas Pophale) SiO2 
 PCOD9440323
Probable space group: P B C M
;
_chemical_formula_sum "Si O2"
_cell_formula_units_Z 32
_cell_length_a 8.914083
_cell_length_b 14.796879
_cell_length_c 10.479446
_cell_angle_alpha 90.000000
_cell_angle_beta 90.000000
_cell_angle_gamma 90.000000
_cell_volume 1382.245294
_symmetry_space_group_name_H-M "P B C M"
_symmetry_group_IT_number 57
_symmetry_cell_setting 'orthorhombic'
loop_
_space_group_symop_operation_xyz
x,y,z
-x,-y,1/2+z
x,1/2-y,-z
-x,1/2+y,1/2-z
-x,-y,-z
x,y,1/2-z
-x,1/2+y,z
x,1/2-y,1/2+z
loop_
_atom_site_type_symbol
_atom_site_label
_atom_site_fract_x
_atom_site_fract_y
_atom_site_fract_z
Si Si1 0.475528 0.091787 0.250000
Si Si2 0.904595 0.438194 0.108955
Si Si3 0.886363 0.816702 0.250000
Si Si4 0.642706 0.347815 0.998377
Si Si5 0.546088 0.880728 0.250000
Si Si6 0.114129 0.394968 0.750000
O O1 0.543032 0.137681 0.125060
O O2 0.295477 0.098954 0.250000
O O3 0.536491 0.989439 0.250000
O O4 0.827000 0.420071 0.250000
O O5 0.944494 0.543982 0.129458
O O6 0.040730 0.368724 0.127847
O O7 0.774339 0.420789 0.009959
O O8 0.711012 0.837763 0.250000
O O9 0.924828 0.710345 0.250000
O O10 0.719016 0.250000 0.000000
O O11 0.536970 0.351808 0.121172
#
# Coordination Sequence:
#
# PCOD9440323 Si02
#       6
#     4   8   4   8   4   4
#     4  12  25  38  75 103 135 192 222 296 357 411
#     4   8  20  41  66  97 139 169 229 293 328 417
#     4   9  20  40  71 100 134 186 225 286 352 415
#     4  12  23  43  69 102 138 183 230 287 350 422
#     4  12  22  44  67 105 140 170 248 285 350 422
#     4   9  17  40  69  94 141 178 225 287 351 396
#
# _framework density 23.150739999999999
#
# number of rings (size 3 to 8) (size 9 to 14) (size 15 to 20)
#    1.500    0.000    3.750    3.000    0.000    0.000 
#    9.000    5.000    0.000    0.000    0.000    0.000 
#    0.000    0.000    0.000    0.000    0.000    0.000 
#
# Total GULP energy -178545.298110 kJ/mol
# GULP energy per Si atom -5579.540566 kJ/mol
# Density = 2.309805 g / cm^3
# Si number density = 23.150740 Si / 1000 Ang^3
#
#
#
# Elastic Constant Matrix: (Units=GPa)
#
#
# Indices 1 2 3 4 5 6 
#
# 1 127.1473 35.7698 36.9061 0.0000 0.0000 0.0000
# 2 35.7698 185.4604 28.6378 0.0000 0.0000 0.0000
# 3 36.9061 28.6378 91.1107 0.0000 0.0000 0.0000
# 4 0.0000 0.0000 0.0000 47.9248 0.0000 0.0000
# 5 0.0000 0.0000 0.0000 0.0000 18.0590 0.0000
# 6 0.0000 0.0000 0.0000 0.0000 0.0000 30.2796
#
#
#
# Elastic Compliance Matrix: (Units=1/GPa)
#
#
# Indices 1 2 3 4 5 6 
#
# 1 0.009184 -0.001258 -0.003325 0.000000 0.000000 0.000000
# 2 -0.001258 0.005839 -0.001326 0.000000 0.000000 0.000000
# 3 -0.003325 -0.001326 0.012739 0.000000 0.000000 0.000000
# 4 0.000000 0.000000 0.000000 0.020866 0.000000 0.000000
# 5 0.000000 0.000000 0.000000 0.000000 0.055374 0.000000
# 6 0.000000 0.000000 0.000000 0.000000 0.000000 0.033025
#
#
# Mechanical properties :
#
#
# Convention : Reuss Voigt Hill
#
# Bulk Modulus (GPa) = 62.71427 67.37178 65.04303
# Shear Modulus (GPa) = 32.43383 39.41299 35.92341
#
# Velocity S-wave (km/s) = 3.74703 4.13055 3.94346
# Velocity P-wave (km/s) = 6.77264 7.20508 6.99220
#
# Compressibility (1/GPa) = 0.01594533
#
# Stress axis : x y z
#
# Youngs Moduli (GPa) = 108.88732 171.25239 78.49824
#
# Poissons Ratio (x) = 0.21542 0.26098
# Poissons Ratio (y) = 0.13697 0.10408
# Poissons Ratio (z) = 0.36202 0.22706
#
# Static dielectric constant tensor:
#      x y z
#    x 1.816120 0.000000 0.000000 
#    y 0.000000 1.964320 0.000000 
#    z 0.000000 0.000000 1.992600 
# 
# From -- ./inp_files/11437.got.cif
#   From: 2010.05.17/outbox.cif.g08.bks.cpg/sg57_6_cif.got.tgz:11437.got - 2010.06.03 13:58:18.
