data_PCOD9440848
_publ_section_title
;
Structure prediction by ZEFSAII (Michael W. Deem and Ramdas Pophale) SiO2 
 PCOD9440848
Probable space group: P N N M
;
_chemical_formula_sum "Si O2"
_cell_formula_units_Z 56
_cell_length_a 10.950801
_cell_length_b 17.240663
_cell_length_c 13.342164
_cell_angle_alpha 90.000000
_cell_angle_beta 90.000000
_cell_angle_gamma 90.000000
_cell_volume 2518.988150
_symmetry_space_group_name_H-M "P N N M"
_symmetry_group_IT_number 58
_symmetry_cell_setting 'orthorhombic'
loop_
_space_group_symop_operation_xyz
x,y,z
-x,-y,z
1/2+x,1/2-y,1/2-z
1/2-x,1/2+y,1/2-z
-x,-y,-z
x,y,-z
1/2-x,1/2+y,1/2+z
1/2+x,1/2-y,1/2+z
loop_
_atom_site_type_symbol
_atom_site_label
_atom_site_fract_x
_atom_site_fract_y
_atom_site_fract_z
Si Si1 0.294295 0.985773 0.612074
Si Si2 0.992685 0.364137 0.609596
Si Si3 0.026941 0.787072 0.887292
Si Si4 0.257510 0.709643 0.326882
Si Si5 0.877536 0.804044 0.387569
Si Si6 0.378541 0.367958 0.197509
Si Si7 0.484248 0.108846 0.675575
O O1 0.247406 0.997211 0.500000
O O2 0.188534 0.948519 0.678888
O O3 0.406601 0.924677 0.609526
O O4 0.361534 0.062287 0.651314
O O5 0.008351 0.399887 0.500000
O O6 0.851522 0.342487 0.631085
O O7 0.066112 0.282948 0.610324
O O8 0.028645 0.407510 0.710751
O O9 0.094084 0.845482 0.812392
O O10 0.031953 0.700107 0.841888
O O11 0.883176 0.805103 0.883826
O O12 0.074604 0.788242 0.000000
O O13 0.290818 0.696259 0.209606
O O14 0.210131 0.798000 0.339313
O O15 0.829517 0.820075 0.500000
O O16 0.993510 0.858698 0.361396
#
# Coordination Sequence:
#
# PCOD9440848 Si02
#       7
#     8   8   8   8   8   8   8
#     4  11  22  36  58  82 114 151 174 221 282 333
#     4  10  19  34  53  75 107 147 184 223 274 321
#     4  11  20  33  55  82 114 143 181 235 275 316
#     4  10  17  32  50  81 108 136 181 224 265 321
#     4   9  17  29  48  74 106 136 174 224 269 312
#     4  10  19  33  50  79 111 141 185 216 269 333
#     4  11  20  36  53  86 114 138 188 223 266 337
#
# _framework density 22.231148999999998
#
# number of rings (size 3 to 8) (size 9 to 14) (size 15 to 20)
#    0.000    1.714    5.714    2.571    0.000    1.714 
#    0.000    2.857    0.000    3.429    0.000   10.000 
#    0.000    0.000    0.000    0.000    0.000    0.000 
#
# Total GULP energy -312967.506489 kJ/mol
# GULP energy per Si atom -5588.705473 kJ/mol
# Density = 2.218055 g / cm^3
# Si number density = 22.231149 Si / 1000 Ang^3
#
#
#
# Elastic Constant Matrix: (Units=GPa)
#
#
# Indices 1 2 3 4 5 6 
#
# 1 52.2651 13.9014 -6.3483 0.0000 0.0000 0.0000
# 2 13.9014 34.4902 20.2927 0.0000 0.0000 0.0000
# 3 -6.3483 20.2927 173.0027 0.0000 0.0000 0.0000
# 4 0.0000 0.0000 0.0000 12.7502 0.0000 0.0000
# 5 0.0000 0.0000 0.0000 0.0000 13.1483 0.0000
# 6 0.0000 0.0000 0.0000 0.0000 0.0000 31.1590
#
#
#
# Elastic Compliance Matrix: (Units=1/GPa)
#
#
# Indices 1 2 3 4 5 6 
#
# 1 0.022050 -0.010057 0.001989 0.000000 0.000000 0.000000
# 2 -0.010057 0.035730 -0.004560 0.000000 0.000000 0.000000
# 3 0.001989 -0.004560 0.006388 0.000000 0.000000 0.000000
# 4 0.000000 0.000000 0.000000 0.078430 0.000000 0.000000
# 5 0.000000 0.000000 0.000000 0.000000 0.076056 0.000000
# 6 0.000000 0.000000 0.000000 0.000000 0.000000 0.032093
#
#
# Mechanical properties :
#
#
# Convention : Reuss Voigt Hill
#
# Bulk Modulus (GPa) = 25.69972 35.04997 30.37485
# Shear Modulus (GPa) = 17.30250 26.87231 22.08741
#
# Velocity S-wave (km/s) = 2.79283 3.48051 3.15546
# Velocity P-wave (km/s) = 4.68884 5.65263 5.19314
#
# Compressibility (1/GPa) = 0.03891092
#
# Stress axis : x y z
#
# Youngs Moduli (GPa) = 45.35171 27.98732 156.54043
#
# Poissons Ratio (x) = 0.28148 -0.31133
# Poissons Ratio (y) = 0.45612 0.71385
# Poissons Ratio (z) = -0.09020 0.12763
#
# Static dielectric constant tensor:
#      x y z
#    x 1.846090 0.000000 0.000000 
#    y 0.000000 1.793000 0.000000 
#    z 0.000000 0.000000 1.848130 
# 
# From -- ./inp_files/14606.got.cif
#   From: 2010.05.17/outbox.cif.g08.bks.cpg/sg58_8_cif.got.tgz:14606.got - 2010.06.03 14:20:14.
