data_PCOD9440499
_publ_section_title
;
Structure prediction by ZEFSAII (Michael W. Deem and Ramdas Pophale) SiO2 
 PCOD9440499
Probable space group: P B C M
;
_chemical_formula_sum "Si O2"
_cell_formula_units_Z 64
_cell_length_a 18.000000
_cell_length_b 24.000000
_cell_length_c 9.000000
_cell_angle_alpha 90.000000
_cell_angle_beta 90.000000
_cell_angle_gamma 90.000000
_cell_volume 3888.000000
_symmetry_space_group_name_H-M "P B C M"
_symmetry_group_IT_number 57
_symmetry_cell_setting 'orthorhombic'
loop_
_space_group_symop_operation_xyz
x,y,z
-x,-y,1/2+z
x,1/2-y,-z
-x,1/2+y,1/2-z
-x,-y,-z
x,y,1/2-z
-x,1/2+y,z
x,1/2-y,1/2+z
loop_
_atom_site_type_symbol
_atom_site_label
_atom_site_fract_x
_atom_site_fract_y
_atom_site_fract_z
Si Si1 0.501682 0.091112 0.927207
Si Si2 0.102007 0.693024 0.426782
Si Si3 0.593462 0.190390 0.927395
Si Si4 0.229489 0.531506 0.081514
Si Si5 0.018417 0.909991 0.422618
Si Si6 0.892354 0.527457 0.079638
Si Si7 0.600965 0.500279 0.921240
Si Si8 0.758703 0.147513 0.574800
O O1 0.503110 0.096846 0.750000
O O2 0.528844 0.149976 0.987438
O O3 0.424560 0.061931 0.968904
O O4 0.561571 0.045106 0.976616
O O5 0.073678 0.750000 0.500000
O O6 0.095528 0.694120 0.250000
O O7 0.187493 0.685466 0.477099
O O8 0.061062 0.639769 0.496967
O O9 0.587107 0.196630 0.750000
O O10 0.672967 0.161317 0.955103
O O11 0.592037 0.250000 0.000000
O O12 0.209974 0.549038 0.250000
O O13 0.312628 0.509545 0.077908
O O14 0.176879 0.482996 0.025373
O O15 0.225200 0.584325 0.973236
O O16 0.005003 0.896391 0.250000
O O17 0.064991 0.967729 0.424929
O O18 0.944869 0.925482 0.512824
O O19 0.872689 0.538517 0.250000
O O20 0.574956 0.491817 0.750000
O O21 0.774157 0.155293 0.750000
#
# Coordination Sequence:
#
# PCOD9440499 Si02
#       8
#     8   8   8   8   8   8   8   8
#     4   9  17  32  48  67  94 127 163 203 248 293
#     4  12  24  37  53  73 101 137 175 211 247 291
#     4  10  21  33  48  67  94 131 169 207 244 288
#     4  11  20  30  48  75 102 132 164 203 250 302
#     4  10  20  35  53  74 101 131 167 208 251 296
#     4  10  20  33  52  74 101 133 165 204 250 301
#     4   9  18  30  48  71  96 125 161 202 248 297
#     4  11  21  34  48  69  99 135 173 207 243 290
#
# _framework density 16.460905
#
# number of rings (size 3 to 8) (size 9 to 14) (size 15 to 20)
#    0.000    1.750    2.500    3.000    0.000    4.000 
#    0.000    0.000    0.000    0.000    0.000    0.875 
#    0.000    4.000    0.000    0.000    0.000    0.000 
#
# Total GULP energy -356755.112123 kJ/mol
# GULP energy per Si atom -5574.298627 kJ/mol
# Density = 1.642344 g / cm^3
# Si number density = 16.460905 Si / 1000 Ang^3
#
#
#
# Elastic Constant Matrix: (Units=GPa)
#
#
# Indices 1 2 3 4 5 6 
#
# 1 13.4490 24.1826 -2.0041 0.0000 0.0000 0.0000
# 2 24.1826 66.5869 29.7695 0.0000 0.0000 0.0000
# 3 -2.0041 29.7695 28.9045 0.0000 0.0000 0.0000
# 4 0.0000 0.0000 0.0000 22.4436 0.0000 0.0000
# 5 0.0000 0.0000 0.0000 0.0000 13.8133 0.0000
# 6 0.0000 0.0000 0.0000 0.0000 0.0000 15.9190
#
#
#
# Elastic Compliance Matrix: (Units=1/GPa)
#
#
# Indices 1 2 3 4 5 6 
#
# 1 -0.170506 0.124566 -0.140116 0.000000 0.000000 0.000000
# 2 0.124566 -0.063169 0.073696 0.000000 0.000000 0.000000
# 3 -0.140116 0.073696 -0.051020 0.000000 0.000000 0.000000
# 4 0.000000 0.000000 0.000000 0.044556 0.000000 0.000000
# 5 0.000000 0.000000 0.000000 0.000000 0.072394 0.000000
# 6 0.000000 0.000000 0.000000 0.000000 0.000000 0.062818
#
#
# Mechanical properties :
#
#
# Convention : Reuss Voigt Hill
#
# Bulk Modulus (GPa) = -5.93818 23.64851 8.85516
# Shear Modulus (GPa) = -18.02752 14.23468 -1.89642
#
# Velocity S-wave (km/s) = -3.31293 2.94386 -1.07451
# Velocity P-wave (km/s) = 4.27192 5.09439 1.96259
#
# Compressibility (1/GPa) = -0.16840187
#
# Stress axis : x y z
#
# Youngs Moduli (GPa) = -5.86490 -15.83052 -19.60016
#
# Poissons Ratio (x) = 1.97194 -2.74629
# Poissons Ratio (y) = 0.73057 1.44446
# Poissons Ratio (z) = -0.82176 1.16665
#
# Static dielectric constant tensor:
#      x y z
#    x 1.584460 0.000000 0.000000 
#    y 0.000000 1.623070 0.000000 
#    z 0.000000 0.000000 1.554930 
# 
# From -- ./inp_files/7375.got.cif
#   From: 2010.05.17/outbox.ucp.g08.bks.cvg/sg57_4_cif.got.tgz:7375.got - 2010.06.11 16:39:23.
