data_PCOD9440984
_publ_section_title
;
Structure prediction by ZEFSAII (Michael W. Deem and Ramdas Pophale) SiO2 
 PCOD9440984
Probable space group: P N N M
;
_chemical_formula_sum "Si O2"
_cell_formula_units_Z 56
_cell_length_a 21.591441
_cell_length_b 18.943744
_cell_length_c 8.739262
_cell_angle_alpha 90.000000
_cell_angle_beta 90.000000
_cell_angle_gamma 90.000000
_cell_volume 3574.556809
_symmetry_space_group_name_H-M "P N N M"
_symmetry_group_IT_number 58
_symmetry_cell_setting 'orthorhombic'
loop_
_space_group_symop_operation_xyz
x,y,z
-x,-y,z
1/2+x,1/2-y,1/2-z
1/2-x,1/2+y,1/2-z
-x,-y,-z
x,y,-z
1/2-x,1/2+y,1/2+z
1/2+x,1/2-y,1/2+z
loop_
_atom_site_type_symbol
_atom_site_label
_atom_site_fract_x
_atom_site_fract_y
_atom_site_fract_z
Si Si1 0.252329 0.915210 0.682900
Si Si2 0.252313 0.069574 0.183284
Si Si3 0.003760 0.082568 0.314771
Si Si4 0.626138 0.346032 0.682928
Si Si5 0.687600 0.215593 0.181309
Si Si6 0.809481 0.289340 0.315655
Si Si7 0.122342 0.844263 0.685094
O O1 0.254265 0.909356 0.500000
O O2 0.303770 0.862782 0.752199
O O3 0.183920 0.887263 0.734058
O O4 0.260004 0.995393 0.734713
O O5 0.186419 0.106187 0.224577
O O6 0.305072 0.127953 0.220508
O O7 0.252289 0.058593 0.000000
O O8 0.006944 0.087219 0.500000
O O9 0.941349 0.121829 0.260159
O O10 0.064699 0.117932 0.246319
O O11 0.000000 0.000000 0.274450
O O12 0.624924 0.341939 0.500000
O O13 0.636025 0.267512 0.749504
O O14 0.751229 0.253716 0.232937
O O15 0.682153 0.213249 0.000000
O O16 0.799343 0.283529 0.500000
O O17 0.866662 0.238310 0.276712
O O18 0.121049 0.849020 0.500000
#
# Coordination Sequence:
#
# PCOD9440984 Si02
#       7
#     8   8   8   8   8   8   8
#     4  10  18  29  46  67  92 119 146 181 228 274
#     4   9  17  28  43  64  89 116 148 186 224 265
#     4  10  19  30  45  67  93 122 159 194 221 259
#     4  10  20  33  46  63  92 126 157 189 227 268
#     4  10  18  29  46  66  88 115 150 188 225 269
#     4   8  15  29  45  62  88 120 151 184 225 270
#     4   8  15  28  44  61  86 121 153 181 217 263
#
# _framework density 15.666278999999999
#
# number of rings (size 3 to 8) (size 9 to 14) (size 15 to 20)
#    0.000    2.714    0.000    4.714    0.000    4.286 
#    0.000    3.571    0.000    0.000    0.000    1.000 
#    0.000    8.000    0.000    0.000    0.000    0.000 
#
# Total GULP energy -311851.755112 kJ/mol
# GULP energy per Si atom -5568.781341 kJ/mol
# Density = 1.563062 g / cm^3
# Si number density = 15.666279 Si / 1000 Ang^3
#
#
#
# Elastic Constant Matrix: (Units=GPa)
#
#
# Indices 1 2 3 4 5 6 
#
# 1 77.2723 70.2542 26.4227 0.0000 0.0000 0.0000
# 2 70.2542 159.6865 49.9266 0.0000 0.0000 0.0000
# 3 26.4227 49.9266 35.6888 0.0000 0.0000 0.0000
# 4 0.0000 0.0000 0.0000 26.4592 0.0000 0.0000
# 5 0.0000 0.0000 0.0000 0.0000 17.8135 0.0000
# 6 0.0000 0.0000 0.0000 0.0000 0.0000 27.1038
#
#
#
# Elastic Compliance Matrix: (Units=1/GPa)
#
#
# Indices 1 2 3 4 5 6 
#
# 1 0.022039 -0.008166 -0.004893 0.000000 0.000000 0.000000
# 2 -0.008166 0.014157 -0.013758 0.000000 0.000000 0.000000
# 3 -0.004893 -0.013758 0.050889 0.000000 0.000000 0.000000
# 4 0.000000 0.000000 0.000000 0.037794 0.000000 0.000000
# 5 0.000000 0.000000 0.000000 0.000000 0.056137 0.000000
# 6 0.000000 0.000000 0.000000 0.000000 0.000000 0.036895
#
#
# Mechanical properties :
#
#
# Convention : Reuss Voigt Hill
#
# Bulk Modulus (GPa) = 29.89494 62.87275 46.38384
# Shear Modulus (GPa) = 17.68686 22.67823 20.18255
#
# Velocity S-wave (km/s) = 3.36367 3.80884 3.59316
# Velocity P-wave (km/s) = 5.84889 7.71768 6.84734
#
# Compressibility (1/GPa) = 0.03345048
#
# Stress axis : x y z
#
# Youngs Moduli (GPa) = 45.37434 70.63823 19.65051
#
# Poissons Ratio (x) = 0.57686 0.09614
# Poissons Ratio (y) = 0.37054 0.27036
# Poissons Ratio (z) = 0.22200 0.97186
#
# Static dielectric constant tensor:
#      x y z
#    x 1.515850 0.000000 0.000000 
#    y 0.000000 1.545940 0.000000 
#    z 0.000000 0.000000 1.523650 
# 
# From -- ./inp_files/8131.got.cif
#   From: 2010.05.17/outbox.cif.g08.bks.cpg/sg58_5_cif.got.tgz:8131.got - 2010.06.03 14:20:14.
