data_PCOD9440936
_publ_section_title
;
Structure prediction by ZEFSAII (Michael W. Deem and Ramdas Pophale) SiO2 
 PCOD9440936
Probable space group: P N N M
;
_chemical_formula_sum "Si O2"
_cell_formula_units_Z 56
_cell_length_a 18.744882
_cell_length_b 21.513894
_cell_length_c 9.050430
_cell_angle_alpha 90.000000
_cell_angle_beta 90.000000
_cell_angle_gamma 90.000000
_cell_volume 3649.815818
_symmetry_space_group_name_H-M "P N N M"
_symmetry_group_IT_number 58
_symmetry_cell_setting 'orthorhombic'
loop_
_space_group_symop_operation_xyz
x,y,z
-x,-y,z
1/2+x,1/2-y,1/2-z
1/2-x,1/2+y,1/2-z
-x,-y,-z
x,y,-z
1/2-x,1/2+y,1/2+z
1/2+x,1/2-y,1/2+z
loop_
_atom_site_type_symbol
_atom_site_label
_atom_site_fract_x
_atom_site_fract_y
_atom_site_fract_z
Si Si1 0.711917 0.188360 0.324716
Si Si2 0.152582 0.119895 0.325109
Si Si3 0.785154 0.305762 0.175176
Si Si4 0.839232 0.125611 0.177360
Si Si5 0.917686 0.998653 0.178086
Si Si6 0.069885 0.749837 0.825360
Si Si7 0.418403 0.753629 0.176067
O O1 0.707593 0.183111 0.500000
O O2 0.751889 0.251732 0.275031
O O3 0.763568 0.136203 0.256172
O O4 0.634098 0.196954 0.253358
O O5 0.143408 0.109494 0.500000
O O6 0.236461 0.134228 0.297577
O O7 0.121635 0.061934 0.238574
O O8 0.110948 0.184041 0.287618
O O9 0.869656 0.302922 0.199265
O O10 0.774144 0.289212 0.000000
O O11 0.891068 0.184443 0.209830
O O12 0.877503 0.061925 0.221927
O O13 0.828603 0.125896 0.000000
O O14 0.917867 0.996436 0.000000
O O15 0.000000 0.000000 0.228121
O O16 0.998752 0.741223 0.732911
O O17 0.052392 0.750991 0.000000
O O18 0.413750 0.760528 0.000000
#
# Coordination Sequence:
#
# PCOD9440936 Si02
#       7
#     8   8   8   8   8   8   8
#     4  10  18  28  45  66  86 113 152 189 220 264
#     4   9  18  31  45  62  88 122 153 182 218 259
#     4   8  16  31  46  62  89 120 146 180 229 272
#     4   9  18  32  46  62  91 125 151 182 225 264
#     4  10  20  32  46  65  90 122 156 185 215 255
#     4   9  16  28  47  67  88 116 149 183 220 267
#     4  10  19  30  44  65  94 121 145 181 230 271
#
# _framework density 15.343241000000001
#
# number of rings (size 3 to 8) (size 9 to 14) (size 15 to 20)
#    0.000    2.714    0.000    4.286    0.000    7.143 
#    0.000    0.000    0.000    0.000    0.000    1.000 
#    0.000    8.000    0.000    0.000    0.000    0.000 
#
# Total GULP energy -311908.600260 kJ/mol
# GULP energy per Si atom -5569.796433 kJ/mol
# Density = 1.530832 g / cm^3
# Si number density = 15.343241 Si / 1000 Ang^3
#
#
#
# Elastic Constant Matrix: (Units=GPa)
#
#
# Indices 1 2 3 4 5 6 
#
# 1 140.7435 61.9266 57.2542 0.0000 0.0000 0.0000
# 2 61.9266 74.5143 31.0358 0.0000 0.0000 0.0000
# 3 57.2542 31.0358 44.3715 0.0000 0.0000 0.0000
# 4 0.0000 0.0000 0.0000 13.8629 0.0000 0.0000
# 5 0.0000 0.0000 0.0000 0.0000 29.0837 0.0000
# 6 0.0000 0.0000 0.0000 0.0000 0.0000 23.1967
#
#
#
# Elastic Compliance Matrix: (Units=1/GPa)
#
#
# Indices 1 2 3 4 5 6 
#
# 1 0.017301 -0.007169 -0.017310 0.000000 0.000000 0.000000
# 2 -0.007169 0.021907 -0.006073 0.000000 0.000000 0.000000
# 3 -0.017310 -0.006073 0.049121 0.000000 0.000000 0.000000
# 4 0.000000 0.000000 0.000000 0.072135 0.000000 0.000000
# 5 0.000000 0.000000 0.000000 0.000000 0.034383 0.000000
# 6 0.000000 0.000000 0.000000 0.000000 0.000000 0.043110
#
#
# Mechanical properties :
#
#
# Convention : Reuss Voigt Hill
#
# Bulk Modulus (GPa) = 36.73055 62.22916 49.47985
# Shear Modulus (GPa) = 16.22660 20.52284 18.37472
#
# Velocity S-wave (km/s) = 3.25556 3.66126 3.46436
# Velocity P-wave (km/s) = 6.17437 7.64979 6.95133
#
# Compressibility (1/GPa) = 0.02722529
#
# Stress axis : x y z
#
# Youngs Moduli (GPa) = 57.80036 45.64666 20.35798
#
# Poissons Ratio (x) = 0.32722 0.35240
# Poissons Ratio (y) = 0.41434 0.12364
# Poissons Ratio (z) = 1.00052 0.27723
#
# Static dielectric constant tensor:
#      x y z
#    x 1.528760 0.000000 0.000000 
#    y 0.000000 1.496590 0.000000 
#    z 0.000000 0.000000 1.511230 
# 
# From -- ./inp_files/8128.got.cif
#   From: 2010.05.17/outbox.cif.g08.bks.cpg/sg58_5_cif.got.tgz:8128.got - 2010.06.03 14:20:14.
