data_PCOD9440077
_publ_section_title
;
Structure prediction by ZEFSAII (Michael W. Deem and Ramdas Pophale) SiO2 
 PCOD9440077
Probable space group: P B C M
;
_chemical_formula_sum "Si O2"
_cell_formula_units_Z 40
_cell_length_a 8.291873
_cell_length_b 25.852739
_cell_length_c 8.787845
_cell_angle_alpha 90.000000
_cell_angle_beta 90.000000
_cell_angle_gamma 90.000000
_cell_volume 1883.829492
_symmetry_space_group_name_H-M "P B C M"
_symmetry_group_IT_number 57
_symmetry_cell_setting 'orthorhombic'
loop_
_space_group_symop_operation_xyz
x,y,z
-x,-y,1/2+z
x,1/2-y,-z
-x,1/2+y,1/2-z
-x,-y,-z
x,y,1/2-z
-x,1/2+y,z
x,1/2-y,1/2+z
loop_
_atom_site_type_symbol
_atom_site_label
_atom_site_fract_x
_atom_site_fract_y
_atom_site_fract_z
Si Si1 0.571403 0.449876 0.420637
Si Si2 0.851212 0.524963 0.080360
Si Si3 0.809417 0.865570 0.068300
Si Si4 0.115707 0.693998 0.066193
Si Si5 0.524971 0.342299 0.929630
O O1 0.500000 0.500000 0.500000
O O2 0.509183 0.437749 0.250000
O O3 0.747228 0.472992 0.403416
O O4 0.560540 0.401994 0.531649
O O5 0.881404 0.545532 0.250000
O O6 0.788052 0.574560 0.986109
O O7 0.000000 0.500000 0.000000
O O8 0.818390 0.862669 0.250000
O O9 0.649404 0.834140 0.010555
O O10 0.978320 0.844713 0.998259
O O11 0.109917 0.692673 0.250000
O O12 0.304757 0.683868 0.021226
O O13 0.072774 0.750000 0.000000
O O14 0.504087 0.333466 0.750000
#
# Coordination Sequence:
#
# PCOD9440077 Si02
#       5
#     8   8   8   8   8
#     4  11  22  36  59  90 128 171 214 262 316 384
#     4  11  23  38  59  90 130 173 220 268 321 386
#     4  12  25  42  68  98 133 175 221 272 329 395
#     4  11  26  48  73  99 131 169 218 279 339 400
#     4  11  24  43  68  98 135 177 224 277 333 395
#
# _framework density 21.233343000000001
#
# number of rings (size 3 to 8) (size 9 to 14) (size 15 to 20)
#    0.000    0.800    2.000    5.400    0.000    9.600 
#    0.000    2.000    0.000    0.000    0.000    0.000 
#    0.000    0.000    0.000    0.000    0.000    0.000 
#
# Total GULP energy -222936.497957 kJ/mol
# GULP energy per Si atom -5573.412449 kJ/mol
# Density = 2.118502 g / cm^3
# Si number density = 21.233343 Si / 1000 Ang^3
#
#
#
# Elastic Constant Matrix: (Units=GPa)
#
#
# Indices 1 2 3 4 5 6 
#
# 1 123.4758 2.7104 45.0927 0.0000 0.0000 0.0000
# 2 2.7104 44.8813 -16.3761 0.0000 0.0000 0.0000
# 3 45.0927 -16.3761 90.6848 0.0000 0.0000 0.0000
# 4 0.0000 0.0000 0.0000 25.8878 0.0000 0.0000
# 5 0.0000 0.0000 0.0000 0.0000 35.7491 0.0000
# 6 0.0000 0.0000 0.0000 0.0000 0.0000 34.0134
#
#
#
# Elastic Compliance Matrix: (Units=1/GPa)
#
#
# Indices 1 2 3 4 5 6 
#
# 1 0.010179 -0.002635 -0.005537 0.000000 0.000000 0.000000
# 2 -0.002635 0.024535 0.005741 0.000000 0.000000 0.000000
# 3 -0.005537 0.005741 0.014817 0.000000 0.000000 0.000000
# 4 0.000000 0.000000 0.000000 0.038628 0.000000 0.000000
# 5 0.000000 0.000000 0.000000 0.000000 0.027973 0.000000
# 6 0.000000 0.000000 0.000000 0.000000 0.000000 0.029400
#
#
# Mechanical properties :
#
#
# Convention : Reuss Voigt Hill
#
# Bulk Modulus (GPa) = 22.38740 35.76620 29.07680
# Shear Modulus (GPa) = 30.25092 34.30438 32.27765
#
# Velocity S-wave (km/s) = 3.77860 4.02380 3.90313
# Velocity P-wave (km/s) = 5.44091 6.20233 5.83405
#
# Compressibility (1/GPa) = 0.04466799
#
# Stress axis : x y z
#
# Youngs Moduli (GPa) = 98.24396 40.75837 67.48889
#
# Poissons Ratio (x) = 0.10740 0.37370
# Poissons Ratio (y) = 0.25888 -0.38744
# Poissons Ratio (z) = 0.54400 -0.23399
#
# Static dielectric constant tensor:
#      x y z
#    x 2.049350 0.000000 0.000000 
#    y 0.000000 1.725720 0.000000 
#    z 0.000000 0.000000 1.673550 
# 
# From -- ./inp_files/1733.got.cif
#   From: 2010.05.17/outbox.cif.g08.bks.cpg/sg57_1_cif.got.tgz:1733.got - 2010.06.03 13:58:18.
