data_PCOD9440850
_publ_section_title
;
Structure prediction by ZEFSAII (Michael W. Deem and Ramdas Pophale) SiO2 
 PCOD9440850
Probable space group: P N N M
;
_chemical_formula_sum "Si O2"
_cell_formula_units_Z 56
_cell_length_a 8.015960
_cell_length_b 17.123386
_cell_length_c 21.147016
_cell_angle_alpha 90.000000
_cell_angle_beta 90.000000
_cell_angle_gamma 90.000000
_cell_volume 2902.647394
_symmetry_space_group_name_H-M "P N N M"
_symmetry_group_IT_number 58
_symmetry_cell_setting 'orthorhombic'
loop_
_space_group_symop_operation_xyz
x,y,z
-x,-y,z
1/2+x,1/2-y,1/2-z
1/2-x,1/2+y,1/2-z
-x,-y,-z
x,y,-z
1/2-x,1/2+y,1/2+z
1/2+x,1/2-y,1/2+z
loop_
_atom_site_type_symbol
_atom_site_label
_atom_site_fract_x
_atom_site_fract_y
_atom_site_fract_z
Si Si1 0.906576 0.886453 0.377171
Si Si2 0.780170 0.715797 0.424546
Si Si3 0.407472 0.876808 0.500000
Si Si4 0.345852 0.303119 0.200089
Si Si5 0.905909 0.421165 0.199586
Si Si6 0.057794 0.277134 0.879908
Si Si7 0.082556 0.338573 0.301740
Si Si8 0.228757 0.040464 0.500000
O O1 0.848869 0.801821 0.405054
O O2 0.785394 0.918280 0.321541
O O3 0.874223 0.940062 0.437429
O O4 0.085095 0.871207 0.345536
O O5 0.795975 0.703925 0.500000
O O6 0.586239 0.719213 0.402868
O O7 0.877197 0.659147 0.376029
O O8 0.376795 0.822364 0.559304
O O9 0.601640 0.905806 0.500000
O O10 0.294638 0.952809 0.500000
O O11 0.213804 0.250195 0.161216
O O12 0.254267 0.337124 0.261359
O O13 0.498436 0.245630 0.213728
O O14 0.000000 0.500000 0.178915
O O15 0.978057 0.346625 0.161909
O O16 0.959766 0.402548 0.271385
#
# Coordination Sequence:
#
# PCOD9440850 Si02
#       8
#     8   8   4   8   8   8   8   4
#     4  10  18  31  51  74 104 140 176 213 251 300
#     4  10  17  32  52  74 101 129 171 212 264 319
#     4  11  18  29  49  73 109 155 186 198 237 306
#     4  10  20  33  52  72 102 131 176 225 269 306
#     4  10  19  33  52  74 101 139 181 212 254 317
#     4  10  18  31  49  75 103 138 176 215 255 303
#     4  10  20  34  52  73  99 133 173 223 275 312
#     4  11  18  29  49  73 109 157 186 201 236 306
#
# _framework density 19.292733999999999
#
# number of rings (size 3 to 8) (size 9 to 14) (size 15 to 20)
#    0.000    1.857    4.286    4.286    0.000    0.571 
#    1.286    7.143    0.000    0.429    0.000    0.000 
#    0.000    2.571    0.000    0.000    0.000    0.000 
#
# Total GULP energy -312212.933374 kJ/mol
# GULP energy per Si atom -5575.230953 kJ/mol
# Density = 1.924882 g / cm^3
# Si number density = 19.292734 Si / 1000 Ang^3
#
#
#
# Elastic Constant Matrix: (Units=GPa)
#
#
# Indices 1 2 3 4 5 6 
#
# 1 66.1175 6.5370 47.6055 0.0000 0.0000 0.0000
# 2 6.5370 15.6699 18.0519 0.0000 0.0000 0.0000
# 3 47.6055 18.0519 144.6151 0.0000 0.0000 0.0000
# 4 0.0000 0.0000 0.0000 -20.5286 0.0000 0.0000
# 5 0.0000 0.0000 0.0000 0.0000 -46.5242 0.0000
# 6 0.0000 0.0000 0.0000 0.0000 0.0000 17.7593
#
#
#
# Elastic Compliance Matrix: (Units=1/GPa)
#
#
# Indices 1 2 3 4 5 6 
#
# 1 0.019833 -0.000879 -0.006419 0.000000 0.000000 0.000000
# 2 -0.000879 0.074574 -0.009019 0.000000 0.000000 0.000000
# 3 -0.006419 -0.009019 0.010154 0.000000 0.000000 0.000000
# 4 0.000000 0.000000 0.000000 -0.048713 0.000000 0.000000
# 5 0.000000 0.000000 0.000000 0.000000 -0.021494 0.000000
# 6 0.000000 0.000000 0.000000 0.000000 0.000000 0.056308
#
#
# Mechanical properties :
#
#
# Convention : Reuss Voigt Hill
#
# Bulk Modulus (GPa) = 13.90321 41.19902 27.55112
# Shear Modulus (GPa) = 33.95053 0.42187 17.18620
#
# Velocity S-wave (km/s) = 4.19950 0.46812 2.98789
# Velocity P-wave (km/s) = 5.54405 4.65760 5.12004
#
# Compressibility (1/GPa) = 0.07192583
#
# Stress axis : x y z
#
# Youngs Moduli (GPa) = 50.42004 13.40954 98.48429
#
# Poissons Ratio (x) = 0.01179 0.63219
# Poissons Ratio (y) = 0.04432 0.88828
# Poissons Ratio (z) = 0.32366 0.12095
#
# Static dielectric constant tensor:
#      x y z
#    x 1.758620 0.000000 0.000000 
#    y 0.000000 1.671640 0.000000 
#    z 0.000000 0.000000 1.757450 
# 
# From -- ./inp_files/29193.got.cif
#   From: 2010.05.17/outbox.cif.g08.bks.cpg/sg58_15_cif.got.tgz:29193.got - 2010.06.03 14:20:14.
