data_PCOD9440976
_publ_section_title
;
Structure prediction by ZEFSAII (Michael W. Deem and Ramdas Pophale) SiO2 
 PCOD9440976
Probable space group: P N N M
;
_chemical_formula_sum "Si O2"
_cell_formula_units_Z 52
_cell_length_a 18.447329
_cell_length_b 7.217853
_cell_length_c 15.576969
_cell_angle_alpha 90.000000
_cell_angle_beta 90.000000
_cell_angle_gamma 90.000000
_cell_volume 2074.075120
_symmetry_space_group_name_H-M "P N N M"
_symmetry_group_IT_number 58
_symmetry_cell_setting 'orthorhombic'
loop_
_space_group_symop_operation_xyz
x,y,z
-x,-y,z
1/2+x,1/2-y,1/2-z
1/2-x,1/2+y,1/2-z
-x,-y,-z
x,y,-z
1/2-x,1/2+y,1/2+z
1/2+x,1/2-y,1/2+z
loop_
_atom_site_type_symbol
_atom_site_label
_atom_site_fract_x
_atom_site_fract_y
_atom_site_fract_z
Si Si1 0.143614 0.289520 0.836751
Si Si2 0.331905 0.343131 0.674419
Si Si3 0.701802 0.702346 0.874724
Si Si4 0.009092 0.788966 0.162422
Si Si5 0.980666 0.716535 0.362727
Si Si6 0.325040 0.874974 0.861959
Si Si7 0.912932 0.095464 0.500000
O O1 0.214283 0.343826 0.889680
O O2 0.156694 0.373220 0.741220
O O3 0.061823 0.322094 0.869154
O O4 0.153622 0.064841 0.830609
O O5 0.315582 0.308596 0.774090
O O6 0.406471 0.242961 0.647751
O O7 0.256063 0.295666 0.628264
O O8 0.681907 0.915728 0.896918
O O9 0.649404 0.574519 0.926323
O O10 0.994974 0.784375 0.265691
O O11 0.000000 0.000000 0.131211
O O12 0.897878 0.719138 0.395232
O O13 0.000000 0.500000 0.363183
O O14 0.030079 0.828649 0.426483
#
# Coordination Sequence:
#
# PCOD9440976 Si02
#       7
#     8   8   8   8   8   8   4
#     4   8  17  28  46  63  84 110 149 191 223 250
#     4   9  15  29  45  63  85 112 147 185 224 257
#     4  10  18  29  43  64  86 121 148 174 218 261
#     4   9  16  29  47  64  87 113 147 191 225 254
#     4  11  19  29  42  64  92 122 150 173 212 262
#     4   9  17  27  43  63  85 114 148 185 216 252
#     4  12  21  28  45  62 100 124 149 164 215 276
#
# _framework density 25.071414999999998
#
# number of rings (size 3 to 8) (size 9 to 14) (size 15 to 20)
#    0.000    2.462    3.077    0.231    0.000    0.000 
#    0.000    0.385    0.000    0.923    0.000   14.538 
#    0.000    0.000    0.000  151.000    0.308    0.154 
#
# Total GULP energy -289552.198067 kJ/mol
# GULP energy per Si atom -5568.311501 kJ/mol
# Density = 2.501435 g / cm^3
# Si number density = 25.071415 Si / 1000 Ang^3
#
#
#
# Elastic Constant Matrix: (Units=GPa)
#
#
# Indices 1 2 3 4 5 6 
#
# 1 286.8192 32.7350 14.1175 0.0000 0.0000 0.0000
# 2 32.7350 96.3284 0.6693 0.0000 0.0000 0.0000
# 3 14.1175 0.6693 10.3350 0.0000 0.0000 0.0000
# 4 0.0000 0.0000 0.0000 -54.0168 0.0000 0.0000
# 5 0.0000 0.0000 0.0000 0.0000 81.1135 0.0000
# 6 0.0000 0.0000 0.0000 0.0000 0.0000 14.0797
#
#
#
# Elastic Compliance Matrix: (Units=1/GPa)
#
#
# Indices 1 2 3 4 5 6 
#
# 1 0.003891 -0.001286 -0.005231 0.000000 0.000000 0.000000
# 2 -0.001286 0.010811 0.001056 0.000000 0.000000 0.000000
# 3 -0.005231 0.001056 0.103836 0.000000 0.000000 0.000000
# 4 0.000000 0.000000 0.000000 -0.018513 0.000000 0.000000
# 5 0.000000 0.000000 0.000000 0.000000 0.012328 0.000000
# 6 0.000000 0.000000 0.000000 0.000000 0.000000 0.071024
#
#
# Mechanical properties :
#
#
# Convention : Reuss Voigt Hill
#
# Bulk Modulus (GPa) = 9.29231 54.28069 31.78650
# Shear Modulus (GPa) = 21.72291 31.29932 26.51111
#
# Velocity S-wave (km/s) = 2.94673 3.53711 3.25533
# Velocity P-wave (km/s) = 3.91050 6.19508 5.18030
#
# Compressibility (1/GPa) = 0.10761589
#
# Stress axis : x y z
#
# Youngs Moduli (GPa) = 257.01846 92.50028 9.63054
#
# Poissons Ratio (x) = 0.11894 0.05038
# Poissons Ratio (y) = 0.33048 -0.01017
# Poissons Ratio (z) = 1.34459 -0.09771
#
# Static dielectric constant tensor:
#      x y z
#    x 2.039000 0.000000 0.000000 
#    y 0.000000 2.010350 0.000000 
#    z 0.000000 0.000000 2.385200 
# 
# From -- ./inp_files/21394.got.cif
#   From: 2010.05.17/outbox.cif.g08.bks.cpg/sg58_11_cif.got.tgz:21394.got - 2010.06.03 14:20:14.
