data_PCOD9440876
_publ_section_title
;
Structure prediction by ZEFSAII (Michael W. Deem and Ramdas Pophale) SiO2 
 PCOD9440876
Probable space group: P N N M
;
_chemical_formula_sum "Si O2"
_cell_formula_units_Z 52
_cell_length_a 8.480964
_cell_length_b 11.593359
_cell_length_c 30.666270
_cell_angle_alpha 90.000000
_cell_angle_beta 90.000000
_cell_angle_gamma 90.000000
_cell_volume 3015.195382
_symmetry_space_group_name_H-M "P N N M"
_symmetry_group_IT_number 58
_symmetry_cell_setting 'orthorhombic'
loop_
_space_group_symop_operation_xyz
x,y,z
-x,-y,z
1/2+x,1/2-y,1/2-z
1/2-x,1/2+y,1/2-z
-x,-y,-z
x,y,-z
1/2-x,1/2+y,1/2+z
1/2+x,1/2-y,1/2+z
loop_
_atom_site_type_symbol
_atom_site_label
_atom_site_fract_x
_atom_site_fract_y
_atom_site_fract_z
Si Si1 0.695366 0.178943 0.643126
Si Si2 0.041867 0.134332 0.378432
Si Si3 0.000000 0.500000 0.085669
Si Si4 0.555249 0.629636 0.382314
Si Si5 0.957538 0.633813 0.766638
Si Si6 0.784172 0.297484 0.949131
Si Si7 0.753513 0.738424 0.690949
O O1 0.619306 0.072787 0.615985
O O2 0.592593 0.289954 0.630479
O O3 0.666200 0.150442 0.693711
O O4 0.876607 0.195916 0.631259
O O5 0.124046 0.171879 0.423341
O O6 0.165820 0.167302 0.340637
O O7 0.000000 0.000000 0.378521
O O8 0.900312 0.407035 0.058503
O O9 0.500000 0.500000 0.389165
O O10 0.637050 0.689581 0.424000
O O11 0.675731 0.645053 0.341729
O O12 0.880877 0.684323 0.723137
O O13 0.000000 0.500000 0.761922
O O14 0.113548 0.702482 0.781694
O O15 0.761311 0.277084 0.000000
#
# Coordination Sequence:
#
# PCOD9440876 Si02
#       7
#     8   8   4   8   8   8   8
#     4  10  19  35  59  81 113 151 189 224 289 336
#     4  11  20  36  56  82 116 151 179 230 294 346
#     4  10  17  36  56  86 114 148 176 228 289 336
#     4   9  21  40  59  77 111 152 192 233 283 339
#     4  11  21  36  55  80 112 147 190 245 274 327
#     4  10  21  36  59  89 115 142 189 235 283 350
#     4  10  23  35  52  82 108 146 197 228 282 332
#
# _framework density 17.245978999999998
#
# number of rings (size 3 to 8) (size 9 to 14) (size 15 to 20)
#    0.000    1.846    2.308    3.000    0.000    4.308 
#    0.000    4.615    0.000    0.923    0.000    0.000 
#    0.000    0.000    0.000    0.000    0.000    0.000 
#
# Total GULP energy -290313.513880 kJ/mol
# GULP energy per Si atom -5582.952190 kJ/mol
# Density = 1.720673 g / cm^3
# Si number density = 17.245979 Si / 1000 Ang^3
#
#
#
# Elastic Constant Matrix: (Units=GPa)
#
#
# Indices 1 2 3 4 5 6 
#
# 1 103.4843 34.5113 56.3235 0.0000 0.0000 0.0000
# 2 34.5113 120.4645 62.1261 0.0000 0.0000 0.0000
# 3 56.3235 62.1261 145.8578 0.0000 0.0000 0.0000
# 4 0.0000 0.0000 0.0000 10.5973 0.0000 0.0000
# 5 0.0000 0.0000 0.0000 0.0000 16.9240 0.0000
# 6 0.0000 0.0000 0.0000 0.0000 0.0000 21.1016
#
#
#
# Elastic Compliance Matrix: (Units=1/GPa)
#
#
# Indices 1 2 3 4 5 6 
#
# 1 0.012414 -0.001389 -0.004202 0.000000 0.000000 0.000000
# 2 -0.001389 0.010793 -0.004061 0.000000 0.000000 0.000000
# 3 -0.004202 -0.004061 0.010208 0.000000 0.000000 0.000000
# 4 0.000000 0.000000 0.000000 0.094363 0.000000 0.000000
# 5 0.000000 0.000000 0.000000 0.000000 0.059088 0.000000
# 6 0.000000 0.000000 0.000000 0.000000 0.000000 0.047390
#
#
# Mechanical properties :
#
#
# Convention : Reuss Voigt Hill
#
# Bulk Modulus (GPa) = 70.86518 75.08094 72.97306
# Shear Modulus (GPa) = 19.36007 24.18097 21.77052
#
# Velocity S-wave (km/s) = 3.35413 3.74855 3.55682
# Velocity P-wave (km/s) = 7.49535 7.89718 7.69889
#
# Compressibility (1/GPa) = 0.01411130
#
# Stress axis : x y z
#
# Youngs Moduli (GPa) = 80.55727 92.64845 97.96084
#
# Poissons Ratio (x) = 0.12872 0.41161
# Poissons Ratio (y) = 0.11192 0.39780
# Poissons Ratio (z) = 0.33848 0.37623
#
# Static dielectric constant tensor:
#      x y z
#    x 1.592050 0.000000 0.000000 
#    y 0.000000 1.565060 0.000000 
#    z 0.000000 0.000000 1.569070 
# 
# From -- ./inp_files/34703.got.cif
#   From: 2010.05.17/outbox.cif.g08.bks.cpg/sg58_18_cif.got.tgz:34703.got - 2010.06.03 14:20:14.
