data_PCOD9440030
_publ_section_title
;
Structure prediction by ZEFSAII (Michael W. Deem and Ramdas Pophale) SiO2 
 PCOD9440030
Probable space group: P B C M
;
_chemical_formula_sum "Si O2"
_cell_formula_units_Z 48
_cell_length_a 11.655476
_cell_length_b 9.084282
_cell_length_c 23.823839
_cell_angle_alpha 90.000000
_cell_angle_beta 90.000000
_cell_angle_gamma 90.000000
_cell_volume 2522.506926
_symmetry_space_group_name_H-M "P B C M"
_symmetry_group_IT_number 57
_symmetry_cell_setting 'orthorhombic'
loop_
_space_group_symop_operation_xyz
x,y,z
-x,-y,1/2+z
x,1/2-y,-z
-x,1/2+y,1/2-z
-x,-y,-z
x,y,1/2-z
-x,1/2+y,z
x,1/2-y,1/2+z
loop_
_atom_site_type_symbol
_atom_site_label
_atom_site_fract_x
_atom_site_fract_y
_atom_site_fract_z
Si Si1 0.122995 0.963420 0.474856
Si Si2 0.518515 0.130937 0.456778
Si Si3 0.913980 0.270104 0.364164
Si Si4 0.730863 0.699693 0.407009
Si Si5 0.252780 0.952779 0.911033
Si Si6 0.874094 0.585567 0.315389
O O1 0.096327 0.847154 0.425468
O O2 0.202373 0.918079 0.526976
O O3 0.186249 0.105147 0.447827
O O4 0.000000 0.000000 0.500000
O O5 0.565771 0.250000 0.500000
O O6 0.398305 0.179825 0.429696
O O7 0.613883 0.089143 0.411762
O O8 0.500000 0.000000 0.500000
O O9 0.816504 0.144387 0.366451
O O10 0.897170 0.411590 0.324344
O O11 0.029191 0.182784 0.347709
O O12 0.755909 0.627908 0.346508
O O13 0.760362 0.871994 0.404609
O O14 0.875488 0.621299 0.250000
#
# Coordination Sequence:
#
# PCOD9440030 Si02
#       6
#     8   8   8   8   8   8
#     4  11  21  35  55  89 131 161 195 238 301 374
#     4  12  22  38  61  93 129 172 200 237 296 373
#     4  11  24  37  61  90 116 160 201 249 311 367
#     4  11  23  39  60  89 122 167 208 247 304 366
#     4  12  23  37  59  92 131 164 198 244 304 377
#     4  11  24  44  65  86 117 157 211 269 313 357
#
# _framework density 19.028689
#
# number of rings (size 3 to 8) (size 9 to 14) (size 15 to 20)
#    0.000    0.667    3.333    6.500    2.333    2.667 
#    0.000    0.833    0.000    5.000    0.000    0.000 
#    0.000    0.000    0.000    0.000    0.000    0.000 
#
# Total GULP energy -268052.144608 kJ/mol
# GULP energy per Si atom -5584.419679 kJ/mol
# Density = 1.898538 g / cm^3
# Si number density = 19.028689 Si / 1000 Ang^3
#
#
#
# Elastic Constant Matrix: (Units=GPa)
#
#
# Indices 1 2 3 4 5 6 
#
# 1 106.3064 33.7207 27.2563 0.0000 0.0000 0.0000
# 2 33.7207 124.5141 25.1042 0.0000 0.0000 0.0000
# 3 27.2563 25.1042 55.1367 0.0000 0.0000 0.0000
# 4 0.0000 0.0000 0.0000 16.6222 0.0000 0.0000
# 5 0.0000 0.0000 0.0000 0.0000 12.8109 0.0000
# 6 0.0000 0.0000 0.0000 0.0000 0.0000 27.1109
#
#
#
# Elastic Compliance Matrix: (Units=1/GPa)
#
#
# Indices 1 2 3 4 5 6 
#
# 1 0.011259 -0.002122 -0.004600 0.000000 0.000000 0.000000
# 2 -0.002122 0.009243 -0.003159 0.000000 0.000000 0.000000
# 3 -0.004600 -0.003159 0.021849 0.000000 0.000000 0.000000
# 4 0.000000 0.000000 0.000000 0.060160 0.000000 0.000000
# 5 0.000000 0.000000 0.000000 0.000000 0.078058 0.000000
# 6 0.000000 0.000000 0.000000 0.000000 0.000000 0.036886
#
#
# Mechanical properties :
#
#
# Convention : Reuss Voigt Hill
#
# Bulk Modulus (GPa) = 44.26923 50.90217 47.58570
# Shear Modulus (GPa) = 20.42924 24.63388 22.53156
#
# Velocity S-wave (km/s) = 3.28014 3.60191 3.44478
# Velocity P-wave (km/s) = 6.13683 6.64128 6.39404
#
# Compressibility (1/GPa) = 0.02258906
#
# Stress axis : x y z
#
# Youngs Moduli (GPa) = 88.81650 108.19182 45.76843
#
# Poissons Ratio (x) = 0.22956 0.21053
# Poissons Ratio (y) = 0.18845 0.14460
# Poissons Ratio (z) = 0.40854 0.34183
#
# Static dielectric constant tensor:
#      x y z
#    x 1.686970 0.000000 0.000000 
#    y 0.000000 1.665040 0.000000 
#    z 0.000000 0.000000 1.657260 
# 
# From -- ./inp_files/27122.got.cif
#   From: 2010.05.17/outbox.cif.g08.bks.cpg/sg57_14_cif.got.tgz:27122.got - 2010.06.03 13:58:18.
