data_PCOD9440461
_publ_section_title
;
Structure prediction by ZEFSAII (Michael W. Deem and Ramdas Pophale) SiO2 
 PCOD9440461
Probable space group: P B C M
;
_chemical_formula_sum "Si O2"
_cell_formula_units_Z 56
_cell_length_a 21.000000
_cell_length_b 15.000000
_cell_length_c 9.000000
_cell_angle_alpha 90.000000
_cell_angle_beta 90.000000
_cell_angle_gamma 90.000000
_cell_volume 2835.000000
_symmetry_space_group_name_H-M "P B C M"
_symmetry_group_IT_number 57
_symmetry_cell_setting 'orthorhombic'
loop_
_space_group_symop_operation_xyz
x,y,z
-x,-y,1/2+z
x,1/2-y,-z
-x,1/2+y,1/2-z
-x,-y,-z
x,y,1/2-z
-x,1/2+y,z
x,1/2-y,1/2+z
loop_
_atom_site_type_symbol
_atom_site_label
_atom_site_fract_x
_atom_site_fract_y
_atom_site_fract_z
Si Si1 0.843998 0.845253 0.428954
Si Si2 0.541681 0.648367 0.070017
Si Si3 0.800279 0.020322 0.923217
Si Si4 0.296789 0.653972 0.423431
Si Si5 0.419240 0.526645 0.077375
Si Si6 0.977087 0.592830 0.072077
Si Si7 0.903592 0.332571 0.424573
O O1 0.825071 0.750000 0.500000
O O2 0.845580 0.839910 0.250000
O O3 0.913362 0.870419 0.495445
O O4 0.801586 0.928934 0.484053
O O5 0.545642 0.657076 0.250000
O O6 0.475898 0.595233 0.029827
O O7 0.546259 0.750000 0.000000
O O8 0.587919 0.567568 0.011107
O O9 0.787195 0.001420 0.750000
O O10 0.867312 0.073008 0.931639
O O11 0.753917 0.094403 0.989391
O O12 0.306695 0.750000 0.500000
O O13 0.279116 0.667292 0.250000
O O14 0.358497 0.590517 0.428511
O O15 0.431998 0.502391 0.250000
O O16 0.969108 0.585746 0.250000
O O17 0.000000 0.500000 0.000000
O O18 0.034532 0.657476 0.026782
O O19 0.866005 0.250000 0.500000
O O20 0.916050 0.315955 0.250000
#
# Coordination Sequence:
#
# PCOD9440461 Si02
#       7
#     8   8   8   8   8   8   8
#     4  12  25  43  66  89 118 154 195 242 297 359
#     4  10  19  33  57  88 124 164 204 250 302 356
#     4  11  24  42  63  87 118 152 197 246 294 350
#     4  11  23  40  63  90 122 159 201 247 298 354
#     4   9  20  37  57  86 123 163 206 251 299 355
#     4  12  23  38  60  87 118 151 191 237 292 354
#     4  11  23  38  58  84 116 150 188 234 289 349
#
# _framework density 19.753086
#
# number of rings (size 3 to 8) (size 9 to 14) (size 15 to 20)
#    0.000    1.143    1.429    5.571    0.000    4.571 
#    0.000    0.714    0.000    3.429    0.000    0.000 
#    0.000    0.000    0.000    0.000    0.000    0.000 
#
# Total GULP energy -312509.176567 kJ/mol
# GULP energy per Si atom -5580.521010 kJ/mol
# Density = 1.970813 g / cm^3
# Si number density = 19.753086 Si / 1000 Ang^3
#
#
#
# Elastic Constant Matrix: (Units=GPa)
#
#
# Indices 1 2 3 4 5 6 
#
# 1 33.4731 14.2594 19.6725 0.0000 0.0000 0.0000
# 2 14.2594 196.0351 79.3169 0.0000 0.0000 0.0000
# 3 19.6725 79.3169 168.2082 0.0000 0.0000 0.0000
# 4 0.0000 0.0000 0.0000 49.7365 0.0000 0.0000
# 5 0.0000 0.0000 0.0000 0.0000 20.7778 0.0000
# 6 0.0000 0.0000 0.0000 0.0000 0.0000 28.6564
#
#
#
# Elastic Compliance Matrix: (Units=1/GPa)
#
#
# Indices 1 2 3 4 5 6 
#
# 1 0.032242 -0.001013 -0.003293 0.000000 0.000000 0.000000
# 2 -0.001013 0.006336 -0.002869 0.000000 0.000000 0.000000
# 3 -0.003293 -0.002869 0.007683 0.000000 0.000000 0.000000
# 4 0.000000 0.000000 0.000000 0.020106 0.000000 0.000000
# 5 0.000000 0.000000 0.000000 0.000000 0.048128 0.000000
# 6 0.000000 0.000000 0.000000 0.000000 0.000000 0.034896
#
#
# Mechanical properties :
#
#
# Convention : Reuss Voigt Hill
#
# Bulk Modulus (GPa) = 31.33794 69.35712 50.34753
# Shear Modulus (GPa) = 28.67343 38.79865 33.73604
#
# Velocity S-wave (km/s) = 3.81411 4.43672 4.13714
# Velocity P-wave (km/s) = 5.94103 7.83800 6.95450
#
# Compressibility (1/GPa) = 0.03191020
#
# Stress axis : x y z
#
# Youngs Moduli (GPa) = 31.01586 157.83746 130.15684
#
# Poissons Ratio (x) = 0.15985 0.42863
# Poissons Ratio (y) = 0.03141 0.37343
# Poissons Ratio (z) = 0.10214 0.45284
#
# Static dielectric constant tensor:
#      x y z
#    x 1.805340 0.000000 0.000000 
#    y 0.000000 1.718490 0.000000 
#    z 0.000000 0.000000 1.672530 
# 
# From -- ./inp_files/8114.got.cif
#   From: 2010.05.17/outbox.ucp.g08.bks.cvg/sg57_5_cif.got.tgz:8114.got - 2010.06.11 16:39:23.
