data_PCOD9440242
_publ_section_title
;
Structure prediction by ZEFSAII (Michael W. Deem and Ramdas Pophale) SiO2 
 PCOD9440242
Probable space group: P B C M
;
_chemical_formula_sum "Si O2"
_cell_formula_units_Z 56
_cell_length_a 20.765735
_cell_length_b 8.670077
_cell_length_c 14.496464
_cell_angle_alpha 90.000000
_cell_angle_beta 90.000000
_cell_angle_gamma 90.000000
_cell_volume 2609.950937
_symmetry_space_group_name_H-M "P B C M"
_symmetry_group_IT_number 57
_symmetry_cell_setting 'orthorhombic'
loop_
_space_group_symop_operation_xyz
x,y,z
-x,-y,1/2+z
x,1/2-y,-z
-x,1/2+y,1/2-z
-x,-y,-z
x,y,1/2-z
-x,1/2+y,z
x,1/2-y,1/2+z
loop_
_atom_site_type_symbol
_atom_site_label
_atom_site_fract_x
_atom_site_fract_y
_atom_site_fract_z
Si Si1 0.343541 0.445663 0.851384
Si Si2 0.704174 0.428822 0.526835
Si Si3 0.533394 0.383285 0.430471
Si Si4 0.956746 0.287735 0.250000
Si Si5 0.396779 0.103768 0.851764
Si Si6 0.938205 0.415488 0.453350
Si Si7 0.094267 0.424363 0.250000
Si Si8 0.828864 0.595216 0.942079
O O1 0.321279 0.486401 0.750000
O O2 0.293633 0.485555 0.929177
O O3 0.408316 0.542297 0.875012
O O4 0.359971 0.265772 0.856344
O O5 0.704212 0.250000 0.500000
O O6 0.639642 0.490129 0.578097
O O7 0.766228 0.490968 0.579552
O O8 0.554221 0.250000 0.500000
O O9 0.500000 0.500000 0.500000
O O10 0.471148 0.347280 0.368147
O O11 0.938109 0.379904 0.343860
O O12 0.930999 0.107491 0.250000
O O13 0.034146 0.306189 0.250000
O O14 0.392325 0.034196 0.750000
O O15 0.937087 0.250000 0.500000
O O16 0.876292 0.506665 0.488184
O O17 0.000000 0.500000 0.500000
O O18 0.133900 0.390763 0.344102
O O19 0.812479 0.750000 0.000000
#
# Coordination Sequence:
#
# PCOD9440242 Si02
#       8
#     8   8   8   4   8   8   4   8
#     4  11  24  44  69 101 139 185 243 296 363 434
#     4  12  27  49  70  96 138 187 238 300 358 427
#     4  12  21  39  67  99 139 181 228 296 364 425
#     4  12  24  44  76 112 156 188 237 287 356 424
#     4  11  24  43  70  99 135 184 235 294 365 432
#     4  12  23  43  70 107 146 190 231 290 347 411
#     4  12  28  46  80 114 148 196 233 295 362 436
#     4  12  28  49  74 103 147 189 246 293 360 432
#
# _framework density 21.456343
#
# number of rings (size 3 to 8) (size 9 to 14) (size 15 to 20)
#    0.000    0.286    5.714    3.000    3.000    0.571 
#    2.571    0.000    0.000    0.000    0.000    0.000 
#    0.000    0.000    0.000    0.000    0.000    0.000 
#
# Total GULP energy -312733.826636 kJ/mol
# GULP energy per Si atom -5584.532619 kJ/mol
# Density = 2.140751 g / cm^3
# Si number density = 21.456343 Si / 1000 Ang^3
#
#
#
# Elastic Constant Matrix: (Units=GPa)
#
#
# Indices 1 2 3 4 5 6 
#
# 1 83.8937 25.3485 15.3441 0.0000 0.0000 0.0000
# 2 25.3485 99.4279 32.6335 0.0000 0.0000 0.0000
# 3 15.3441 32.6335 157.8771 0.0000 0.0000 0.0000
# 4 0.0000 0.0000 0.0000 16.6080 0.0000 0.0000
# 5 0.0000 0.0000 0.0000 0.0000 12.7784 0.0000
# 6 0.0000 0.0000 0.0000 0.0000 0.0000 33.3395
#
#
#
# Elastic Compliance Matrix: (Units=1/GPa)
#
#
# Indices 1 2 3 4 5 6 
#
# 1 0.012971 -0.003104 -0.000619 0.000000 0.000000 0.000000
# 2 -0.003104 0.011532 -0.002082 0.000000 0.000000 0.000000
# 3 -0.000619 -0.002082 0.006825 0.000000 0.000000 0.000000
# 4 0.000000 0.000000 0.000000 0.060212 0.000000 0.000000
# 5 0.000000 0.000000 0.000000 0.000000 0.078257 0.000000
# 6 0.000000 0.000000 0.000000 0.000000 0.000000 0.029994
#
#
# Mechanical properties :
#
#
# Convention : Reuss Voigt Hill
#
# Bulk Modulus (GPa) = 50.71524 54.20566 52.46045
# Shear Modulus (GPa) = 22.93861 30.40336 26.67098
#
# Velocity S-wave (km/s) = 3.27323 3.76837 3.52949
# Velocity P-wave (km/s) = 6.16224 6.65224 6.41192
#
# Compressibility (1/GPa) = 0.01971794
#
# Stress axis : x y z
#
# Youngs Moduli (GPa) = 77.09597 86.71402 146.52917
#
# Poissons Ratio (x) = 0.26913 0.09072
# Poissons Ratio (y) = 0.23928 0.30508
# Poissons Ratio (z) = 0.04773 0.18055
#
# Static dielectric constant tensor:
#      x y z
#    x 1.810320 0.000000 0.000000 
#    y 0.000000 1.782170 0.000000 
#    z 0.000000 0.000000 1.827380 
# 
# From -- ./inp_files/19398.got.cif
#   From: 2010.05.17/outbox.cif.g08.bks.cpg/sg57_10_cif.got.tgz:19398.got - 2010.06.03 13:58:18.
