data_PCOD9440711
_publ_section_title
;
Structure prediction by ZEFSAII (Michael W. Deem and Ramdas Pophale) SiO2 
 PCOD9440711
Probable space group: P N N M
;
_chemical_formula_sum "Si O2"
_cell_formula_units_Z 46
_cell_length_a 5.578998
_cell_length_b 14.538567
_cell_length_c 23.057903
_cell_angle_alpha 90.000000
_cell_angle_beta 90.000000
_cell_angle_gamma 90.000000
_cell_volume 1870.241182
_symmetry_space_group_name_H-M "P N N M"
_symmetry_group_IT_number 58
_symmetry_cell_setting 'orthorhombic'
loop_
_space_group_symop_operation_xyz
x,y,z
-x,-y,z
1/2+x,1/2-y,1/2-z
1/2-x,1/2+y,1/2-z
-x,-y,-z
x,y,-z
1/2-x,1/2+y,1/2+z
1/2+x,1/2-y,1/2+z
loop_
_atom_site_type_symbol
_atom_site_label
_atom_site_fract_x
_atom_site_fract_y
_atom_site_fract_z
Si Si1 0.233696 0.401680 0.000000
Si Si2 0.000000 0.500000 0.379515
Si Si3 0.125389 0.097207 0.799511
Si Si4 0.748638 0.586836 0.869673
Si Si5 0.131233 0.859250 0.087923
Si Si6 0.746936 0.381738 0.826204
Si Si7 0.500000 0.500000 0.500000
Si Si8 0.237987 0.204766 0.500000
O O1 0.253880 0.446212 0.936559
O O2 0.466767 0.333381 0.000000
O O3 0.959660 0.365947 0.000000
O O4 0.849309 0.434944 0.337028
O O5 0.852397 0.570919 0.417206
O O6 0.208955 0.145182 0.740706
O O7 0.950402 0.147271 0.845427
O O8 0.000000 0.000000 0.784029
O O9 0.748814 0.493650 0.832230
O O10 0.503881 0.642578 0.857825
O O11 0.992038 0.640433 0.852862
O O12 0.945925 0.919704 0.050342
O O13 0.207035 0.768156 0.055523
#
# Coordination Sequence:
#
# PCOD9440711 Si02
#       8
#     4   4   8   8   8   8   2   4
#     4  12  26  46  64  84 123 180 222 260 296 356
#     4  10  18  31  58  90 120 155 190 254 330 374
#     4  10  18  33  55  98 128 155 184 245 338 396
#     4  10  21  37  63  95 126 158 200 258 315 387
#     4  10  22  34  57  89 124 161 207 262 314 378
#     4  10  20  35  64 103 126 149 188 257 344 386
#     4  10  16  34  44  84 120 140 196 256 320 352
#     4  11  28  44  62  84 122 182 228 254 294 361
#
# _framework density 24.595756000000002
#
# number of rings (size 3 to 8) (size 9 to 14) (size 15 to 20)
#    0.000    1.739    4.348    2.087    4.870    4.174 
#    0.000    0.000    0.000    4.174    0.000    0.000 
#    0.000    0.000    0.000    0.000    0.000    0.000 
#
# Total GULP energy -256194.937725 kJ/mol
# GULP energy per Si atom -5569.455168 kJ/mol
# Density = 2.453978 g / cm^3
# Si number density = 24.595756 Si / 1000 Ang^3
#
#
#
# Elastic Constant Matrix: (Units=GPa)
#
#
# Indices 1 2 3 4 5 6 
#
# 1 149.3451 11.3929 27.9910 0.0000 0.0000 0.0000
# 2 11.3929 39.4358 17.0172 0.0000 0.0000 0.0000
# 3 27.9910 17.0172 160.9600 0.0000 0.0000 0.0000
# 4 0.0000 0.0000 0.0000 29.2489 0.0000 0.0000
# 5 0.0000 0.0000 0.0000 0.0000 -11.7707 0.0000
# 6 0.0000 0.0000 0.0000 0.0000 0.0000 23.4069
#
#
#
# Elastic Compliance Matrix: (Units=1/GPa)
#
#
# Indices 1 2 3 4 5 6 
#
# 1 0.007013 -0.001572 -0.001053 0.000000 0.000000 0.000000
# 2 -0.001572 0.026922 -0.002573 0.000000 0.000000 0.000000
# 3 -0.001053 -0.002573 0.006668 0.000000 0.000000 0.000000
# 4 0.000000 0.000000 0.000000 0.034189 0.000000 0.000000
# 5 0.000000 0.000000 0.000000 0.000000 -0.084957 0.000000
# 6 0.000000 0.000000 0.000000 0.000000 0.000000 0.042722
#
#
# Mechanical properties :
#
#
# Convention : Reuss Voigt Hill
#
# Bulk Modulus (GPa) = 33.10466 51.39367 42.24916
# Shear Modulus (GPa) = 94.29810 27.73300 61.01555
#
# Velocity S-wave (km/s) = 6.19858 3.36155 4.98610
# Velocity P-wave (km/s) = 8.04479 6.00061 7.09669
#
# Compressibility (1/GPa) = 0.03020723
#
# Stress axis : x y z
#
# Youngs Moduli (GPa) = 142.58769 37.14439 149.97126
#
# Poissons Ratio (x) = 0.05837 0.15799
# Poissons Ratio (y) = 0.22408 0.38587
# Poissons Ratio (z) = 0.15021 0.09557
#
# Static dielectric constant tensor:
#      x y z
#    x 1.903140 0.000000 0.000000 
#    y 0.000000 1.988080 0.000000 
#    z 0.000000 0.000000 1.941430 
# 
# From -- ./inp_files/30997.got.cif
#   From: 2010.05.17/outbox.cif.g08.bks.cpg/sg58_16_cif.got.tgz:30997.got - 2010.06.03 14:20:14.
