data_PCOD9440081
_publ_section_title
;
Structure prediction by ZEFSAII (Michael W. Deem and Ramdas Pophale) SiO2 
 PCOD9440081
Probable space group: P B C M
;
_chemical_formula_sum "Si O2"
_cell_formula_units_Z 64
_cell_length_a 21.317755
_cell_length_b 19.083252
_cell_length_c 8.660363
_cell_angle_alpha 90.000000
_cell_angle_beta 90.000000
_cell_angle_gamma 90.000000
_cell_volume 3523.140379
_symmetry_space_group_name_H-M "P B C M"
_symmetry_group_IT_number 57
_symmetry_cell_setting 'orthorhombic'
loop_
_space_group_symop_operation_xyz
x,y,z
-x,-y,1/2+z
x,1/2-y,-z
-x,1/2+y,1/2-z
-x,-y,-z
x,y,1/2-z
-x,1/2+y,z
x,1/2-y,1/2+z
loop_
_atom_site_type_symbol
_atom_site_label
_atom_site_fract_x
_atom_site_fract_y
_atom_site_fract_z
Si Si1 0.893767 0.174939 0.434655
Si Si2 0.374999 0.174071 0.564095
Si Si3 0.758307 0.892948 0.436138
Si Si4 0.305081 0.961384 0.564225
Si Si5 0.885971 0.828852 0.934331
Si Si6 0.246102 0.823538 0.433597
Si Si7 0.999858 0.921750 0.065458
Si Si8 0.563333 0.532371 0.564203
O O1 0.915678 0.250000 0.500000
O O2 0.897048 0.174611 0.250000
O O3 0.822244 0.166396 0.489475
O O4 0.937502 0.116034 0.506146
O O5 0.390225 0.250000 0.500000
O O6 0.376536 0.175740 0.750000
O O7 0.304045 0.151062 0.521029
O O8 0.421223 0.111747 0.512137
O O9 0.766030 0.888161 0.250000
O O10 0.819591 0.862840 0.516876
O O11 0.741757 0.973925 0.473007
O O12 0.302249 0.951489 0.750000
O O13 0.286774 0.890383 0.480108
O O14 0.374958 0.987239 0.523634
O O15 0.891364 0.826445 0.750000
O O16 0.889906 0.750000 0.000000
O O17 0.941292 0.876858 0.002505
O O18 0.271459 0.750000 0.500000
O O19 0.238982 0.817854 0.250000
O O20 0.997866 0.922929 0.250000
O O21 0.000000 0.000000 0.000000
O O22 0.500000 0.500000 0.500000
O O23 0.559978 0.533361 0.750000
#
# Coordination Sequence:
#
# PCOD9440081 Si02
#       8
#     8   8   8   8   8   8   8   8
#     4  11  22  40  63  86 113 149 189 236 290 345
#     4   9  18  33  54  82 114 148 187 231 278 332
#     4   9  19  36  58  84 115 150 187 231 284 340
#     4   9  19  37  59  83 116 153 189 233 289 341
#     4  12  25  41  60  85 117 152 191 235 285 343
#     4  11  22  37  59  87 116 148 192 241 290 346
#     4  12  26  44  62  84 113 149 192 238 289 344
#     4   9  19  36  57  82 114 152 192 234 279 334
#
# _framework density 18.165611999999999
#
# number of rings (size 3 to 8) (size 9 to 14) (size 15 to 20)
#    0.000    1.750    0.000    7.500    1.750    3.000 
#    0.000    3.125    0.000    1.500    0.000    0.000 
#    0.000    0.000    0.000    0.000    0.000    0.000 
#
# Total GULP energy -357605.288779 kJ/mol
# GULP energy per Si atom -5587.582637 kJ/mol
# Density = 1.812427 g / cm^3
# Si number density = 18.165612 Si / 1000 Ang^3
#
#
#
# Elastic Constant Matrix: (Units=GPa)
#
#
# Indices 1 2 3 4 5 6 
#
# 1 78.8949 80.0486 46.3163 0.0000 0.0000 0.0000
# 2 80.0486 180.1895 70.0381 0.0000 0.0000 0.0000
# 3 46.3163 70.0381 122.1425 0.0000 0.0000 0.0000
# 4 0.0000 0.0000 0.0000 34.5488 0.0000 0.0000
# 5 0.0000 0.0000 0.0000 0.0000 29.1914 0.0000
# 6 0.0000 0.0000 0.0000 0.0000 0.0000 23.2545
#
#
#
# Elastic Compliance Matrix: (Units=1/GPa)
#
#
# Indices 1 2 3 4 5 6 
#
# 1 0.024451 -0.009340 -0.003916 0.000000 0.000000 0.000000
# 2 -0.009340 0.010709 -0.002599 0.000000 0.000000 0.000000
# 3 -0.003916 -0.002599 0.011162 0.000000 0.000000 0.000000
# 4 0.000000 0.000000 0.000000 0.028945 0.000000 0.000000
# 5 0.000000 0.000000 0.000000 0.000000 0.034257 0.000000
# 6 0.000000 0.000000 0.000000 0.000000 0.000000 0.043002
#
#
# Mechanical properties :
#
#
# Convention : Reuss Voigt Hill
#
# Bulk Modulus (GPa) = 68.43622 86.00365 77.21994
# Shear Modulus (GPa) = 26.44011 29.72053 28.08032
#
# Velocity S-wave (km/s) = 3.81925 4.04925 3.93593
# Velocity P-wave (km/s) = 7.56334 8.32519 7.95340
#
# Compressibility (1/GPa) = 0.01461214
#
# Stress axis : x y z
#
# Youngs Moduli (GPa) = 40.89888 93.37755 89.58611
#
# Poissons Ratio (x) = 0.87214 0.35082
# Poissons Ratio (y) = 0.38199 0.23284
# Poissons Ratio (z) = 0.16016 0.24270
#
# Static dielectric constant tensor:
#      x y z
#    x 1.600610 0.000000 0.000000 
#    y 0.000000 1.596570 0.000000 
#    z 0.000000 0.000000 1.609740 
# 
# From -- ./inp_files/8543.got.cif
#   From: 2010.05.17/outbox.cif.g08.bks.cpg/sg57_5_cif.got.tgz:8543.got - 2010.06.03 13:58:18.
