data_PCOD9440750
_publ_section_title
;
Structure prediction by ZEFSAII (Michael W. Deem and Ramdas Pophale) SiO2 
 PCOD9440750
Probable space group: P N N M
;
_chemical_formula_sum "Si O2"
_cell_formula_units_Z 48
_cell_length_a 8.078480
_cell_length_b 28.638732
_cell_length_c 8.696671
_cell_angle_alpha 90.000000
_cell_angle_beta 90.000000
_cell_angle_gamma 90.000000
_cell_volume 2012.039397
_symmetry_space_group_name_H-M "P N N M"
_symmetry_group_IT_number 58
_symmetry_cell_setting 'orthorhombic'
loop_
_space_group_symop_operation_xyz
x,y,z
-x,-y,z
1/2+x,1/2-y,1/2-z
1/2-x,1/2+y,1/2-z
-x,-y,-z
x,y,-z
1/2-x,1/2+y,1/2+z
1/2+x,1/2-y,1/2+z
loop_
_atom_site_type_symbol
_atom_site_label
_atom_site_fract_x
_atom_site_fract_y
_atom_site_fract_z
Si Si1 0.262343 0.511233 0.180933
Si Si2 0.116349 0.655542 0.322516
Si Si3 0.443318 0.936414 0.817556
Si Si4 0.378022 0.320506 0.182580
Si Si5 0.951732 0.906078 0.178987
Si Si6 0.553091 0.236299 0.319416
O O1 0.223550 0.462516 0.266935
O O2 0.408218 0.545663 0.235298
O O3 0.094892 0.540040 0.224506
O O4 0.273304 0.503337 0.000000
O O5 0.104895 0.671528 0.500000
O O6 0.969733 0.618237 0.290949
O O7 0.094059 0.699657 0.214358
O O8 0.283456 0.625483 0.308240
O O9 0.469616 0.944176 0.000000
O O10 0.412240 0.370553 0.257169
O O11 0.520448 0.283961 0.230654
O O12 0.213714 0.292707 0.232314
O O13 0.372157 0.326543 0.000000
O O14 0.979690 0.916150 0.000000
O O15 0.567084 0.246730 0.500000
#
# Coordination Sequence:
#
# PCOD9440750 Si02
#       6
#     8   8   8   8   8   8
#     4  10  17  26  45  75 108 142 179 219 265 313
#     4   9  19  34  54  80 109 141 179 221 263 312
#     4   9  16  28  46  72 107 143 180 223 265 308
#     4  11  24  40  57  80 108 137 175 219 263 317
#     4  10  20  35  55  80 109 142 180 221 267 316
#     4  11  24  39  57  81 108 139 175 217 266 318
#
# _framework density 23.856392
#
# number of rings (size 3 to 8) (size 9 to 14) (size 15 to 20)
#    0.000    2.000    0.000    6.500    0.000   10.667 
#    0.000    0.000    0.000    1.000    0.000    7.000 
#    0.000    0.000    0.000    0.000    0.000    0.000 
#
# Total GULP energy -268556.124285 kJ/mol
# GULP energy per Si atom -5594.919256 kJ/mol
# Density = 2.380209 g / cm^3
# Si number density = 23.856392 Si / 1000 Ang^3
#
#
#
# Elastic Constant Matrix: (Units=GPa)
#
#
# Indices 1 2 3 4 5 6 
#
# 1 86.5045 9.1814 -0.7876 0.0000 0.0000 0.0000
# 2 9.1814 121.8820 29.8884 0.0000 0.0000 0.0000
# 3 -0.7876 29.8884 43.3145 0.0000 0.0000 0.0000
# 4 0.0000 0.0000 0.0000 78.8523 0.0000 0.0000
# 5 0.0000 0.0000 0.0000 0.0000 25.6313 0.0000
# 6 0.0000 0.0000 0.0000 0.0000 0.0000 41.9290
#
#
#
# Elastic Compliance Matrix: (Units=1/GPa)
#
#
# Indices 1 2 3 4 5 6 
#
# 1 0.011688 -0.001123 0.000987 0.000000 0.000000 0.000000
# 2 -0.001123 0.009984 -0.006909 0.000000 0.000000 0.000000
# 3 0.000987 -0.006909 0.027873 0.000000 0.000000 0.000000
# 4 0.000000 0.000000 0.000000 0.012682 0.000000 0.000000
# 5 0.000000 0.000000 0.000000 0.000000 0.039015 0.000000
# 6 0.000000 0.000000 0.000000 0.000000 0.000000 0.023850
#
#
# Mechanical properties :
#
#
# Convention : Reuss Voigt Hill
#
# Bulk Modulus (GPa) = 28.20495 36.47393 32.33944
# Shear Modulus (GPa) = 33.11281 43.51043 38.31162
#
# Velocity S-wave (km/s) = 3.72964 4.27529 4.01175
# Velocity P-wave (km/s) = 5.51320 6.30023 5.91981
#
# Compressibility (1/GPa) = 0.03545477
#
# Stress axis : x y z
#
# Youngs Moduli (GPa) = 85.55619 100.16461 35.87750
#
# Poissons Ratio (x) = 0.11244 -0.03542
# Poissons Ratio (y) = 0.09604 0.24789
# Poissons Ratio (z) = -0.08445 0.69208
#
# Static dielectric constant tensor:
#      x y z
#    x 2.022550 0.000000 0.000000 
#    y 0.000000 1.895720 0.000000 
#    z 0.000000 0.000000 1.788800 
# 
# From -- ./inp_files/2954.got.cif
#   From: 2010.05.17/outbox.cif.g08.bks.cpg/sg58_2_cif.got.tgz:2954.got - 2010.06.03 14:20:14.
