data_PCOD9440148
_publ_section_title
;
Structure prediction by ZEFSAII (Michael W. Deem and Ramdas Pophale) SiO2 
 PCOD9440148
Probable space group: P B C M
;
_chemical_formula_sum "Si O2"
_cell_formula_units_Z 40
_cell_length_a 8.490003
_cell_length_b 24.943912
_cell_length_c 8.086291
_cell_angle_alpha 90.000000
_cell_angle_beta 90.000000
_cell_angle_gamma 90.000000
_cell_volume 1712.465282
_symmetry_space_group_name_H-M "P B C M"
_symmetry_group_IT_number 57
_symmetry_cell_setting 'orthorhombic'
loop_
_space_group_symop_operation_xyz
x,y,z
-x,-y,1/2+z
x,1/2-y,-z
-x,1/2+y,1/2-z
-x,-y,-z
x,y,1/2-z
-x,1/2+y,z
x,1/2-y,1/2+z
loop_
_atom_site_type_symbol
_atom_site_label
_atom_site_fract_x
_atom_site_fract_y
_atom_site_fract_z
Si Si1 0.174928 0.008944 0.552237
Si Si2 0.567029 0.443642 0.061779
Si Si3 0.175862 0.133330 0.553948
Si Si4 0.856456 0.190823 0.053250
Si Si5 0.494706 0.667731 0.434909
O O1 0.202510 0.002801 0.750000
O O2 0.212600 0.071060 0.505378
O O3 0.253784 0.960235 0.452532
O O4 0.000000 0.000000 0.500000
O O5 0.521301 0.430222 0.250000
O O6 0.500000 0.500000 0.000000
O O7 0.531071 0.396047 0.939863
O O8 0.166183 0.133385 0.750000
O O9 0.327037 0.170803 0.506659
O O10 0.003586 0.152347 0.492323
O O11 0.838556 0.186214 0.250000
O O12 0.674581 0.184881 0.984533
O O13 0.908161 0.250000 0.000000
O O14 0.501636 0.690282 0.250000
#
# Coordination Sequence:
#
# PCOD9440148 Si02
#       5
#     8   8   8   8   8
#     4  11  23  38  59  91 129 174 219 263 321 385
#     4  12  23  37  60  91 130 172 214 264 317 383
#     4  11  24  42  67  97 132 174 219 269 329 394
#     4  11  26  47  71  98 129 168 218 277 338 398
#     4  11  24  43  69  99 134 176 224 275 333 400
#
# _framework density 23.358139000000001
#
# number of rings (size 3 to 8) (size 9 to 14) (size 15 to 20)
#    0.000    0.800    2.000    5.400    0.000    9.600 
#    0.000    2.000    0.000    0.000    0.000    0.000 
#    0.000    0.000    0.000    0.000    0.000    0.000 
#
# Total GULP energy -222911.588453 kJ/mol
# GULP energy per Si atom -5572.789711 kJ/mol
# Density = 2.330497 g / cm^3
# Si number density = 23.358139 Si / 1000 Ang^3
#
#
#
# Elastic Constant Matrix: (Units=GPa)
#
#
# Indices 1 2 3 4 5 6 
#
# 1 138.2104 5.4613 17.5901 0.0000 0.0000 0.0000
# 2 5.4613 56.2059 0.7298 0.0000 0.0000 0.0000
# 3 17.5901 0.7298 64.5690 0.0000 0.0000 0.0000
# 4 0.0000 0.0000 0.0000 15.4887 0.0000 0.0000
# 5 0.0000 0.0000 0.0000 0.0000 31.3300 0.0000
# 6 0.0000 0.0000 0.0000 0.0000 0.0000 7.0333
#
#
#
# Elastic Compliance Matrix: (Units=1/GPa)
#
#
# Indices 1 2 3 4 5 6 
#
# 1 0.007523 -0.000704 -0.002041 0.000000 0.000000 0.000000
# 2 -0.000704 0.017860 -0.000010 0.000000 0.000000 0.000000
# 3 -0.002041 -0.000010 0.016044 0.000000 0.000000 0.000000
# 4 0.000000 0.000000 0.000000 0.064563 0.000000 0.000000
# 5 0.000000 0.000000 0.000000 0.000000 0.031918 0.000000
# 6 0.000000 0.000000 0.000000 0.000000 0.000000 0.142181
#
#
# Mechanical properties :
#
#
# Convention : Reuss Voigt Hill
#
# Bulk Modulus (GPa) = 27.84347 34.06085 30.95216
# Shear Modulus (GPa) = 16.80260 26.45066 21.62663
#
# Velocity S-wave (km/s) = 2.68497 3.36876 3.04611
# Velocity P-wave (km/s) = 4.64308 5.45390 5.06474
#
# Compressibility (1/GPa) = 0.03591507
#
# Stress axis : x y z
#
# Youngs Moduli (GPa) = 132.92562 55.99004 62.33025
#
# Poissons Ratio (x) = 0.03944 0.12725
# Poissons Ratio (y) = 0.09364 0.00062
# Poissons Ratio (z) = 0.27136 0.00056
#
# Static dielectric constant tensor:
#      x y z
#    x 1.558310 0.000000 0.000000 
#    y 0.000000 1.894640 0.000000 
#    z 0.000000 0.000000 2.077740 
# 
# From -- ./inp_files/1734.got.cif
#   From: 2010.05.17/outbox.cif.g08.bks.cpg/sg57_1_cif.got.tgz:1734.got - 2010.06.03 13:58:18.
