data_PCOD9440583
_publ_section_title
;
Structure prediction by ZEFSAII (Michael W. Deem and Ramdas Pophale) SiO2 
 PCOD9440583
Probable space group: P B C M
;
_chemical_formula_sum "Si O2"
_cell_formula_units_Z 64
_cell_length_a 9.000000
_cell_length_b 15.000000
_cell_length_c 24.000000
_cell_angle_alpha 90.000000
_cell_angle_beta 90.000000
_cell_angle_gamma 90.000000
_cell_volume 3240.000000
_symmetry_space_group_name_H-M "P B C M"
_symmetry_group_IT_number 57
_symmetry_cell_setting 'orthorhombic'
loop_
_space_group_symop_operation_xyz
x,y,z
-x,-y,1/2+z
x,1/2-y,-z
-x,1/2+y,1/2-z
-x,-y,-z
x,y,1/2-z
-x,1/2+y,z
x,1/2-y,1/2+z
loop_
_atom_site_type_symbol
_atom_site_label
_atom_site_fract_x
_atom_site_fract_y
_atom_site_fract_z
Si Si1 0.324929 0.802018 0.687847
Si Si2 0.679085 0.793769 0.685974
Si Si3 0.316017 0.469091 0.622847
Si Si4 0.986068 0.152093 0.972328
Si Si5 0.810795 0.891787 0.311944
Si Si6 0.871059 0.362269 0.153157
Si Si7 0.654046 0.034173 0.383124
Si Si8 0.770085 0.991467 0.004188
O O1 0.292067 0.839163 0.750000
O O2 0.501129 0.785071 0.685713
O O3 0.231090 0.714279 0.677850
O O4 0.295442 0.869352 0.637466
O O5 0.725892 0.810201 0.750000
O O6 0.729327 0.873858 0.647073
O O7 0.744547 0.700790 0.667115
O O8 0.221030 0.547554 0.648469
O O9 0.488028 0.481277 0.638532
O O10 0.293508 0.473418 0.556728
O O11 0.930398 0.161405 0.908835
O O12 0.139614 0.096707 0.976892
O O13 0.990662 0.250000 0.000000
O O14 0.874773 0.079575 0.000568
O O15 0.750505 0.909506 0.250000
O O16 0.766431 0.967829 0.353931
O O17 0.985291 0.879576 0.310524
O O18 0.653904 0.016582 0.448412
#
# Coordination Sequence:
#
# PCOD9440583 Si02
#       8
#     8   8   8   8   8   8   8   8
#     4  10  21  38  61  85 115 156 200 242 295 354
#     4   9  21  40  59  84 116 155 197 244 297 353
#     4  10  23  38  63  88 119 156 198 244 298 354
#     4  10  21  37  57  85 117 157 187 239 302 347
#     4  11  23  38  58  85 118 153 197 244 297 353
#     4  11  22  38  57  87 118 151 196 246 297 349
#     4  11  21  40  60  88 120 158 195 246 298 351
#     4  10  21  37  59  89 119 151 201 241 289 357
#
# _framework density 19.753086
#
# number of rings (size 3 to 8) (size 9 to 14) (size 15 to 20)
#    0.000    1.750    1.250    2.625    1.750    2.500 
#    0.000    1.250    0.000    6.000    0.000    0.000 
#    0.000    0.000    0.000    0.000    0.000    0.000 
#
# Total GULP energy -357031.341509 kJ/mol
# GULP energy per Si atom -5578.614711 kJ/mol
# Density = 1.970813 g / cm^3
# Si number density = 19.753086 Si / 1000 Ang^3
#
#
#
# Elastic Constant Matrix: (Units=GPa)
#
#
# Indices 1 2 3 4 5 6 
#
# 1 25.8732 29.7756 -5.0767 0.0000 0.0000 0.0000
# 2 29.7756 64.8723 18.5077 0.0000 0.0000 0.0000
# 3 -5.0767 18.5077 -3.7787 0.0000 0.0000 0.0000
# 4 0.0000 0.0000 0.0000 -15.7401 0.0000 0.0000
# 5 0.0000 0.0000 0.0000 0.0000 16.5681 0.0000
# 6 0.0000 0.0000 0.0000 0.0000 0.0000 27.5661
#
#
#
# Elastic Compliance Matrix: (Units=1/GPa)
#
#
# Indices 1 2 3 4 5 6 
#
# 1 0.030733 -0.000970 -0.046042 0.000000 0.000000 0.000000
# 2 -0.000970 0.006461 0.032947 0.000000 0.000000 0.000000
# 3 -0.046042 0.032947 -0.041411 0.000000 0.000000 0.000000
# 4 0.000000 0.000000 0.000000 -0.063532 0.000000 0.000000
# 5 0.000000 0.000000 0.000000 0.000000 0.060357 0.000000
# 6 0.000000 0.000000 0.000000 0.000000 0.000000 0.036276
#
#
# Mechanical properties :
#
#
# Convention : Reuss Voigt Hill
#
# Bulk Modulus (GPa) = -30.91337 19.26445 -5.82446
# Shear Modulus (GPa) = 108.15240 8.59616 58.37428
#
# Velocity S-wave (km/s) = 7.40750 2.08836 5.44207
# Velocity P-wave (km/s) = 7.58139 3.94827 6.04427
#
# Compressibility (1/GPa) = -0.03234847
#
# Stress axis : x y z
#
# Youngs Moduli (GPa) = 32.53852 154.78343 -24.14793
#
# Poissons Ratio (x) = 0.15020 -1.11182
# Poissons Ratio (y) = 0.03158 0.79561
# Poissons Ratio (z) = 1.49814 -5.09968
#
# Static dielectric constant tensor:
#      x y z
#    x 1.710440 0.000000 0.000000 
#    y 0.000000 1.659460 0.000000 
#    z 0.000000 0.000000 1.557430 
# 
# From -- ./inp_files/26879.got.cif
#   From: 2010.05.17/outbox.ucp.g08.bks.cvg/sg57_14_cif.got.tgz:26879.got - 2010.06.11 16:39:23.
