data_PCOD9440877
_publ_section_title
;
Structure prediction by ZEFSAII (Michael W. Deem and Ramdas Pophale) SiO2 
 PCOD9440877
Probable space group: P N N M
;
_chemical_formula_sum "Si O2"
_cell_formula_units_Z 64
_cell_length_a 11.040696
_cell_length_b 18.801668
_cell_length_c 13.602937
_cell_angle_alpha 90.000000
_cell_angle_beta 90.000000
_cell_angle_gamma 90.000000
_cell_volume 2823.745282
_symmetry_space_group_name_H-M "P N N M"
_symmetry_group_IT_number 58
_symmetry_cell_setting 'orthorhombic'
loop_
_space_group_symop_operation_xyz
x,y,z
-x,-y,z
1/2+x,1/2-y,1/2-z
1/2-x,1/2+y,1/2-z
-x,-y,-z
x,y,-z
1/2-x,1/2+y,1/2+z
1/2+x,1/2-y,1/2+z
loop_
_atom_site_type_symbol
_atom_site_label
_atom_site_fract_x
_atom_site_fract_y
_atom_site_fract_z
Si Si1 0.285845 0.147625 0.680144
Si Si2 0.480289 0.393771 0.656266
Si Si3 0.125462 0.274581 0.317445
Si Si4 0.145424 0.493056 0.798681
Si Si5 0.633788 0.792768 0.109763
Si Si6 0.010080 0.266913 0.104296
Si Si7 0.294280 0.513303 0.390567
Si Si8 0.203651 0.856800 0.699535
O O1 0.168206 0.195037 0.659491
O O2 0.318731 0.163043 0.795843
O O3 0.390872 0.186256 0.618222
O O4 0.292600 0.064350 0.658672
O O5 0.484470 0.316708 0.608408
O O6 0.614109 0.426550 0.650527
O O7 0.386034 0.446740 0.605878
O O8 0.425425 0.388243 0.766089
O O9 0.082072 0.278490 0.204207
O O10 0.240261 0.325950 0.303296
O O11 0.012266 0.297148 0.382001
O O12 0.186087 0.496496 0.684110
O O13 0.206803 0.419599 0.835958
O O14 0.000000 0.500000 0.810100
O O15 0.673918 0.711400 0.132798
O O16 0.673396 0.812705 0.000000
O O17 0.068757 0.284654 0.000000
O O18 0.252491 0.530089 0.500000
#
# Coordination Sequence:
#
# PCOD9440877 Si02
#       8
#     8   8   8   8   8   8   8   8
#     4  10  22  39  57  85 126 158 210 256 309 375
#     4  10  17  36  57  88 122 154 194 244 299 364
#     4  10  19  38  59  89 124 156 204 260 310 375
#     4  11  23  39  60  83 122 172 206 255 318 380
#     4  10  21  39  64  92 124 162 210 264 317 376
#     4  11  20  33  58  84 114 153 200 252 300 357
#     4  10  21  33  56  90 122 155 199 248 305 376
#     4  10  21  40  63  87 123 167 204 248 317 372
#
# _framework density 22.664932
#
# number of rings (size 3 to 8) (size 9 to 14) (size 15 to 20)
#    0.000    1.750    3.750    3.750    0.000    3.250 
#    0.000    3.750    0.000    2.250    0.000    0.000 
#    0.000    0.000    0.000    0.000    0.000    0.000 
#
# Total GULP energy -357196.928536 kJ/mol
# GULP energy per Si atom -5581.202008 kJ/mol
# Density = 2.261335 g / cm^3
# Si number density = 22.664932 Si / 1000 Ang^3
#
#
#
# Elastic Constant Matrix: (Units=GPa)
#
#
# Indices 1 2 3 4 5 6 
#
# 1 43.9879 -4.7690 0.9507 0.0000 0.0000 0.0000
# 2 -4.7690 130.1118 -0.8855 0.0000 0.0000 0.0000
# 3 0.9507 -0.8855 53.9640 0.0000 0.0000 0.0000
# 4 0.0000 0.0000 0.0000 -8.9879 0.0000 0.0000
# 5 0.0000 0.0000 0.0000 0.0000 5.1805 0.0000
# 6 0.0000 0.0000 0.0000 0.0000 0.0000 35.3362
#
#
#
# Elastic Compliance Matrix: (Units=1/GPa)
#
#
# Indices 1 2 3 4 5 6 
#
# 1 0.022832 0.000834 -0.000389 0.000000 0.000000 0.000000
# 2 0.000834 0.007717 0.000112 0.000000 0.000000 0.000000
# 3 -0.000389 0.000112 0.018540 0.000000 0.000000 0.000000
# 4 0.000000 0.000000 0.000000 -0.111261 0.000000 0.000000
# 5 0.000000 0.000000 0.000000 0.000000 0.193030 0.000000
# 6 0.000000 0.000000 0.000000 0.000000 0.000000 0.028300
#
#
# Mechanical properties :
#
#
# Convention : Reuss Voigt Hill
#
# Bulk Modulus (GPa) = 19.91868 24.29513 22.10691
# Shear Modulus (GPa) = 28.60776 21.82359 25.21567
#
# Velocity S-wave (km/s) = 3.55660 3.10640 3.33910
# Velocity P-wave (km/s) = 5.06688 4.85889 4.96398
#
# Compressibility (1/GPa) = 0.05020413
#
# Stress axis : x y z
#
# Youngs Moduli (GPa) = 43.79746 129.58337 53.93878
#
# Poissons Ratio (x) = -0.10810 0.02096
# Poissons Ratio (y) = -0.03654 -0.00604
# Poissons Ratio (z) = 0.01702 -0.01450
#
# Static dielectric constant tensor:
#      x y z
#    x 1.922250 0.000000 0.000000 
#    y 0.000000 1.906090 0.000000 
#    z 0.000000 0.000000 1.834430 
# 
# From -- ./inp_files/21524.got.cif
#   From: 2010.05.17/outbox.cif.g08.bks.cpg/sg58_11_cif.got.tgz:21524.got - 2010.06.03 14:20:14.
