data_PCOD9440909
_publ_section_title
;
Structure prediction by ZEFSAII (Michael W. Deem and Ramdas Pophale) SiO2 
 PCOD9440909
Probable space group: P N N M
;
_chemical_formula_sum "Si O2"
_cell_formula_units_Z 64
_cell_length_a 22.650851
_cell_length_b 19.245674
_cell_length_c 7.494993
_cell_angle_alpha 90.000000
_cell_angle_beta 90.000000
_cell_angle_gamma 90.000000
_cell_volume 3267.299000
_symmetry_space_group_name_H-M "P N N M"
_symmetry_group_IT_number 58
_symmetry_cell_setting 'orthorhombic'
loop_
_space_group_symop_operation_xyz
x,y,z
-x,-y,z
1/2+x,1/2-y,1/2-z
1/2-x,1/2+y,1/2-z
-x,-y,-z
x,y,-z
1/2-x,1/2+y,1/2+z
1/2+x,1/2-y,1/2+z
loop_
_atom_site_type_symbol
_atom_site_label
_atom_site_fract_x
_atom_site_fract_y
_atom_site_fract_z
Si Si1 0.565361 0.511844 0.789592
Si Si2 0.235314 0.882337 0.786825
Si Si3 0.856609 0.570063 0.712802
Si Si4 0.189923 0.585847 0.786187
Si Si5 0.010318 0.423844 0.206955
Si Si6 0.613167 0.664941 0.283705
Si Si7 0.687783 0.462413 0.786611
Si Si8 0.085364 0.684202 0.781252
O O1 0.500000 0.500000 0.713627
O O2 0.583302 0.592861 0.773425
O O3 0.620514 0.466050 0.716591
O O4 0.562432 0.495267 0.000000
O O5 0.302154 0.883068 0.718314
O O6 0.181814 0.834662 0.722587
O O7 0.211891 0.959929 0.748118
O O8 0.239010 0.873085 0.000000
O O9 0.859626 0.576769 0.500000
O O10 0.840106 0.489453 0.751103
O O11 0.920239 0.589584 0.785864
O O12 0.257725 0.584524 0.718116
O O13 0.145528 0.645460 0.723528
O O14 0.193525 0.592356 0.000000
O O15 0.000000 0.500000 0.289437
O O16 0.969193 0.363142 0.280589
O O17 0.991690 0.429651 0.000000
O O18 0.613357 0.663178 0.500000
O O19 0.583071 0.735973 0.223729
O O20 0.684247 0.451702 0.000000
O O21 0.085699 0.685679 0.000000
#
# Coordination Sequence:
#
# PCOD9440909 Si02
#       8
#     8   8   8   8   8   8   8   8
#     4   9  17  30  48  70  98 123 148 188 235 279
#     4   8  15  27  43  63  88 112 138 181 229 265
#     4  10  18  27  42  66  94 118 147 186 229 271
#     4   9  15  27  45  65  87 113 152 192 226 263
#     4  10  18  30  46  65  91 123 160 195 227 263
#     4   9  17  31  50  69  89 116 156 195 232 277
#     4   8  14  24  43  67  86 109 145 183 219 264
#     4   9  17  29  47  67  87 117 155 198 234 265
#
# _framework density 19.588044
#
# number of rings (size 3 to 8) (size 9 to 14) (size 15 to 20)
#    0.000    3.000    1.250    0.375    0.000    1.000 
#    0.000    1.250    2.750    0.000    0.000    0.000 
#    0.000    0.000    0.000    0.000    0.000    0.000 
#
# Total GULP energy -356309.409029 kJ/mol
# GULP energy per Si atom -5567.334516 kJ/mol
# Density = 1.954346 g / cm^3
# Si number density = 19.588044 Si / 1000 Ang^3
#
#
#
# Elastic Constant Matrix: (Units=GPa)
#
#
# Indices 1 2 3 4 5 6 
#
# 1 166.2124 42.1315 -8.1747 0.0000 0.0000 0.0000
# 2 42.1315 51.7514 -5.9001 0.0000 0.0000 0.0000
# 3 -8.1747 -5.9001 53.5662 0.0000 0.0000 0.0000
# 4 0.0000 0.0000 0.0000 6.9195 0.0000 0.0000
# 5 0.0000 0.0000 0.0000 0.0000 1.5319 0.0000
# 6 0.0000 0.0000 0.0000 0.0000 0.0000 25.3459
#
#
#
# Elastic Compliance Matrix: (Units=1/GPa)
#
#
# Indices 1 2 3 4 5 6 
#
# 1 0.007593 -0.006127 0.000484 0.000000 0.000000 0.000000
# 2 -0.006127 0.024512 0.001765 0.000000 0.000000 0.000000
# 3 0.000484 0.001765 0.018937 0.000000 0.000000 0.000000
# 4 0.000000 0.000000 0.000000 0.144520 0.000000 0.000000
# 5 0.000000 0.000000 0.000000 0.000000 0.652771 0.000000
# 6 0.000000 0.000000 0.000000 0.000000 0.000000 0.039454
#
#
# Mechanical properties :
#
#
# Convention : Reuss Voigt Hill
#
# Bulk Modulus (GPa) = 23.10176 36.40483 29.75329
# Shear Modulus (GPa) = 5.49468 22.99101 14.24285
#
# Velocity S-wave (km/s) = 1.67667 3.42969 2.69944
# Velocity P-wave (km/s) = 3.94559 5.85741 4.99384
#
# Compressibility (1/GPa) = 0.04328675
#
# Stress axis : x y z
#
# Youngs Moduli (GPa) = 131.69768 40.79626 52.80736
#
# Poissons Ratio (x) = 0.24994 -0.02556
# Poissons Ratio (y) = 0.80685 -0.09320
# Poissons Ratio (z) = -0.06374 -0.07200
#
# Static dielectric constant tensor:
#      x y z
#    x 1.747400 0.000000 0.000000 
#    y 0.000000 1.656690 0.000000 
#    z 0.000000 0.000000 1.734650 
# 
# From -- ./inp_files/9410.got.cif
#   From: 2010.05.17/outbox.cif.g08.bks.cpg/sg58_5_cif.got.tgz:9410.got - 2010.06.03 14:20:14.
