data_PCOD9440874
_publ_section_title
;
Structure prediction by ZEFSAII (Michael W. Deem and Ramdas Pophale) SiO2 
 PCOD9440874
Probable space group: P N N M
;
_chemical_formula_sum "Si O2"
_cell_formula_units_Z 32
_cell_length_a 13.926182
_cell_length_b 7.128350
_cell_length_c 11.279299
_cell_angle_alpha 90.000000
_cell_angle_beta 90.000000
_cell_angle_gamma 90.000000
_cell_volume 1119.703901
_symmetry_space_group_name_H-M "P N N M"
_symmetry_group_IT_number 58
_symmetry_cell_setting 'orthorhombic'
loop_
_space_group_symop_operation_xyz
x,y,z
-x,-y,z
1/2+x,1/2-y,1/2-z
1/2-x,1/2+y,1/2-z
-x,-y,-z
x,y,-z
1/2-x,1/2+y,1/2+z
1/2+x,1/2-y,1/2+z
loop_
_atom_site_type_symbol
_atom_site_label
_atom_site_fract_x
_atom_site_fract_y
_atom_site_fract_z
Si Si1 0.563325 0.684412 0.000000
Si Si2 0.226684 0.341574 0.500000
Si Si3 0.067473 0.678581 0.000000
Si Si4 0.898151 0.203415 0.748301
Si Si5 0.178299 0.217269 0.253847
Si Si6 0.211883 0.275018 0.000000
O O1 0.500000 0.500000 0.000000
O O2 0.549274 0.771936 0.129741
O O3 0.320656 0.353647 0.000000
O O4 0.314464 0.190368 0.500000
O O5 0.167076 0.317484 0.380182
O O6 0.275160 0.546908 0.500000
O O7 0.049256 0.772417 0.872442
O O8 0.000000 0.500000 0.000000
O O9 0.794631 0.304763 0.748895
O O10 0.873135 0.982619 0.739305
O O11 0.161332 0.314610 0.125952
#
# Coordination Sequence:
#
# PCOD9440874 Si02
#       6
#     4   4   4   8   8   4
#     4  10  23  41  64  95 143 191 221 277 361 437
#     4  10  19  34  62 103 138 163 237 297 353 400
#     4  10  20  39  65  97 144 186 229 280 364 437
#     4  10  20  37  67  97 134 171 235 286 348 407
#     4  10  17  34  62 100 132 168 220 305 344 386
#     4  10  18  36  63 102 139 173 231 299 345 401
#
# _framework density 28.578980999999999
#
# number of rings (size 3 to 8) (size 9 to 14) (size 15 to 20)
#    0.000    2.000    5.000    0.750    0.000    0.000 
#    0.000    6.250    5.500    0.000    0.000    0.000 
#    0.000    0.000    0.000    0.000    0.000    0.000 
#
# Total GULP energy -179159.596530 kJ/mol
# GULP energy per Si atom -5598.737392 kJ/mol
# Density = 2.851393 g / cm^3
# Si number density = 28.578981 Si / 1000 Ang^3
#
#
#
# Elastic Constant Matrix: (Units=GPa)
#
#
# Indices 1 2 3 4 5 6 
#
# 1 145.6904 28.1352 27.8949 0.0000 0.0000 0.0000
# 2 28.1352 94.5532 44.0635 0.0000 0.0000 0.0000
# 3 27.8949 44.0635 374.5124 0.0000 0.0000 0.0000
# 4 0.0000 0.0000 0.0000 47.0435 0.0000 0.0000
# 5 0.0000 0.0000 0.0000 0.0000 -32.2102 0.0000
# 6 0.0000 0.0000 0.0000 0.0000 0.0000 60.1260
#
#
#
# Elastic Compliance Matrix: (Units=1/GPa)
#
#
# Indices 1 2 3 4 5 6 
#
# 1 0.007315 -0.002034 -0.000306 0.000000 0.000000 0.000000
# 2 -0.002034 0.011755 -0.001232 0.000000 0.000000 0.000000
# 3 -0.000306 -0.001232 0.002838 0.000000 0.000000 0.000000
# 4 0.000000 0.000000 0.000000 0.021257 0.000000 0.000000
# 5 0.000000 0.000000 0.000000 0.000000 -0.031046 0.000000
# 6 0.000000 0.000000 0.000000 0.000000 0.000000 0.016632
#
#
# Mechanical properties :
#
#
# Convention : Reuss Voigt Hill
#
# Bulk Modulus (GPa) = 67.72532 90.54926 79.13729
# Shear Modulus (GPa) = 122.50213 49.30268 85.90241
#
# Velocity S-wave (km/s) = 6.55419 4.15798 5.48846
# Velocity P-wave (km/s) = 9.00143 7.40300 8.24106
#
# Compressibility (1/GPa) = 0.01476553
#
# Stress axis : x y z
#
# Youngs Moduli (GPa) = 136.70117 85.06791 352.38647
#
# Poissons Ratio (x) = 0.17306 0.10766
# Poissons Ratio (y) = 0.27810 0.43398
# Poissons Ratio (z) = 0.04176 0.10477
#
# Static dielectric constant tensor:
#      x y z
#    x 2.179400 0.000000 0.000000 
#    y 0.000000 2.216290 0.000000 
#    z 0.000000 0.000000 2.275060 
# 
# From -- ./inp_files/15208.got.cif
#   From: 2010.05.17/outbox.cif.g08.bks.cpg/sg58_8_cif.got.tgz:15208.got - 2010.06.03 14:20:14.
