data_PCOD9440931
_publ_section_title
;
Structure prediction by ZEFSAII (Michael W. Deem and Ramdas Pophale) SiO2 
 PCOD9440931
Probable space group: P N N M
;
_chemical_formula_sum "Si O2"
_cell_formula_units_Z 56
_cell_length_a 18.602884
_cell_length_b 21.761819
_cell_length_c 8.939420
_cell_angle_alpha 90.000000
_cell_angle_beta 90.000000
_cell_angle_gamma 90.000000
_cell_volume 3618.968592
_symmetry_space_group_name_H-M "P N N M"
_symmetry_group_IT_number 58
_symmetry_cell_setting 'orthorhombic'
loop_
_space_group_symop_operation_xyz
x,y,z
-x,-y,z
1/2+x,1/2-y,1/2-z
1/2-x,1/2+y,1/2-z
-x,-y,-z
x,y,-z
1/2-x,1/2+y,1/2+z
1/2+x,1/2-y,1/2+z
loop_
_atom_site_type_symbol
_atom_site_label
_atom_site_fract_x
_atom_site_fract_y
_atom_site_fract_z
Si Si1 0.082714 0.999217 0.682186
Si Si2 0.345518 0.627591 0.181356
Si Si3 0.297805 0.186626 0.671850
Si Si4 0.919478 0.752761 0.178230
Si Si5 0.574294 0.750358 0.177571
Si Si6 0.292541 0.814342 0.171966
Si Si7 0.839084 0.125440 0.320106
O O1 0.081555 0.997926 0.500000
O O2 0.122979 0.061770 0.725038
O O3 0.123736 0.937616 0.729947
O O4 0.000000 0.000000 0.732819
O O5 0.261465 0.636811 0.220618
O O6 0.390859 0.682593 0.254464
O O7 0.350517 0.634221 0.000000
O O8 0.319497 0.174883 0.500000
O O9 0.366829 0.199419 0.772426
O O10 0.252024 0.250084 0.673153
O O11 0.864837 0.700791 0.238622
O O12 0.999671 0.742232 0.237209
O O13 0.917122 0.755079 0.000000
O O14 0.609321 0.683631 0.214295
O O15 0.562458 0.752440 0.000000
O O16 0.238081 0.862353 0.246264
O O17 0.308227 0.829587 0.000000
O O18 0.830669 0.124387 0.500000
#
# Coordination Sequence:
#
# PCOD9440931 Si02
#       7
#     8   8   8   8   8   8   8
#     4   9  16  27  45  68  93 123 157 186 211 248
#     4   9  17  30  46  64  90 123 155 185 218 258
#     4   8  15  27  42  61  85 113 146 183 221 260
#     4  11  20  29  44  66  91 116 146 186 228 269
#     4  10  18  28  44  65  89 116 146 182 225 269
#     4   9  17  30  46  63  87 117 148 183 225 270
#     4   9  17  29  46  67  91 121 156 187 215 256
#
# _framework density 15.474021
#
# number of rings (size 3 to 8) (size 9 to 14) (size 15 to 20)
#    0.000    2.714    0.000    3.857    0.000    6.286 
#    0.000    0.714    0.000    1.714    0.000    1.000 
#    0.000    8.000    0.000    0.000    0.000    0.000 
#
# Total GULP energy -312040.528163 kJ/mol
# GULP energy per Si atom -5572.152289 kJ/mol
# Density = 1.543880 g / cm^3
# Si number density = 15.474021 Si / 1000 Ang^3
#
#
#
# Elastic Constant Matrix: (Units=GPa)
#
#
# Indices 1 2 3 4 5 6 
#
# 1 138.8350 68.4201 59.3697 0.0000 0.0000 0.0000
# 2 68.4201 83.9002 26.0227 0.0000 0.0000 0.0000
# 3 59.3697 26.0227 55.9958 0.0000 0.0000 0.0000
# 4 0.0000 0.0000 0.0000 14.4884 0.0000 0.0000
# 5 0.0000 0.0000 0.0000 0.0000 26.7022 0.0000
# 6 0.0000 0.0000 0.0000 0.0000 0.0000 25.2125
#
#
#
# Elastic Compliance Matrix: (Units=1/GPa)
#
#
# Indices 1 2 3 4 5 6 
#
# 1 0.018985 -0.010795 -0.015112 0.000000 0.000000 0.000000
# 2 -0.010795 0.020064 0.002121 0.000000 0.000000 0.000000
# 3 -0.015112 0.002121 0.032896 0.000000 0.000000 0.000000
# 4 0.000000 0.000000 0.000000 0.069021 0.000000 0.000000
# 5 0.000000 0.000000 0.000000 0.000000 0.037450 0.000000
# 6 0.000000 0.000000 0.000000 0.000000 0.000000 0.039663
#
#
# Mechanical properties :
#
#
# Convention : Reuss Voigt Hill
#
# Bulk Modulus (GPa) = 41.02983 65.15067 53.09025
# Shear Modulus (GPa) = 18.26312 21.60853 19.93583
#
# Velocity S-wave (km/s) = 3.43919 3.74095 3.59324
# Velocity P-wave (km/s) = 6.50720 7.80092 7.18324
#
# Compressibility (1/GPa) = 0.02437251
#
# Stress axis : x y z
#
# Youngs Moduli (GPa) = 52.67247 49.83958 30.39911
#
# Poissons Ratio (x) = 0.53802 0.45940
# Poissons Ratio (y) = 0.56860 -0.06448
# Poissons Ratio (z) = 0.79601 -0.10571
#
# Static dielectric constant tensor:
#      x y z
#    x 1.513050 0.000000 0.000000 
#    y 0.000000 1.504440 0.000000 
#    z 0.000000 0.000000 1.520230 
# 
# From -- ./inp_files/8157.got.cif
#   From: 2010.05.17/outbox.cif.g08.bks.cpg/sg58_5_cif.got.tgz:8157.got - 2010.06.03 14:20:14.
