data_PCOD9440090
_publ_section_title
;
Structure prediction by ZEFSAII (Michael W. Deem and Ramdas Pophale) SiO2 
 PCOD9440090
Probable space group: P B C M
;
_chemical_formula_sum "Si O2"
_cell_formula_units_Z 48
_cell_length_a 8.949551
_cell_length_b 8.657420
_cell_length_c 27.446320
_cell_angle_alpha 90.000000
_cell_angle_beta 90.000000
_cell_angle_gamma 90.000000
_cell_volume 2126.541472
_symmetry_space_group_name_H-M "P B C M"
_symmetry_group_IT_number 57
_symmetry_cell_setting 'orthorhombic'
loop_
_space_group_symop_operation_xyz
x,y,z
-x,-y,1/2+z
x,1/2-y,-z
-x,1/2+y,1/2-z
-x,-y,-z
x,y,1/2-z
-x,1/2+y,z
x,1/2-y,1/2+z
loop_
_atom_site_type_symbol
_atom_site_label
_atom_site_fract_x
_atom_site_fract_y
_atom_site_fract_z
Si Si1 0.121215 0.502068 0.043107
Si Si2 0.519306 0.967182 0.806393
Si Si3 0.090354 0.194412 0.397206
Si Si4 0.659090 0.445367 0.100814
Si Si5 0.264958 0.323695 0.306837
Si Si6 0.577829 0.151982 0.043462
O O1 0.130955 0.332818 0.066312
O O2 0.282570 0.554100 0.023584
O O3 0.066620 0.623500 0.084897
O O4 0.000000 0.500000 0.000000
O O5 0.534715 0.009939 0.750000
O O6 0.346942 0.012579 0.818842
O O7 0.620519 0.065202 0.842581
O O8 0.596777 0.799023 0.811480
O O9 0.192164 0.043232 0.403968
O O10 0.136622 0.266255 0.344264
O O11 0.648279 0.280045 0.077901
O O12 0.531982 0.547921 0.074493
O O13 0.216712 0.323695 0.250000
O O14 0.503836 0.250000 0.000000
#
# Coordination Sequence:
#
# PCOD9440090 Si02
#       6
#     8   8   8   8   8   8
#     4  12  25  43  62  82 114 162 208 245 298 364
#     4   9  17  32  56  86 119 152 185 227 285 350
#     4  11  23  40  61  86 117 155 201 250 296 355
#     4  11  22  38  62  93 122 151 195 250 300 347
#     4   9  18  34  58  88 121 155 192 238 294 355
#     4  12  24  39  59  87 120 155 196 246 302 355
#
# _framework density 22.571861999999999
#
# number of rings (size 3 to 8) (size 9 to 14) (size 15 to 20)
#    0.000    1.333    0.000    8.000    0.000    1.333 
#    0.000    0.833    0.000    4.000    0.000    0.000 
#    0.000    0.000    0.000    0.000    0.000    0.000 
#
# Total GULP energy -268025.297823 kJ/mol
# GULP energy per Si atom -5583.860371 kJ/mol
# Density = 2.252049 g / cm^3
# Si number density = 22.571862 Si / 1000 Ang^3
#
#
#
# Elastic Constant Matrix: (Units=GPa)
#
#
# Indices 1 2 3 4 5 6 
#
# 1 49.9539 2.6343 18.2859 0.0000 0.0000 0.0000
# 2 2.6343 62.0300 12.9787 0.0000 0.0000 0.0000
# 3 18.2859 12.9787 74.3210 0.0000 0.0000 0.0000
# 4 0.0000 0.0000 0.0000 32.7801 0.0000 0.0000
# 5 0.0000 0.0000 0.0000 0.0000 34.5243 0.0000
# 6 0.0000 0.0000 0.0000 0.0000 0.0000 40.8800
#
#
#
# Elastic Compliance Matrix: (Units=1/GPa)
#
#
# Indices 1 2 3 4 5 6 
#
# 1 0.022002 0.000206 -0.005449 0.000000 0.000000 0.000000
# 2 0.000206 0.016735 -0.002973 0.000000 0.000000 0.000000
# 3 -0.005449 -0.002973 0.015315 0.000000 0.000000 0.000000
# 4 0.000000 0.000000 0.000000 0.030506 0.000000 0.000000
# 5 0.000000 0.000000 0.000000 0.000000 0.028965 0.000000
# 6 0.000000 0.000000 0.000000 0.000000 0.000000 0.024462
#
#
# Mechanical properties :
#
#
# Convention : Reuss Voigt Hill
#
# Bulk Modulus (GPa) = 26.58242 28.23362 27.40802
# Shear Modulus (GPa) = 29.94763 31.79727 30.87245
#
# Velocity S-wave (km/s) = 3.64643 3.75735 3.70231
# Velocity P-wave (km/s) = 5.43424 5.59992 5.51770
#
# Compressibility (1/GPa) = 0.03761884
#
# Stress axis : x y z
#
# Youngs Moduli (GPa) = 45.44960 59.75661 65.29504
#
# Poissons Ratio (x) = -0.01230 0.35582
# Poissons Ratio (y) = -0.00935 0.19412
# Poissons Ratio (z) = 0.24767 0.17766
#
# Static dielectric constant tensor:
#      x y z
#    x 1.843190 0.000000 0.000000 
#    y 0.000000 1.867440 0.000000 
#    z 0.000000 0.000000 1.858380 
# 
# From -- ./inp_files/29443.got.cif
#   From: 2010.05.17/outbox.cif.g08.bks.cpg/sg57_15_cif.got.tgz:29443.got - 2010.06.03 13:58:18.
