data_PCOD9440658
_publ_section_title
;
Structure prediction by ZEFSAII (Michael W. Deem and Ramdas Pophale) SiO2 
 PCOD9440658
Probable space group: P B C M
;
_chemical_formula_sum "Si O2"
_cell_formula_units_Z 32
_cell_length_a 21.000000
_cell_length_b 9.000000
_cell_length_c 9.000000
_cell_angle_alpha 90.000000
_cell_angle_beta 90.000000
_cell_angle_gamma 90.000000
_cell_volume 1701.000000
_symmetry_space_group_name_H-M "P B C M"
_symmetry_group_IT_number 57
_symmetry_cell_setting 'orthorhombic'
loop_
_space_group_symop_operation_xyz
x,y,z
-x,-y,1/2+z
x,1/2-y,-z
-x,1/2+y,1/2-z
-x,-y,-z
x,y,1/2-z
-x,1/2+y,z
x,1/2-y,1/2+z
loop_
_atom_site_type_symbol
_atom_site_label
_atom_site_fract_x
_atom_site_fract_y
_atom_site_fract_z
Si Si1 0.442081 0.089088 0.573889
Si Si2 0.310350 0.911019 0.572402
Si Si3 0.807498 0.584725 0.430498
Si Si4 0.939804 0.584704 0.931227
O O1 0.437744 0.250000 0.500000
O O2 0.453480 0.103281 0.750000
O O3 0.500000 0.000000 0.500000
O O4 0.375480 0.003179 0.552647
O O5 0.318920 0.750000 0.500000
O O6 0.297451 0.901459 0.750000
O O7 0.252292 0.990778 0.487764
O O8 0.800194 0.750000 0.500000
O O9 0.811241 0.590508 0.250000
O O10 0.873114 0.523200 0.502613
O O11 0.939721 0.585451 0.750000
O O12 0.943218 0.750000 0.000000
O O13 0.000000 0.500000 0.000000
#
# Coordination Sequence:
#
# PCOD9440658 Si02
#       4
#     8   8   8   8
#     4  11  24  41  64  91 123 159 200 245 296 352
#     4  11  24  41  61  89 121 157 198 246 297 352
#     4  11  22  39  62  88 118 156 198 244 296 354
#     4  11  22  39  61  88 120 156 198 245 296 354
#
# _framework density 18.812463000000001
#
# number of rings (size 3 to 8) (size 9 to 14) (size 15 to 20)
#    0.000    1.000    0.000    9.000    0.000    9.000 
#    0.000    5.000    0.000    0.000    0.000    0.000 
#    0.000    0.000    0.000    0.000    0.000    0.000 
#
# Total GULP energy -178934.308099 kJ/mol
# GULP energy per Si atom -5591.697128 kJ/mol
# Density = 1.876965 g / cm^3
# Si number density = 18.812463 Si / 1000 Ang^3
#
#
#
# Elastic Constant Matrix: (Units=GPa)
#
#
# Indices 1 2 3 4 5 6 
#
# 1 169.3236 80.2767 113.3300 0.0000 0.0000 0.0000
# 2 80.2767 118.1245 78.8867 0.0000 0.0000 0.0000
# 3 113.3300 78.8867 230.8788 0.0000 0.0000 0.0000
# 4 0.0000 0.0000 0.0000 36.6293 0.0000 0.0000
# 5 0.0000 0.0000 0.0000 0.0000 39.2774 0.0000
# 6 0.0000 0.0000 0.0000 0.0000 0.0000 39.9721
#
#
#
# Elastic Compliance Matrix: (Units=1/GPa)
#
#
# Indices 1 2 3 4 5 6 
#
# 1 0.010554 -0.004810 -0.003537 0.000000 0.000000 0.000000
# 2 -0.004810 0.013161 -0.002136 0.000000 0.000000 0.000000
# 3 -0.003537 -0.002136 0.006797 0.000000 0.000000 0.000000
# 4 0.000000 0.000000 0.000000 0.027301 0.000000 0.000000
# 5 0.000000 0.000000 0.000000 0.000000 0.025460 0.000000
# 6 0.000000 0.000000 0.000000 0.000000 0.000000 0.025017
#
#
# Mechanical properties :
#
#
# Convention : Reuss Voigt Hill
#
# Bulk Modulus (GPa) = 104.75362 118.14598 111.44980
# Shear Modulus (GPa) = 37.75379 39.56464 38.65921
#
# Velocity S-wave (km/s) = 4.48465 4.59094 4.53811
# Velocity P-wave (km/s) = 9.08956 9.54152 9.31828
#
# Compressibility (1/GPa) = 0.00954621
#
# Stress axis : x y z
#
# Youngs Moduli (GPa) = 94.75430 75.98280 147.12162
#
# Poissons Ratio (x) = 0.36549 0.52035
# Poissons Ratio (y) = 0.45579 0.31420
# Poissons Ratio (z) = 0.33513 0.16227
#
# Static dielectric constant tensor:
#      x y z
#    x 1.657900 0.000000 0.000000 
#    y 0.000000 1.655840 0.000000 
#    z 0.000000 0.000000 1.622130 
# 
# From -- ./inp_files/7540.got.cif
#   From: 2010.05.17/outbox.ucp.g08.bks.cvg/sg57_4_cif.got.tgz:7540.got - 2010.06.11 16:39:23.
