data_PCOD9440369
_publ_section_title
;
Structure prediction by ZEFSAII (Michael W. Deem and Ramdas Pophale) SiO2 
 PCOD9440369
Probable space group: P B C M
;
_chemical_formula_sum "Si O2"
_cell_formula_units_Z 48
_cell_length_a 7.254144
_cell_length_b 21.990204
_cell_length_c 11.274991
_cell_angle_alpha 90.000000
_cell_angle_beta 90.000000
_cell_angle_gamma 90.000000
_cell_volume 1798.587764
_symmetry_space_group_name_H-M "P B C M"
_symmetry_group_IT_number 57
_symmetry_cell_setting 'orthorhombic'
loop_
_space_group_symop_operation_xyz
x,y,z
-x,-y,1/2+z
x,1/2-y,-z
-x,1/2+y,1/2-z
-x,-y,-z
x,y,1/2-z
-x,1/2+y,z
x,1/2-y,1/2+z
loop_
_atom_site_type_symbol
_atom_site_label
_atom_site_fract_x
_atom_site_fract_y
_atom_site_fract_z
Si Si1 0.859076 0.466440 0.621638
Si Si2 0.232899 0.390808 0.122708
Si Si3 0.012313 0.720530 0.621409
Si Si4 0.262015 0.987435 0.120031
Si Si5 0.447667 0.106561 0.117958
Si Si6 0.576760 0.232225 0.377921
O O1 0.801138 0.440193 0.750000
O O2 0.769695 0.446489 0.496502
O O3 0.813990 0.538199 0.625325
O O4 0.081633 0.467820 0.617285
O O5 0.327706 0.377966 0.250000
O O6 0.052675 0.348929 0.119133
O O7 0.344996 0.378728 0.004362
O O8 0.941697 0.750000 0.500000
O O9 0.948877 0.746014 0.750000
O O10 0.230701 0.732004 0.620422
O O11 0.262092 0.957419 0.250000
O O12 0.438650 0.032238 0.114811
O O13 0.360979 0.116910 0.250000
O O14 0.603744 0.159072 0.118343
O O15 0.478339 0.250000 0.500000
O O16 0.487999 0.245778 0.250000
#
# Coordination Sequence:
#
# PCOD9440369 Si02
#       6
#     8   8   8   8   8   8
#     4   8  13  22  37  58  85 114 140 167 204 252
#     4   9  17  28  43  65  91 116 144 180 218 256
#     4   9  18  32  47  62  82 112 150 186 220 260
#     4   8  13  22  37  58  85 114 140 167 204 252
#     4   9  17  28  43  65  91 116 144 180 218 256
#     4   9  18  32  47  62  82 112 150 186 220 260
#
# _framework density 26.687605000000001
#
# number of rings (size 3 to 8) (size 9 to 14) (size 15 to 20)
#    0.000    3.333    0.000    0.000    0.000    2.000 
#    0.000    3.333    0.000    0.000    0.000    4.667 
#    0.000    2.667    0.000    0.000    0.000    0.333 
#
# Total GULP energy -267460.157926 kJ/mol
# GULP energy per Si atom -5572.086623 kJ/mol
# Density = 2.662686 g / cm^3
# Si number density = 26.687605 Si / 1000 Ang^3
#
#
#
# Elastic Constant Matrix: (Units=GPa)
#
#
# Indices 1 2 3 4 5 6 
#
# 1 76.2159 11.3068 10.9062 0.0000 0.0000 0.0000
# 2 11.3068 74.9098 25.6024 0.0000 0.0000 0.0000
# 3 10.9062 25.6024 310.5615 0.0000 0.0000 0.0000
# 4 0.0000 0.0000 0.0000 16.9043 0.0000 0.0000
# 5 0.0000 0.0000 0.0000 0.0000 7.5901 0.0000
# 6 0.0000 0.0000 0.0000 0.0000 0.0000 46.2582
#
#
#
# Elastic Compliance Matrix: (Units=1/GPa)
#
#
# Indices 1 2 3 4 5 6 
#
# 1 0.013451 -0.001923 -0.000314 0.000000 0.000000 0.000000
# 2 -0.001923 0.014011 -0.001088 0.000000 0.000000 0.000000
# 3 -0.000314 -0.001088 0.003321 0.000000 0.000000 0.000000
# 4 0.000000 0.000000 0.000000 0.059156 0.000000 0.000000
# 5 0.000000 0.000000 0.000000 0.000000 0.131750 0.000000
# 6 0.000000 0.000000 0.000000 0.000000 0.000000 0.021618
#
#
# Mechanical properties :
#
#
# Convention : Reuss Voigt Hill
#
# Bulk Modulus (GPa) = 41.43525 61.92423 51.67974
# Shear Modulus (GPa) = 19.37981 41.74198 30.56090
#
# Velocity S-wave (km/s) = 2.69768 3.95916 3.38765
# Velocity P-wave (km/s) = 5.02624 6.64482 5.89138
#
# Compressibility (1/GPa) = 0.02413404
#
# Stress axis : x y z
#
# Youngs Moduli (GPa) = 74.34500 71.37079 301.14569
#
# Poissons Ratio (x) = 0.13725 0.09451
# Poissons Ratio (y) = 0.14297 0.32751
# Poissons Ratio (z) = 0.02333 0.07762
#
# Static dielectric constant tensor:
#      x y z
#    x 2.199530 0.000000 0.000000 
#    y 0.000000 2.016040 0.000000 
#    z 0.000000 0.000000 2.196140 
# 
# From -- ./inp_files/11983.got.cif
#   From: 2010.05.17/outbox.cif.g08.bks.cpg/sg57_6_cif.got.tgz:11983.got - 2010.06.03 13:58:18.
