data_PCOD9440795
_publ_section_title
;
Structure prediction by ZEFSAII (Michael W. Deem and Ramdas Pophale) SiO2 
 PCOD9440795
Probable space group: P N N M
;
_chemical_formula_sum "Si O2"
_cell_formula_units_Z 40
_cell_length_a 14.348361
_cell_length_b 13.238376
_cell_length_c 8.778137
_cell_angle_alpha 90.000000
_cell_angle_beta 90.000000
_cell_angle_gamma 90.000000
_cell_volume 1667.398327
_symmetry_space_group_name_H-M "P N N M"
_symmetry_group_IT_number 58
_symmetry_cell_setting 'orthorhombic'
loop_
_space_group_symop_operation_xyz
x,y,z
-x,-y,z
1/2+x,1/2-y,1/2-z
1/2-x,1/2+y,1/2-z
-x,-y,-z
x,y,-z
1/2-x,1/2+y,1/2+z
1/2+x,1/2-y,1/2+z
loop_
_atom_site_type_symbol
_atom_site_label
_atom_site_fract_x
_atom_site_fract_y
_atom_site_fract_z
Si Si1 0.938964 0.706020 0.679883
Si Si2 0.898240 0.404519 0.177827
Si Si3 0.241159 0.212953 0.174430
Si Si4 0.260382 0.482598 0.325235
Si Si5 0.949081 0.107655 0.181946
O O1 0.928784 0.702733 0.500000
O O2 0.006139 0.616450 0.736170
O O3 0.995354 0.806717 0.729563
O O4 0.837792 0.716368 0.757023
O O5 0.584754 0.909740 0.500000
O O6 0.830604 0.309438 0.220541
O O7 0.833969 0.496917 0.233464
O O8 0.199162 0.097975 0.168566
O O9 0.266406 0.238363 0.000000
O O10 0.238745 0.455145 0.500000
O O11 0.342257 0.411945 0.265149
O O12 0.947851 0.131340 0.000000
O O13 0.000000 0.000000 0.199366
#
# Coordination Sequence:
#
# PCOD9440795 Si02
#       5
#     8   8   8   8   8
#     4  12  22  30  46  73 101 131 166 198 235 286
#     4  10  19  32  48  67  94 127 164 200 238 286
#     4   9  17  32  48  66  94 125 157 197 240 281
#     4   8  16  30  47  64  93 126 153 191 238 283
#     4  10  17  29  47  68  97 129 156 191 243 293
#
# _framework density 23.989467999999999
#
# number of rings (size 3 to 8) (size 9 to 14) (size 15 to 20)
#    1.200    1.000    2.000    3.600    0.000    1.200 
#    0.000    0.000    0.000    0.000    0.000    1.400 
#    0.000   11.200    0.000    0.000    0.000    0.000 
#
# Total GULP energy -223624.617028 kJ/mol
# GULP energy per Si atom -5590.615426 kJ/mol
# Density = 2.393487 g / cm^3
# Si number density = 23.989468 Si / 1000 Ang^3
#
#
#
# Elastic Constant Matrix: (Units=GPa)
#
#
# Indices 1 2 3 4 5 6 
#
# 1 149.7048 44.5553 29.3958 0.0000 0.0000 0.0000
# 2 44.5553 103.0971 23.2430 0.0000 0.0000 0.0000
# 3 29.3958 23.2430 101.3812 0.0000 0.0000 0.0000
# 4 0.0000 0.0000 0.0000 -71.5975 0.0000 0.0000
# 5 0.0000 0.0000 0.0000 0.0000 12.9209 0.0000
# 6 0.0000 0.0000 0.0000 0.0000 0.0000 50.4112
#
#
#
# Elastic Compliance Matrix: (Units=1/GPa)
#
#
# Indices 1 2 3 4 5 6 
#
# 1 0.007902 -0.003056 -0.001590 0.000000 0.000000 0.000000
# 2 -0.003056 0.011410 -0.001730 0.000000 0.000000 0.000000
# 3 -0.001590 -0.001730 0.010721 0.000000 0.000000 0.000000
# 4 0.000000 0.000000 0.000000 -0.013967 0.000000 0.000000
# 5 0.000000 0.000000 0.000000 0.000000 0.077394 0.000000
# 6 0.000000 0.000000 0.000000 0.000000 0.000000 0.019837
#
#
# Mechanical properties :
#
#
# Convention : Reuss Voigt Hill
#
# Bulk Modulus (GPa) = 57.86857 60.95237 59.41047
# Shear Modulus (GPa) = 37.93308 15.47952 26.70630
#
# Velocity S-wave (km/s) = 3.98079 2.54296 3.34016
# Velocity P-wave (km/s) = 6.73081 5.83826 6.30036
#
# Compressibility (1/GPa) = 0.01728054
#
# Stress axis : x y z
#
# Youngs Moduli (GPa) = 126.55459 87.63925 93.27065
#
# Poissons Ratio (x) = 0.26785 0.14834
# Poissons Ratio (y) = 0.38679 0.16134
# Poissons Ratio (z) = 0.20128 0.15160
#
# Static dielectric constant tensor:
#      x y z
#    x 1.929260 0.000000 0.000000 
#    y 0.000000 2.019460 0.000000 
#    z 0.000000 0.000000 1.801120 
# 
# From -- ./inp_files/8789.got.cif
#   From: 2010.05.17/outbox.cif.g08.bks.cpg/sg58_5_cif.got.tgz:8789.got - 2010.06.03 14:20:14.
