data_PCOD9440265
_publ_section_title
;
Structure prediction by ZEFSAII (Michael W. Deem and Ramdas Pophale) SiO2 
 PCOD9440265
Probable space group: P B C M
;
_chemical_formula_sum "Si O2"
_cell_formula_units_Z 24
_cell_length_a 5.210193
_cell_length_b 10.551227
_cell_length_c 14.868611
_cell_angle_alpha 90.000000
_cell_angle_beta 90.000000
_cell_angle_gamma 90.000000
_cell_volume 817.385966
_symmetry_space_group_name_H-M "P B C M"
_symmetry_group_IT_number 57
_symmetry_cell_setting 'orthorhombic'
loop_
_space_group_symop_operation_xyz
x,y,z
-x,-y,1/2+z
x,1/2-y,-z
-x,1/2+y,1/2-z
-x,-y,-z
x,y,1/2-z
-x,1/2+y,z
x,1/2-y,1/2+z
loop_
_atom_site_type_symbol
_atom_site_label
_atom_site_fract_x
_atom_site_fract_y
_atom_site_fract_z
Si Si1 0.507093 0.690306 0.933860
Si Si2 0.547341 0.637432 0.750000
Si Si3 0.823136 0.377765 0.750000
Si Si4 0.833353 0.950653 0.918625
O O1 0.679712 0.690851 0.842140
O O2 0.349161 0.568048 0.895068
O O3 0.277171 0.750000 0.000000
O O4 0.642445 0.651929 0.034133
O O5 0.598560 0.484931 0.750000
O O6 0.300114 0.737283 0.750000
O O7 0.990617 0.407978 0.662592
O O8 0.000000 0.000000 0.000000
#
# Coordination Sequence:
#
# PCOD9440265 Si02
#       4
#     8   4   4   8
#     4  11  26  47  81 118 164 217 282 352 426 525
#     4  12  27  51  85 117 166 222 292 353 417 517
#     4  12  27  53  85 127 174 230 292 359 433 507
#     4  11  24  49  77 116 167 222 281 351 440 505
#
# _framework density 29.361893999999999
#
# number of rings (size 3 to 8) (size 9 to 14) (size 15 to 20)
#    0.000    0.667    3.333    3.000    4.667    5.333 
#    6.000    0.000    0.000    0.000    0.000    0.000 
#    0.000    0.000    0.000    0.000    0.000    0.000 
#
# Total GULP energy -133641.784686 kJ/mol
# GULP energy per Si atom -5568.407695 kJ/mol
# Density = 2.929507 g / cm^3
# Si number density = 29.361894 Si / 1000 Ang^3
#
#
#
# Elastic Constant Matrix: (Units=GPa)
#
#
# Indices 1 2 3 4 5 6 
#
# 1 116.9792 88.7420 55.0223 0.0000 0.0000 0.0000
# 2 88.7420 221.5913 76.2151 0.0000 0.0000 0.0000
# 3 55.0223 76.2151 190.7315 0.0000 0.0000 0.0000
# 4 0.0000 0.0000 0.0000 41.3614 0.0000 0.0000
# 5 0.0000 0.0000 0.0000 0.0000 51.0007 0.0000
# 6 0.0000 0.0000 0.0000 0.0000 0.0000 66.1164
#
#
#
# Elastic Compliance Matrix: (Units=1/GPa)
#
#
# Indices 1 2 3 4 5 6 
#
# 1 0.012855 -0.004490 -0.001914 0.000000 0.000000 0.000000
# 2 -0.004490 0.006800 -0.001422 0.000000 0.000000 0.000000
# 3 -0.001914 -0.001422 0.006363 0.000000 0.000000 0.000000
# 4 0.000000 0.000000 0.000000 0.024177 0.000000 0.000000
# 5 0.000000 0.000000 0.000000 0.000000 0.019608 0.000000
# 6 0.000000 0.000000 0.000000 0.000000 0.000000 0.015125
#
#
# Mechanical properties :
#
#
# Convention : Reuss Voigt Hill
#
# Bulk Modulus (GPa) = 96.46734 107.69564 102.08149
# Shear Modulus (GPa) = 48.06069 52.31722 50.18895
#
# Velocity S-wave (km/s) = 4.05018 4.22572 4.13888
# Velocity P-wave (km/s) = 7.40256 7.78250 7.59490
#
# Compressibility (1/GPa) = 0.01036620
#
# Stress axis : x y z
#
# Youngs Moduli (GPa) = 77.79164 147.06095 157.14732
#
# Poissons Ratio (x) = 0.66025 0.30083
# Poissons Ratio (y) = 0.34926 0.22347
# Poissons Ratio (z) = 0.14892 0.20912
#
# Static dielectric constant tensor:
#      x y z
#    x 2.173090 0.000000 0.000000 
#    y 0.000000 1.514110 0.000000 
#    z 0.000000 0.000000 2.552700 
# 
# From -- ./inp_files/11178.got.cif
#   From: 2010.05.17/outbox.cif.g08.bks.cpg/sg57_6_cif.got.tgz:11178.got - 2010.06.03 13:58:18.
