data_PCOD9440403
_publ_section_title
;
Structure prediction by ZEFSAII (Michael W. Deem and Ramdas Pophale) SiO2 
 PCOD9440403
Probable space group: P B C M
;
_chemical_formula_sum "Si O2"
_cell_formula_units_Z 56
_cell_length_a 9.000000
_cell_length_b 21.000000
_cell_length_c 15.000000
_cell_angle_alpha 90.000000
_cell_angle_beta 90.000000
_cell_angle_gamma 90.000000
_cell_volume 2835.000000
_symmetry_space_group_name_H-M "P B C M"
_symmetry_group_IT_number 57
_symmetry_cell_setting 'orthorhombic'
loop_
_space_group_symop_operation_xyz
x,y,z
-x,-y,1/2+z
x,1/2-y,-z
-x,1/2+y,1/2-z
-x,-y,-z
x,y,1/2-z
-x,1/2+y,z
x,1/2-y,1/2+z
loop_
_atom_site_type_symbol
_atom_site_label
_atom_site_fract_x
_atom_site_fract_y
_atom_site_fract_z
Si Si1 0.044735 0.160962 0.145452
Si Si2 0.472149 0.110865 0.461293
Si Si3 0.755379 0.961035 0.643306
Si Si4 0.660917 0.774146 0.647937
Si Si5 0.196654 0.605856 0.650894
Si Si6 0.220445 0.677138 0.486249
Si Si7 0.449575 0.370221 0.346275
O O1 0.012824 0.154914 0.250000
O O2 0.896868 0.174059 0.092288
O O3 0.130835 0.095681 0.117775
O O4 0.163450 0.217939 0.133329
O O5 0.403594 0.056003 0.399881
O O6 0.412035 0.177180 0.420487
O O7 0.646761 0.126722 0.467857
O O8 0.409459 0.097883 0.560413
O O9 0.738946 0.959087 0.750000
O O10 0.809856 0.032018 0.621956
O O11 0.632697 0.797181 0.750000
O O12 0.598900 0.703257 0.643067
O O13 0.131478 0.612761 0.750000
O O14 0.138616 0.653037 0.575876
O O15 0.371835 0.623948 0.657922
O O16 0.274438 0.750000 0.500000
O O17 0.391800 0.393488 0.250000
#
# Coordination Sequence:
#
# PCOD9440403 Si02
#       7
#     8   8   8   8   8   8   8
#     4   9  20  36  53  76 109 144 179 224 270 323
#     4  10  18  31  53  78 104 133 174 228 271 315
#     4   9  19  37  60  82 103 139 186 226 277 334
#     4   9  17  32  53  76 102 138 181 219 267 323
#     4   9  19  37  58  80 110 143 180 229 278 327
#     4  11  23  34  51  83 114 145 185 222 271 328
#     4   9  17  28  47  75 104 136 172 214 267 322
#
# _framework density 19.753086
#
# number of rings (size 3 to 8) (size 9 to 14) (size 15 to 20)
#    0.000    2.571    0.000    3.429    0.000    6.857 
#    0.000    0.000    0.000    6.000    0.000    6.000 
#    0.000    0.000    0.000    0.000    0.000    0.000 
#
# Total GULP energy -311973.720889 kJ/mol
# GULP energy per Si atom -5570.959302 kJ/mol
# Density = 1.970813 g / cm^3
# Si number density = 19.753086 Si / 1000 Ang^3
#
#
#
# Elastic Constant Matrix: (Units=GPa)
#
#
# Indices 1 2 3 4 5 6 
#
# 1 34.3672 -3.0172 24.0601 0.0000 0.0000 0.0000
# 2 -3.0172 41.3485 -2.5685 0.0000 0.0000 0.0000
# 3 24.0601 -2.5685 54.9249 0.0000 0.0000 0.0000
# 4 0.0000 0.0000 0.0000 21.4337 0.0000 0.0000
# 5 0.0000 0.0000 0.0000 0.0000 41.6191 0.0000
# 6 0.0000 0.0000 0.0000 0.0000 0.0000 21.7990
#
#
#
# Elastic Compliance Matrix: (Units=1/GPa)
#
#
# Indices 1 2 3 4 5 6 
#
# 1 0.042122 0.001933 -0.018361 0.000000 0.000000 0.000000
# 2 0.001933 0.024344 0.000292 0.000000 0.000000 0.000000
# 3 -0.018361 0.000292 0.026264 0.000000 0.000000 0.000000
# 4 0.000000 0.000000 0.000000 0.046655 0.000000 0.000000
# 5 0.000000 0.000000 0.000000 0.000000 0.024027 0.000000
# 6 0.000000 0.000000 0.000000 0.000000 0.000000 0.045874
#
#
# Mechanical properties :
#
#
# Convention : Reuss Voigt Hill
#
# Bulk Modulus (GPa) = 16.54095 18.62104 17.58100
# Shear Modulus (GPa) = 19.10508 24.44813 21.77660
#
# Velocity S-wave (km/s) = 3.11335 3.52189 3.32390
# Velocity P-wave (km/s) = 4.61692 5.09761 4.86321
#
# Compressibility (1/GPa) = 0.06045601
#
# Stress axis : x y z
#
# Youngs Moduli (GPa) = 23.74071 41.07817 38.07566
#
# Poissons Ratio (x) = -0.07940 0.69911
# Poissons Ratio (y) = -0.04589 -0.01111
# Poissons Ratio (z) = 0.43591 -0.01198
#
# Static dielectric constant tensor:
#      x y z
#    x 1.683780 0.000000 0.000000 
#    y 0.000000 1.690500 0.000000 
#    z 0.000000 0.000000 1.693570 
# 
# From -- ./inp_files/16744.got.cif
#   From: 2010.05.17/outbox.ucp.g08.bks.cvg/sg57_9_cif.got.tgz:16744.got - 2010.06.11 16:39:23.
