data_PCOD9440773
_publ_section_title
;
Structure prediction by ZEFSAII (Michael W. Deem and Ramdas Pophale) SiO2 
 PCOD9440773
Probable space group: P N N M
;
_chemical_formula_sum "Si O2"
_cell_formula_units_Z 64
_cell_length_a 19.661118
_cell_length_b 24.242953
_cell_length_c 7.584892
_cell_angle_alpha 90.000000
_cell_angle_beta 90.000000
_cell_angle_gamma 90.000000
_cell_volume 3615.289922
_symmetry_space_group_name_H-M "P N N M"
_symmetry_group_IT_number 58
_symmetry_cell_setting 'orthorhombic'
loop_
_space_group_symop_operation_xyz
x,y,z
-x,-y,z
1/2+x,1/2-y,1/2-z
1/2-x,1/2+y,1/2-z
-x,-y,-z
x,y,-z
1/2-x,1/2+y,1/2+z
1/2+x,1/2-y,1/2+z
loop_
_atom_site_type_symbol
_atom_site_label
_atom_site_fract_x
_atom_site_fract_y
_atom_site_fract_z
Si Si1 0.347249 0.444577 0.784012
Si Si2 0.510340 0.604754 0.795114
Si Si3 0.344087 0.239695 0.210484
Si Si4 0.285965 0.677568 0.791679
Si Si5 0.493091 0.267961 0.705703
Si Si6 0.255679 0.345349 0.216000
Si Si7 0.371919 0.783658 0.701994
Si Si8 0.862432 0.931099 0.284135
O O1 0.419855 0.420171 0.721925
O O2 0.287474 0.403220 0.728427
O O3 0.340935 0.507860 0.728990
O O4 0.699860 0.318157 0.000000
O O5 0.511482 0.671049 0.786898
O O6 0.439002 0.582752 0.721735
O O7 0.509923 0.588098 0.000000
O O8 0.293141 0.190744 0.262148
O O9 0.420561 0.238637 0.278470
O O10 0.307199 0.296359 0.270722
O O11 0.347632 0.241883 0.000000
O O12 0.328580 0.726838 0.703404
O O13 0.312835 0.618492 0.729706
O O14 0.363189 0.569179 0.000000
O O15 0.508432 0.277489 0.500000
O O16 0.555388 0.232242 0.781988
O O17 0.180521 0.328334 0.279336
O O18 0.254072 0.344090 0.000000
O O19 0.384638 0.800834 0.500000
O O20 0.847586 0.056751 0.500000
#
# Coordination Sequence:
#
# PCOD9440773 Si02
#       8
#     8   8   8   8   8   8   8   8
#     4   9  15  25  44  67  89 119 158 195 222 260
#     4  10  17  28  43  64  93 125 160 188 217 262
#     4  10  19  32  48  66  88 118 154 189 231 280
#     4  10  18  29  45  68  93 118 149 189 230 269
#     4  11  20  29  44  67  94 122 152 189 235 275
#     4   8  14  26  44  64  84 110 148 188 225 263
#     4   9  18  30  44  64  91 122 152 188 231 277
#     4   9  17  26  41  67  95 121 155 192 225 261
#
# _framework density 17.702591999999999
#
# number of rings (size 3 to 8) (size 9 to 14) (size 15 to 20)
#    0.000    2.500    2.500    2.250    0.000    2.000 
#    0.000    0.000    0.000    3.000    0.000    0.875 
#    0.000    7.000    0.000    0.000    0.000    0.000 
#
# Total GULP energy -356888.639345 kJ/mol
# GULP energy per Si atom -5576.384990 kJ/mol
# Density = 1.766230 g / cm^3
# Si number density = 17.702592 Si / 1000 Ang^3
#
#
#
# Elastic Constant Matrix: (Units=GPa)
#
#
# Indices 1 2 3 4 5 6 
#
# 1 92.6720 40.7829 -12.0021 0.0000 0.0000 0.0000
# 2 40.7829 85.6457 -7.2073 0.0000 0.0000 0.0000
# 3 -12.0021 -7.2073 39.5390 0.0000 0.0000 0.0000
# 4 0.0000 0.0000 0.0000 9.8021 0.0000 0.0000
# 5 0.0000 0.0000 0.0000 0.0000 7.7050 0.0000
# 6 0.0000 0.0000 0.0000 0.0000 0.0000 19.1853
#
#
#
# Elastic Compliance Matrix: (Units=1/GPa)
#
#
# Indices 1 2 3 4 5 6 
#
# 1 0.014012 -0.006413 0.003085 0.000000 0.000000 0.000000
# 2 -0.006413 0.014793 0.000750 0.000000 0.000000 0.000000
# 3 0.003085 0.000750 0.026364 0.000000 0.000000 0.000000
# 4 0.000000 0.000000 0.000000 0.102019 0.000000 0.000000
# 5 0.000000 0.000000 0.000000 0.000000 0.129787 0.000000
# 6 0.000000 0.000000 0.000000 0.000000 0.000000 0.052123
#
#
# Mechanical properties :
#
#
# Convention : Reuss Voigt Hill
#
# Bulk Modulus (GPa) = 19.99494 29.00042 24.49768
# Shear Modulus (GPa) = 13.85326 20.42403 17.13865
#
# Velocity S-wave (km/s) = 2.80045 3.40035 3.11488
# Velocity P-wave (km/s) = 4.66649 5.64217 5.17737
#
# Compressibility (1/GPa) = 0.05001265
#
# Stress axis : x y z
#
# Youngs Moduli (GPa) = 71.36543 67.60041 37.92981
#
# Poissons Ratio (x) = 0.43351 -0.11699
# Poissons Ratio (y) = 0.45766 -0.02844
# Poissons Ratio (z) = -0.22013 -0.05069
#
# Static dielectric constant tensor:
#      x y z
#    x 1.621620 0.000000 0.000000 
#    y 0.000000 1.580150 0.000000 
#    z 0.000000 0.000000 1.689290 
# 
# From -- ./inp_files/8486.got.cif
#   From: 2010.05.17/outbox.cif.g08.bks.cpg/sg58_5_cif.got.tgz:8486.got - 2010.06.03 14:20:14.
