data_PCOD9440522
_publ_section_title
;
Structure prediction by ZEFSAII (Michael W. Deem and Ramdas Pophale) SiO2 
 PCOD9440522
Probable space group: P B C M
;
_chemical_formula_sum "Si O2"
_cell_formula_units_Z 40
_cell_length_a 27.000000
_cell_length_b 9.000000
_cell_length_c 9.000000
_cell_angle_alpha 90.000000
_cell_angle_beta 90.000000
_cell_angle_gamma 90.000000
_cell_volume 2187.000000
_symmetry_space_group_name_H-M "P B C M"
_symmetry_group_IT_number 57
_symmetry_cell_setting 'orthorhombic'
loop_
_space_group_symop_operation_xyz
x,y,z
-x,-y,1/2+z
x,1/2-y,-z
-x,1/2+y,1/2-z
-x,-y,-z
x,y,1/2-z
-x,1/2+y,z
x,1/2-y,1/2+z
loop_
_atom_site_type_symbol
_atom_site_label
_atom_site_fract_x
_atom_site_fract_y
_atom_site_fract_z
Si Si1 0.252008 0.088927 0.928029
Si Si2 0.652879 0.088953 0.428188
Si Si3 0.144081 0.415336 0.071321
Si Si4 0.455374 0.912371 0.927716
Si Si5 0.954156 0.585205 0.070797
O O1 0.255085 0.105274 0.750000
O O2 0.198216 0.016585 0.957875
O O3 0.299587 0.000198 0.981651
O O4 0.253021 0.250000 0.000000
O O5 0.653831 0.250000 0.500000
O O6 0.656114 0.103749 0.250000
O O7 0.598990 0.019448 0.460458
O O8 0.136124 0.405932 0.250000
O O9 0.147218 0.250000 0.000000
O O10 0.097181 0.485579 0.989202
O O11 0.461032 0.902773 0.750000
O O12 0.455278 0.750000 0.000000
O O13 0.500000 0.000000 0.000000
O O14 0.955460 0.589894 0.250000
O O15 0.955669 0.750000 0.000000
O O16 0.000000 0.500000 0.000000
#
# Coordination Sequence:
#
# PCOD9440522 Si02
#       5
#     8   8   8   8   8
#     4   9  18  32  51  75 101 128 165 208 248 293
#     4   9  19  35  52  73 101 134 167 203 248 300
#     4   9  16  29  49  72  99 131 165 205 250 297
#     4  10  20  35  54  75 102 134 171 211 255 303
#     4  11  21  35  54  77 104 135 171 211 255 303
#
# _framework density 18.289895000000001
#
# number of rings (size 3 to 8) (size 9 to 14) (size 15 to 20)
#    0.000    2.400    0.000    4.200    0.000    3.200 
#    0.000    3.000    0.000    2.400    0.000    0.000 
#    0.000    0.000    0.000    0.000    0.000    0.000 
#
# Total GULP energy -222772.139854 kJ/mol
# GULP energy per Si atom -5569.303496 kJ/mol
# Density = 1.824827 g / cm^3
# Si number density = 18.289895 Si / 1000 Ang^3
#
#
#
# Elastic Constant Matrix: (Units=GPa)
#
#
# Indices 1 2 3 4 5 6 
#
# 1 223.3495 63.2282 74.6177 0.0000 0.0000 0.0000
# 2 63.2282 29.6605 18.5497 0.0000 0.0000 0.0000
# 3 74.6177 18.5497 91.4919 0.0000 0.0000 0.0000
# 4 0.0000 0.0000 0.0000 22.5500 0.0000 0.0000
# 5 0.0000 0.0000 0.0000 0.0000 29.7641 0.0000
# 6 0.0000 0.0000 0.0000 0.0000 0.0000 31.4738
#
#
#
# Elastic Compliance Matrix: (Units=1/GPa)
#
#
# Indices 1 2 3 4 5 6 
#
# 1 0.013668 -0.025383 -0.006001 0.000000 0.000000 0.000000
# 2 -0.025383 0.085752 0.003316 0.000000 0.000000 0.000000
# 3 -0.006001 0.003316 0.015152 0.000000 0.000000 0.000000
# 4 0.000000 0.000000 0.000000 0.044346 0.000000 0.000000
# 5 0.000000 0.000000 0.000000 0.000000 0.033598 0.000000
# 6 0.000000 0.000000 0.000000 0.000000 0.000000 0.031773
#
#
# Mechanical properties :
#
#
# Convention : Reuss Voigt Hill
#
# Bulk Modulus (GPa) = 17.11309 73.03256 45.07282
# Shear Modulus (GPa) = 16.67216 29.29797 22.98506
#
# Velocity S-wave (km/s) = 3.02246 4.00667 3.54885
# Velocity P-wave (km/s) = 4.64298 7.83721 6.44124
#
# Compressibility (1/GPa) = 0.05843482
#
# Stress axis : x y z
#
# Youngs Moduli (GPa) = 73.16488 11.66160 66.00002
#
# Poissons Ratio (x) = 0.29601 0.39604
# Poissons Ratio (y) = 1.85716 -0.21884
# Poissons Ratio (z) = 0.43903 -0.03867
#
# Static dielectric constant tensor:
#      x y z
#    x 1.729850 0.000000 0.000000 
#    y 0.000000 1.614060 0.000000 
#    z 0.000000 0.000000 1.602410 
# 
# From -- ./inp_files/8920.got.cif
#   From: 2010.05.17/outbox.ucp.g08.bks.cvg/sg57_5_cif.got.tgz:8920.got - 2010.06.11 16:39:23.
