data_PCOD9440487
_publ_section_title
;
Structure prediction by ZEFSAII (Michael W. Deem and Ramdas Pophale) SiO2 
 PCOD9440487
Probable space group: P B C M
;
_chemical_formula_sum "Si O2"
_cell_formula_units_Z 64
_cell_length_a 12.000000
_cell_length_b 15.000000
_cell_length_c 18.000000
_cell_angle_alpha 90.000000
_cell_angle_beta 90.000000
_cell_angle_gamma 90.000000
_cell_volume 3240.000000
_symmetry_space_group_name_H-M "P B C M"
_symmetry_group_IT_number 57
_symmetry_cell_setting 'orthorhombic'
loop_
_space_group_symop_operation_xyz
x,y,z
-x,-y,1/2+z
x,1/2-y,-z
-x,1/2+y,1/2-z
-x,-y,-z
x,y,1/2-z
-x,1/2+y,z
x,1/2-y,1/2+z
loop_
_atom_site_type_symbol
_atom_site_label
_atom_site_fract_x
_atom_site_fract_y
_atom_site_fract_z
Si Si1 0.304629 0.003491 0.022364
Si Si2 0.495275 0.263092 0.912596
Si Si3 0.068487 0.091943 0.007113
Si Si4 0.058214 0.618903 0.161013
Si Si5 0.568341 0.551313 0.164381
Si Si6 0.614268 0.581545 0.876638
Si Si7 0.123287 0.090205 0.662443
Si Si8 0.747618 0.316996 0.561633
O O1 0.355022 0.998183 0.104743
O O2 0.275292 0.909358 0.983110
O O3 0.194808 0.064141 0.024380
O O4 0.385457 0.051613 0.963351
O O5 0.446690 0.351200 0.872811
O O6 0.450612 0.174922 0.871546
O O7 0.629070 0.276202 0.913442
O O8 0.463601 0.250000 0.000000
O O9 0.073843 0.128378 0.918931
O O10 0.021137 0.134790 0.085885
O O11 0.000000 0.000000 0.000000
O O12 0.031268 0.642432 0.250000
O O13 0.080890 0.512285 0.162567
O O14 0.172240 0.664725 0.131414
O O15 0.608203 0.556602 0.250000
O O16 0.451685 0.497586 0.163835
O O17 0.742346 0.590511 0.849914
O O18 0.101549 0.123219 0.750000
O O19 0.798366 0.250000 0.500000
#
# Coordination Sequence:
#
# PCOD9440487 Si02
#       8
#     8   8   8   8   8   8   8   8
#     4  11  20  39  63  85 124 164 216 262 315 384
#     4  11  22  37  61  88 119 168 213 253 313 384
#     4   9  17  34  62  89 112 152 207 257 313 377
#     4  10  19  36  63  92 121 161 209 258 319 387
#     4  12  24  36  55  89 127 164 205 260 319 377
#     4  11  20  38  63  85 123 173 214 251 314 386
#     4   9  17  31  58  93 120 153 204 256 306 372
#     4  11  21  36  61  93 122 168 216 263 315 385
#
# _framework density 19.753086
#
# number of rings (size 3 to 8) (size 9 to 14) (size 15 to 20)
#    0.000    1.500    6.250    2.250    0.000    3.000 
#    0.000    1.875    5.500    0.750    0.000    0.000 
#    0.000    0.000    0.000    0.000    0.000    0.000 
#
# Total GULP energy -356469.492120 kJ/mol
# GULP energy per Si atom -5569.835814 kJ/mol
# Density = 1.970813 g / cm^3
# Si number density = 19.753086 Si / 1000 Ang^3
#
#
#
# Elastic Constant Matrix: (Units=GPa)
#
#
# Indices 1 2 3 4 5 6 
#
# 1 51.0985 8.2267 37.7660 0.0000 0.0000 0.0000
# 2 8.2267 81.2548 18.6541 0.0000 0.0000 0.0000
# 3 37.7660 18.6541 188.2556 0.0000 0.0000 0.0000
# 4 0.0000 0.0000 0.0000 25.1017 0.0000 0.0000
# 5 0.0000 0.0000 0.0000 0.0000 36.8713 0.0000
# 6 0.0000 0.0000 0.0000 0.0000 0.0000 22.8248
#
#
#
# Elastic Compliance Matrix: (Units=1/GPa)
#
#
# Indices 1 2 3 4 5 6 
#
# 1 0.023111 -0.001305 -0.004507 0.000000 0.000000 0.000000
# 2 -0.001305 0.012667 -0.000993 0.000000 0.000000 0.000000
# 3 -0.004507 -0.000993 0.006315 0.000000 0.000000 0.000000
# 4 0.000000 0.000000 0.000000 0.039838 0.000000 0.000000
# 5 0.000000 0.000000 0.000000 0.000000 0.027121 0.000000
# 6 0.000000 0.000000 0.000000 0.000000 0.000000 0.043812
#
#
# Mechanical properties :
#
#
# Convention : Reuss Voigt Hill
#
# Bulk Modulus (GPa) = 35.11019 49.98917 42.54968
# Shear Modulus (GPa) = 28.41405 34.02370 31.21888
#
# Velocity S-wave (km/s) = 3.79682 4.15474 3.97981
# Velocity P-wave (km/s) = 6.08558 6.95542 6.53498
#
# Compressibility (1/GPa) = 0.02848176
#
# Stress axis : x y z
#
# Youngs Moduli (GPa) = 43.26898 78.94433 158.36535
#
# Poissons Ratio (x) = 0.10304 0.71376
# Poissons Ratio (y) = 0.05648 0.15731
# Poissons Ratio (z) = 0.19501 0.07842
#
# Static dielectric constant tensor:
#      x y z
#    x 1.762160 0.000000 0.000000 
#    y 0.000000 1.714850 0.000000 
#    z 0.000000 0.000000 1.750140 
# 
# From -- ./inp_files/22061.got.cif
#   From: 2010.05.17/outbox.ucp.g08.bks.cvg/sg57_12_cif.got.tgz:22061.got - 2010.06.11 16:39:23.
