data_PCOD9440325
_publ_section_title
;
Structure prediction by ZEFSAII (Michael W. Deem and Ramdas Pophale) SiO2 
 PCOD9440325
Probable space group: P B C M
;
_chemical_formula_sum "Si O2"
_cell_formula_units_Z 40
_cell_length_a 10.838809
_cell_length_b 16.515962
_cell_length_c 10.138885
_cell_angle_alpha 90.000000
_cell_angle_beta 90.000000
_cell_angle_gamma 90.000000
_cell_volume 1814.995846
_symmetry_space_group_name_H-M "P B C M"
_symmetry_group_IT_number 57
_symmetry_cell_setting 'orthorhombic'
loop_
_space_group_symop_operation_xyz
x,y,z
-x,-y,1/2+z
x,1/2-y,-z
-x,1/2+y,1/2-z
-x,-y,-z
x,y,1/2-z
-x,1/2+y,z
x,1/2-y,1/2+z
loop_
_atom_site_type_symbol
_atom_site_label
_atom_site_fract_x
_atom_site_fract_y
_atom_site_fract_z
Si Si1 0.212224 0.403056 0.499578
Si Si2 0.187392 0.824831 0.250000
Si Si3 0.943350 0.596407 0.250000
Si Si4 0.547046 0.820986 0.095907
Si Si5 0.675052 0.075466 0.528374
Si Si6 0.233441 0.862729 0.750000
Si Si7 0.038813 0.421453 0.250000
O O1 0.128388 0.374151 0.620668
O O2 0.313775 0.341350 0.445867
O O3 0.286568 0.482775 0.545856
O O4 0.122645 0.426454 0.379366
O O5 0.239168 0.869557 0.121383
O O6 0.236113 0.734088 0.250000
O O7 0.040784 0.839290 0.250000
O O8 0.087485 0.617513 0.250000
O O9 0.946568 0.497986 0.250000
O O10 0.540376 0.798997 0.250000
O O11 0.462356 0.899716 0.070746
O O12 0.500076 0.750000 0.000000
O O13 0.702514 0.100282 0.378477
#
# Coordination Sequence:
#
# PCOD9440325 Si02
#       7
#     8   4   4   8   8   4   4
#     4  12  25  46  76 102 141 194 239 297 353 426
#     4  12  24  41  69 103 143 186 234 298 355 413
#     4  12  24  43  73 104 145 184 238 290 357 424
#     4  12  29  50  73 105 146 186 237 297 360 423
#     4  12  24  46  73 102 141 185 242 294 354 417
#     4  12  26  41  71 109 141 186 238 294 359 425
#     4  12  22  45  71  98 145 188 232 296 353 414
#
# _framework density 22.038616999999999
#
# number of rings (size 3 to 8) (size 9 to 14) (size 15 to 20)
#    0.000    0.000    6.000    4.200    2.800    1.600 
#    0.000    0.000    0.000    0.000    0.000    0.000 
#    0.000    0.000    0.000    0.000    0.000    0.000 
#
# Total GULP energy -224046.290530 kJ/mol
# GULP energy per Si atom -5601.157263 kJ/mol
# Density = 2.198846 g / cm^3
# Si number density = 22.038617 Si / 1000 Ang^3
#
#
#
# Elastic Constant Matrix: (Units=GPa)
#
#
# Indices 1 2 3 4 5 6 
#
# 1 92.5505 -14.5536 33.4613 0.0000 0.0000 0.0000
# 2 -14.5536 31.2715 -5.0495 0.0000 0.0000 0.0000
# 3 33.4613 -5.0495 169.5694 0.0000 0.0000 0.0000
# 4 0.0000 0.0000 0.0000 8.4485 0.0000 0.0000
# 5 0.0000 0.0000 0.0000 0.0000 48.3299 0.0000
# 6 0.0000 0.0000 0.0000 0.0000 0.0000 28.2508
#
#
#
# Elastic Compliance Matrix: (Units=1/GPa)
#
#
# Indices 1 2 3 4 5 6 
#
# 1 0.012493 0.005443 -0.002303 0.000000 0.000000 0.000000
# 2 0.005443 0.034503 -0.000047 0.000000 0.000000 0.000000
# 3 -0.002303 -0.000047 0.006350 0.000000 0.000000 0.000000
# 4 0.000000 0.000000 0.000000 0.118365 0.000000 0.000000
# 5 0.000000 0.000000 0.000000 0.000000 0.020691 0.000000
# 6 0.000000 0.000000 0.000000 0.000000 0.000000 0.035397
#
#
# Mechanical properties :
#
#
# Convention : Reuss Voigt Hill
#
# Bulk Modulus (GPa) = 16.79746 35.67862 26.23804
# Shear Modulus (GPa) = 20.70741 35.64137 28.17439
#
# Velocity S-wave (km/s) = 3.06861 4.02583 3.57936
# Velocity P-wave (km/s) = 4.49372 6.15094 5.38645
#
# Compressibility (1/GPa) = 0.05953280
#
# Stress axis : x y z
#
# Youngs Moduli (GPa) = 80.04169 28.98260 157.47000
#
# Poissons Ratio (x) = -0.15774 0.36270
# Poissons Ratio (y) = -0.43563 0.00732
# Poissons Ratio (z) = 0.18436 0.00135
#
# Static dielectric constant tensor:
#      x y z
#    x 1.823800 0.000000 0.000000 
#    y 0.000000 1.821450 0.000000 
#    z 0.000000 0.000000 1.727510 
# 
# From -- ./inp_files/2769.got.cif
#   From: 2010.05.17/outbox.cif.g08.bks.cpg/sg57_2_cif.got.tgz:2769.got - 2010.06.03 13:58:18.
