data_PCOD9440590
_publ_section_title
;
Structure prediction by ZEFSAII (Michael W. Deem and Ramdas Pophale) SiO2 
 PCOD9440590
Probable space group: P B C M
;
_chemical_formula_sum "Si O2"
_cell_formula_units_Z 56
_cell_length_a 9.000000
_cell_length_b 21.000000
_cell_length_c 15.000000
_cell_angle_alpha 90.000000
_cell_angle_beta 90.000000
_cell_angle_gamma 90.000000
_cell_volume 2835.000000
_symmetry_space_group_name_H-M "P B C M"
_symmetry_group_IT_number 57
_symmetry_cell_setting 'orthorhombic'
loop_
_space_group_symop_operation_xyz
x,y,z
-x,-y,1/2+z
x,1/2-y,-z
-x,1/2+y,1/2-z
-x,-y,-z
x,y,1/2-z
-x,1/2+y,z
x,1/2-y,1/2+z
loop_
_atom_site_type_symbol
_atom_site_label
_atom_site_fract_x
_atom_site_fract_y
_atom_site_fract_z
Si Si1 0.581526 0.811533 0.646606
Si Si2 0.353829 0.922612 0.856152
Si Si3 0.948989 0.083911 0.458256
Si Si4 0.385595 0.336403 0.356269
Si Si5 0.095004 0.978906 0.354967
Si Si6 0.826877 0.675575 0.493386
Si Si7 0.556675 0.040461 0.643686
O O1 0.629588 0.815652 0.750000
O O2 0.437419 0.855292 0.637415
O O3 0.561215 0.736236 0.626068
O O4 0.705334 0.840105 0.581709
O O5 0.315720 0.931765 0.750000
O O6 0.214344 0.923529 0.920945
O O7 0.461178 0.980120 0.886818
O O8 0.973624 0.057998 0.559259
O O9 0.011404 0.153999 0.465703
O O10 0.049459 0.049533 0.383473
O O11 0.361524 0.341245 0.250000
O O12 0.236759 0.348636 0.412443
O O13 0.499520 0.390844 0.387704
O O14 0.057524 0.965228 0.250000
O O15 0.269721 0.969117 0.367938
O O16 0.826956 0.750000 0.500000
O O17 0.533317 0.041355 0.750000
#
# Coordination Sequence:
#
# PCOD9440590 Si02
#       7
#     8   8   8   8   8   8   8
#     4   9  19  38  62  86 114 154 201 247 294 345
#     4  10  21  37  60  89 118 151 197 248 292 344
#     4  11  24  38  58  88 120 161 193 234 298 357
#     4   9  19  36  62  88 113 150 200 248 294 343
#     4  10  23  41  58  84 120 155 194 239 294 358
#     4  10  22  40  58  85 116 156 199 239 286 354
#     4   9  19  36  60  86 112 147 193 247 296 340
#
# _framework density 19.753086
#
# number of rings (size 3 to 8) (size 9 to 14) (size 15 to 20)
#    0.000    2.286    0.000    1.286    6.000    3.429 
#    2.571    0.000    0.000    0.000    0.000    0.000 
#    0.000    0.000    0.000    0.000    0.000    0.000 
#
# Total GULP energy -311789.883089 kJ/mol
# GULP energy per Si atom -5567.676484 kJ/mol
# Density = 1.970813 g / cm^3
# Si number density = 19.753086 Si / 1000 Ang^3
#
#
#
# Elastic Constant Matrix: (Units=GPa)
#
#
# Indices 1 2 3 4 5 6 
#
# 1 -38.6334 35.7219 -6.7124 0.0000 0.0000 0.0000
# 2 35.7219 59.2160 36.8742 0.0000 0.0000 0.0000
# 3 -6.7124 36.8742 61.8860 0.0000 0.0000 0.0000
# 4 0.0000 0.0000 0.0000 6.4164 0.0000 0.0000
# 5 0.0000 0.0000 0.0000 0.0000 28.3627 0.0000
# 6 0.0000 0.0000 0.0000 0.0000 0.0000 11.5663
#
#
#
# Elastic Compliance Matrix: (Units=1/GPa)
#
#
# Indices 1 2 3 4 5 6 
#
# 1 -0.012236 0.013050 -0.009103 0.000000 0.000000 0.000000
# 2 0.013050 0.012932 -0.006290 0.000000 0.000000 0.000000
# 3 -0.009103 -0.006290 0.018919 0.000000 0.000000 0.000000
# 4 0.000000 0.000000 0.000000 0.155851 0.000000 0.000000
# 5 0.000000 0.000000 0.000000 0.000000 0.035258 0.000000
# 6 0.000000 0.000000 0.000000 0.000000 0.000000 0.086458
#
#
# Mechanical properties :
#
#
# Convention : Reuss Voigt Hill
#
# Bulk Modulus (GPa) = 66.98345 23.80401 45.39373
# Shear Modulus (GPa) = 16.29498 10.37475 13.33486
#
# Velocity S-wave (km/s) = 2.87528 2.29426 2.60104
# Velocity P-wave (km/s) = 6.70872 4.36979 5.66136
#
# Compressibility (1/GPa) = 0.01492906
#
# Stress axis : x y z
#
# Youngs Moduli (GPa) = -81.72423 77.32967 52.85661
#
# Poissons Ratio (x) = -1.00915 0.48115
# Poissons Ratio (y) = 1.06650 0.33246
# Poissons Ratio (z) = -0.74393 0.48638
#
# Static dielectric constant tensor:
#      x y z
#    x 1.710930 0.000000 0.000000 
#    y 0.000000 1.741640 0.000000 
#    z 0.000000 0.000000 1.742170 
# 
# From -- ./inp_files/16718.got.cif
#   From: 2010.05.17/outbox.ucp.g08.bks.cvg/sg57_9_cif.got.tgz:16718.got - 2010.06.11 16:39:23.
