data_PCOD9440269
_publ_section_title
;
Structure prediction by ZEFSAII (Michael W. Deem and Ramdas Pophale) SiO2 
 PCOD9440269
Probable space group: P B C M
;
_chemical_formula_sum "Si O2"
_cell_formula_units_Z 40
_cell_length_a 6.756207
_cell_length_b 8.914012
_cell_length_c 27.702135
_cell_angle_alpha 90.000000
_cell_angle_beta 90.000000
_cell_angle_gamma 90.000000
_cell_volume 1668.358595
_symmetry_space_group_name_H-M "P B C M"
_symmetry_group_IT_number 57
_symmetry_cell_setting 'orthorhombic'
loop_
_space_group_symop_operation_xyz
x,y,z
-x,-y,1/2+z
x,1/2-y,-z
-x,1/2+y,1/2-z
-x,-y,-z
x,y,1/2-z
-x,1/2+y,z
x,1/2-y,1/2+z
loop_
_atom_site_type_symbol
_atom_site_label
_atom_site_fract_x
_atom_site_fract_y
_atom_site_fract_z
Si Si1 0.133484 0.887958 0.031865
Si Si2 0.454768 0.065655 0.093986
Si Si3 0.224643 0.136638 0.900505
Si Si4 0.289389 0.532302 0.695331
Si Si5 0.048035 0.265357 0.195935
O O1 0.306529 0.977068 0.058703
O O2 0.975896 0.828388 0.071317
O O3 0.207486 0.750000 0.000000
O O4 0.000000 0.000000 0.000000
O O5 0.679658 0.020187 0.084070
O O6 0.418700 0.009707 0.149217
O O7 0.389935 0.237009 0.089830
O O8 0.170774 0.149837 0.844635
O O9 0.374017 0.523839 0.750000
O O10 0.113087 0.407585 0.692970
O O11 0.181938 0.692609 0.688979
O O12 0.098619 0.315952 0.250000
#
# Coordination Sequence:
#
# PCOD9440269 Si02
#       5
#     8   8   8   8   8
#     4  12  26  46  67  91 124 164 210 267 323 369
#     4  11  25  42  65  96 129 165 207 259 311 377
#     4  11  25  42  65  97 128 165 210 255 314 374
#     4   9  18  35  61  92 126 164 204 248 304 368
#     4   9  18  35  61  92 127 164 204 248 303 370
#
# _framework density 23.975660000000001
#
# number of rings (size 3 to 8) (size 9 to 14) (size 15 to 20)
#    0.000    1.600    4.000    0.000    2.800    4.000 
#    0.000    0.000    0.000    0.000    0.000    0.000 
#    0.000    0.000    0.000    0.000    0.000    0.000 
#
# Total GULP energy -223727.755136 kJ/mol
# GULP energy per Si atom -5593.193878 kJ/mol
# Density = 2.392109 g / cm^3
# Si number density = 23.975660 Si / 1000 Ang^3
#
#
#
# Elastic Constant Matrix: (Units=GPa)
#
#
# Indices 1 2 3 4 5 6 
#
# 1 28.2212 7.8169 13.1926 0.0000 0.0000 0.0000
# 2 7.8169 48.8505 34.0421 0.0000 0.0000 0.0000
# 3 13.1926 34.0421 88.5845 0.0000 0.0000 0.0000
# 4 0.0000 0.0000 0.0000 35.1787 0.0000 0.0000
# 5 0.0000 0.0000 0.0000 0.0000 16.4636 0.0000
# 6 0.0000 0.0000 0.0000 0.0000 0.0000 39.2908
#
#
#
# Elastic Compliance Matrix: (Units=1/GPa)
#
#
# Indices 1 2 3 4 5 6 
#
# 1 0.038394 -0.002949 -0.004585 0.000000 0.000000 0.000000
# 2 -0.002949 0.028184 -0.010392 0.000000 0.000000 0.000000
# 3 -0.004585 -0.010392 0.015965 0.000000 0.000000 0.000000
# 4 0.000000 0.000000 0.000000 0.028426 0.000000 0.000000
# 5 0.000000 0.000000 0.000000 0.000000 0.060740 0.000000
# 6 0.000000 0.000000 0.000000 0.000000 0.000000 0.025451
#
#
# Mechanical properties :
#
#
# Convention : Reuss Voigt Hill
#
# Bulk Modulus (GPa) = 21.41654 30.63992 26.02823
# Shear Modulus (GPa) = 20.11459 25.56025 22.83742
#
# Velocity S-wave (km/s) = 2.89962 3.26865 3.08965
# Velocity P-wave (km/s) = 4.49026 5.20123 4.85876
#
# Compressibility (1/GPa) = 0.04669287
#
# Stress axis : x y z
#
# Youngs Moduli (GPa) = 26.04544 35.48107 62.63761
#
# Poissons Ratio (x) = 0.10463 0.28718
# Poissons Ratio (y) = 0.07680 0.65091
# Poissons Ratio (z) = 0.11941 0.36871
#
# Static dielectric constant tensor:
#      x y z
#    x 1.893710 0.000000 0.000000 
#    y 0.000000 1.910790 0.000000 
#    z 0.000000 0.000000 1.928540 
# 
# From -- ./inp_files/27799.got.cif
#   From: 2010.05.17/outbox.cif.g08.bks.cpg/sg57_14_cif.got.tgz:27799.got - 2010.06.03 13:58:18.
