data_PCOD9440161
_publ_section_title
;
Structure prediction by ZEFSAII (Michael W. Deem and Ramdas Pophale) SiO2 
 PCOD9440161
Probable space group: P B C M
;
_chemical_formula_sum "Si O2"
_cell_formula_units_Z 48
_cell_length_a 19.875034
_cell_length_b 8.874878
_cell_length_c 14.205535
_cell_angle_alpha 90.000000
_cell_angle_beta 90.000000
_cell_angle_gamma 90.000000
_cell_volume 2505.693039
_symmetry_space_group_name_H-M "P B C M"
_symmetry_group_IT_number 57
_symmetry_cell_setting 'orthorhombic'
loop_
_space_group_symop_operation_xyz
x,y,z
-x,-y,1/2+z
x,1/2-y,-z
-x,1/2+y,1/2-z
-x,-y,-z
x,y,1/2-z
-x,1/2+y,z
x,1/2-y,1/2+z
loop_
_atom_site_type_symbol
_atom_site_label
_atom_site_fract_x
_atom_site_fract_y
_atom_site_fract_z
Si Si1 0.671542 0.428176 0.523914
Si Si2 0.934455 0.915842 0.540612
Si Si3 0.901563 0.349269 0.750000
Si Si4 0.546904 0.342689 0.639517
Si Si5 0.589003 0.992818 0.860619
Si Si6 0.819435 0.096890 0.060120
Si Si7 0.960798 0.009967 0.750000
O O1 0.675677 0.250000 0.500000
O O2 0.605684 0.436375 0.589252
O O3 0.653230 0.516038 0.428366
O O4 0.743458 0.465533 0.568385
O O5 0.940332 0.750000 0.500000
O O6 0.934830 0.934312 0.653398
O O7 0.867528 0.987092 0.497690
O O8 0.000000 0.000000 0.500000
O O9 0.855153 0.366833 0.841420
O O10 0.959148 0.477681 0.750000
O O11 0.938907 0.185915 0.750000
O O12 0.549174 0.378232 0.750000
O O13 0.472195 0.386411 0.607738
O O14 0.561967 0.165166 0.628672
O O15 0.603895 0.968474 0.750000
O O16 0.817041 0.250000 0.000000
#
# Coordination Sequence:
#
# PCOD9440161 Si02
#       7
#     8   8   4   8   8   8   4
#     4   9  19  34  53  78 112 148 191 230 292 349
#     4  12  24  42  64  90 125 154 203 250 300 369
#     4  12  24  38  68  94 120 153 207 248 314 365
#     4   9  17  30  52  79 105 142 187 235 284 332
#     4   9  17  32  52  81 109 143 190 240 287 342
#     4  11  23  41  58  90 122 160 199 252 301 368
#     4  12  24  40  66  96 118 159 197 254 314 355
#
# _framework density 19.156378
#
# number of rings (size 3 to 8) (size 9 to 14) (size 15 to 20)
#    0.000    1.667    3.333    2.000    1.167    0.000 
#    6.000    1.667    0.000    0.000    0.000    0.000 
#    0.000    0.000    0.000    0.000    0.000    0.000 
#
# Total GULP energy -267908.317245 kJ/mol
# GULP energy per Si atom -5581.423276 kJ/mol
# Density = 1.911278 g / cm^3
# Si number density = 19.156378 Si / 1000 Ang^3
#
#
#
# Elastic Constant Matrix: (Units=GPa)
#
#
# Indices 1 2 3 4 5 6 
#
# 1 114.0164 30.7781 51.7848 0.0000 0.0000 0.0000
# 2 30.7781 48.8992 28.1554 0.0000 0.0000 0.0000
# 3 51.7848 28.1554 129.3595 0.0000 0.0000 0.0000
# 4 0.0000 0.0000 0.0000 19.6543 0.0000 0.0000
# 5 0.0000 0.0000 0.0000 0.0000 18.7186 0.0000
# 6 0.0000 0.0000 0.0000 0.0000 0.0000 20.2071
#
#
#
# Elastic Compliance Matrix: (Units=1/GPa)
#
#
# Indices 1 2 3 4 5 6 
#
# 1 0.011850 -0.005404 -0.003567 0.000000 0.000000 0.000000
# 2 -0.005404 0.025845 -0.003462 0.000000 0.000000 0.000000
# 3 -0.003567 -0.003462 0.009912 0.000000 0.000000 0.000000
# 4 0.000000 0.000000 0.000000 0.050879 0.000000 0.000000
# 5 0.000000 0.000000 0.000000 0.000000 0.053423 0.000000
# 6 0.000000 0.000000 0.000000 0.000000 0.000000 0.049488
#
#
# Mechanical properties :
#
#
# Convention : Reuss Voigt Hill
#
# Bulk Modulus (GPa) = 43.97597 57.07908 50.52752
# Shear Modulus (GPa) = 21.38179 23.81979 22.60079
#
# Velocity S-wave (km/s) = 3.34454 3.53007 3.43856
# Velocity P-wave (km/s) = 6.15798 6.81735 6.49604
#
# Compressibility (1/GPa) = 0.02273969
#
# Stress axis : x y z
#
# Youngs Moduli (GPa) = 84.38921 38.69195 100.88843
#
# Poissons Ratio (x) = 0.20911 0.35991
# Poissons Ratio (y) = 0.45608 0.34925
# Poissons Ratio (z) = 0.30105 0.13394
#
# Static dielectric constant tensor:
#      x y z
#    x 1.676560 0.000000 0.000000 
#    y 0.000000 1.653660 0.000000 
#    z 0.000000 0.000000 1.688680 
# 
# From -- ./inp_files/19020.got.cif
#   From: 2010.05.17/outbox.cif.g08.bks.cpg/sg57_10_cif.got.tgz:19020.got - 2010.06.03 13:58:18.
