data_PCOD9440305
_publ_section_title
;
Structure prediction by ZEFSAII (Michael W. Deem and Ramdas Pophale) SiO2 
 PCOD9440305
Probable space group: P B C M
;
_chemical_formula_sum "Si O2"
_cell_formula_units_Z 36
_cell_length_a 4.712276
_cell_length_b 18.836669
_cell_length_c 15.721846
_cell_angle_alpha 90.000000
_cell_angle_beta 90.000000
_cell_angle_gamma 90.000000
_cell_volume 1395.527386
_symmetry_space_group_name_H-M "P B C M"
_symmetry_group_IT_number 57
_symmetry_cell_setting 'orthorhombic'
loop_
_space_group_symop_operation_xyz
x,y,z
-x,-y,1/2+z
x,1/2-y,-z
-x,1/2+y,1/2-z
-x,-y,-z
x,y,1/2-z
-x,1/2+y,z
x,1/2-y,1/2+z
loop_
_atom_site_type_symbol
_atom_site_label
_atom_site_fract_x
_atom_site_fract_y
_atom_site_fract_z
Si Si1 0.673493 0.440033 0.075146
Si Si2 0.561133 0.726742 0.409164
Si Si3 0.757592 0.344388 0.750000
Si Si4 0.958662 0.909451 0.587515
Si Si5 0.831071 0.629699 0.847753
O O1 0.765120 0.520475 0.091015
O O2 0.346207 0.425121 0.093452
O O3 0.841288 0.388510 0.139230
O O4 0.801579 0.418290 0.984297
O O5 0.424240 0.750000 0.500000
O O6 0.373061 0.705906 0.327461
O O7 0.763207 0.659472 0.427195
O O8 0.754423 0.792172 0.378656
O O9 0.892666 0.396290 0.823305
O O10 0.755034 0.620113 0.750000
#
# Coordination Sequence:
#
# PCOD9440305 Si02
#       5
#     8   8   4   8   8
#     4  11  28  51  78 116 157 215 262 336 406 483
#     4  12  26  49  76 111 159 213 262 336 406 484
#     4  12  28  46  78 118 154 208 278 330 410 480
#     4  11  28  47  79 111 160 206 272 327 408 488
#     4  12  27  48  77 114 158 205 268 331 407 473
#
# _framework density 25.796699
#
# number of rings (size 3 to 8) (size 9 to 14) (size 15 to 20)
#    0.000    0.444    3.333    2.667    9.333    2.667 
#    0.000    0.000    0.000    0.000    0.000    0.000 
#    0.000    0.000    0.000    0.000    0.000    0.000 
#
# Total GULP energy -201080.590005 kJ/mol
# GULP energy per Si atom -5585.571945 kJ/mol
# Density = 2.573798 g / cm^3
# Si number density = 25.796699 Si / 1000 Ang^3
#
#
#
# Elastic Constant Matrix: (Units=GPa)
#
#
# Indices 1 2 3 4 5 6 
#
# 1 70.7390 25.3594 35.4302 0.0000 0.0000 0.0000
# 2 25.3594 150.5774 61.0341 0.0000 0.0000 0.0000
# 3 35.4302 61.0341 247.5274 0.0000 0.0000 0.0000
# 4 0.0000 0.0000 0.0000 39.3145 0.0000 0.0000
# 5 0.0000 0.0000 0.0000 0.0000 24.8052 0.0000
# 6 0.0000 0.0000 0.0000 0.0000 0.0000 35.8848
#
#
#
# Elastic Compliance Matrix: (Units=1/GPa)
#
#
# Indices 1 2 3 4 5 6 
#
# 1 0.015716 -0.001928 -0.001774 0.000000 0.000000 0.000000
# 2 -0.001928 0.007615 -0.001602 0.000000 0.000000 0.000000
# 3 -0.001774 -0.001602 0.004689 0.000000 0.000000 0.000000
# 4 0.000000 0.000000 0.000000 0.025436 0.000000 0.000000
# 5 0.000000 0.000000 0.000000 0.000000 0.040314 0.000000
# 6 0.000000 0.000000 0.000000 0.000000 0.000000 0.027867
#
#
# Mechanical properties :
#
#
# Convention : Reuss Voigt Hill
#
# Bulk Modulus (GPa) = 57.42930 79.16570 68.29750
# Shear Modulus (GPa) = 36.21912 43.13556 39.67734
#
# Velocity S-wave (km/s) = 3.75109 4.09361 3.92609
# Velocity P-wave (km/s) = 6.40871 7.28687 6.86185
#
# Compressibility (1/GPa) = 0.01741271
#
# Stress axis : x y z
#
# Youngs Moduli (GPa) = 63.62869 131.31987 213.27113
#
# Poissons Ratio (x) = 0.25314 0.37840
# Poissons Ratio (y) = 0.12266 0.34161
# Poissons Ratio (z) = 0.11289 0.21034
#
# Static dielectric constant tensor:
#      x y z
#    x 2.011250 0.000000 0.000000 
#    y 0.000000 1.994540 0.000000 
#    z 0.000000 0.000000 1.970800 
# 
# From -- ./inp_files/14871.got.cif
#   From: 2010.05.17/outbox.cif.g08.bks.cpg/sg57_8_cif.got.tgz:14871.got - 2010.06.03 13:58:18.
