data_PCOD9440598
_publ_section_title
;
Structure prediction by ZEFSAII (Michael W. Deem and Ramdas Pophale) SiO2 
 PCOD9440598
Probable space group: P B C M
;
_chemical_formula_sum "Si O2"
_cell_formula_units_Z 48
_cell_length_a 30.000000
_cell_length_b 9.000000
_cell_length_c 9.000000
_cell_angle_alpha 90.000000
_cell_angle_beta 90.000000
_cell_angle_gamma 90.000000
_cell_volume 2430.000000
_symmetry_space_group_name_H-M "P B C M"
_symmetry_group_IT_number 57
_symmetry_cell_setting 'orthorhombic'
loop_
_space_group_symop_operation_xyz
x,y,z
-x,-y,1/2+z
x,1/2-y,-z
-x,1/2+y,1/2-z
-x,-y,-z
x,y,1/2-z
-x,1/2+y,z
x,1/2-y,1/2+z
loop_
_atom_site_type_symbol
_atom_site_label
_atom_site_fract_x
_atom_site_fract_y
_atom_site_fract_z
Si Si1 0.964156 0.902124 0.416928
Si Si2 0.625543 0.405065 0.580091
Si Si3 0.788493 0.088005 0.573861
Si Si4 0.713385 0.599633 0.918730
Si Si5 0.459753 0.586663 0.572788
Si Si6 0.123395 0.902949 0.580275
O O1 0.957885 0.750000 0.500000
O O2 0.979676 0.873614 0.250000
O O3 0.918136 0.989976 0.415093
O O4 0.000000 0.000000 0.500000
O O5 0.635723 0.250000 0.500000
O O6 0.610014 0.379449 0.750000
O O7 0.669851 0.498930 0.584986
O O8 0.586844 0.480968 0.483888
O O9 0.782731 0.250000 0.500000
O O10 0.787093 0.099025 0.750000
O O11 0.836068 0.032701 0.514530
O O12 0.750838 0.982314 0.512121
O O13 0.728857 0.625017 0.750000
O O14 0.701734 0.750000 0.000000
O O15 0.459912 0.750000 0.500000
O O16 0.500000 0.500000 0.500000
O O17 0.462713 0.591105 0.750000
O O18 0.110402 0.750000 0.500000
O O19 0.138088 0.872218 0.750000
#
# Coordination Sequence:
#
# PCOD9440598 Si02
#       6
#     8   8   8   8   8   8
#     4  11  24  40  61  87 118 155 195 240 289 344
#     4  10  21  38  60  85 113 149 193 237 285 342
#     4  11  22  38  62  88 117 154 195 238 285 342
#     4  11  24  40  59  85 118 153 192 239 290 343
#     4  11  22  38  60  86 117 152 192 237 286 341
#     4  10  21  38  60  87 117 151 193 239 288 342
#
# _framework density 19.753086
#
# number of rings (size 3 to 8) (size 9 to 14) (size 15 to 20)
#    0.000    1.333    0.000    8.000    0.000    9.333 
#    0.000    3.333    0.000    0.000    0.000    0.000 
#    0.000    0.000    0.000    0.000    0.000    0.000 
#
# Total GULP energy -268066.856979 kJ/mol
# GULP energy per Si atom -5584.726187 kJ/mol
# Density = 1.970813 g / cm^3
# Si number density = 19.753086 Si / 1000 Ang^3
#
#
#
# Elastic Constant Matrix: (Units=GPa)
#
#
# Indices 1 2 3 4 5 6 
#
# 1 45.7286 74.7096 61.4264 0.0000 0.0000 0.0000
# 2 74.7096 29.7018 56.2948 0.0000 0.0000 0.0000
# 3 61.4264 56.2948 226.5837 0.0000 0.0000 0.0000
# 4 0.0000 0.0000 0.0000 26.5874 0.0000 0.0000
# 5 0.0000 0.0000 0.0000 0.0000 -3.9571 0.0000
# 6 0.0000 0.0000 0.0000 0.0000 0.0000 16.9630
#
#
#
# Elastic Compliance Matrix: (Units=1/GPa)
#
#
# Indices 1 2 3 4 5 6 
#
# 1 -0.005107 0.019319 -0.003415 0.000000 0.000000 0.000000
# 2 0.019319 -0.009449 -0.002890 0.000000 0.000000 0.000000
# 3 -0.003415 -0.002890 0.006057 0.000000 0.000000 0.000000
# 4 0.000000 0.000000 0.000000 0.037612 0.000000 0.000000
# 5 0.000000 0.000000 0.000000 0.000000 -0.252711 0.000000
# 6 0.000000 0.000000 0.000000 0.000000 0.000000 0.058952
#
#
# Mechanical properties :
#
#
# Convention : Reuss Voigt Hill
#
# Bulk Modulus (GPa) = 57.04723 76.31951 66.68337
# Shear Modulus (GPa) = -27.05171 15.22423 -5.91374
#
# Velocity S-wave (km/s) = -3.70468 2.77921 -1.73215
# Velocity P-wave (km/s) = 3.26241 7.00138 5.46180
#
# Compressibility (1/GPa) = 0.01752934
#
# Stress axis : x y z
#
# Youngs Moduli (GPa) = -195.80560 -105.83132 165.09154
#
# Poissons Ratio (x) = 2.04458 0.56384
# Poissons Ratio (y) = 3.78282 0.47708
# Poissons Ratio (z) = -0.66874 -0.30583
#
# Static dielectric constant tensor:
#      x y z
#    x 1.721220 0.000000 0.000000 
#    y 0.000000 1.680220 0.000000 
#    z 0.000000 0.000000 -2.288260 
# 
# From -- ./inp_files/10084.got.cif
#   From: 2010.05.17/outbox.ucp.g08.bks.cvg/sg57_6_cif.got.tgz:10084.got - 2010.06.11 16:39:23.
