data_PCOD9440298
_publ_section_title
;
Structure prediction by ZEFSAII (Michael W. Deem and Ramdas Pophale) SiO2 
 PCOD9440298
Probable space group: P B C M
;
_chemical_formula_sum "Si O2"
_cell_formula_units_Z 24
_cell_length_a 4.964494
_cell_length_b 13.054404
_cell_length_c 16.307038
_cell_angle_alpha 90.000000
_cell_angle_beta 90.000000
_cell_angle_gamma 90.000000
_cell_volume 1056.834841
_symmetry_space_group_name_H-M "P B C M"
_symmetry_group_IT_number 57
_symmetry_cell_setting 'orthorhombic'
loop_
_space_group_symop_operation_xyz
x,y,z
-x,-y,1/2+z
x,1/2-y,-z
-x,1/2+y,1/2-z
-x,-y,-z
x,y,1/2-z
-x,1/2+y,z
x,1/2-y,1/2+z
loop_
_atom_site_type_symbol
_atom_site_label
_atom_site_fract_x
_atom_site_fract_y
_atom_site_fract_z
Si Si1 0.491982 0.356810 0.586060
Si Si2 0.014577 0.742470 0.655321
Si Si3 0.204732 0.444282 0.063758
O O1 0.244672 0.314535 0.639013
O O2 0.607423 0.470346 0.605267
O O3 0.745386 0.284293 0.599670
O O4 0.384050 0.370737 0.493780
O O5 0.093394 0.747362 0.750000
O O6 0.943334 0.627782 0.627819
O O7 0.000000 0.500000 0.000000
#
# Coordination Sequence:
#
# PCOD9440298 Si02
#       3
#     8   8   8
#     4  11  26  47  74 105 141 192 248 295 355 442
#     4  12  28  46  71 109 153 188 237 310 373 423
#     4  11  26  46  78 107 140 196 250 296 351 447
#
# _framework density 22.709320999999999
#
# number of rings (size 3 to 8) (size 9 to 14) (size 15 to 20)
#    0.000    0.667    3.333    2.000   14.000    2.667 
#    0.000    0.000    0.000    0.000    0.000    0.000 
#    0.000    0.000    0.000    0.000    0.000    0.000 
#
# Total GULP energy -134437.521452 kJ/mol
# GULP energy per Si atom -5601.563394 kJ/mol
# Density = 2.265763 g / cm^3
# Si number density = 22.709321 Si / 1000 Ang^3
#
#
#
# Elastic Constant Matrix: (Units=GPa)
#
#
# Indices 1 2 3 4 5 6 
#
# 1 134.7095 38.7554 23.4867 0.0000 0.0000 0.0000
# 2 38.7554 92.4151 45.9342 0.0000 0.0000 0.0000
# 3 23.4867 45.9342 62.7335 0.0000 0.0000 0.0000
# 4 0.0000 0.0000 0.0000 14.4405 0.0000 0.0000
# 5 0.0000 0.0000 0.0000 0.0000 21.1987 0.0000
# 6 0.0000 0.0000 0.0000 0.0000 0.0000 57.6836
#
#
#
# Elastic Compliance Matrix: (Units=1/GPa)
#
#
# Indices 1 2 3 4 5 6 
#
# 1 0.008474 -0.003108 -0.000897 0.000000 0.000000 0.000000
# 2 -0.003108 0.018152 -0.012128 0.000000 0.000000 0.000000
# 3 -0.000897 -0.012128 0.025156 0.000000 0.000000 0.000000
# 4 0.000000 0.000000 0.000000 0.069249 0.000000 0.000000
# 5 0.000000 0.000000 0.000000 0.000000 0.047173 0.000000
# 6 0.000000 0.000000 0.000000 0.000000 0.000000 0.017336
#
#
# Mechanical properties :
#
#
# Convention : Reuss Voigt Hill
#
# Bulk Modulus (GPa) = 51.23631 56.24564 53.74097
# Shear Modulus (GPa) = 22.29051 30.77668 26.53360
#
# Velocity S-wave (km/s) = 3.13638 3.68536 3.42190
# Velocity P-wave (km/s) = 5.97718 6.55214 6.27125
#
# Compressibility (1/GPa) = 0.01951741
#
# Stress axis : x y z
#
# Youngs Moduli (GPa) = 118.00994 55.09051 39.75160
#
# Poissons Ratio (x) = 0.17121 0.03566
# Poissons Ratio (y) = 0.36675 0.48209
# Poissons Ratio (z) = 0.10585 0.66811
#
# Static dielectric constant tensor:
#      x y z
#    x 1.851710 0.000000 0.000000 
#    y 0.000000 1.895450 0.000000 
#    z 0.000000 0.000000 1.790740 
# 
# From -- ./inp_files/14566.got.cif
#   From: 2010.05.17/outbox.cif.g08.bks.cpg/sg57_8_cif.got.tgz:14566.got - 2010.06.03 13:58:18.
