data_PCOD9440944
_publ_section_title
;
Structure prediction by ZEFSAII (Michael W. Deem and Ramdas Pophale) SiO2 
 PCOD9440944
Probable space group: P N N M
;
_chemical_formula_sum "Si O2"
_cell_formula_units_Z 64
_cell_length_a 10.123767
_cell_length_b 33.711134
_cell_length_c 8.871968
_cell_angle_alpha 90.000000
_cell_angle_beta 90.000000
_cell_angle_gamma 90.000000
_cell_volume 3027.857763
_symmetry_space_group_name_H-M "P N N M"
_symmetry_group_IT_number 58
_symmetry_cell_setting 'orthorhombic'
loop_
_space_group_symop_operation_xyz
x,y,z
-x,-y,z
1/2+x,1/2-y,1/2-z
1/2-x,1/2+y,1/2-z
-x,-y,-z
x,y,-z
1/2-x,1/2+y,1/2+z
1/2+x,1/2-y,1/2+z
loop_
_atom_site_type_symbol
_atom_site_label
_atom_site_fract_x
_atom_site_fract_y
_atom_site_fract_z
Si Si1 0.500046 0.544513 0.674223
Si Si2 0.130332 0.792828 0.682016
Si Si3 0.028639 0.876859 0.679756
Si Si4 0.749780 0.850426 0.178485
Si Si5 0.141663 0.236519 0.821751
Si Si6 0.620057 0.032550 0.170969
Si Si7 0.740238 0.467233 0.165337
Si Si8 0.969058 0.402550 0.169801
O O1 0.500000 0.500000 0.740402
O O2 0.533255 0.542900 0.500000
O O3 0.570877 0.581012 0.752732
O O4 0.344611 0.551695 0.701206
O O5 0.127871 0.790636 0.500000
O O6 0.116329 0.839043 0.725486
O O7 0.998174 0.771040 0.741663
O O8 0.265917 0.772366 0.733656
O O9 0.024989 0.879454 0.500000
O O10 0.881092 0.866956 0.739223
O O11 0.768531 0.803087 0.194431
O O12 0.617445 0.867979 0.253731
O O13 0.752762 0.859928 0.000000
O O14 0.114985 0.241595 0.000000
O O15 0.578239 0.075983 0.227338
O O16 0.500000 0.000000 0.166659
O O17 0.718633 0.011306 0.286719
O O18 0.670685 0.034074 0.000000
O O19 0.867041 0.439290 0.153900
O O20 0.675038 0.465731 0.000000
O O21 0.013961 0.391810 0.000000
#
# Coordination Sequence:
#
# PCOD9440944 Si02
#       8
#     8   8   8   8   8   8   8   8
#     4  11  23  36  52  74 101 134 178 229 274 324
#     4   9  19  36  59  87 120 152 191 238 288 347
#     4  10  19  33  54  79 104 137 176 224 281 334
#     4  10  18  29  50  77 106 138 175 223 273 327
#     4   9  19  35  56  86 119 152 192 235 286 344
#     4   9  17  28  44  66  93 127 164 203 254 312
#     4  10  19  31  48  69  96 128 166 216 267 319
#     4  10  18  28  45  71 101 131 169 214 261 315
#
# _framework density 21.137056000000001
#
# number of rings (size 3 to 8) (size 9 to 14) (size 15 to 20)
#    0.000    2.250    1.250    2.250    0.000    5.000 
#    0.000    0.000    2.750    0.000    0.000    0.000 
#    0.000    0.000    0.000    0.000    0.000    0.000 
#
# Total GULP energy -356817.580358 kJ/mol
# GULP energy per Si atom -5575.274693 kJ/mol
# Density = 2.108895 g / cm^3
# Si number density = 21.137056 Si / 1000 Ang^3
#
#
#
# Elastic Constant Matrix: (Units=GPa)
#
#
# Indices 1 2 3 4 5 6 
#
# 1 31.3787 10.8784 9.1636 0.0000 0.0000 0.0000
# 2 10.8784 91.0760 19.1275 0.0000 0.0000 0.0000
# 3 9.1636 19.1275 57.6579 0.0000 0.0000 0.0000
# 4 0.0000 0.0000 0.0000 19.4529 0.0000 0.0000
# 5 0.0000 0.0000 0.0000 0.0000 2.6899 0.0000
# 6 0.0000 0.0000 0.0000 0.0000 0.0000 29.5942
#
#
#
# Elastic Compliance Matrix: (Units=1/GPa)
#
#
# Indices 1 2 3 4 5 6 
#
# 1 0.034250 -0.003168 -0.004392 0.000000 0.000000 0.000000
# 2 -0.003168 0.012095 -0.003509 0.000000 0.000000 0.000000
# 3 -0.004392 -0.003509 0.019206 0.000000 0.000000 0.000000
# 4 0.000000 0.000000 0.000000 0.051406 0.000000 0.000000
# 5 0.000000 0.000000 0.000000 0.000000 0.371757 0.000000
# 6 0.000000 0.000000 0.000000 0.000000 0.000000 0.033790
#
#
# Mechanical properties :
#
#
# Convention : Reuss Voigt Hill
#
# Bulk Modulus (GPa) = 23.03531 28.71684 25.87608
# Shear Modulus (GPa) = 8.94272 19.74363 14.34318
#
# Velocity S-wave (km/s) = 2.05913 3.05958 2.60778
# Velocity P-wave (km/s) = 4.07125 5.10851 4.61909
#
# Compressibility (1/GPa) = 0.04341162
#
# Stress axis : x y z
#
# Youngs Moduli (GPa) = 29.19719 82.67733 52.06760
#
# Poissons Ratio (x) = 0.26196 0.22870
# Poissons Ratio (y) = 0.09251 0.18270
# Poissons Ratio (z) = 0.12824 0.29011
#
# Static dielectric constant tensor:
#      x y z
#    x 1.850440 0.000000 0.000000 
#    y 0.000000 1.807900 0.000000 
#    z 0.000000 0.000000 1.750870 
# 
# From -- ./inp_files/4737.got.cif
#   From: 2010.05.17/outbox.cif.g08.bks.cpg/sg58_3_cif.got.tgz:4737.got - 2010.06.03 14:20:14.
