data_PCOD9440751
_publ_section_title
;
Structure prediction by ZEFSAII (Michael W. Deem and Ramdas Pophale) SiO2 
 PCOD9440751
Probable space group: P N N M
;
_chemical_formula_sum "Si O2"
_cell_formula_units_Z 52
_cell_length_a 12.632321
_cell_length_b 11.741388
_cell_length_c 20.820548
_cell_angle_alpha 90.000000
_cell_angle_beta 90.000000
_cell_angle_gamma 90.000000
_cell_volume 3088.124129
_symmetry_space_group_name_H-M "P N N M"
_symmetry_group_IT_number 58
_symmetry_cell_setting 'orthorhombic'
loop_
_space_group_symop_operation_xyz
x,y,z
-x,-y,z
1/2+x,1/2-y,1/2-z
1/2-x,1/2+y,1/2-z
-x,-y,-z
x,y,-z
1/2-x,1/2+y,1/2+z
1/2+x,1/2-y,1/2+z
loop_
_atom_site_type_symbol
_atom_site_label
_atom_site_fract_x
_atom_site_fract_y
_atom_site_fract_z
Si Si1 0.061032 0.801989 0.774227
Si Si2 0.647293 0.229333 0.335665
Si Si3 0.204311 0.112701 0.348433
Si Si4 0.312694 0.104781 0.789922
Si Si5 0.376369 0.982464 0.576358
Si Si6 0.203168 0.356358 0.693788
Si Si7 0.000000 0.000000 0.324008
O O1 0.093700 0.685328 0.736906
O O2 0.168782 0.850442 0.805021
O O3 0.969795 0.780364 0.826168
O O4 0.022107 0.892609 0.722034
O O5 0.738281 0.324219 0.337876
O O6 0.655078 0.136599 0.390866
O O7 0.668572 0.169102 0.266945
O O8 0.241444 0.086673 0.274844
O O9 0.172726 0.245957 0.348038
O O10 0.104456 0.033146 0.362984
O O11 0.303064 0.079848 0.392550
O O12 0.338576 0.982400 0.819369
O O13 0.364730 0.980700 0.500000
O O14 0.500000 0.000000 0.592468
#
# Coordination Sequence:
#
# PCOD9440751 Si02
#       7
#     8   8   8   8   8   8   4
#     4  10  17  26  46  68 105 138 157 206 265 317
#     4  10  18  30  47  73 102 133 170 209 262 318
#     4  10  19  32  49  75 108 137 174 214 266 318
#     4  10  18  29  47  74 105 133 166 211 270 314
#     4  11  22  37  55  74 104 144 186 226 254 299
#     4  10  18  29  46  75 105 136 168 209 269 319
#     4  12  16  32  49  78 113 138 164 218 272 326
#
# _framework density 16.838701
#
# number of rings (size 3 to 8) (size 9 to 14) (size 15 to 20)
#    0.000    2.000    6.154    2.769    0.000    0.000 
#    0.000    0.385    0.000    0.923    0.000    5.923 
#    0.000    2.462    0.000    0.000    0.000    0.000 
#
# Total GULP energy -289799.202013 kJ/mol
# GULP energy per Si atom -5573.061577 kJ/mol
# Density = 1.680038 g / cm^3
# Si number density = 16.838701 Si / 1000 Ang^3
#
#
#
# Elastic Constant Matrix: (Units=GPa)
#
#
# Indices 1 2 3 4 5 6 
#
# 1 44.7801 18.1071 10.1452 0.0000 0.0000 0.0000
# 2 18.1071 122.4696 22.5319 0.0000 0.0000 0.0000
# 3 10.1452 22.5319 31.8790 0.0000 0.0000 0.0000
# 4 0.0000 0.0000 0.0000 14.2216 0.0000 0.0000
# 5 0.0000 0.0000 0.0000 0.0000 16.4599 0.0000
# 6 0.0000 0.0000 0.0000 0.0000 0.0000 24.7134
#
#
#
# Elastic Compliance Matrix: (Units=1/GPa)
#
#
# Indices 1 2 3 4 5 6 
#
# 1 0.024735 -0.002539 -0.006077 0.000000 0.000000 0.000000
# 2 -0.002539 0.009646 -0.006010 0.000000 0.000000 0.000000
# 3 -0.006077 -0.006010 0.037550 0.000000 0.000000 0.000000
# 4 0.000000 0.000000 0.000000 0.070316 0.000000 0.000000
# 5 0.000000 0.000000 0.000000 0.000000 0.060754 0.000000
# 6 0.000000 0.000000 0.000000 0.000000 0.000000 0.040464
#
#
# Mechanical properties :
#
#
# Convention : Reuss Voigt Hill
#
# Bulk Modulus (GPa) = 23.43046 33.41079 28.42062
# Shear Modulus (GPa) = 17.42503 20.96861 19.19682
#
# Velocity S-wave (km/s) = 3.22035 3.53266 3.38011
# Velocity P-wave (km/s) = 5.26995 6.04353 5.66995
#
# Compressibility (1/GPa) = 0.04267949
#
# Stress axis : x y z
#
# Youngs Moduli (GPa) = 40.42889 103.66564 26.63081
#
# Poissons Ratio (x) = 0.26320 0.16184
# Poissons Ratio (y) = 0.10265 0.16005
# Poissons Ratio (z) = 0.24569 0.62303
#
# Static dielectric constant tensor:
#      x y z
#    x 1.627510 0.000000 0.000000 
#    y 0.000000 1.629840 0.000000 
#    z 0.000000 0.000000 1.513980 
# 
# From -- ./inp_files/30107.got.cif
#   From: 2010.05.17/outbox.cif.g08.bks.cpg/sg58_16_cif.got.tgz:30107.got - 2010.06.03 14:20:14.
