data_PCOD9440772
_publ_section_title
;
Structure prediction by ZEFSAII (Michael W. Deem and Ramdas Pophale) SiO2 
 PCOD9440772
Probable space group: P N N M
;
_chemical_formula_sum "Si O2"
_cell_formula_units_Z 32
_cell_length_a 16.253718
_cell_length_b 16.232837
_cell_length_c 5.563202
_cell_angle_alpha 90.000000
_cell_angle_beta 90.000000
_cell_angle_gamma 90.000000
_cell_volume 1467.817218
_symmetry_space_group_name_H-M "P N N M"
_symmetry_group_IT_number 58
_symmetry_cell_setting 'orthorhombic'
loop_
_space_group_symop_operation_xyz
x,y,z
-x,-y,z
1/2+x,1/2-y,1/2-z
1/2-x,1/2+y,1/2-z
-x,-y,-z
x,y,-z
1/2-x,1/2+y,1/2+z
1/2+x,1/2-y,1/2+z
loop_
_atom_site_type_symbol
_atom_site_label
_atom_site_fract_x
_atom_site_fract_y
_atom_site_fract_z
Si Si1 0.097218 0.202247 0.500000
Si Si2 0.001701 0.641096 0.500000
Si Si3 0.213321 0.711896 0.000000
Si Si4 0.951305 0.374289 0.000000
Si Si5 0.404361 0.467568 0.000000
Si Si6 0.851539 0.222358 0.500000
Si Si7 0.905648 0.031230 0.000000
Si Si8 0.991081 0.815908 0.000000
O O1 0.192884 0.184653 0.500000
O O2 0.057632 0.170029 0.249375
O O3 0.079086 0.301136 0.500000
O O4 0.014313 0.593192 0.251712
O O5 0.075202 0.710153 0.500000
O O6 0.146956 0.637297 0.000000
O O7 0.197801 0.760781 0.252214
O O8 0.983618 0.279116 0.000000
O O9 0.500000 0.500000 0.000000
O O10 0.366001 0.494875 0.748290
O O11 0.391135 0.368693 0.000000
O O12 0.000000 0.000000 0.000000
O O13 0.927518 0.128171 0.000000
#
# Coordination Sequence:
#
# PCOD9440772 Si02
#       8
#     4   4   4   4   4   4   4   4
#     4  10  18  26  38  55  73  97 133 172 205 241
#     4   8  14  23  36  48  65  93 122 154 190 223
#     4  10  18  26  38  55  73  97 133 172 205 241
#     4   8  14  23  36  48  65  93 122 154 190 223
#     4  10  18  27  41  60  78 100 136 178 206 237
#     4  10  17  28  40  53  76 104 130 170 206 231
#     4  10  18  27  41  60  78 100 136 178 206 237
#     4  10  17  28  40  53  76 104 130 170 206 231
#
# _framework density 21.801079999999999
#
# number of rings (size 3 to 8) (size 9 to 14) (size 15 to 20)
#    0.000    2.500    0.000    6.750    0.000    0.000 
#    0.000    0.000    0.000    0.000    0.000    0.000 
#    0.000    0.000    0.000    0.000    0.000    0.000 
#
# Total GULP energy -178293.639044 kJ/mol
# GULP energy per Si atom -5571.676220 kJ/mol
# Density = 2.175146 g / cm^3
# Si number density = 21.801080 Si / 1000 Ang^3
#
#
#
# Elastic Constant Matrix: (Units=GPa)
#
#
# Indices 1 2 3 4 5 6 
#
# 1 164.2296 -44.9452 76.6381 0.0000 0.0000 0.0000
# 2 -44.9452 88.1401 -9.2997 0.0000 0.0000 0.0000
# 3 76.6381 -9.2997 294.8098 0.0000 0.0000 0.0000
# 4 0.0000 0.0000 0.0000 -7.0851 0.0000 0.0000
# 5 0.0000 0.0000 0.0000 0.0000 25.5938 0.0000
# 6 0.0000 0.0000 0.0000 0.0000 0.0000 5.6543
#
#
#
# Elastic Compliance Matrix: (Units=1/GPa)
#
#
# Indices 1 2 3 4 5 6 
#
# 1 0.008083 0.003913 -0.001978 0.000000 0.000000 0.000000
# 2 0.003913 0.013278 -0.000598 0.000000 0.000000 0.000000
# 3 -0.001978 -0.000598 0.003887 0.000000 0.000000 0.000000
# 4 0.000000 0.000000 0.000000 -0.141142 0.000000 0.000000
# 5 0.000000 0.000000 0.000000 0.000000 0.039072 0.000000
# 6 0.000000 0.000000 0.000000 0.000000 0.000000 0.176857
#
#
# Mechanical properties :
#
#
# Convention : Reuss Voigt Hill
#
# Bulk Modulus (GPa) = 35.81448 65.77397 50.79422
# Shear Modulus (GPa) = 46.87407 39.81837 43.34622
#
# Velocity S-wave (km/s) = 4.64193 4.27832 4.46383
# Velocity P-wave (km/s) = 6.72261 7.39195 7.06521
#
# Compressibility (1/GPa) = 0.02792167
#
# Stress axis : x y z
#
# Youngs Moduli (GPa) = 123.71873 75.31372 257.24948
#
# Poissons Ratio (x) = -0.29470 0.50878
# Poissons Ratio (y) = -0.48411 0.15393
# Poissons Ratio (z) = 0.24469 0.04507
#
# Static dielectric constant tensor:
#      x y z
#    x 1.757580 0.000000 0.000000 
#    y 0.000000 1.912910 0.000000 
#    z 0.000000 0.000000 1.965320 
# 
# From -- ./inp_files/670.got.cif
#   From: 2010.05.17/outbox.cif.g08.bks.cpg/sg58_1_cif.got.tgz:670.got - 2010.06.03 14:20:14.
