data_PCOD9440767
_publ_section_title
;
Structure prediction by ZEFSAII (Michael W. Deem and Ramdas Pophale) SiO2 
 PCOD9440767
Probable space group: P N N M
;
_chemical_formula_sum "Si O2"
_cell_formula_units_Z 56
_cell_length_a 9.483477
_cell_length_b 15.074257
_cell_length_c 14.968476
_cell_angle_alpha 90.000000
_cell_angle_beta 90.000000
_cell_angle_gamma 90.000000
_cell_volume 2139.838987
_symmetry_space_group_name_H-M "P N N M"
_symmetry_group_IT_number 58
_symmetry_cell_setting 'orthorhombic'
loop_
_space_group_symop_operation_xyz
x,y,z
-x,-y,z
1/2+x,1/2-y,1/2-z
1/2-x,1/2+y,1/2-z
-x,-y,-z
x,y,-z
1/2-x,1/2+y,1/2+z
1/2+x,1/2-y,1/2+z
loop_
_atom_site_type_symbol
_atom_site_label
_atom_site_fract_x
_atom_site_fract_y
_atom_site_fract_z
Si Si1 0.415424 0.696154 0.705836
Si Si2 0.879717 0.619755 0.401552
Si Si3 0.156190 0.039103 0.102181
Si Si4 0.348623 0.230415 0.398847
Si Si5 0.992360 0.858071 0.600751
Si Si6 0.044971 0.385345 0.788240
Si Si7 0.751141 0.002003 0.599431
O O1 0.319341 0.614971 0.676137
O O2 0.536987 0.696339 0.630900
O O3 0.489143 0.687094 0.802027
O O4 0.355858 0.795940 0.700443
O O5 0.945212 0.613128 0.500000
O O6 0.764925 0.541823 0.393111
O O7 0.796465 0.714309 0.395094
O O8 0.978241 0.606827 0.316877
O O9 0.162379 0.073840 0.000000
O O10 0.000000 0.000000 0.118775
O O11 0.372500 0.203953 0.500000
O O12 0.404982 0.149630 0.337857
O O13 0.004383 0.817239 0.500000
O O14 0.122201 0.926212 0.604537
O O15 0.843658 0.911869 0.602131
O O16 0.134975 0.465008 0.829843
O O17 0.686608 0.007891 0.500000
#
# Coordination Sequence:
#
# PCOD9440767 Si02
#       7
#     8   8   8   8   8   8   8
#     4  10  19  26  44  67 100 133 158 196 237 299
#     4  10  19  32  49  72 102 134 165 204 251 302
#     4  10  17  27  47  73  98 124 158 203 252 300
#     4   9  18  31  47  70 100 132 167 202 245 298
#     4   9  18  30  45  69  95 127 161 199 250 296
#     4  10  20  29  46  69 103 136 167 194 247 299
#     4   9  17  29  47  68  96 126 161 201 244 297
#
# _framework density 26.170190999999999
#
# number of rings (size 3 to 8) (size 9 to 14) (size 15 to 20)
#    0.857    1.571    1.429    3.429    2.000    0.571 
#    0.000    0.000    0.000    0.000    0.000    4.000 
#    0.000   13.714    0.000    0.000    0.000    0.000 
#
# Total GULP energy -312841.537233 kJ/mol
# GULP energy per Si atom -5586.456022 kJ/mol
# Density = 2.611063 g / cm^3
# Si number density = 26.170191 Si / 1000 Ang^3
#
#
#
# Elastic Constant Matrix: (Units=GPa)
#
#
# Indices 1 2 3 4 5 6 
#
# 1 93.0405 -3.0726 57.8797 0.0000 0.0000 0.0000
# 2 -3.0726 109.4530 19.4202 0.0000 0.0000 0.0000
# 3 57.8797 19.4202 169.1722 0.0000 0.0000 0.0000
# 4 0.0000 0.0000 0.0000 33.4395 0.0000 0.0000
# 5 0.0000 0.0000 0.0000 0.0000 22.1932 0.0000
# 6 0.0000 0.0000 0.0000 0.0000 0.0000 20.9958
#
#
#
# Elastic Compliance Matrix: (Units=1/GPa)
#
#
# Indices 1 2 3 4 5 6 
#
# 1 0.013820 0.001252 -0.004872 0.000000 0.000000 0.000000
# 2 0.001252 0.009440 -0.001512 0.000000 0.000000 0.000000
# 3 -0.004872 -0.001512 0.007752 0.000000 0.000000 0.000000
# 4 0.000000 0.000000 0.000000 0.029905 0.000000 0.000000
# 5 0.000000 0.000000 0.000000 0.000000 0.045059 0.000000
# 6 0.000000 0.000000 0.000000 0.000000 0.000000 0.047628
#
#
# Mechanical properties :
#
#
# Convention : Reuss Voigt Hill
#
# Bulk Modulus (GPa) = 48.19741 57.79113 52.99427
# Shear Modulus (GPa) = 29.27682 35.15494 32.21588
#
# Velocity S-wave (km/s) = 3.34834 3.66911 3.51239
# Velocity P-wave (km/s) = 5.77974 6.33092 6.06160
#
# Compressibility (1/GPa) = 0.02074800
#
# Stress axis : x y z
#
# Youngs Moduli (GPa) = 72.35726 105.93442 129.00448
#
# Poissons Ratio (x) = -0.13268 0.62853
# Poissons Ratio (y) = -0.09062 0.19507
# Poissons Ratio (z) = 0.35254 0.16019
#
# Static dielectric constant tensor:
#      x y z
#    x 2.018340 0.000000 0.000000 
#    y 0.000000 2.228790 0.000000 
#    z 0.000000 0.000000 2.015120 
# 
# From -- ./inp_files/22392.got.cif
#   From: 2010.05.17/outbox.cif.g08.bks.cpg/sg58_12_cif.got.tgz:22392.got - 2010.06.03 14:20:14.
