data_PCOD9440535
_publ_section_title
;
Structure prediction by ZEFSAII (Michael W. Deem and Ramdas Pophale) SiO2 
 PCOD9440535
Probable space group: P B C M
;
_chemical_formula_sum "Si O2"
_cell_formula_units_Z 56
_cell_length_a 21.000000
_cell_length_b 15.000000
_cell_length_c 9.000000
_cell_angle_alpha 90.000000
_cell_angle_beta 90.000000
_cell_angle_gamma 90.000000
_cell_volume 2835.000000
_symmetry_space_group_name_H-M "P B C M"
_symmetry_group_IT_number 57
_symmetry_cell_setting 'orthorhombic'
loop_
_space_group_symop_operation_xyz
x,y,z
-x,-y,1/2+z
x,1/2-y,-z
-x,1/2+y,1/2-z
-x,-y,-z
x,y,1/2-z
-x,1/2+y,z
x,1/2-y,1/2+z
loop_
_atom_site_type_symbol
_atom_site_label
_atom_site_fract_x
_atom_site_fract_y
_atom_site_fract_z
Si Si1 0.643861 0.087057 0.573760
Si Si2 0.763553 0.034094 0.428270
Si Si3 0.090448 0.516193 0.072806
Si Si4 0.024256 0.349622 0.928867
Si Si5 0.581420 0.917749 0.424224
Si Si6 0.284388 0.160645 0.924567
Si Si7 0.529241 0.333447 0.925655
O O1 0.641408 0.069827 0.750000
O O2 0.715927 0.098012 0.518104
O O3 0.592372 0.159499 0.525961
O O4 0.617016 0.007922 0.469856
O O5 0.751452 0.041376 0.250000
O O6 0.837765 0.047319 0.456447
O O7 0.746717 0.932252 0.475924
O O8 0.084131 0.499282 0.250000
O O9 0.041322 0.596007 0.034952
O O10 0.074873 0.422914 0.990211
O O11 0.029369 0.341386 0.750000
O O12 0.027579 0.250000 0.000000
O O13 0.562299 0.917736 0.250000
O O14 0.639315 0.848304 0.444867
O O15 0.522049 0.908461 0.533859
O O16 0.272015 0.166393 0.750000
O O17 0.260333 0.250000 0.000000
O O18 0.540652 0.328194 0.750000
O O19 0.493948 0.250000 0.000000
#
# Coordination Sequence:
#
# PCOD9440535 Si02
#       7
#     8   8   8   8   8   8   8
#     4  11  22  37  56  79 105 138 179 221 268 324
#     4   9  19  37  56  76 106 145 184 225 274 324
#     4   9  19  37  60  84 114 153 194 235 279 328
#     4  10  20  35  58  88 120 153 189 231 278 330
#     4  10  20  36  55  76 102 137 178 222 274 329
#     4   9  18  30  47  71 102 136 172 217 269 326
#     4  12  24  38  55  77 104 135 174 224 277 328
#
# _framework density 19.753086
#
# number of rings (size 3 to 8) (size 9 to 14) (size 15 to 20)
#    0.000    2.000    0.000    5.143    0.000    5.714 
#    0.000    2.143    0.000    1.714    0.000    0.000 
#    0.000    0.000    0.000    0.000    0.000    0.000 
#
# Total GULP energy -312056.630877 kJ/mol
# GULP energy per Si atom -5572.439837 kJ/mol
# Density = 1.970813 g / cm^3
# Si number density = 19.753086 Si / 1000 Ang^3
#
#
#
# Elastic Constant Matrix: (Units=GPa)
#
#
# Indices 1 2 3 4 5 6 
#
# 1 83.1112 -13.0196 22.4150 0.0000 0.0000 0.0000
# 2 -13.0196 36.0888 -11.4956 0.0000 0.0000 0.0000
# 3 22.4150 -11.4956 51.9827 0.0000 0.0000 0.0000
# 4 0.0000 0.0000 0.0000 27.3287 0.0000 0.0000
# 5 0.0000 0.0000 0.0000 0.0000 27.4569 0.0000
# 6 0.0000 0.0000 0.0000 0.0000 0.0000 12.9105
#
#
#
# Elastic Compliance Matrix: (Units=1/GPa)
#
#
# Indices 1 2 3 4 5 6 
#
# 1 0.013984 0.003361 -0.005287 0.000000 0.000000 0.000000
# 2 0.003361 0.030617 0.005321 0.000000 0.000000 0.000000
# 3 -0.005287 0.005321 0.022694 0.000000 0.000000 0.000000
# 4 0.000000 0.000000 0.000000 0.036592 0.000000 0.000000
# 5 0.000000 0.000000 0.000000 0.000000 0.036421 0.000000
# 6 0.000000 0.000000 0.000000 0.000000 0.000000 0.077456
#
#
# Mechanical properties :
#
#
# Convention : Reuss Voigt Hill
#
# Bulk Modulus (GPa) = 13.49773 18.55360 16.02566
# Shear Modulus (GPa) = 21.21629 25.09141 23.15385
#
# Velocity S-wave (km/s) = 3.28086 3.56793 3.42740
# Velocity P-wave (km/s) = 4.60436 5.13679 4.87785
#
# Compressibility (1/GPa) = 0.07408652
#
# Stress axis : x y z
#
# Youngs Moduli (GPa) = 71.50801 32.66153 44.06516
#
# Poissons Ratio (x) = -0.10978 0.23297
# Poissons Ratio (y) = -0.24034 -0.23449
# Poissons Ratio (z) = 0.37805 -0.17381
#
# Static dielectric constant tensor:
#      x y z
#    x 1.754990 0.000000 0.000000 
#    y 0.000000 -1.399970 0.000000 
#    z 0.000000 0.000000 1.647580 
# 
# From -- ./inp_files/8163.got.cif
#   From: 2010.05.17/outbox.ucp.g08.bks.cvg/sg57_5_cif.got.tgz:8163.got - 2010.06.11 16:39:23.
