data_PCOD9440739
_publ_section_title
;
Structure prediction by ZEFSAII (Michael W. Deem and Ramdas Pophale) SiO2 
 PCOD9440739
Probable space group: P N N M
;
_chemical_formula_sum "Si O2"
_cell_formula_units_Z 64
_cell_length_a 13.707896
_cell_length_b 23.898807
_cell_length_c 8.092707
_cell_angle_alpha 90.000000
_cell_angle_beta 90.000000
_cell_angle_gamma 90.000000
_cell_volume 2651.189919
_symmetry_space_group_name_H-M "P N N M"
_symmetry_group_IT_number 58
_symmetry_cell_setting 'orthorhombic'
loop_
_space_group_symop_operation_xyz
x,y,z
-x,-y,z
1/2+x,1/2-y,1/2-z
1/2-x,1/2+y,1/2-z
-x,-y,-z
x,y,-z
1/2-x,1/2+y,1/2+z
1/2+x,1/2-y,1/2+z
loop_
_atom_site_type_symbol
_atom_site_label
_atom_site_fract_x
_atom_site_fract_y
_atom_site_fract_z
Si Si1 0.656681 0.315914 0.188695
Si Si2 0.914348 0.418173 0.799549
Si Si3 0.381288 0.324096 0.312335
Si Si4 0.828049 0.058328 0.696989
Si Si5 0.891048 0.295937 0.192457
Si Si6 0.386641 0.907330 0.193100
Si Si7 0.308634 0.562402 0.798177
Si Si8 0.178074 0.297332 0.181902
O O1 0.773505 0.304965 0.186164
O O2 0.645227 0.378514 0.258736
O O3 0.624516 0.260770 0.285298
O O4 0.620670 0.314309 0.000000
O O5 0.919947 0.354531 0.728731
O O6 0.806692 0.439793 0.750158
O O7 0.018023 0.442128 0.742844
O O8 0.912823 0.417682 0.000000
O O9 0.415889 0.326550 0.500000
O O10 0.390448 0.386205 0.238938
O O11 0.415231 0.265037 0.233170
O O12 0.264511 0.312157 0.308357
O O13 0.819811 0.057339 0.500000
O O14 0.718629 0.066314 0.766944
O O15 0.859307 0.995858 0.750643
O O16 0.922824 0.294481 0.000000
O O17 0.388669 0.851120 0.302938
O O18 0.390294 0.894759 0.000000
O O19 0.310334 0.566333 0.000000
O O20 0.223257 0.295347 0.000000
#
# Coordination Sequence:
#
# PCOD9440739 Si02
#       8
#     8   8   8   8   8   8   8   8
#     4   8  13  26  44  61  79 102 129 164 207 250
#     4   9  16  30  46  59  76 106 144 178 203 239
#     4   9  15  26  42  60  80 105 132 166 210 251
#     4  10  18  29  43  61  82 111 147 177 199 235
#     4   7  12  23  42  60  75  97 129 164 206 250
#     4  11  21  31  40  56  82 113 142 174 211 245
#     4   8  16  29  46  62  81 111 145 172 203 243
#     4  10  17  26  41  61  79 101 132 169 207 247
#
# _framework density 24.140104999999998
#
# number of rings (size 3 to 8) (size 9 to 14) (size 15 to 20)
#    0.000    3.000    0.000    6.750    0.000    0.500 
#    0.000   11.250    0.000    0.000    0.000    0.000 
#    0.000    1.000    0.000   11.500    0.000    4.000 
#
# Total GULP energy -356472.493226 kJ/mol
# GULP energy per Si atom -5569.882707 kJ/mol
# Density = 2.408516 g / cm^3
# Si number density = 24.140105 Si / 1000 Ang^3
#
#
#
# Elastic Constant Matrix: (Units=GPa)
#
#
# Indices 1 2 3 4 5 6 
#
# 1 39.0104 -20.2552 -6.0630 0.0000 0.0000 0.0000
# 2 -20.2552 200.6607 24.3592 0.0000 0.0000 0.0000
# 3 -6.0630 24.3592 61.6581 0.0000 0.0000 0.0000
# 4 0.0000 0.0000 0.0000 22.5378 0.0000 0.0000
# 5 0.0000 0.0000 0.0000 0.0000 22.1729 0.0000
# 6 0.0000 0.0000 0.0000 0.0000 0.0000 -15.4598
#
#
#
# Elastic Compliance Matrix: (Units=1/GPa)
#
#
# Indices 1 2 3 4 5 6 
#
# 1 0.027215 0.002544 0.001671 0.000000 0.000000 0.000000
# 2 0.002544 0.005472 -0.001912 0.000000 0.000000 0.000000
# 3 0.001671 -0.001912 0.017138 0.000000 0.000000 0.000000
# 4 0.000000 0.000000 0.000000 0.044370 0.000000 0.000000
# 5 0.000000 0.000000 0.000000 0.000000 0.045100 0.000000
# 6 0.000000 0.000000 0.000000 0.000000 0.000000 -0.064684
#
#
# Mechanical properties :
#
#
# Convention : Reuss Voigt Hill
#
# Bulk Modulus (GPa) = 18.37144 33.04569 25.70856
# Shear Modulus (GPa) = 56.72222 26.06938 41.39580
#
# Velocity S-wave (km/s) = 4.85264 3.28978 4.14552
# Velocity P-wave (km/s) = 6.24695 5.30557 5.79540
#
# Compressibility (1/GPa) = 0.05443232
#
# Stress axis : x y z
#
# Youngs Moduli (GPa) = 36.74452 182.73355 58.34958
#
# Poissons Ratio (x) = -0.46493 -0.09750
# Poissons Ratio (y) = -0.09349 0.11155
# Poissons Ratio (z) = -0.06140 0.34935
#
# Static dielectric constant tensor:
#      x y z
#    x 1.974550 0.000000 0.000000 
#    y 0.000000 2.091370 0.000000 
#    z 0.000000 0.000000 1.859370 
# 
# From -- ./inp_files/9503.got.cif
#   From: 2010.05.17/outbox.cif.g08.bks.cpg/sg58_5_cif.got.tgz:9503.got - 2010.06.03 14:20:14.
