data_PCOD9440014
_publ_section_title
;
Structure prediction by ZEFSAII (Michael W. Deem and Ramdas Pophale) SiO2 
 PCOD9440014
Probable space group: P B C M
;
_chemical_formula_sum "Si O2"
_cell_formula_units_Z 40
_cell_length_a 27.519951
_cell_length_b 9.243694
_cell_length_c 8.518556
_cell_angle_alpha 90.000000
_cell_angle_beta 90.000000
_cell_angle_gamma 90.000000
_cell_volume 2167.001437
_symmetry_space_group_name_H-M "P B C M"
_symmetry_group_IT_number 57
_symmetry_cell_setting 'orthorhombic'
loop_
_space_group_symop_operation_xyz
x,y,z
-x,-y,1/2+z
x,1/2-y,-z
-x,1/2+y,1/2-z
-x,-y,-z
x,y,1/2-z
-x,1/2+y,z
x,1/2-y,1/2+z
loop_
_atom_site_type_symbol
_atom_site_label
_atom_site_fract_x
_atom_site_fract_y
_atom_site_fract_z
Si Si1 0.852498 0.084067 0.561306
Si Si2 0.358381 0.585575 0.939834
Si Si3 0.252434 0.915125 0.439359
Si Si4 0.953867 0.414040 0.936727
Si Si5 0.546379 0.587346 0.061333
O O1 0.851607 0.250000 0.500000
O O2 0.855660 0.085170 0.750000
O O3 0.799872 0.019813 0.512486
O O4 0.902277 0.020481 0.493808
O O5 0.359059 0.589872 0.750000
O O6 0.305118 0.525633 0.989549
O O7 0.403910 0.490657 0.992581
O O8 0.363182 0.750000 0.000000
O O9 0.252576 0.750000 0.500000
O O10 0.252040 0.912858 0.250000
O O11 0.954280 0.411078 0.750000
O O12 0.956438 0.250000 0.000000
O O13 0.000000 0.500000 0.000000
O O14 0.545609 0.587347 0.250000
O O15 0.544593 0.750000 0.000000
O O16 0.500000 0.500000 0.000000
#
# Coordination Sequence:
#
# PCOD9440014 Si02
#       5
#     8   8   8   8   8
#     4   9  15  25  43  68  96 127 162 203 249 297
#     4   9  18  32  51  76 103 132 164 203 249 299
#     4   8  14  25  43  68  97 126 159 199 245 293
#     4  11  21  34  51  73 101 133 170 212 257 305
#     4  11  23  38  56  77 104 136 173 213 256 302
#
# _framework density 18.458687999999999
#
# number of rings (size 3 to 8) (size 9 to 14) (size 15 to 20)
#    0.000    2.400    0.000    4.800    0.000    4.000 
#    0.000    0.000    0.000    1.200    0.000    2.800 
#    0.000    0.000    0.000    0.000    0.000    0.000 
#
# Total GULP energy -222854.864984 kJ/mol
# GULP energy per Si atom -5571.371625 kJ/mol
# Density = 1.841667 g / cm^3
# Si number density = 18.458688 Si / 1000 Ang^3
#
#
#
# Elastic Constant Matrix: (Units=GPa)
#
#
# Indices 1 2 3 4 5 6 
#
# 1 253.7828 68.8162 51.6368 0.0000 0.0000 0.0000
# 2 68.8162 54.6702 16.4178 0.0000 0.0000 0.0000
# 3 51.6368 16.4178 67.2083 0.0000 0.0000 0.0000
# 4 0.0000 0.0000 0.0000 20.8772 0.0000 0.0000
# 5 0.0000 0.0000 0.0000 0.0000 27.1817 0.0000
# 6 0.0000 0.0000 0.0000 0.0000 0.0000 27.7677
#
#
#
# Elastic Compliance Matrix: (Units=1/GPa)
#
#
# Indices 1 2 3 4 5 6 
#
# 1 0.006589 -0.007310 -0.003277 0.000000 0.000000 0.000000
# 2 -0.007310 0.027850 -0.001187 0.000000 0.000000 0.000000
# 3 -0.003277 -0.001187 0.017687 0.000000 0.000000 0.000000
# 4 0.000000 0.000000 0.000000 0.047899 0.000000 0.000000
# 5 0.000000 0.000000 0.000000 0.000000 0.036789 0.000000
# 6 0.000000 0.000000 0.000000 0.000000 0.000000 0.036013
#
#
# Mechanical properties :
#
#
# Convention : Reuss Voigt Hill
#
# Bulk Modulus (GPa) = 34.99179 72.15587 53.57383
# Shear Modulus (GPa) = 24.28347 31.08468 27.68408
#
# Velocity S-wave (km/s) = 3.63100 4.10813 3.87691
# Velocity P-wave (km/s) = 6.04788 7.85351 7.00908
#
# Compressibility (1/GPa) = 0.02857813
#
# Stress axis : x y z
#
# Youngs Moduli (GPa) = 151.75849 35.90697 56.53977
#
# Poissons Ratio (x) = 0.26249 0.18528
# Poissons Ratio (y) = 1.10941 0.06709
# Poissons Ratio (z) = 0.49730 0.04261
#
# Static dielectric constant tensor:
#      x y z
#    x 1.722530 0.000000 0.000000 
#    y 0.000000 1.594160 0.000000 
#    z 0.000000 0.000000 1.628440 
# 
# From -- ./inp_files/9630.got.cif
#   From: 2010.05.17/outbox.cif.g08.bks.cpg/sg57_5_cif.got.tgz:9630.got - 2010.06.03 13:58:18.
