data_PCOD9440593
_publ_section_title
;
Structure prediction by ZEFSAII (Michael W. Deem and Ramdas Pophale) SiO2 
 PCOD9440593
Probable space group: P B C M
;
_chemical_formula_sum "Si O2"
_cell_formula_units_Z 40
_cell_length_a 24.000000
_cell_length_b 9.000000
_cell_length_c 9.000000
_cell_angle_alpha 90.000000
_cell_angle_beta 90.000000
_cell_angle_gamma 90.000000
_cell_volume 1944.000000
_symmetry_space_group_name_H-M "P B C M"
_symmetry_group_IT_number 57
_symmetry_cell_setting 'orthorhombic'
loop_
_space_group_symop_operation_xyz
x,y,z
-x,-y,1/2+z
x,1/2-y,-z
-x,1/2+y,1/2-z
-x,-y,-z
x,y,1/2-z
-x,1/2+y,z
x,1/2-y,1/2+z
loop_
_atom_site_type_symbol
_atom_site_label
_atom_site_fract_x
_atom_site_fract_y
_atom_site_fract_z
Si Si1 0.658431 0.910324 0.426643
Si Si2 0.137757 0.618545 0.082645
Si Si3 0.040918 0.103571 0.587663
Si Si4 0.252757 0.597832 0.926302
Si Si5 0.449228 0.085779 0.071157
O O1 0.657275 0.750000 0.500000
O O2 0.651456 0.907570 0.250000
O O3 0.607049 0.989973 0.508687
O O4 0.716026 0.975383 0.479743
O O5 0.156875 0.659977 0.250000
O O6 0.099191 0.479135 0.097086
O O7 0.104621 0.750000 0.000000
O O8 0.188496 0.590285 0.972163
O O9 0.049733 0.250000 0.500000
O O10 0.017771 0.134491 0.750000
O O11 0.000000 0.000000 0.500000
O O12 0.261707 0.588987 0.750000
O O13 0.273961 0.750000 0.000000
O O14 0.449581 0.091415 0.250000
O O15 0.452308 0.250000 0.000000
O O16 0.500000 0.000000 0.000000
#
# Coordination Sequence:
#
# PCOD9440593 Si02
#       5
#     8   8   8   8   8
#     4  11  22  39  60  85 116 152 191 236 287 343
#     4  10  21  38  59  85 115 151 191 237 287 341
#     4  11  24  40  61  87 118 153 194 238 287 341
#     4  11  22  38  60  87 117 153 193 238 286 340
#     4  11  22  39  60  86 116 151 192 237 288 343
#
# _framework density 20.576132000000001
#
# number of rings (size 3 to 8) (size 9 to 14) (size 15 to 20)
#    0.000    1.200    0.000    9.600    0.000    6.400 
#    0.000    6.000    0.000    0.000    0.000    0.000 
#    0.000    0.000    0.000    0.000    0.000    0.000 
#
# Total GULP energy -222870.638830 kJ/mol
# GULP energy per Si atom -5571.765971 kJ/mol
# Density = 2.052930 g / cm^3
# Si number density = 20.576132 Si / 1000 Ang^3
#
#
#
# Elastic Constant Matrix: (Units=GPa)
#
#
# Indices 1 2 3 4 5 6 
#
# 1 39.2926 42.2184 40.3039 0.0000 0.0000 0.0000
# 2 42.2184 75.1076 51.7087 0.0000 0.0000 0.0000
# 3 40.3039 51.7087 230.3054 0.0000 0.0000 0.0000
# 4 0.0000 0.0000 0.0000 30.2834 0.0000 0.0000
# 5 0.0000 0.0000 0.0000 0.0000 294.0237 0.0000
# 6 0.0000 0.0000 0.0000 0.0000 0.0000 28.2575
#
#
#
# Elastic Compliance Matrix: (Units=1/GPa)
#
#
# Indices 1 2 3 4 5 6 
#
# 1 0.067057 -0.035028 -0.003870 0.000000 0.000000 0.000000
# 2 -0.035028 0.034046 -0.001514 0.000000 0.000000 0.000000
# 3 -0.003870 -0.001514 0.005359 0.000000 0.000000 0.000000
# 4 0.000000 0.000000 0.000000 0.033021 0.000000 0.000000
# 5 0.000000 0.000000 0.000000 0.000000 0.003401 0.000000
# 6 0.000000 0.000000 0.000000 0.000000 0.000000 0.035389
#
#
# Mechanical properties :
#
#
# Convention : Reuss Voigt Hill
#
# Bulk Modulus (GPa) = 39.00672 68.12973 53.56823
# Shear Modulus (GPa) = 18.68149 84.54455 51.61302
#
# Velocity S-wave (km/s) = 3.01644 6.41700 5.01382
# Velocity P-wave (km/s) = 5.57945 9.38545 7.72066
#
# Compressibility (1/GPa) = 0.02563661
#
# Stress axis : x y z
#
# Youngs Moduli (GPa) = 14.91277 29.37185 186.58997
#
# Poissons Ratio (x) = 1.02884 0.72218
# Poissons Ratio (y) = 0.52237 0.28252
# Poissons Ratio (z) = 0.05772 0.04447
#
# Static dielectric constant tensor:
#      x y z
#    x 1.911770 0.000000 0.000000 
#    y 0.000000 1.617600 0.000000 
#    z 0.000000 0.000000 1.672510 
# 
# From -- ./inp_files/8925.got.cif
#   From: 2010.05.17/outbox.ucp.g08.bks.cvg/sg57_5_cif.got.tgz:8925.got - 2010.06.11 16:39:23.
