data_PCOD9440949
_publ_section_title
;
Structure prediction by ZEFSAII (Michael W. Deem and Ramdas Pophale) SiO2 
 PCOD9440949
Probable space group: P N N M
;
_chemical_formula_sum "Si O2"
_cell_formula_units_Z 48
_cell_length_a 7.334810
_cell_length_b 29.909449
_cell_length_c 13.586338
_cell_angle_alpha 90.000000
_cell_angle_beta 90.000000
_cell_angle_gamma 90.000000
_cell_volume 2980.572537
_symmetry_space_group_name_H-M "P N N M"
_symmetry_group_IT_number 58
_symmetry_cell_setting 'orthorhombic'
loop_
_space_group_symop_operation_xyz
x,y,z
-x,-y,z
1/2+x,1/2-y,1/2-z
1/2-x,1/2+y,1/2-z
-x,-y,-z
x,y,-z
1/2-x,1/2+y,1/2+z
1/2+x,1/2-y,1/2+z
loop_
_atom_site_type_symbol
_atom_site_label
_atom_site_fract_x
_atom_site_fract_y
_atom_site_fract_z
Si Si1 0.865481 0.176209 0.385884
Si Si2 0.005335 0.701072 0.213153
Si Si3 0.331254 0.751439 0.114716
Si Si4 0.621515 0.888284 0.613351
Si Si5 0.989593 0.079474 0.380293
Si Si6 0.347509 0.968152 0.613515
O O1 0.821339 0.169288 0.500000
O O2 0.690030 0.199419 0.340272
O O3 0.042101 0.207334 0.379836
O O4 0.914595 0.127526 0.344488
O O5 0.141922 0.738284 0.168428
O O6 0.948442 0.712054 0.324885
O O7 0.093444 0.653180 0.185945
O O8 0.302106 0.762417 0.000000
O O9 0.651685 0.871614 0.500000
O O10 0.445290 0.919803 0.610847
O O11 0.795775 0.918801 0.640420
O O12 0.976137 0.078054 0.500000
O O13 0.853112 0.040844 0.344441
O O14 0.322831 0.984523 0.500000
O O15 0.500000 0.000000 0.660446
#
# Coordination Sequence:
#
# PCOD9440949 Si02
#       6
#     8   8   8   8   8   8
#     4  10  18  30  47  66  90 121 160 199 230 274
#     4  12  20  33  50  68  91 127 163 197 246 280
#     4  11  23  34  47  72  97 121 163 206 240 285
#     4  10  18  28  46  66  87 123 165 197 231 285
#     4   9  16  26  42  63  87 117 155 194 225 270
#     4   9  17  27  39  61  93 126 157 192 238 284
#
# _framework density 16.104288
#
# number of rings (size 3 to 8) (size 9 to 14) (size 15 to 20)
#    0.000    1.833    5.000    1.500    0.000    0.667 
#    0.000    3.333    0.000    0.000    0.000    0.000 
#    0.000    0.667    0.000    1.667    0.000    0.333 
#
# Total GULP energy -267273.427219 kJ/mol
# GULP energy per Si atom -5568.196400 kJ/mol
# Density = 1.606763 g / cm^3
# Si number density = 16.104288 Si / 1000 Ang^3
#
#
#
# Elastic Constant Matrix: (Units=GPa)
#
#
# Indices 1 2 3 4 5 6 
#
# 1 98.6877 10.0773 21.1430 0.0000 0.0000 0.0000
# 2 10.0773 37.0399 11.4482 0.0000 0.0000 0.0000
# 3 21.1430 11.4482 44.2095 0.0000 0.0000 0.0000
# 4 0.0000 0.0000 0.0000 11.5056 0.0000 0.0000
# 5 0.0000 0.0000 0.0000 0.0000 16.1164 0.0000
# 6 0.0000 0.0000 0.0000 0.0000 0.0000 32.0812
#
#
#
# Elastic Compliance Matrix: (Units=1/GPa)
#
#
# Indices 1 2 3 4 5 6 
#
# 1 0.011369 -0.001536 -0.005040 0.000000 0.000000 0.000000
# 2 -0.001536 0.029554 -0.006919 0.000000 0.000000 0.000000
# 3 -0.005040 -0.006919 0.026821 0.000000 0.000000 0.000000
# 4 0.000000 0.000000 0.000000 0.086914 0.000000 0.000000
# 5 0.000000 0.000000 0.000000 0.000000 0.062048 0.000000
# 6 0.000000 0.000000 0.000000 0.000000 0.000000 0.031171
#
#
# Mechanical properties :
#
#
# Convention : Reuss Voigt Hill
#
# Bulk Modulus (GPa) = 24.53576 29.47491 27.00533
# Shear Modulus (GPa) = 17.33389 21.09190 19.21290
#
# Velocity S-wave (km/s) = 3.28434 3.62291 3.45777
# Velocity P-wave (km/s) = 5.44529 5.98690 5.72250
#
# Compressibility (1/GPa) = 0.04075684
#
# Stress axis : x y z
#
# Youngs Moduli (GPa) = 87.95464 33.83625 37.28353
#
# Poissons Ratio (x) = 0.05196 0.18790
# Poissons Ratio (y) = 0.13506 0.25796
# Poissons Ratio (z) = 0.44327 0.23411
#
# Static dielectric constant tensor:
#      x y z
#    x 1.596700 0.000000 0.000000 
#    y 0.000000 1.599670 0.000000 
#    z 0.000000 0.000000 1.503710 
# 
# From -- ./inp_files/13319.got.cif
#   From: 2010.05.17/outbox.cif.g08.bks.cpg/sg58_7_cif.got.tgz:13319.got - 2010.06.03 14:20:14.
