data_PCOD9440692
_publ_section_title
;
Structure prediction by ZEFSAII (Michael W. Deem and Ramdas Pophale) SiO2 
 PCOD9440692
Probable space group: P N N M
;
_chemical_formula_sum "Si O2"
_cell_formula_units_Z 28
_cell_length_a 7.157176
_cell_length_b 5.192389
_cell_length_c 30.739171
_cell_angle_alpha 90.000000
_cell_angle_beta 90.000000
_cell_angle_gamma 90.000000
_cell_volume 1142.354953
_symmetry_space_group_name_H-M "P N N M"
_symmetry_group_IT_number 58
_symmetry_cell_setting 'orthorhombic'
loop_
_space_group_symop_operation_xyz
x,y,z
-x,-y,z
1/2+x,1/2-y,1/2-z
1/2-x,1/2+y,1/2-z
-x,-y,-z
x,y,-z
1/2-x,1/2+y,1/2+z
1/2+x,1/2-y,1/2+z
loop_
_atom_site_type_symbol
_atom_site_label
_atom_site_fract_x
_atom_site_fract_y
_atom_site_fract_z
Si Si1 0.210971 0.060716 0.627681
Si Si2 0.794372 0.390389 0.223675
Si Si3 0.723125 0.934318 0.909411
Si Si4 0.866483 0.251850 0.500000
O O1 0.302123 0.280287 0.597796
O O2 0.202824 0.159420 0.676838
O O3 0.292652 0.773218 0.625657
O O4 0.000000 0.000000 0.611925
O O5 0.801087 0.126363 0.250577
O O6 0.000000 0.500000 0.215400
O O7 0.500000 0.000000 0.904059
O O8 0.747868 0.793660 0.955679
O O9 0.000000 0.500000 0.500000
O O10 0.000000 0.000000 0.500000
#
# Coordination Sequence:
#
# PCOD9440692 Si02
#       4
#     8   8   8   4
#     4  10  19  33  52  78 110 146 186 233 286 340
#     4  12  25  42  63  88 117 154 197 246 299 358
#     4   9  17  28  47  75 109 146 183 229 282 332
#     4  10  16  26  44  74 113 148 185 232 285 336
#
# _framework density 24.510770999999998
#
# number of rings (size 3 to 8) (size 9 to 14) (size 15 to 20)
#    0.000    1.714    0.000    8.571    0.000    2.286 
#    0.000    0.000    0.000    0.000    0.000    6.000 
#    0.000    0.000    0.000    0.000    0.000    0.000 
#
# Total GULP energy -156298.360181 kJ/mol
# GULP energy per Si atom -5582.084292 kJ/mol
# Density = 2.445498 g / cm^3
# Si number density = 24.510771 Si / 1000 Ang^3
#
#
#
# Elastic Constant Matrix: (Units=GPa)
#
#
# Indices 1 2 3 4 5 6 
#
# 1 51.3409 4.3855 -19.4486 0.0000 0.0000 0.0000
# 2 4.3855 212.9654 66.8984 0.0000 0.0000 0.0000
# 3 -19.4486 66.8984 128.5211 0.0000 0.0000 0.0000
# 4 0.0000 0.0000 0.0000 42.9159 0.0000 0.0000
# 5 0.0000 0.0000 0.0000 0.0000 16.6530 0.0000
# 6 0.0000 0.0000 0.0000 0.0000 0.0000 6.1670
#
#
#
# Elastic Compliance Matrix: (Units=1/GPa)
#
#
# Indices 1 2 3 4 5 6 
#
# 1 0.021179 -0.001725 0.004103 0.000000 0.000000 0.000000
# 2 -0.001725 0.005754 -0.003256 0.000000 0.000000 0.000000
# 3 0.004103 -0.003256 0.010097 0.000000 0.000000 0.000000
# 4 0.000000 0.000000 0.000000 0.023301 0.000000 0.000000
# 5 0.000000 0.000000 0.000000 0.000000 0.060049 0.000000
# 6 0.000000 0.000000 0.000000 0.000000 0.000000 0.162153
#
#
# Mechanical properties :
#
#
# Convention : Reuss Voigt Hill
#
# Bulk Modulus (GPa) = 28.35007 55.16646 41.75826
# Shear Modulus (GPa) = 16.88920 35.87999 26.38460
#
# Velocity S-wave (km/s) = 2.62783 3.83017 3.28449
# Velocity P-wave (km/s) = 4.56057 6.48970 5.60870
#
# Compressibility (1/GPa) = 0.03527328
#
# Stress axis : x y z
#
# Youngs Moduli (GPa) = 47.21615 173.79361 99.04354
#
# Poissons Ratio (x) = 0.29979 -0.40636
# Poissons Ratio (y) = 0.08145 0.32250
# Poissons Ratio (z) = -0.19372 0.56589
#
# Static dielectric constant tensor:
#      x y z
#    x 2.020890 0.000000 0.000000 
#    y 0.000000 1.964000 0.000000 
#    z 0.000000 0.000000 2.017990 
# 
# From -- ./inp_files/34318.got.cif
#   From: 2010.05.17/outbox.cif.g08.bks.cpg/sg58_18_cif.got.tgz:34318.got - 2010.06.03 14:20:14.
