data_PCOD9440493
_publ_section_title
;
Structure prediction by ZEFSAII (Michael W. Deem and Ramdas Pophale) SiO2 
 PCOD9440493
Probable space group: P B C M
;
_chemical_formula_sum "Si O2"
_cell_formula_units_Z 64
_cell_length_a 15.000000
_cell_length_b 24.000000
_cell_length_c 9.000000
_cell_angle_alpha 90.000000
_cell_angle_beta 90.000000
_cell_angle_gamma 90.000000
_cell_volume 3240.000000
_symmetry_space_group_name_H-M "P B C M"
_symmetry_group_IT_number 57
_symmetry_cell_setting 'orthorhombic'
loop_
_space_group_symop_operation_xyz
x,y,z
-x,-y,1/2+z
x,1/2-y,-z
-x,1/2+y,1/2-z
-x,-y,-z
x,y,1/2-z
-x,1/2+y,z
x,1/2-y,1/2+z
loop_
_atom_site_type_symbol
_atom_site_label
_atom_site_fract_x
_atom_site_fract_y
_atom_site_fract_z
Si Si1 0.081879 0.364266 0.928773
Si Si2 0.888153 0.105678 0.073584
Si Si3 0.865389 0.510039 0.420219
Si Si4 0.702757 0.126191 0.572567
Si Si5 0.392420 0.110506 0.430484
Si Si6 0.467809 0.691501 0.573422
Si Si7 0.347346 0.508190 0.920498
Si Si8 0.246121 0.309306 0.071680
O O1 0.096519 0.357453 0.750000
O O2 0.106773 0.428333 0.967194
O O3 0.977144 0.359832 0.961583
O O4 0.146021 0.324005 0.019689
O O5 0.878506 0.103985 0.250000
O O6 0.798820 0.129735 0.001123
O O7 0.898221 0.042045 0.015977
O O8 0.895919 0.502086 0.250000
O O9 0.757805 0.507434 0.419753
O O10 0.715951 0.117903 0.750000
O O11 0.636163 0.177063 0.551777
O O12 0.653543 0.069980 0.513089
O O13 0.386072 0.111251 0.250000
O O14 0.475801 0.144435 0.491048
O O15 0.395170 0.046175 0.483734
O O16 0.307887 0.142697 0.500144
O O17 0.490589 0.750000 0.500000
O O18 0.486798 0.691189 0.750000
O O19 0.378758 0.513602 0.750000
O O20 0.254671 0.307973 0.250000
O O21 0.271988 0.250000 0.000000
#
# Coordination Sequence:
#
# PCOD9440493 Si02
#       8
#     8   8   8   8   8   8   8   8
#     4  10  20  36  55  80 116 156 195 239 288 337
#     4  10  20  32  54  87 119 149 191 241 287 340
#     4   9  16  31  53  78 117 160 192 227 279 340
#     4   9  20  40  61  82 116 158 196 239 293 350
#     4  11  21  38  63  89 120 152 187 232 292 355
#     4  11  24  42  63  87 113 147 197 246 291 347
#     4   8  15  31  57  85 115 154 187 223 282 345
#     4  12  25  40  59  83 115 154 199 245 291 350
#
# _framework density 19.753086
#
# number of rings (size 3 to 8) (size 9 to 14) (size 15 to 20)
#    0.000    2.000    1.250    3.750    0.000    3.000 
#    0.000    1.250    0.000    1.500    0.000    0.000 
#    0.000    0.000    0.000    0.000    0.000    0.000 
#
# Total GULP energy -357261.567911 kJ/mol
# GULP energy per Si atom -5582.211999 kJ/mol
# Density = 1.970813 g / cm^3
# Si number density = 19.753086 Si / 1000 Ang^3
#
#
#
# Elastic Constant Matrix: (Units=GPa)
#
#
# Indices 1 2 3 4 5 6 
#
# 1 64.4177 20.7406 26.7586 0.0000 0.0000 0.0000
# 2 20.7406 22.3863 12.8730 0.0000 0.0000 0.0000
# 3 26.7586 12.8730 69.1916 0.0000 0.0000 0.0000
# 4 0.0000 0.0000 0.0000 19.7138 0.0000 0.0000
# 5 0.0000 0.0000 0.0000 0.0000 27.4323 0.0000
# 6 0.0000 0.0000 0.0000 0.0000 0.0000 17.0168
#
#
#
# Elastic Compliance Matrix: (Units=1/GPa)
#
#
# Indices 1 2 3 4 5 6 
#
# 1 0.024014 -0.018934 -0.005764 0.000000 0.000000 0.000000
# 2 -0.018934 0.064951 -0.004761 0.000000 0.000000 0.000000
# 3 -0.005764 -0.004761 0.017568 0.000000 0.000000 0.000000
# 4 0.000000 0.000000 0.000000 0.050726 0.000000 0.000000
# 5 0.000000 0.000000 0.000000 0.000000 0.036453 0.000000
# 6 0.000000 0.000000 0.000000 0.000000 0.000000 0.058765
#
#
# Mechanical properties :
#
#
# Convention : Reuss Voigt Hill
#
# Bulk Modulus (GPa) = 21.00292 30.74889 25.87591
# Shear Modulus (GPa) = 15.27798 19.20749 17.24273
#
# Velocity S-wave (km/s) = 2.78411 3.12168 2.95772
# Velocity P-wave (km/s) = 4.58158 5.34730 4.97918
#
# Compressibility (1/GPa) = 0.04761242
#
# Stress axis : x y z
#
# Youngs Moduli (GPa) = 41.64159 15.39634 56.92236
#
# Poissons Ratio (x) = 0.29152 0.32813
# Poissons Ratio (y) = 0.78845 0.27103
# Poissons Ratio (z) = 0.24004 0.07331
#
# Static dielectric constant tensor:
#      x y z
#    x 1.728610 0.000000 0.000000 
#    y 0.000000 1.702650 0.000000 
#    z 0.000000 0.000000 1.665620 
# 
# From -- ./inp_files/5564.got.cif
#   From: 2010.05.17/outbox.ucp.g08.bks.cvg/sg57_3_cif.got.tgz:5564.got - 2010.06.11 16:39:23.
