data_PCOD9440346
_publ_section_title
;
Structure prediction by ZEFSAII (Michael W. Deem and Ramdas Pophale) SiO2 
 PCOD9440346
Probable space group: P B C M
;
_chemical_formula_sum "Si O2"
_cell_formula_units_Z 24
_cell_length_a 5.832382
_cell_length_b 28.758143
_cell_length_c 5.428765
_cell_angle_alpha 90.000000
_cell_angle_beta 90.000000
_cell_angle_gamma 90.000000
_cell_volume 910.558478
_symmetry_space_group_name_H-M "P B C M"
_symmetry_group_IT_number 57
_symmetry_cell_setting 'orthorhombic'
loop_
_space_group_symop_operation_xyz
x,y,z
-x,-y,1/2+z
x,1/2-y,-z
-x,1/2+y,1/2-z
-x,-y,-z
x,y,1/2-z
-x,1/2+y,z
x,1/2-y,1/2+z
loop_
_atom_site_type_symbol
_atom_site_label
_atom_site_fract_x
_atom_site_fract_y
_atom_site_fract_z
Si Si1 0.122889 0.897691 0.750000
Si Si2 0.006788 0.730956 0.750000
Si Si3 0.388334 0.806513 0.750000
Si Si4 0.127418 0.073469 0.750000
Si Si5 0.621441 0.014829 0.250000
Si Si6 0.644165 0.661870 0.750000
O O1 0.180466 0.843566 0.750000
O O2 0.993867 0.912256 0.502777
O O3 0.346194 0.930207 0.750000
O O4 0.900584 0.750000 0.500000
O O5 0.912889 0.678514 0.750000
O O6 0.257782 0.756362 0.750000
O O7 0.525688 0.818902 0.499779
O O8 0.155357 0.018092 0.750000
O O9 0.355904 0.105931 0.750000
O O10 0.500000 0.000000 0.500000
#
# Coordination Sequence:
#
# PCOD9440346 Si02
#       6
#     4   4   4   4   4   4
#     4  12  24  44  69 100 140 182 229 284 350 417
#     4  12  26  46  68 100 136 178 232 290 346 416
#     4  12  26  46  72 102 139 185 233 289 355 420
#     4  12  24  44  69 100 140 182 229 284 350 417
#     4  12  24  42  68 102 138 178 232 284 342 420
#     4  12  26  46  72 102 139 185 233 289 355 420
#
# _framework density 26.357451000000001
#
# number of rings (size 3 to 8) (size 9 to 14) (size 15 to 20)
#    0.000    0.000    0.000   11.000    0.000    4.000 
#    0.000    0.000    0.000    0.000    0.000    0.000 
#    0.000    0.000    0.000    0.000    0.000    0.000 
#
# Total GULP energy -134201.173095 kJ/mol
# GULP energy per Si atom -5591.715546 kJ/mol
# Density = 2.629746 g / cm^3
# Si number density = 26.357451 Si / 1000 Ang^3
#
#
#
# Elastic Constant Matrix: (Units=GPa)
#
#
# Indices 1 2 3 4 5 6 
#
# 1 46.1300 16.2123 45.3857 0.0000 0.0000 0.0000
# 2 16.2123 78.0148 10.0582 0.0000 0.0000 0.0000
# 3 45.3857 10.0582 261.2144 0.0000 0.0000 0.0000
# 4 0.0000 0.0000 0.0000 65.3813 0.0000 0.0000
# 5 0.0000 0.0000 0.0000 0.0000 48.7491 0.0000
# 6 0.0000 0.0000 0.0000 0.0000 0.0000 75.8103
#
#
#
# Elastic Compliance Matrix: (Units=1/GPa)
#
#
# Indices 1 2 3 4 5 6 
#
# 1 0.028130 -0.005242 -0.004686 0.000000 0.000000 0.000000
# 2 -0.005242 0.013859 0.000377 0.000000 0.000000 0.000000
# 3 -0.004686 0.000377 0.004628 0.000000 0.000000 0.000000
# 4 0.000000 0.000000 0.000000 0.015295 0.000000 0.000000
# 5 0.000000 0.000000 0.000000 0.000000 0.020513 0.000000
# 6 0.000000 0.000000 0.000000 0.000000 0.000000 0.013191
#
#
# Mechanical properties :
#
#
# Convention : Reuss Voigt Hill
#
# Bulk Modulus (GPa) = 36.34220 58.74129 47.54174
# Shear Modulus (GPa) = 40.35891 58.90166 49.63029
#
# Velocity S-wave (km/s) = 3.91732 4.73242 4.34403
# Velocity P-wave (km/s) = 5.85480 7.22467 6.57550
#
# Compressibility (1/GPa) = 0.02751622
#
# Stress axis : x y z
#
# Youngs Moduli (GPa) = 35.54901 72.15672 216.08089
#
# Poissons Ratio (x) = 0.37822 1.01250
# Poissons Ratio (y) = 0.18633 -0.08148
# Poissons Ratio (z) = 0.16657 -0.02721
#
# Static dielectric constant tensor:
#      x y z
#    x 2.137610 0.000000 0.000000 
#    y 0.000000 2.074620 0.000000 
#    z 0.000000 0.000000 1.356830 
# 
# From -- ./inp_files/80.got.cif
#   From: 2010.05.17/outbox.cif.g08.bks.cpg/sg57_1_cif.got.tgz:80.got - 2010.06.03 13:58:18.
