data_PCOD9440344
_publ_section_title
;
Structure prediction by ZEFSAII (Michael W. Deem and Ramdas Pophale) SiO2 
 PCOD9440344
Probable space group: P B C M
;
_chemical_formula_sum "Si O2"
_cell_formula_units_Z 32
_cell_length_a 4.552283
_cell_length_b 28.594053
_cell_length_c 9.398738
_cell_angle_alpha 90.000000
_cell_angle_beta 90.000000
_cell_angle_gamma 90.000000
_cell_volume 1223.417009
_symmetry_space_group_name_H-M "P B C M"
_symmetry_group_IT_number 57
_symmetry_cell_setting 'orthorhombic'
loop_
_space_group_symop_operation_xyz
x,y,z
-x,-y,1/2+z
x,1/2-y,-z
-x,1/2+y,1/2-z
-x,-y,-z
x,y,1/2-z
-x,1/2+y,z
x,1/2-y,1/2+z
loop_
_atom_site_type_symbol
_atom_site_label
_atom_site_fract_x
_atom_site_fract_y
_atom_site_fract_z
Si Si1 0.251489 0.907465 0.498646
Si Si2 0.980328 0.532011 0.750000
Si Si3 0.584570 0.286947 0.750000
Si Si4 0.747312 0.658295 0.002218
Si Si5 0.101048 0.278527 0.250000
Si Si6 0.519786 0.532594 0.250000
O O1 0.081201 0.939445 0.386896
O O2 0.505394 0.875296 0.429331
O O3 0.420102 0.938720 0.613209
O O4 0.001116 0.874402 0.567936
O O5 0.141920 0.481557 0.750000
O O6 0.642226 0.517756 0.750000
O O7 0.451500 0.313395 0.614179
O O8 0.441405 0.235758 0.750000
O O9 0.921921 0.270448 0.750000
O O10 0.922108 0.691207 0.892311
#
# Coordination Sequence:
#
# PCOD9440344 Si02
#       6
#     8   4   4   8   4   4
#     4  12  24  43  67  98 135 180 229 284 347 417
#     4  12  24  42  66  98 135 178 227 284 343 410
#     4  12  26  46  70 102 138 180 232 292 351 418
#     4  12  25  45  70 100 137 182 231 288 352 419
#     4  12  26  46  70 102 138 180 232 292 351 418
#     4  12  24  42  66  98 135 178 227 284 343 410
#
# _framework density 26.156251000000001
#
# number of rings (size 3 to 8) (size 9 to 14) (size 15 to 20)
#    0.000    0.000    0.000   11.250    0.000    2.000 
#    0.000    0.000    0.000    0.000    0.000    0.000 
#    0.000    0.000    0.000    0.000    0.000    0.000 
#
# Total GULP energy -179420.254106 kJ/mol
# GULP energy per Si atom -5606.882941 kJ/mol
# Density = 2.609672 g / cm^3
# Si number density = 26.156251 Si / 1000 Ang^3
#
#
#
# Elastic Constant Matrix: (Units=GPa)
#
#
# Indices 1 2 3 4 5 6 
#
# 1 116.9656 34.5990 8.7120 0.0000 0.0000 0.0000
# 2 34.5990 111.9980 48.7081 0.0000 0.0000 0.0000
# 3 8.7120 48.7081 129.1078 0.0000 0.0000 0.0000
# 4 0.0000 0.0000 0.0000 59.6520 0.0000 0.0000
# 5 0.0000 0.0000 0.0000 0.0000 27.2738 0.0000
# 6 0.0000 0.0000 0.0000 0.0000 0.0000 73.3514
#
#
#
# Elastic Compliance Matrix: (Units=1/GPa)
#
#
# Indices 1 2 3 4 5 6 
#
# 1 0.009442 -0.003158 0.000554 0.000000 0.000000 0.000000
# 2 -0.003158 0.011737 -0.004215 0.000000 0.000000 0.000000
# 3 0.000554 -0.004215 0.009298 0.000000 0.000000 0.000000
# 4 0.000000 0.000000 0.000000 0.016764 0.000000 0.000000
# 5 0.000000 0.000000 0.000000 0.000000 0.036665 0.000000
# 6 0.000000 0.000000 0.000000 0.000000 0.000000 0.013633
#
#
# Mechanical properties :
#
#
# Convention : Reuss Voigt Hill
#
# Bulk Modulus (GPa) = 59.38080 60.23440 59.80760
# Shear Modulus (GPa) = 42.81138 49.79226 46.30182
#
# Velocity S-wave (km/s) = 4.05007 4.36781 4.21194
# Velocity P-wave (km/s) = 6.68000 6.96532 6.82415
#
# Compressibility (1/GPa) = 0.01684046
#
# Stress axis : x y z
#
# Youngs Moduli (GPa) = 105.90520 85.19728 107.54695
#
# Poissons Ratio (x) = 0.26906 -0.05961
# Poissons Ratio (y) = 0.33445 0.45332
# Poissons Ratio (z) = -0.05870 0.35911
#
# Static dielectric constant tensor:
#      x y z
#    x 1.968460 0.000000 0.000000 
#    y 0.000000 2.067690 0.000000 
#    z 0.000000 0.000000 1.926160 
# 
# From -- ./inp_files/853.got.cif
#   From: 2010.05.17/outbox.cif.g08.bks.cpg/sg57_1_cif.got.tgz:853.got - 2010.06.03 13:58:18.
