data_PCOD9440822
_publ_section_title
;
Structure prediction by ZEFSAII (Michael W. Deem and Ramdas Pophale) SiO2 
 PCOD9440822
Probable space group: P N N M
;
_chemical_formula_sum "Si O2"
_cell_formula_units_Z 28
_cell_length_a 7.439849
_cell_length_b 5.570950
_cell_length_c 29.144018
_cell_angle_alpha 90.000000
_cell_angle_beta 90.000000
_cell_angle_gamma 90.000000
_cell_volume 1207.932895
_symmetry_space_group_name_H-M "P N N M"
_symmetry_group_IT_number 58
_symmetry_cell_setting 'orthorhombic'
loop_
_space_group_symop_operation_xyz
x,y,z
-x,-y,z
1/2+x,1/2-y,1/2-z
1/2-x,1/2+y,1/2-z
-x,-y,-z
x,y,-z
1/2-x,1/2+y,1/2+z
1/2+x,1/2-y,1/2+z
loop_
_atom_site_type_symbol
_atom_site_label
_atom_site_fract_x
_atom_site_fract_y
_atom_site_fract_z
Si Si1 0.000000 0.500000 0.733437
Si Si2 0.209823 0.210065 0.946094
Si Si3 0.701006 0.793103 0.588329
Si Si4 0.851502 0.182886 0.185766
O O1 0.061713 0.704976 0.768768
O O2 0.167761 0.433573 0.702352
O O3 0.287955 0.473573 0.934795
O O4 0.999868 0.252502 0.932229
O O5 0.281881 0.973155 0.919959
O O6 0.222428 0.161257 0.000000
O O7 0.689561 0.850760 0.642577
O O8 0.000000 0.000000 0.167288
#
# Coordination Sequence:
#
# PCOD9440822 Si02
#       4
#     4   8   8   8
#     4  12  26  42  68  94 124 184 216 282 328 404
#     4  10  17  30  53  89 121 160 213 261 320 386
#     4  10  19  31  53  83 126 159 200 275 312 381
#     4  12  24  42  63  94 132 166 223 270 336 384
#
# _framework density 23.180095000000001
#
# number of rings (size 3 to 8) (size 9 to 14) (size 15 to 20)
#    0.000    1.143    5.714    6.000    0.000    0.000 
#    0.000    0.000    0.000    0.000    0.000   11.000 
#    0.000    0.000    0.000    0.000    0.000    0.000 
#
# Total GULP energy -156380.082214 kJ/mol
# GULP energy per Si atom -5585.002936 kJ/mol
# Density = 2.312734 g / cm^3
# Si number density = 23.180095 Si / 1000 Ang^3
#
#
#
# Elastic Constant Matrix: (Units=GPa)
#
#
# Indices 1 2 3 4 5 6 
#
# 1 88.5753 16.8135 12.8822 0.0000 0.0000 0.0000
# 2 16.8135 144.9505 6.1260 0.0000 0.0000 0.0000
# 3 12.8822 6.1260 120.3518 0.0000 0.0000 0.0000
# 4 0.0000 0.0000 0.0000 49.6243 0.0000 0.0000
# 5 0.0000 0.0000 0.0000 0.0000 -0.9777 0.0000
# 6 0.0000 0.0000 0.0000 0.0000 0.0000 6.8110
#
#
#
# Elastic Compliance Matrix: (Units=1/GPa)
#
#
# Indices 1 2 3 4 5 6 
#
# 1 0.011711 -0.001308 -0.001187 0.000000 0.000000 0.000000
# 2 -0.001308 0.007060 -0.000219 0.000000 0.000000 0.000000
# 3 -0.001187 -0.000219 0.008447 0.000000 0.000000 0.000000
# 4 0.000000 0.000000 0.000000 0.020151 0.000000 0.000000
# 5 0.000000 0.000000 0.000000 0.000000 -1.022765 0.000000
# 6 0.000000 0.000000 0.000000 0.000000 0.000000 0.146822
#
#
# Mechanical properties :
#
#
# Convention : Reuss Voigt Hill
#
# Bulk Modulus (GPa) = 45.89481 47.28014 46.58747
# Shear Modulus (GPa) = -6.12834 32.29523 13.08345
#
# Velocity S-wave (km/s) = -1.62774 3.73665 2.37834
# Velocity P-wave (km/s) = 4.03850 6.24963 5.26153
#
# Compressibility (1/GPa) = 0.02178895
#
# Stress axis : x y z
#
# Youngs Moduli (GPa) = 85.39141 141.64460 118.38265
#
# Poissons Ratio (x) = 0.18530 0.14051
# Poissons Ratio (y) = 0.11171 0.02596
# Poissons Ratio (z) = 0.10135 0.03107
#
# Static dielectric constant tensor:
#      x y z
#    x 1.845330 0.000000 0.000000 
#    y 0.000000 1.982790 0.000000 
#    z 0.000000 0.000000 1.779980 
# 
# From -- ./inp_files/32584.got.cif
#   From: 2010.05.17/outbox.cif.g08.bks.cpg/sg58_17_cif.got.tgz:32584.got - 2010.06.03 14:20:14.
