data_PCOD9440004
_publ_section_title
;
Structure prediction by ZEFSAII (Michael W. Deem and Ramdas Pophale) SiO2 
 PCOD9440004
Probable space group: P B C M
;
_chemical_formula_sum "Si O2"
_cell_formula_units_Z 48
_cell_length_a 6.916426
_cell_length_b 16.881069
_cell_length_c 14.896612
_cell_angle_alpha 90.000000
_cell_angle_beta 90.000000
_cell_angle_gamma 90.000000
_cell_volume 1739.278730
_symmetry_space_group_name_H-M "P B C M"
_symmetry_group_IT_number 57
_symmetry_cell_setting 'orthorhombic'
loop_
_space_group_symop_operation_xyz
x,y,z
-x,-y,1/2+z
x,1/2-y,-z
-x,1/2+y,1/2-z
-x,-y,-z
x,y,1/2-z
-x,1/2+y,z
x,1/2-y,1/2+z
loop_
_atom_site_type_symbol
_atom_site_label
_atom_site_fract_x
_atom_site_fract_y
_atom_site_fract_z
Si Si1 0.035330 0.357102 0.139113
Si Si2 0.067589 0.479216 0.853743
Si Si3 0.110053 0.190534 0.148785
Si Si4 0.476940 0.762794 0.898808
Si Si5 0.620916 0.432784 0.647632
Si Si6 0.474572 0.403342 0.143332
O O1 0.026529 0.356655 0.250000
O O2 0.911212 0.432778 0.106905
O O3 0.000883 0.266603 0.108775
O O4 0.258470 0.377054 0.113783
O O5 0.139679 0.482363 0.750000
O O6 0.836205 0.467114 0.849694
O O7 0.127591 0.395500 0.896324
O O8 0.029404 0.177702 0.250000
O O9 0.329571 0.219308 0.156236
O O10 0.366626 0.846419 0.896270
O O11 0.399999 0.676616 0.869546
O O12 0.538350 0.750000 0.000000
O O13 0.558936 0.417062 0.750000
O O14 0.492688 0.506080 0.609174
O O15 0.466575 0.414485 0.250000
#
# Coordination Sequence:
#
# PCOD9440004 Si02
#       6
#     8   8   8   8   8   8
#     4   7  11  22  42  66  88 112 142 179 231 284
#     4   8  14  26  47  70  87 110 151 199 237 272
#     4   9  16  29  49  69  91 120 155 194 233 278
#     4  11  21  31  46  70 101 132 159 191 234 287
#     4   9  17  32  53  72  90 119 162 204 240 283
#     4   8  15  30  51  69  89 123 161 195 237 288
#
# _framework density 27.597646999999998
#
# number of rings (size 3 to 8) (size 9 to 14) (size 15 to 20)
#    0.000    3.333    0.000    4.500    0.000    0.667 
#    0.000    2.500    0.000   15.000    0.000    0.000 
#    0.000    0.000    0.000    0.000    0.000    0.000 
#
# Total GULP energy -267782.468608 kJ/mol
# GULP energy per Si atom -5578.801429 kJ/mol
# Density = 2.753483 g / cm^3
# Si number density = 27.597647 Si / 1000 Ang^3
#
#
#
# Elastic Constant Matrix: (Units=GPa)
#
#
# Indices 1 2 3 4 5 6 
#
# 1 52.2377 38.8551 -15.4881 0.0000 0.0000 0.0000
# 2 38.8551 353.8808 11.6716 0.0000 0.0000 0.0000
# 3 -15.4881 11.6716 70.2342 0.0000 0.0000 0.0000
# 4 0.0000 0.0000 0.0000 -318.7876 0.0000 0.0000
# 5 0.0000 0.0000 0.0000 0.0000 -16.3353 0.0000
# 6 0.0000 0.0000 0.0000 0.0000 0.0000 64.5640
#
#
#
# Elastic Compliance Matrix: (Units=1/GPa)
#
#
# Indices 1 2 3 4 5 6 
#
# 1 0.022756 -0.002679 0.005463 0.000000 0.000000 0.000000
# 2 -0.002679 0.003157 -0.001115 0.000000 0.000000 0.000000
# 3 0.005463 -0.001115 0.015628 0.000000 0.000000 0.000000
# 4 0.000000 0.000000 0.000000 -0.003137 0.000000 0.000000
# 5 0.000000 0.000000 0.000000 0.000000 -0.061217 0.000000
# 6 0.000000 0.000000 0.000000 0.000000 0.000000 0.015488
#
#
# Mechanical properties :
#
#
# Convention : Reuss Voigt Hill
#
# Bulk Modulus (GPa) = 22.28221 60.71445 41.49833
# Shear Modulus (GPa) = 1163.85300 -24.69084 569.58108
#
# Velocity S-wave (km/s) = 20.55815 -2.99435 14.38178
# Velocity P-wave (km/s) = 23.90832 3.17691 17.05434
#
# Compressibility (1/GPa) = 0.04487885
#
# Stress axis : x y z
#
# Youngs Moduli (GPa) = 43.94541 316.78589 63.98704
#
# Poissons Ratio (x) = 0.84857 -0.34957
# Poissons Ratio (y) = 0.11772 0.07136
# Poissons Ratio (z) = -0.24008 0.35331
#
# Static dielectric constant tensor:
#      x y z
#    x 2.238490 0.000000 0.000000 
#    y 0.000000 2.346280 0.000000 
#    z 0.000000 0.000000 2.015180 
# 
# From -- ./inp_files/17583.got.cif
#   From: 2010.05.17/outbox.cif.g08.bks.cpg/sg57_9_cif.got.tgz:17583.got - 2010.06.03 13:58:18.
