data_PCOD9440229
_publ_section_title
;
Structure prediction by ZEFSAII (Michael W. Deem and Ramdas Pophale) SiO2 
 PCOD9440229
Probable space group: P B C M
;
_chemical_formula_sum "Si O2"
_cell_formula_units_Z 32
_cell_length_a 12.063492
_cell_length_b 15.738074
_cell_length_c 8.660322
_cell_angle_alpha 90.000000
_cell_angle_beta 90.000000
_cell_angle_gamma 90.000000
_cell_volume 1644.215218
_symmetry_space_group_name_H-M "P B C M"
_symmetry_group_IT_number 57
_symmetry_cell_setting 'orthorhombic'
loop_
_space_group_symop_operation_xyz
x,y,z
-x,-y,1/2+z
x,1/2-y,-z
-x,1/2+y,1/2-z
-x,-y,-z
x,y,1/2-z
-x,1/2+y,z
x,1/2-y,1/2+z
loop_
_atom_site_type_symbol
_atom_site_label
_atom_site_fract_x
_atom_site_fract_y
_atom_site_fract_z
Si Si1 0.501611 0.095878 0.934943
Si Si2 0.729482 0.839390 0.934828
Si Si3 0.123618 0.995502 0.064781
Si Si4 0.266709 0.840372 0.934413
O O1 0.506459 0.093891 0.750000
O O2 0.390061 0.141438 0.991018
O O3 0.610414 0.141386 0.000574
O O4 0.500000 0.000000 0.000000
O O5 0.717823 0.834780 0.750000
O O6 0.809863 0.917981 0.972353
O O7 0.771662 0.750000 0.000000
O O8 0.122269 0.986427 0.250000
O O9 0.189041 0.916547 0.992017
O O10 0.000000 0.000000 0.000000
O O11 0.269805 0.838410 0.750000
O O12 0.227992 0.750000 0.000000
#
# Coordination Sequence:
#
# PCOD9440229 Si02
#       4
#     8   8   8   8
#     4  12  23  39  65  97 133 171 212 260 322 389
#     4  11  24  42  66  96 131 170 214 264 320 384
#     4  11  25  45  68  94 129 171 221 271 324 383
#     4  12  25  43  68  97 132 172 216 267 325 387
#
# _framework density 19.462173
#
# number of rings (size 3 to 8) (size 9 to 14) (size 15 to 20)
#    0.000    0.500    2.500    6.750    0.000    4.000 
#    0.000    2.500    0.000    0.000    0.000    0.000 
#    0.000    0.000    0.000    0.000    0.000    0.000 
#
# Total GULP energy -179213.217836 kJ/mol
# GULP energy per Si atom -5600.413057 kJ/mol
# Density = 1.941788 g / cm^3
# Si number density = 19.462173 Si / 1000 Ang^3
#
#
#
# Elastic Constant Matrix: (Units=GPa)
#
#
# Indices 1 2 3 4 5 6 
#
# 1 150.3860 76.9579 80.2193 0.0000 0.0000 0.0000
# 2 76.9579 193.4309 95.7012 0.0000 0.0000 0.0000
# 3 80.2193 95.7012 161.0286 0.0000 0.0000 0.0000
# 4 0.0000 0.0000 0.0000 39.1417 0.0000 0.0000
# 5 0.0000 0.0000 0.0000 0.0000 31.0788 0.0000
# 6 0.0000 0.0000 0.0000 0.0000 0.0000 -11.0131
#
#
#
# Elastic Compliance Matrix: (Units=1/GPa)
#
#
# Indices 1 2 3 4 5 6 
#
# 1 0.009602 -0.002059 -0.003560 0.000000 0.000000 0.000000
# 2 -0.002059 0.007765 -0.003589 0.000000 0.000000 0.000000
# 3 -0.003560 -0.003589 0.010116 0.000000 0.000000 0.000000
# 4 0.000000 0.000000 0.000000 0.025548 0.000000 0.000000
# 5 0.000000 0.000000 0.000000 0.000000 0.032176 0.000000
# 6 0.000000 0.000000 0.000000 0.000000 0.000000 -0.090801
#
#
# Mechanical properties :
#
#
# Convention : Reuss Voigt Hill
#
# Bulk Modulus (GPa) = 110.28097 112.28916 111.28507
# Shear Modulus (GPa) = 315.56786 28.63927 172.10357
#
# Velocity S-wave (km/s) = 12.74740 3.84022 9.41391
# Velocity P-wave (km/s) = 16.53629 8.80252 13.24638
#
# Compressibility (1/GPa) = 0.00906775
#
# Stress axis : x y z
#
# Youngs Moduli (GPa) = 104.14395 128.78915 98.85019
#
# Poissons Ratio (x) = 0.26519 0.35188
# Poissons Ratio (y) = 0.21444 0.35476
# Poissons Ratio (z) = 0.37072 0.46221
#
# Static dielectric constant tensor:
#      x y z
#    x 1.648700 0.000000 0.000000 
#    y 0.000000 1.689730 0.000000 
#    z 0.000000 0.000000 1.647040 
# 
# From -- ./inp_files/2368.got.cif
#   From: 2010.05.17/outbox.cif.g08.bks.cpg/sg57_2_cif.got.tgz:2368.got - 2010.06.03 13:58:18.
