data_PCOD9440388
_publ_section_title
;
Structure prediction by ZEFSAII (Michael W. Deem and Ramdas Pophale) SiO2 
 PCOD9440388
Probable space group: P B C M
;
_chemical_formula_sum "Si O2"
_cell_formula_units_Z 32
_cell_length_a 7.907937
_cell_length_b 10.142382
_cell_length_c 14.094904
_cell_angle_alpha 90.000000
_cell_angle_beta 90.000000
_cell_angle_gamma 90.000000
_cell_volume 1130.486256
_symmetry_space_group_name_H-M "P B C M"
_symmetry_group_IT_number 57
_symmetry_cell_setting 'orthorhombic'
loop_
_space_group_symop_operation_xyz
x,y,z
-x,-y,1/2+z
x,1/2-y,-z
-x,1/2+y,1/2-z
-x,-y,-z
x,y,1/2-z
-x,1/2+y,z
x,1/2-y,1/2+z
loop_
_atom_site_type_symbol
_atom_site_label
_atom_site_fract_x
_atom_site_fract_y
_atom_site_fract_z
Si Si1 0.161305 0.895201 0.613526
Si Si2 0.518213 0.036708 0.859426
Si Si3 0.966152 0.365035 0.101110
Si Si4 0.318764 0.220589 0.366266
O O1 0.339722 0.958854 0.636289
O O2 0.148521 0.746066 0.648606
O O3 0.118181 0.889149 0.501260
O O4 0.016762 0.997100 0.647741
O O5 0.566049 0.053573 0.750000
O O6 0.646995 0.928419 0.900361
O O7 0.470126 0.180506 0.897556
O O8 0.146133 0.286908 0.098544
O O9 0.315077 0.222495 0.250000
#
# Coordination Sequence:
#
# PCOD9440388 Si02
#       4
#     8   8   8   8
#     4   9  18  33  51  72 101 135 170 207 248 297
#     4   9  18  33  53  77 103 131 166 208 253 301
#     4   9  18  33  51  72 101 135 170 207 248 297
#     4   9  18  33  53  77 103 131 166 208 253 301
#
# _framework density 28.306404000000001
#
# number of rings (size 3 to 8) (size 9 to 14) (size 15 to 20)
#    0.000    3.000    0.000    0.000    0.000    3.000 
#    0.000    5.000    0.000   27.000    0.000    0.000 
#    0.000    0.000    0.000    0.000    0.000    0.000 
#
# Total GULP energy -179066.258119 kJ/mol
# GULP energy per Si atom -5595.820566 kJ/mol
# Density = 2.824198 g / cm^3
# Si number density = 28.306404 Si / 1000 Ang^3
#
#
#
# Elastic Constant Matrix: (Units=GPa)
#
#
# Indices 1 2 3 4 5 6 
#
# 1 135.1023 36.9256 6.5689 0.0000 0.0000 0.0000
# 2 36.9256 143.3318 44.5958 0.0000 0.0000 0.0000
# 3 6.5689 44.5958 158.6275 0.0000 0.0000 0.0000
# 4 0.0000 0.0000 0.0000 5.9031 0.0000 0.0000
# 5 0.0000 0.0000 0.0000 0.0000 24.6789 0.0000
# 6 0.0000 0.0000 0.0000 0.0000 0.0000 62.9519
#
#
#
# Elastic Compliance Matrix: (Units=1/GPa)
#
#
# Indices 1 2 3 4 5 6 
#
# 1 0.007973 -0.002138 0.000271 0.000000 0.000000 0.000000
# 2 -0.002138 0.008219 -0.002222 0.000000 0.000000 0.000000
# 3 0.000271 -0.002222 0.006918 0.000000 0.000000 0.000000
# 4 0.000000 0.000000 0.000000 0.169402 0.000000 0.000000
# 5 0.000000 0.000000 0.000000 0.000000 0.040520 0.000000
# 6 0.000000 0.000000 0.000000 0.000000 0.000000 0.015885
#
#
# Mechanical properties :
#
#
# Convention : Reuss Voigt Hill
#
# Bulk Modulus (GPa) = 66.97587 68.13804 67.55696
# Shear Modulus (GPa) = 19.07866 41.97153 30.52510
#
# Velocity S-wave (km/s) = 2.59898 3.85484 3.28743
# Velocity P-wave (km/s) = 5.72002 6.62849 6.19094
#
# Compressibility (1/GPa) = 0.01493075
#
# Stress axis : x y z
#
# Youngs Moduli (GPa) = 125.42217 121.66790 144.55935
#
# Poissons Ratio (x) = 0.26017 -0.03918
# Poissons Ratio (y) = 0.26820 0.32123
# Poissons Ratio (z) = -0.03399 0.27036
#
# Static dielectric constant tensor:
#      x y z
#    x 2.213480 0.000000 0.000000 
#    y 0.000000 2.200550 0.000000 
#    z 0.000000 0.000000 2.040410 
# 
# From -- ./inp_files/10654.got.cif
#   From: 2010.05.17/outbox.cif.g08.bks.cpg/sg57_6_cif.got.tgz:10654.got - 2010.06.03 13:58:18.
