data_PCOD9440466
_publ_section_title
;
Structure prediction by ZEFSAII (Michael W. Deem and Ramdas Pophale) SiO2 
 PCOD9440466
Probable space group: P B C M
;
_chemical_formula_sum "Si O2"
_cell_formula_units_Z 40
_cell_length_a 12.000000
_cell_length_b 18.000000
_cell_length_c 9.000000
_cell_angle_alpha 90.000000
_cell_angle_beta 90.000000
_cell_angle_gamma 90.000000
_cell_volume 1944.000000
_symmetry_space_group_name_H-M "P B C M"
_symmetry_group_IT_number 57
_symmetry_cell_setting 'orthorhombic'
loop_
_space_group_symop_operation_xyz
x,y,z
-x,-y,1/2+z
x,1/2-y,-z
-x,1/2+y,1/2-z
-x,-y,-z
x,y,1/2-z
-x,1/2+y,z
x,1/2-y,1/2+z
loop_
_atom_site_type_symbol
_atom_site_label
_atom_site_fract_x
_atom_site_fract_y
_atom_site_fract_z
Si Si1 0.697545 0.605863 0.922810
Si Si2 0.070724 0.326813 0.077785
Si Si3 0.844841 0.329762 0.927440
Si Si4 0.654469 0.442635 0.569623
Si Si5 0.513393 0.822138 0.574765
O O1 0.661788 0.614468 0.750000
O O2 0.828930 0.616180 0.925944
O O3 0.666417 0.525492 0.984467
O O4 0.638507 0.667597 0.020896
O O5 0.041079 0.312180 0.250000
O O6 0.105806 0.250000 0.000000
O O7 0.964856 0.353302 0.986639
O O8 0.842422 0.322746 0.750000
O O9 0.757015 0.391283 0.973464
O O10 0.821193 0.250000 0.000000
O O11 0.653055 0.447137 0.750000
O O12 0.547762 0.396426 0.521385
O O13 0.462121 0.750000 0.500000
O O14 0.503912 0.815738 0.750000
#
# Coordination Sequence:
#
# PCOD9440466 Si02
#       5
#     8   8   8   8   8
#     4  10  21  38  57  79 110 143 177 220 270 319
#     4  10  20  34  54  78 106 140 178 221 265 312
#     4  10  19  34  56  79 107 142 180 221 265 315
#     4   9  20  37  56  80 110 142 175 219 272 320
#     4  11  22  37  58  82 108 140 180 221 265 318
#
# _framework density 20.576132000000001
#
# number of rings (size 3 to 8) (size 9 to 14) (size 15 to 20)
#    0.000    2.000    0.000    4.800    0.000    4.000 
#    0.000    6.000    0.000    0.000    0.000    0.000 
#    0.000    0.000    0.000    0.000    0.000    0.000 
#
# Total GULP energy -223051.189114 kJ/mol
# GULP energy per Si atom -5576.279728 kJ/mol
# Density = 2.052930 g / cm^3
# Si number density = 20.576132 Si / 1000 Ang^3
#
#
#
# Elastic Constant Matrix: (Units=GPa)
#
#
# Indices 1 2 3 4 5 6 
#
# 1 86.9096 64.6794 24.9270 0.0000 0.0000 0.0000
# 2 64.6794 58.9036 30.1764 0.0000 0.0000 0.0000
# 3 24.9270 30.1764 63.6219 0.0000 0.0000 0.0000
# 4 0.0000 0.0000 0.0000 18.1688 0.0000 0.0000
# 5 0.0000 0.0000 0.0000 0.0000 17.1314 0.0000
# 6 0.0000 0.0000 0.0000 0.0000 0.0000 23.4952
#
#
#
# Elastic Compliance Matrix: (Units=1/GPa)
#
#
# Indices 1 2 3 4 5 6 
#
# 1 0.069017 -0.081810 0.011762 0.000000 0.000000 0.000000
# 2 -0.081810 0.119401 -0.024580 0.000000 0.000000 0.000000
# 3 0.011762 -0.024580 0.022768 0.000000 0.000000 0.000000
# 4 0.000000 0.000000 0.000000 0.055039 0.000000 0.000000
# 5 0.000000 0.000000 0.000000 0.000000 0.058372 0.000000
# 6 0.000000 0.000000 0.000000 0.000000 0.000000 0.042562
#
#
# Mechanical properties :
#
#
# Convention : Reuss Voigt Hill
#
# Bulk Modulus (GPa) = 45.59800 49.88895 47.74348
# Shear Modulus (GPa) = 8.86961 17.73591 13.30276
#
# Velocity S-wave (km/s) = 2.07846 2.93911 2.54542
# Velocity P-wave (km/s) = 5.28855 5.98469 5.64735
#
# Compressibility (1/GPa) = 0.02193079
#
# Stress axis : x y z
#
# Youngs Moduli (GPa) = 14.48928 8.37517 43.92191
#
# Poissons Ratio (x) = 0.68517 -0.51663
# Poissons Ratio (y) = 1.18536 1.07958
# Poissons Ratio (z) = -0.17043 0.20586
#
# Static dielectric constant tensor:
#      x y z
#    x 1.775820 0.000000 0.000000 
#    y 0.000000 1.730700 0.000000 
#    z 0.000000 0.000000 1.698980 
# 
# From -- ./inp_files/2676.got.cif
#   From: 2010.05.17/outbox.ucp.g08.bks.cvg/sg57_2_cif.got.tgz:2676.got - 2010.06.11 16:39:23.
