data_PCOD9440212
_publ_section_title
;
Structure prediction by ZEFSAII (Michael W. Deem and Ramdas Pophale) SiO2 
 PCOD9440212
Probable space group: P B C M
;
_chemical_formula_sum "Si O2"
_cell_formula_units_Z 36
_cell_length_a 9.155550
_cell_length_b 8.315334
_cell_length_c 19.005495
_cell_angle_alpha 90.000000
_cell_angle_beta 90.000000
_cell_angle_gamma 90.000000
_cell_volume 1446.916010
_symmetry_space_group_name_H-M "P B C M"
_symmetry_group_IT_number 57
_symmetry_cell_setting 'orthorhombic'
loop_
_space_group_symop_operation_xyz
x,y,z
-x,-y,1/2+z
x,1/2-y,-z
-x,1/2+y,1/2-z
-x,-y,-z
x,y,1/2-z
-x,1/2+y,z
x,1/2-y,1/2+z
loop_
_atom_site_type_symbol
_atom_site_label
_atom_site_fract_x
_atom_site_fract_y
_atom_site_fract_z
Si Si1 0.733180 0.062581 0.674253
Si Si2 0.223177 0.424766 0.391564
Si Si3 0.536770 0.364916 0.644004
Si Si4 0.951013 0.247958 0.583765
Si Si5 0.416101 0.250000 0.000000
O O1 0.810459 0.057241 0.750000
O O2 0.620454 0.212955 0.674245
O O3 0.841840 0.107655 0.611047
O O4 0.626149 0.910736 0.666597
O O5 0.356024 0.483465 0.343004
O O6 0.125953 0.584691 0.398794
O O7 0.308737 0.375579 0.462373
O O8 0.105565 0.285262 0.378371
O O9 0.515246 0.326642 0.560827
O O10 0.973125 0.250000 0.500000
#
# Coordination Sequence:
#
# PCOD9440212 Si02
#       5
#     8   8   8   8   4
#     4  11  25  44  67  96 137 183 232 281 342 415
#     4  11  24  38  66  99 136 173 219 282 341 406
#     4  11  24  42  70  98 137 176 228 285 345 402
#     4  11  24  41  64  99 133 173 222 277 340 401
#     4  12  22  40  72 108 132 172 228 292 344 404
#
# _framework density 24.880504999999999
#
# number of rings (size 3 to 8) (size 9 to 14) (size 15 to 20)
#    0.000    0.889    3.333    3.333    9.333    0.000 
#    0.000    5.556    0.000    0.000    0.000    0.000 
#    0.000    0.000    0.000    0.000    0.000    0.000 
#
# Total GULP energy -201196.512191 kJ/mol
# GULP energy per Si atom -5588.792005 kJ/mol
# Density = 2.482388 g / cm^3
# Si number density = 24.880505 Si / 1000 Ang^3
#
#
#
# Elastic Constant Matrix: (Units=GPa)
#
#
# Indices 1 2 3 4 5 6 
#
# 1 142.4793 28.8201 16.9919 0.0000 0.0000 0.0000
# 2 28.8201 61.7644 -9.2667 0.0000 0.0000 0.0000
# 3 16.9919 -9.2667 53.8916 0.0000 0.0000 0.0000
# 4 0.0000 0.0000 0.0000 -53.8741 0.0000 0.0000
# 5 0.0000 0.0000 0.0000 0.0000 0.7903 0.0000
# 6 0.0000 0.0000 0.0000 0.0000 0.0000 67.1545
#
#
#
# Elastic Compliance Matrix: (Units=1/GPa)
#
#
# Indices 1 2 3 4 5 6 
#
# 1 0.008307 -0.004382 -0.003373 0.000000 0.000000 0.000000
# 2 -0.004382 0.018931 0.004637 0.000000 0.000000 0.000000
# 3 -0.003373 0.004637 0.020417 0.000000 0.000000 0.000000
# 4 0.000000 0.000000 0.000000 -0.018562 0.000000 0.000000
# 5 0.000000 0.000000 0.000000 0.000000 1.265308 0.000000
# 6 0.000000 0.000000 0.000000 0.000000 0.000000 0.014891
#
#
# Mechanical properties :
#
#
# Convention : Reuss Voigt Hill
#
# Bulk Modulus (GPa) = 24.14376 36.80289 30.47332
# Shear Modulus (GPa) = 3.76128 17.58680 10.67404
#
# Velocity S-wave (km/s) = 1.23086 2.66155 2.07351
# Velocity P-wave (km/s) = 3.42709 4.92637 4.24347
#
# Compressibility (1/GPa) = 0.04141857
#
# Stress axis : x y z
#
# Youngs Moduli (GPa) = 120.37705 52.82313 48.97991
#
# Poissons Ratio (x) = 0.23149 0.16520
# Poissons Ratio (y) = 0.52753 -0.22712
# Poissons Ratio (z) = 0.40601 -0.24494
#
# Static dielectric constant tensor:
#      x y z
#    x 1.947640 0.000000 0.000000 
#    y 0.000000 2.040950 0.000000 
#    z 0.000000 0.000000 1.935850 
# 
# From -- ./inp_files/23978.got.cif
#   From: 2010.05.17/outbox.cif.g08.bks.cpg/sg57_12_cif.got.tgz:23978.got - 2010.06.03 13:58:18.
