data_PCOD9440316
_publ_section_title
;
Structure prediction by ZEFSAII (Michael W. Deem and Ramdas Pophale) SiO2 
 PCOD9440316
Probable space group: P B C M
;
_chemical_formula_sum "Si O2"
_cell_formula_units_Z 24
_cell_length_a 4.795479
_cell_length_b 12.921200
_cell_length_c 16.613729
_cell_angle_alpha 90.000000
_cell_angle_beta 90.000000
_cell_angle_gamma 90.000000
_cell_volume 1029.442193
_symmetry_space_group_name_H-M "P B C M"
_symmetry_group_IT_number 57
_symmetry_cell_setting 'orthorhombic'
loop_
_space_group_symop_operation_xyz
x,y,z
-x,-y,1/2+z
x,1/2-y,-z
-x,1/2+y,1/2-z
-x,-y,-z
x,y,1/2-z
-x,1/2+y,z
x,1/2-y,1/2+z
loop_
_atom_site_type_symbol
_atom_site_label
_atom_site_fract_x
_atom_site_fract_y
_atom_site_fract_z
Si Si1 0.036479 0.497245 0.655257
Si Si2 0.251888 0.319667 0.433918
Si Si3 0.462527 0.880118 0.910065
O O1 0.988743 0.497719 0.750000
O O2 0.936612 0.604671 0.616619
O O3 0.848483 0.409470 0.612306
O O4 0.350148 0.464577 0.635855
O O5 0.084674 0.250000 0.500000
O O6 0.434102 0.235263 0.385582
O O7 0.457567 0.380731 0.495279
#
# Coordination Sequence:
#
# PCOD9440316 Si02
#       3
#     8   8   8
#     4  12  22  38  60  91 124 152 194 251 302 339
#     4   8  22  41  66  82 120 157 211 230 291 354
#     4   9  23  40  62  85 116 160 199 243 284 360
#
# _framework density 23.313594999999999
#
# number of rings (size 3 to 8) (size 9 to 14) (size 15 to 20)
#    2.000    0.000    0.000    3.000    0.000   10.667 
#    0.000    0.000    0.000    0.000    0.000    0.000 
#    0.000    0.000    0.000    0.000    0.000    0.000 
#
# Total GULP energy -134061.149088 kJ/mol
# GULP energy per Si atom -5585.881212 kJ/mol
# Density = 2.326053 g / cm^3
# Si number density = 23.313595 Si / 1000 Ang^3
#
#
#
# Elastic Constant Matrix: (Units=GPa)
#
#
# Indices 1 2 3 4 5 6 
#
# 1 58.2861 1.3983 11.9796 0.0000 0.0000 0.0000
# 2 1.3983 115.7306 38.1332 0.0000 0.0000 0.0000
# 3 11.9796 38.1332 109.8401 0.0000 0.0000 0.0000
# 4 0.0000 0.0000 0.0000 4.0608 0.0000 0.0000
# 5 0.0000 0.0000 0.0000 0.0000 16.8915 0.0000
# 6 0.0000 0.0000 0.0000 0.0000 0.0000 25.2846
#
#
#
# Elastic Compliance Matrix: (Units=1/GPa)
#
#
# Indices 1 2 3 4 5 6 
#
# 1 0.017573 0.000473 -0.002081 0.000000 0.000000 0.000000
# 2 0.000473 0.009770 -0.003443 0.000000 0.000000 0.000000
# 3 -0.002081 -0.003443 0.010527 0.000000 0.000000 0.000000
# 4 0.000000 0.000000 0.000000 0.246254 0.000000 0.000000
# 5 0.000000 0.000000 0.000000 0.000000 0.059201 0.000000
# 6 0.000000 0.000000 0.000000 0.000000 0.000000 0.039550
#
#
# Mechanical properties :
#
#
# Convention : Reuss Voigt Hill
#
# Bulk Modulus (GPa) = 36.01347 42.98655 39.50001
# Shear Modulus (GPa) = 12.43063 24.73709 18.58386
#
# Velocity S-wave (km/s) = 2.31160 3.26092 2.82640
# Velocity P-wave (km/s) = 4.75454 5.71459 5.25653
#
# Compressibility (1/GPa) = 0.02776739
#
# Stress axis : x y z
#
# Youngs Moduli (GPa) = 56.90516 102.35811 94.99815
#
# Poissons Ratio (x) = -0.04845 0.19768
# Poissons Ratio (y) = -0.02693 0.32711
# Poissons Ratio (z) = 0.11841 0.35245
#
# Static dielectric constant tensor:
#      x y z
#    x 1.846760 0.000000 0.000000 
#    y 0.000000 1.958190 0.000000 
#    z 0.000000 0.000000 1.833970 
# 
# From -- ./inp_files/14576.got.cif
#   From: 2010.05.17/outbox.cif.g08.bks.cpg/sg57_8_cif.got.tgz:14576.got - 2010.06.03 13:58:18.
