data_PCOD9440447
_publ_section_title
;
Structure prediction by ZEFSAII (Michael W. Deem and Ramdas Pophale) SiO2 
 PCOD9440447
Probable space group: P B C M
;
_chemical_formula_sum "Si O2"
_cell_formula_units_Z 48
_cell_length_a 9.000000
_cell_length_b 30.000000
_cell_length_c 9.000000
_cell_angle_alpha 90.000000
_cell_angle_beta 90.000000
_cell_angle_gamma 90.000000
_cell_volume 2430.000000
_symmetry_space_group_name_H-M "P B C M"
_symmetry_group_IT_number 57
_symmetry_cell_setting 'orthorhombic'
loop_
_space_group_symop_operation_xyz
x,y,z
-x,-y,1/2+z
x,1/2-y,-z
-x,1/2+y,1/2-z
-x,-y,-z
x,y,1/2-z
-x,1/2+y,z
x,1/2-y,1/2+z
loop_
_atom_site_type_symbol
_atom_site_label
_atom_site_fract_x
_atom_site_fract_y
_atom_site_fract_z
Si Si1 0.343818 0.012288 0.577174
Si Si2 0.187940 0.708112 0.084460
Si Si3 0.605961 0.377520 0.913494
Si Si4 0.006069 0.143916 0.581346
Si Si5 0.337205 0.382632 0.085796
Si Si6 0.181908 0.938565 0.424275
O O1 0.357076 0.001694 0.750000
O O2 0.315808 0.064648 0.564376
O O3 0.500000 0.000000 0.500000
O O4 0.208025 0.984566 0.507798
O O5 0.151358 0.721593 0.250000
O O6 0.300640 0.667194 0.083508
O O7 0.250470 0.750000 0.000000
O O8 0.046630 0.686785 0.005607
O O9 0.621011 0.397808 0.750000
O O10 0.440010 0.366365 0.954839
O O11 0.667980 0.411194 0.036737
O O12 0.946526 0.146795 0.750000
O O13 0.180147 0.140436 0.583887
O O14 0.941369 0.096744 0.521243
O O15 0.404802 0.375546 0.250000
O O16 0.163529 0.946544 0.250000
#
# Coordination Sequence:
#
# PCOD9440447 Si02
#       6
#     8   8   8   8   8   8
#     4  11  21  32  50  77 109 146 192 234 271 317
#     4  10  21  38  61  87 109 136 175 219 268 328
#     4  10  20  34  55  81 108 138 179 224 266 317
#     4   9  20  38  57  79 110 147 183 223 274 328
#     4  10  21  36  54  78 110 147 184 224 274 323
#     4  10  19  33  53  76 105 145 188 228 271 316
#
# _framework density 19.753086
#
# number of rings (size 3 to 8) (size 9 to 14) (size 15 to 20)
#    0.000    2.000    1.667    2.000    0.000    4.667 
#    0.000    0.833    0.000    2.000    0.000    0.000 
#    0.000    0.000    0.000    0.000    0.000    0.000 
#
# Total GULP energy -267396.337652 kJ/mol
# GULP energy per Si atom -5570.757034 kJ/mol
# Density = 1.970813 g / cm^3
# Si number density = 19.753086 Si / 1000 Ang^3
#
#
#
# Elastic Constant Matrix: (Units=GPa)
#
#
# Indices 1 2 3 4 5 6 
#
# 1 25.5870 1.7278 4.4289 0.0000 0.0000 0.0000
# 2 1.7278 26.1255 27.9797 0.0000 0.0000 0.0000
# 3 4.4289 27.9797 43.7946 0.0000 0.0000 0.0000
# 4 0.0000 0.0000 0.0000 17.2134 0.0000 0.0000
# 5 0.0000 0.0000 0.0000 0.0000 5.3063 0.0000
# 6 0.0000 0.0000 0.0000 0.0000 0.0000 -14.0429
#
#
#
# Elastic Compliance Matrix: (Units=1/GPa)
#
#
# Indices 1 2 3 4 5 6 
#
# 1 0.040013 0.005344 -0.007461 0.000000 0.000000 0.000000
# 2 0.005344 0.121931 -0.078440 0.000000 0.000000 0.000000
# 3 -0.007461 -0.078440 0.073703 0.000000 0.000000 0.000000
# 4 0.000000 0.000000 0.000000 0.058094 0.000000 0.000000
# 5 0.000000 0.000000 0.000000 0.000000 0.188457 0.000000
# 6 0.000000 0.000000 0.000000 0.000000 0.000000 -0.071210
#
#
# Mechanical properties :
#
#
# Convention : Reuss Voigt Hill
#
# Bulk Modulus (GPa) = 13.41695 18.19777 15.80736
# Shear Modulus (GPa) = 8.37598 5.78673 7.08136
#
# Velocity S-wave (km/s) = 2.06144 1.71344 1.89545
# Velocity P-wave (km/s) = 3.53173 3.62590 3.57913
#
# Compressibility (1/GPa) = 0.07453260
#
# Stress axis : x y z
#
# Youngs Moduli (GPa) = 24.99196 8.20137 13.56804
#
# Poissons Ratio (x) = -0.04383 0.10123
# Poissons Ratio (y) = -0.13356 1.06428
# Poissons Ratio (z) = 0.18646 0.64332
#
# Static dielectric constant tensor:
#      x y z
#    x 1.748260 0.000000 0.000000 
#    y 0.000000 1.626370 0.000000 
#    z 0.000000 0.000000 1.734920 
# 
# From -- ./inp_files/1993.got.cif
#   From: 2010.05.17/outbox.ucp.g08.bks.cvg/sg57_1_cif.got.tgz:1993.got - 2010.06.11 16:39:23.
