data_PCOD9440717
_publ_section_title
;
Structure prediction by ZEFSAII (Michael W. Deem and Ramdas Pophale) SiO2 
 PCOD9440717
Probable space group: P N N M
;
_chemical_formula_sum "Si O2"
_cell_formula_units_Z 38
_cell_length_a 11.615285
_cell_length_b 7.605642
_cell_length_c 19.940145
_cell_angle_alpha 90.000000
_cell_angle_beta 90.000000
_cell_angle_gamma 90.000000
_cell_volume 1761.546296
_symmetry_space_group_name_H-M "P N N M"
_symmetry_group_IT_number 58
_symmetry_cell_setting 'orthorhombic'
loop_
_space_group_symop_operation_xyz
x,y,z
-x,-y,z
1/2+x,1/2-y,1/2-z
1/2-x,1/2+y,1/2-z
-x,-y,-z
x,y,-z
1/2-x,1/2+y,1/2+z
1/2+x,1/2-y,1/2+z
loop_
_atom_site_type_symbol
_atom_site_label
_atom_site_fract_x
_atom_site_fract_y
_atom_site_fract_z
Si Si1 0.366878 0.486820 0.000000
Si Si2 0.901250 0.353880 0.754619
Si Si3 0.805480 0.467524 0.892564
Si Si4 0.231124 0.116727 0.870390
Si Si5 0.634955 0.936862 0.000000
Si Si6 0.000000 0.000000 0.198597
Si Si7 0.500000 0.000000 0.500000
O O1 0.500000 0.500000 0.000000
O O2 0.309363 0.571308 0.934448
O O3 0.352346 0.275884 0.000000
O O4 0.823357 0.378603 0.821172
O O5 0.821341 0.378447 0.690483
O O6 0.000000 0.500000 0.757533
O O7 0.965498 0.167483 0.757042
O O8 0.801385 0.679825 0.885054
O O9 0.911710 0.428477 0.941327
O O10 0.111468 0.033536 0.847123
O O11 0.293145 0.019770 0.932686
O O12 0.500000 0.000000 0.000000
#
# Coordination Sequence:
#
# PCOD9440717 Si02
#       7
#     4   8   8   8   4   4   2
#     4   9  21  39  65  97 127 185 233 272 357 423
#     4  12  24  45  68 101 143 182 233 293 354 414
#     4  10  20  41  66  94 139 173 225 296 342 409
#     4  11  24  45  66 103 141 184 238 291 353 430
#     4  10  23  45  67  96 145 188 230 299 354 410
#     4  12  26  41  74 107 132 192 234 286 368 421
#     4  10  16  36  74  90 120 182 222 278 350 394
#
# _framework density 21.571957000000001
#
# number of rings (size 3 to 8) (size 9 to 14) (size 15 to 20)
#    0.000    1.263    3.158    2.526    0.000    2.105 
#   17.053    1.053    0.000    0.000    0.000    0.000 
#    0.000    0.000    0.000    0.000    0.000    0.000 
#
# Total GULP energy -211822.783845 kJ/mol
# GULP energy per Si atom -5574.283785 kJ/mol
# Density = 2.152286 g / cm^3
# Si number density = 21.571957 Si / 1000 Ang^3
#
#
#
# Elastic Constant Matrix: (Units=GPa)
#
#
# Indices 1 2 3 4 5 6 
#
# 1 169.3860 31.1657 77.5294 0.0000 0.0000 0.0000
# 2 31.1657 83.6478 39.2967 0.0000 0.0000 0.0000
# 3 77.5294 39.2967 148.2297 0.0000 0.0000 0.0000
# 4 0.0000 0.0000 0.0000 -44.0487 0.0000 0.0000
# 5 0.0000 0.0000 0.0000 0.0000 -29.2655 0.0000
# 6 0.0000 0.0000 0.0000 0.0000 0.0000 27.8072
#
#
#
# Elastic Compliance Matrix: (Units=1/GPa)
#
#
# Indices 1 2 3 4 5 6 
#
# 1 0.007856 -0.001138 -0.003807 0.000000 0.000000 0.000000
# 2 -0.001138 0.013821 -0.003069 0.000000 0.000000 0.000000
# 3 -0.003807 -0.003069 0.009551 0.000000 0.000000 0.000000
# 4 0.000000 0.000000 0.000000 -0.022702 0.000000 0.000000
# 5 0.000000 0.000000 0.000000 0.000000 -0.034170 0.000000
# 6 0.000000 0.000000 0.000000 0.000000 0.000000 0.035962
#
#
# Mechanical properties :
#
#
# Convention : Reuss Voigt Hill
#
# Bulk Modulus (GPa) = 65.79211 77.47193 71.63202
# Shear Modulus (GPa) = 159.17932 7.78339 83.48135
#
# Velocity S-wave (km/s) = 8.59943 1.90156 6.22760
# Velocity P-wave (km/s) = 11.36509 6.38846 9.21894
#
# Compressibility (1/GPa) = 0.01519939
#
# Stress axis : x y z
#
# Youngs Moduli (GPa) = 127.29751 72.35585 104.70168
#
# Poissons Ratio (x) = 0.08237 0.39860
# Poissons Ratio (y) = 0.14492 0.32128
# Poissons Ratio (z) = 0.48462 0.22202
#
# Static dielectric constant tensor:
#      x y z
#    x 1.756610 0.000000 0.000000 
#    y 0.000000 1.804100 0.000000 
#    z 0.000000 0.000000 1.793870 
# 
# From -- ./inp_files/25967.got.cif
#   From: 2010.05.17/outbox.cif.g08.bks.cpg/sg58_13_cif.got.tgz:25967.got - 2010.06.03 14:20:14.
