data_PCOD9440375
_publ_section_title
;
Structure prediction by ZEFSAII (Michael W. Deem and Ramdas Pophale) SiO2 
 PCOD9440375
Probable space group: P B C M
;
_chemical_formula_sum "Si O2"
_cell_formula_units_Z 28
_cell_length_a 6.732662
_cell_length_b 11.881541
_cell_length_c 14.863245
_cell_angle_alpha 90.000000
_cell_angle_beta 90.000000
_cell_angle_gamma 90.000000
_cell_volume 1188.976360
_symmetry_space_group_name_H-M "P B C M"
_symmetry_group_IT_number 57
_symmetry_cell_setting 'orthorhombic'
loop_
_space_group_symop_operation_xyz
x,y,z
-x,-y,1/2+z
x,1/2-y,-z
-x,1/2+y,1/2-z
-x,-y,-z
x,y,1/2-z
-x,1/2+y,z
x,1/2-y,1/2+z
loop_
_atom_site_type_symbol
_atom_site_label
_atom_site_fract_x
_atom_site_fract_y
_atom_site_fract_z
Si Si1 0.205247 0.522826 0.750000
Si Si2 0.324368 0.472239 0.250000
Si Si3 0.560850 0.375916 0.906647
Si Si4 0.808375 0.460185 0.053442
Si Si5 0.661844 0.729236 0.250000
O O1 0.438766 0.549422 0.750000
O O2 0.130862 0.568238 0.655236
O O3 0.202455 0.384404 0.750000
O O4 0.304373 0.546825 0.339330
O O5 0.233781 0.348985 0.250000
O O6 0.359325 0.442014 0.935887
O O7 0.475748 0.281286 0.839557
O O8 0.692003 0.366913 0.995709
O O9 0.000000 0.500000 0.000000
#
# Coordination Sequence:
#
# PCOD9440375 Si02
#       5
#     4   4   8   8   4
#     4   8  18  30  44  74  94 114 170 196 218 298
#     4   8  14  29  51  71  98 125 147 194 237 269
#     4   8  17  30  48  75  93 120 165 182 226 301
#     4   9  16  31  51  67  95 128 152 197 241 270
#     4   8  14  29  51  71  98 125 147 194 237 269
#
# _framework density 23.549668
#
# number of rings (size 3 to 8) (size 9 to 14) (size 15 to 20)
#    0.000    4.571    0.000    0.000    0.000    2.286 
#    0.000   24.286    0.000   41.143    0.000    0.000 
#    0.000    0.000    0.000    0.000    0.000    0.000 
#
# Total GULP energy -155933.783613 kJ/mol
# GULP energy per Si atom -5569.063700 kJ/mol
# Density = 2.349607 g / cm^3
# Si number density = 23.549668 Si / 1000 Ang^3
#
#
#
# Elastic Constant Matrix: (Units=GPa)
#
#
# Indices 1 2 3 4 5 6 
#
# 1 95.2473 0.5556 51.8955 0.0000 0.0000 0.0000
# 2 0.5556 68.5567 21.6015 0.0000 0.0000 0.0000
# 3 51.8955 21.6015 213.1941 0.0000 0.0000 0.0000
# 4 0.0000 0.0000 0.0000 7.8362 0.0000 0.0000
# 5 0.0000 0.0000 0.0000 0.0000 17.2387 0.0000
# 6 0.0000 0.0000 0.0000 0.0000 0.0000 0.0544
#
#
#
# Elastic Compliance Matrix: (Units=1/GPa)
#
#
# Indices 1 2 3 4 5 6 
#
# 1 0.012153 0.000861 -0.003046 0.000000 0.000000 0.000000
# 2 0.000861 0.015129 -0.001742 0.000000 0.000000 0.000000
# 3 -0.003046 -0.001742 0.005608 0.000000 0.000000 0.000000
# 4 0.000000 0.000000 0.000000 0.127613 0.000000 0.000000
# 5 0.000000 0.000000 0.000000 0.000000 0.058009 0.000000
# 6 0.000000 0.000000 0.000000 0.000000 0.000000 18.396224
#
#
# Mechanical properties :
#
#
# Convention : Reuss Voigt Hill
#
# Bulk Modulus (GPa) = 39.94174 58.34480 49.14327
# Shear Modulus (GPa) = 0.26837 25.22222 12.74530
#
# Velocity S-wave (km/s) = 0.33795 3.27620 2.32891
# Velocity P-wave (km/s) = 4.14122 6.25622 5.30519
#
# Compressibility (1/GPa) = 0.02503647
#
# Stress axis : x y z
#
# Youngs Moduli (GPa) = 82.28171 66.10028 178.30148
#
# Poissons Ratio (x) = -0.05692 0.54304
# Poissons Ratio (y) = -0.07086 0.31069
# Poissons Ratio (z) = 0.25060 0.11518
#
# Static dielectric constant tensor:
#      x y z
#    x 1.906960 0.000000 0.000000 
#    y 0.000000 2.007980 0.000000 
#    z 0.000000 0.000000 1.959660 
# 
# From -- ./inp_files/15645.got.cif
#   From: 2010.05.17/outbox.cif.g08.bks.cpg/sg57_8_cif.got.tgz:15645.got - 2010.06.03 13:58:18.
