data_PCOD9440721
_publ_section_title
;
Structure prediction by ZEFSAII (Michael W. Deem and Ramdas Pophale) SiO2 
 PCOD9440721
Probable space group: P N N M
;
_chemical_formula_sum "Si O2"
_cell_formula_units_Z 48
_cell_length_a 7.319636
_cell_length_b 33.251224
_cell_length_c 9.132982
_cell_angle_alpha 90.000000
_cell_angle_beta 90.000000
_cell_angle_gamma 90.000000
_cell_volume 2222.847777
_symmetry_space_group_name_H-M "P N N M"
_symmetry_group_IT_number 58
_symmetry_cell_setting 'orthorhombic'
loop_
_space_group_symop_operation_xyz
x,y,z
-x,-y,z
1/2+x,1/2-y,1/2-z
1/2-x,1/2+y,1/2-z
-x,-y,-z
x,y,-z
1/2-x,1/2+y,1/2+z
1/2+x,1/2-y,1/2+z
loop_
_atom_site_type_symbol
_atom_site_label
_atom_site_fract_x
_atom_site_fract_y
_atom_site_fract_z
Si Si1 0.784779 0.205896 0.336265
Si Si2 0.220734 0.213451 0.663324
Si Si3 0.767139 0.959622 0.671087
Si Si4 0.210746 0.126568 0.321415
Si Si5 0.688861 0.627070 0.326090
Si Si6 0.288436 0.453334 0.827734
O O1 0.711621 0.201015 0.500000
O O2 0.742573 0.249386 0.270575
O O3 0.728640 0.168345 0.236704
O O4 0.004585 0.205344 0.345239
O O5 0.285233 0.224691 0.500000
O O6 0.302026 0.169919 0.706487
O O7 0.718580 0.962530 0.500000
O O8 0.697794 0.915958 0.721723
O O9 0.989070 0.956168 0.678726
O O10 0.718954 0.003603 0.732136
O O11 0.178803 0.125046 0.500000
O O12 0.020151 0.127020 0.233676
O O13 0.693296 0.626615 0.500000
O O14 0.769191 0.586147 0.258848
O O15 0.242644 0.448881 0.000000
#
# Coordination Sequence:
#
# PCOD9440721 Si02
#       6
#     8   8   8   8   8   8
#     4  10  20  33  48  65  88 118 149 182 221 264
#     4   9  18  31  47  67  89 114 147 185 220 257
#     4   7  10  18  34  51  70 103 140 169 201 249
#     4   8  14  26  40  55  79 110 142 174 212 257
#     4  10  17  24  36  55  80 109 141 177 216 255
#     4   8  12  20  33  49  72 104 140 171 204 250
#
# _framework density 21.593924000000001
#
# number of rings (size 3 to 8) (size 9 to 14) (size 15 to 20)
#    0.000    3.333    0.000    5.000    0.000    3.333 
#    0.000    6.667    0.000    0.000    0.000    0.000 
#    0.000    1.333    0.000   15.333    0.000   14.167 
#
# Total GULP energy -267362.713829 kJ/mol
# GULP energy per Si atom -5570.056538 kJ/mol
# Density = 2.154477 g / cm^3
# Si number density = 21.593924 Si / 1000 Ang^3
#
#
#
# Elastic Constant Matrix: (Units=GPa)
#
#
# Indices 1 2 3 4 5 6 
#
# 1 64.3650 0.8886 15.2932 0.0000 0.0000 0.0000
# 2 0.8886 263.5586 101.2070 0.0000 0.0000 0.0000
# 3 15.2932 101.2070 101.3254 0.0000 0.0000 0.0000
# 4 0.0000 0.0000 0.0000 33.0071 0.0000 0.0000
# 5 0.0000 0.0000 0.0000 0.0000 9.8172 0.0000
# 6 0.0000 0.0000 0.0000 0.0000 0.0000 0.7398
#
#
#
# Elastic Compliance Matrix: (Units=1/GPa)
#
#
# Indices 1 2 3 4 5 6 
#
# 1 0.016452 0.001457 -0.003938 0.000000 0.000000 0.000000
# 2 0.001457 0.006284 -0.006497 0.000000 0.000000 0.000000
# 3 -0.003938 -0.006497 0.016953 0.000000 0.000000 0.000000
# 4 0.000000 0.000000 0.000000 0.030297 0.000000 0.000000
# 5 0.000000 0.000000 0.000000 0.000000 0.101862 0.000000
# 6 0.000000 0.000000 0.000000 0.000000 0.000000 1.351760
#
#
# Mechanical properties :
#
#
# Convention : Reuss Voigt Hill
#
# Bulk Modulus (GPa) = 46.01373 73.78073 59.89723
# Shear Modulus (GPa) = 3.22829 29.50349 16.36589
#
# Velocity S-wave (km/s) = 1.22403 3.70034 2.75597
# Velocity P-wave (km/s) = 4.83245 7.24557 6.15836
#
# Compressibility (1/GPa) = 0.02173265
#
# Stress axis : x y z
#
# Youngs Moduli (GPa) = 60.78283 159.13444 58.98817
#
# Poissons Ratio (x) = -0.23183 0.23231
# Poissons Ratio (y) = -0.08855 0.38322
# Poissons Ratio (z) = 0.23938 1.03382
#
# Static dielectric constant tensor:
#      x y z
#    x 1.939930 0.000000 0.000000 
#    y 0.000000 1.871590 0.000000 
#    z 0.000000 0.000000 1.734440 
# 
# From -- ./inp_files/4500.got.cif
#   From: 2010.05.17/outbox.cif.g08.bks.cpg/sg58_3_cif.got.tgz:4500.got - 2010.06.03 14:20:14.
