data_PCOD9440815
_publ_section_title
;
Structure prediction by ZEFSAII (Michael W. Deem and Ramdas Pophale) SiO2 
 PCOD9440815
Probable space group: P N N M
;
_chemical_formula_sum "Si O2"
_cell_formula_units_Z 64
_cell_length_a 10.016005
_cell_length_b 14.234113
_cell_length_c 21.361566
_cell_angle_alpha 90.000000
_cell_angle_beta 90.000000
_cell_angle_gamma 90.000000
_cell_volume 3045.495970
_symmetry_space_group_name_H-M "P N N M"
_symmetry_group_IT_number 58
_symmetry_cell_setting 'orthorhombic'
loop_
_space_group_symop_operation_xyz
x,y,z
-x,-y,z
1/2+x,1/2-y,1/2-z
1/2-x,1/2+y,1/2-z
-x,-y,-z
x,y,-z
1/2-x,1/2+y,1/2+z
1/2+x,1/2-y,1/2+z
loop_
_atom_site_type_symbol
_atom_site_label
_atom_site_fract_x
_atom_site_fract_y
_atom_site_fract_z
Si Si1 0.675927 0.088820 0.430133
Si Si2 0.915375 0.300157 0.885630
Si Si3 0.522258 0.392269 0.784346
Si Si4 0.639601 0.307542 0.329529
Si Si5 0.347399 0.220655 0.929671
Si Si6 0.863009 0.746738 0.619651
Si Si7 0.848925 0.468323 0.188433
Si Si8 0.266486 0.858202 0.242212
O O1 0.680459 0.049222 0.500000
O O2 0.526684 0.133390 0.419001
O O3 0.784296 0.173252 0.426070
O O4 0.705063 0.013213 0.376610
O O5 0.004631 0.209720 0.868864
O O6 0.774236 0.272444 0.916375
O O7 0.862254 0.357215 0.823740
O O8 0.500000 0.500000 0.800008
O O9 0.580365 0.336863 0.842706
O O10 0.211404 0.467601 0.757085
O O11 0.620120 0.380847 0.725497
O O12 0.762831 0.328628 0.374860
O O13 0.659997 0.207791 0.293365
O O14 0.388087 0.343471 0.240699
O O15 0.505659 0.215243 0.917872
O O16 0.316773 0.187295 0.000000
O O17 0.816617 0.674091 0.674384
O O18 0.000000 0.500000 0.192315
#
# Coordination Sequence:
#
# PCOD9440815 Si02
#       8
#     8   8   8   8   8   8   8   8
#     4   9  18  33  52  73 107 149 191 226 259 324
#     4  10  19  32  51  76 108 148 185 230 270 325
#     4  11  22  35  57  85 120 151 185 234 290 347
#     4  10  19  38  55  79 114 150 193 228 278 338
#     4  10  20  38  59  79 109 156 194 227 280 341
#     4  11  22  34  56  80 118 146 184 237 283 331
#     4  10  17  30  50  77 111 149 187 217 274 329
#     4  11  19  34  53  80 118 146 182 230 280 337
#
# _framework density 21.014638999999999
#
# number of rings (size 3 to 8) (size 9 to 14) (size 15 to 20)
#    0.000    1.750    6.250    0.750    0.000    2.750 
#    2.250    0.000    0.000    2.250    0.000    0.875 
#    0.000    0.000    0.000    0.000    0.000    0.000 
#
# Total GULP energy -356681.526150 kJ/mol
# GULP energy per Si atom -5573.148846 kJ/mol
# Density = 2.096681 g / cm^3
# Si number density = 21.014639 Si / 1000 Ang^3
#
#
#
# Elastic Constant Matrix: (Units=GPa)
#
#
# Indices 1 2 3 4 5 6 
#
# 1 114.3123 3.4208 1.1273 0.0000 0.0000 0.0000
# 2 3.4208 47.4998 12.9696 0.0000 0.0000 0.0000
# 3 1.1273 12.9696 50.7305 0.0000 0.0000 0.0000
# 4 0.0000 0.0000 0.0000 8.2704 0.0000 0.0000
# 5 0.0000 0.0000 0.0000 0.0000 21.5150 0.0000
# 6 0.0000 0.0000 0.0000 0.0000 0.0000 21.1961
#
#
#
# Elastic Compliance Matrix: (Units=1/GPa)
#
#
# Indices 1 2 3 4 5 6 
#
# 1 0.008767 -0.000622 -0.000036 0.000000 0.000000 0.000000
# 2 -0.000622 0.022677 -0.005784 0.000000 0.000000 0.000000
# 3 -0.000036 -0.005784 0.021191 0.000000 0.000000 0.000000
# 4 0.000000 0.000000 0.000000 0.120913 0.000000 0.000000
# 5 0.000000 0.000000 0.000000 0.000000 0.046479 0.000000
# 6 0.000000 0.000000 0.000000 0.000000 0.000000 0.047179
#
#
# Mechanical properties :
#
#
# Convention : Reuss Voigt Hill
#
# Bulk Modulus (GPa) = 25.15545 27.50867 26.33206
# Shear Modulus (GPa) = 17.04516 23.19798 20.12157
#
# Velocity S-wave (km/s) = 2.85109 3.32610 3.09771
# Velocity P-wave (km/s) = 4.77857 5.27913 5.03507
#
# Compressibility (1/GPa) = 0.03975281
#
# Stress axis : x y z
#
# Youngs Moduli (GPa) = 114.06518 44.09824 47.18894
#
# Poissons Ratio (x) = 0.02741 0.00169
# Poissons Ratio (y) = 0.07090 0.27292
# Poissons Ratio (z) = 0.00410 0.25505
#
# Static dielectric constant tensor:
#      x y z
#    x 1.879790 0.000000 0.000000 
#    y 0.000000 1.779950 0.000000 
#    z 0.000000 0.000000 1.768660 
# 
# From -- ./inp_files/29203.got.cif
#   From: 2010.05.17/outbox.cif.g08.bks.cpg/sg58_15_cif.got.tgz:29203.got - 2010.06.03 14:20:14.
