data_PCOD9440818
_publ_section_title
;
Structure prediction by ZEFSAII (Michael W. Deem and Ramdas Pophale) SiO2 
 PCOD9440818
Probable space group: P N N M
;
_chemical_formula_sum "Si O2"
_cell_formula_units_Z 56
_cell_length_a 16.039311
_cell_length_b 8.067377
_cell_length_c 22.160208
_cell_angle_alpha 90.000000
_cell_angle_beta 90.000000
_cell_angle_gamma 90.000000
_cell_volume 2867.423852
_symmetry_space_group_name_H-M "P N N M"
_symmetry_group_IT_number 58
_symmetry_cell_setting 'orthorhombic'
loop_
_space_group_symop_operation_xyz
x,y,z
-x,-y,z
1/2+x,1/2-y,1/2-z
1/2-x,1/2+y,1/2-z
-x,-y,-z
x,y,-z
1/2-x,1/2+y,1/2+z
1/2+x,1/2-y,1/2+z
loop_
_atom_site_type_symbol
_atom_site_label
_atom_site_fract_x
_atom_site_fract_y
_atom_site_fract_z
Si Si1 0.364780 0.425246 0.858307
Si Si2 0.480371 0.737858 0.173153
Si Si3 0.251313 0.648246 0.068497
Si Si4 0.456160 0.180064 0.698767
Si Si5 0.818011 0.615404 0.669857
Si Si6 0.716721 0.792270 0.762951
Si Si7 0.053734 0.668502 0.066518
O O1 0.434516 0.280979 0.865112
O O2 0.421624 0.584771 0.845033
O O3 0.301166 0.485495 0.909165
O O4 0.310945 0.367162 0.801426
O O5 0.505668 0.726646 0.243466
O O6 0.418038 0.892311 0.164801
O O7 0.277929 0.800377 0.111460
O O8 0.151903 0.625449 0.070944
O O9 0.275021 0.684723 0.000000
O O10 0.358393 0.165284 0.716485
O O11 0.466351 0.252898 0.631284
O O12 0.500000 0.000000 0.698427
O O13 0.796441 0.740336 0.724996
O O14 0.778054 0.442690 0.690100
O O15 0.000000 0.500000 0.065549
O O16 0.040869 0.749956 0.000000
#
# Coordination Sequence:
#
# PCOD9440818 Si02
#       7
#     8   8   8   8   8   8   8
#     4   9  20  35  53  82 109 144 185 233 286 339
#     4   9  18  33  52  78 112 140 179 234 290 340
#     4  10  20  37  57  80 114 155 194 234 281 342
#     4  10  17  30  52  81 107 148 183 230 288 336
#     4  11  20  34  52  82 111 146 184 238 290 345
#     4  11  21  32  55  83 115 143 187 237 294 345
#     4   9  18  31  50  79 113 149 194 227 264 334
#
# _framework density 19.529724999999999
#
# number of rings (size 3 to 8) (size 9 to 14) (size 15 to 20)
#    0.000    2.143    2.857    1.714    0.000    0.000 
#    0.000    6.429    0.000    0.000    0.000   26.000 
#    0.000    0.429    0.000    0.000    0.000    0.000 
#
# Total GULP energy -311833.232425 kJ/mol
# GULP energy per Si atom -5568.450579 kJ/mol
# Density = 1.948527 g / cm^3
# Si number density = 19.529725 Si / 1000 Ang^3
#
#
#
# Elastic Constant Matrix: (Units=GPa)
#
#
# Indices 1 2 3 4 5 6 
#
# 1 64.2514 -4.6562 5.3722 0.0000 0.0000 0.0000
# 2 -4.6562 39.1670 9.0980 0.0000 0.0000 0.0000
# 3 5.3722 9.0980 101.5119 0.0000 0.0000 0.0000
# 4 0.0000 0.0000 0.0000 2.7073 0.0000 0.0000
# 5 0.0000 0.0000 0.0000 0.0000 25.6959 0.0000
# 6 0.0000 0.0000 0.0000 0.0000 0.0000 19.1254
#
#
#
# Elastic Compliance Matrix: (Units=1/GPa)
#
#
# Indices 1 2 3 4 5 6 
#
# 1 0.015803 0.002117 -0.001026 0.000000 0.000000 0.000000
# 2 0.002117 0.026358 -0.002474 0.000000 0.000000 0.000000
# 3 -0.001026 -0.002474 0.010127 0.000000 0.000000 0.000000
# 4 0.000000 0.000000 0.000000 0.369375 0.000000 0.000000
# 5 0.000000 0.000000 0.000000 0.000000 0.038917 0.000000
# 6 0.000000 0.000000 0.000000 0.000000 0.000000 0.052286
#
#
# Mechanical properties :
#
#
# Convention : Reuss Voigt Hill
#
# Bulk Modulus (GPa) = 20.19325 24.95092 22.57208
# Shear Modulus (GPa) = 9.39600 22.51346 15.95473
#
# Velocity S-wave (km/s) = 2.19581 3.39894 2.86133
# Velocity P-wave (km/s) = 4.09768 5.31106 4.74333
#
# Compressibility (1/GPa) = 0.04952150
#
# Stress axis : x y z
#
# Youngs Moduli (GPa) = 63.27880 37.93894 98.74469
#
# Poissons Ratio (x) = -0.08032 0.10132
# Poissons Ratio (y) = -0.13396 0.24433
# Poissons Ratio (z) = 0.06493 0.09388
#
# Static dielectric constant tensor:
#      x y z
#    x 1.728260 0.000000 0.000000 
#    y 0.000000 1.746410 0.000000 
#    z 0.000000 0.000000 1.690590 
# 
# From -- ./inp_files/30239.got.cif
#   From: 2010.05.17/outbox.cif.g08.bks.cpg/sg58_16_cif.got.tgz:30239.got - 2010.06.03 14:20:14.
