data_PCOD9440556
_publ_section_title
;
Structure prediction by ZEFSAII (Michael W. Deem and Ramdas Pophale) SiO2 
 PCOD9440556
Probable space group: P B C M
;
_chemical_formula_sum "Si O2"
_cell_formula_units_Z 48
_cell_length_a 15.000000
_cell_length_b 9.000000
_cell_length_c 18.000000
_cell_angle_alpha 90.000000
_cell_angle_beta 90.000000
_cell_angle_gamma 90.000000
_cell_volume 2430.000000
_symmetry_space_group_name_H-M "P B C M"
_symmetry_group_IT_number 57
_symmetry_cell_setting 'orthorhombic'
loop_
_space_group_symop_operation_xyz
x,y,z
-x,-y,1/2+z
x,1/2-y,-z
-x,1/2+y,1/2-z
-x,-y,-z
x,y,1/2-z
-x,1/2+y,z
x,1/2-y,1/2+z
loop_
_atom_site_type_symbol
_atom_site_label
_atom_site_fract_x
_atom_site_fract_y
_atom_site_fract_z
Si Si1 0.096665 0.702461 0.161928
Si Si2 0.411761 0.170999 0.418507
Si Si3 0.457442 0.465006 0.338349
Si Si4 0.791277 0.705601 0.084774
Si Si5 0.743279 0.486449 0.661712
Si Si6 0.037660 0.998470 0.085067
O O1 0.090899 0.736392 0.250000
O O2 0.196678 0.653866 0.141470
O O3 0.036968 0.561320 0.140373
O O4 0.062268 0.833824 0.110300
O O5 0.422022 0.250000 0.500000
O O6 0.441604 0.292876 0.357581
O O7 0.471407 0.031159 0.395927
O O8 0.307113 0.134028 0.408640
O O9 0.477590 0.484874 0.250000
O O10 0.360343 0.534299 0.356631
O O11 0.874632 0.599499 0.099933
O O12 0.782341 0.861197 0.128257
O O13 0.803264 0.750000 0.000000
O O14 0.748643 0.503320 0.750000
O O15 0.000000 0.000000 0.000000
#
# Coordination Sequence:
#
# PCOD9440556 Si02
#       6
#     8   8   8   8   8   8
#     4  11  23  39  58  84 114 149 189 235 286 341
#     4  10  21  37  58  85 116 152 192 235 284 338
#     4  10  20  37  59  86 118 155 193 236 285 337
#     4  10  21  38  59  83 113 149 189 233 285 341
#     4   9  20  38  59  82 116 155 192 233 284 338
#     4  12  24  39  60  86 114 148 191 238 288 345
#
# _framework density 19.753086
#
# number of rings (size 3 to 8) (size 9 to 14) (size 15 to 20)
#    0.000    1.667    0.000    5.000    0.000    4.667 
#    0.000    3.333    0.000    0.000    0.000    0.000 
#    0.000    0.000    0.000    0.000    0.000    0.000 
#
# Total GULP energy -267814.659502 kJ/mol
# GULP energy per Si atom -5579.472073 kJ/mol
# Density = 1.970813 g / cm^3
# Si number density = 19.753086 Si / 1000 Ang^3
#
#
#
# Elastic Constant Matrix: (Units=GPa)
#
#
# Indices 1 2 3 4 5 6 
#
# 1 65.8680 3.9750 10.5169 0.0000 0.0000 0.0000
# 2 3.9750 13.2782 2.2771 0.0000 0.0000 0.0000
# 3 10.5169 2.2771 44.7772 0.0000 0.0000 0.0000
# 4 0.0000 0.0000 0.0000 28.7798 0.0000 0.0000
# 5 0.0000 0.0000 0.0000 0.0000 29.0653 0.0000
# 6 0.0000 0.0000 0.0000 0.0000 0.0000 35.1701
#
#
#
# Elastic Compliance Matrix: (Units=1/GPa)
#
#
# Indices 1 2 3 4 5 6 
#
# 1 0.016000 -0.004182 -0.003545 0.000000 0.000000 0.000000
# 2 -0.004182 0.077067 -0.002937 0.000000 0.000000 0.000000
# 3 -0.003545 -0.002937 0.023315 0.000000 0.000000 0.000000
# 4 0.000000 0.000000 0.000000 0.034747 0.000000 0.000000
# 5 0.000000 0.000000 0.000000 0.000000 0.034405 0.000000
# 6 0.000000 0.000000 0.000000 0.000000 0.000000 0.028433
#
#
# Mechanical properties :
#
#
# Convention : Reuss Voigt Hill
#
# Bulk Modulus (GPa) = 10.52038 17.49571 14.00805
# Shear Modulus (GPa) = 18.72800 25.74668 22.23734
#
# Velocity S-wave (km/s) = 3.08247 3.61422 3.35888
# Velocity P-wave (km/s) = 4.24339 5.12769 4.70635
#
# Compressibility (1/GPa) = 0.09505358
#
# Stress axis : x y z
#
# Youngs Moduli (GPa) = 62.49871 12.97576 42.89110
#
# Poissons Ratio (x) = 0.05426 0.15206
# Poissons Ratio (y) = 0.26136 0.12597
# Poissons Ratio (z) = 0.22158 0.03811
#
# Static dielectric constant tensor:
#      x y z
#    x 1.767260 0.000000 0.000000 
#    y 0.000000 1.901000 0.000000 
#    z 0.000000 0.000000 1.669820 
# 
# From -- ./inp_files/22428.got.cif
#   From: 2010.05.17/outbox.ucp.g08.bks.cvg/sg57_12_cif.got.tgz:22428.got - 2010.06.11 16:39:23.
