data_PCOD9440557
_publ_section_title
;
Structure prediction by ZEFSAII (Michael W. Deem and Ramdas Pophale) SiO2 
 PCOD9440557
Probable space group: P B C M
;
_chemical_formula_sum "Si O2"
_cell_formula_units_Z 40
_cell_length_a 24.000000
_cell_length_b 9.000000
_cell_length_c 9.000000
_cell_angle_alpha 90.000000
_cell_angle_beta 90.000000
_cell_angle_gamma 90.000000
_cell_volume 1944.000000
_symmetry_space_group_name_H-M "P B C M"
_symmetry_group_IT_number 57
_symmetry_cell_setting 'orthorhombic'
loop_
_space_group_symop_operation_xyz
x,y,z
-x,-y,1/2+z
x,1/2-y,-z
-x,1/2+y,1/2-z
-x,-y,-z
x,y,1/2-z
-x,1/2+y,z
x,1/2-y,1/2+z
loop_
_atom_site_type_symbol
_atom_site_label
_atom_site_fract_x
_atom_site_fract_y
_atom_site_fract_z
Si Si1 0.457782 0.898257 0.086919
Si Si2 0.645077 0.612297 0.414698
Si Si3 0.952366 0.905280 0.073571
Si Si4 0.725014 0.097912 0.072936
Si Si5 0.852853 0.103237 0.073518
O O1 0.480304 0.864661 0.250000
O O2 0.400696 0.986246 0.097417
O O3 0.447976 0.750000 0.000000
O O4 0.500000 0.000000 0.000000
O O5 0.619094 0.750000 0.500000
O O6 0.663860 0.654710 0.250000
O O7 0.693994 0.544821 0.511993
O O8 0.958426 0.903618 0.250000
O O9 0.891713 0.967978 0.035628
O O10 0.958109 0.750000 0.000000
O O11 0.000000 0.000000 0.000000
O O12 0.720531 0.108805 0.250000
O O13 0.789340 0.085686 0.025858
O O14 0.702840 0.250000 0.000000
O O15 0.852699 0.123643 0.250000
O O16 0.877133 0.250000 0.000000
#
# Coordination Sequence:
#
# PCOD9440557 Si02
#       5
#     8   8   8   8   8
#     4  11  24  41  63  89 119 153 192 236 286 340
#     4  11  24  40  59  86 118 154 193 238 287 338
#     4  11  23  39  58  83 114 149 189 234 284 339
#     4  10  20  37  60  86 116 152 192 235 283 338
#     4   9  20  37  58  84 114 148 188 233 283 337
#
# _framework density 20.576132000000001
#
# number of rings (size 3 to 8) (size 9 to 14) (size 15 to 20)
#    0.000    1.600    0.000    4.200    0.000   11.200 
#    0.000    2.000    0.000    0.000    0.000    0.000 
#    0.000    0.000    0.000    0.000    0.000    0.000 
#
# Total GULP energy -223135.887211 kJ/mol
# GULP energy per Si atom -5578.397180 kJ/mol
# Density = 2.052930 g / cm^3
# Si number density = 20.576132 Si / 1000 Ang^3
#
#
#
# Elastic Constant Matrix: (Units=GPa)
#
#
# Indices 1 2 3 4 5 6 
#
# 1 53.4099 40.9923 38.8668 0.0000 0.0000 0.0000
# 2 40.9923 122.7480 61.3568 0.0000 0.0000 0.0000
# 3 38.8668 61.3568 76.9227 0.0000 0.0000 0.0000
# 4 0.0000 0.0000 0.0000 28.8428 0.0000 0.0000
# 5 0.0000 0.0000 0.0000 0.0000 13.9569 0.0000
# 6 0.0000 0.0000 0.0000 0.0000 0.0000 35.4730
#
#
#
# Elastic Compliance Matrix: (Units=1/GPa)
#
#
# Indices 1 2 3 4 5 6 
#
# 1 0.030846 -0.004175 -0.012255 0.000000 0.000000 0.000000
# 2 -0.004175 0.014114 -0.009148 0.000000 0.000000 0.000000
# 3 -0.012255 -0.009148 0.026489 0.000000 0.000000 0.000000
# 4 0.000000 0.000000 0.000000 0.034671 0.000000 0.000000
# 5 0.000000 0.000000 0.000000 0.000000 0.071649 0.000000
# 6 0.000000 0.000000 0.000000 0.000000 0.000000 0.028190
#
#
# Mechanical properties :
#
#
# Convention : Reuss Voigt Hill
#
# Bulk Modulus (GPa) = 49.28114 59.50140 54.39127
# Shear Modulus (GPa) = 18.94796 23.11218 21.03007
#
# Velocity S-wave (km/s) = 3.03788 3.35513 3.20044
# Velocity P-wave (km/s) = 6.02558 6.63247 6.33629
#
# Compressibility (1/GPa) = 0.02029174
#
# Stress axis : x y z
#
# Youngs Moduli (GPa) = 32.41929 70.85171 37.75113
#
# Poissons Ratio (x) = 0.29583 0.46265
# Poissons Ratio (y) = 0.13536 0.34536
# Poissons Ratio (z) = 0.39730 0.64817
#
# Static dielectric constant tensor:
#      x y z
#    x 2.020090 0.000000 0.000000 
#    y 0.000000 1.729970 0.000000 
#    z 0.000000 0.000000 1.674110 
# 
# From -- ./inp_files/8861.got.cif
#   From: 2010.05.17/outbox.ucp.g08.bks.cvg/sg57_5_cif.got.tgz:8861.got - 2010.06.11 16:39:23.
