data_PCOD9440215
_publ_section_title
;
Structure prediction by ZEFSAII (Michael W. Deem and Ramdas Pophale) SiO2 
 PCOD9440215
Probable space group: P B C M
;
_chemical_formula_sum "Si O2"
_cell_formula_units_Z 40
_cell_length_a 26.204213
_cell_length_b 9.098882
_cell_length_c 8.704572
_cell_angle_alpha 90.000000
_cell_angle_beta 90.000000
_cell_angle_gamma 90.000000
_cell_volume 2075.422763
_symmetry_space_group_name_H-M "P B C M"
_symmetry_group_IT_number 57
_symmetry_cell_setting 'orthorhombic'
loop_
_space_group_symop_operation_xyz
x,y,z
-x,-y,1/2+z
x,1/2-y,-z
-x,1/2+y,1/2-z
-x,-y,-z
x,y,1/2-z
-x,1/2+y,z
x,1/2-y,1/2+z
loop_
_atom_site_type_symbol
_atom_site_label
_atom_site_fract_x
_atom_site_fract_y
_atom_site_fract_z
Si Si1 0.646308 0.085660 0.065479
Si Si2 0.847809 0.414054 0.434180
Si Si3 0.451070 0.414671 0.934264
Si Si4 0.951387 0.585855 0.434422
Si Si5 0.249133 0.413764 0.066289
O O1 0.639955 0.089543 0.250000
O O2 0.699087 0.002077 0.029911
O O3 0.647937 0.250000 0.000000
O O4 0.599422 0.998550 0.990830
O O5 0.848691 0.250000 0.500000
O O6 0.844820 0.407738 0.250000
O O7 0.899657 0.499583 0.476816
O O8 0.799225 0.501315 0.497849
O O9 0.453017 0.411451 0.750000
O O10 0.450740 0.250000 0.000000
O O11 0.500000 0.500000 0.000000
O O12 0.949966 0.750000 0.500000
O O13 0.954733 0.591394 0.250000
O O14 0.000000 0.500000 0.500000
O O15 0.244103 0.406644 0.250000
O O16 0.251832 0.250000 0.000000
#
# Coordination Sequence:
#
# PCOD9440215 Si02
#       5
#     8   8   8   8   8
#     4  11  24  42  64  93 126 163 206 253 305 363
#     4  11  24  41  63  91 124 161 204 252 305 363
#     4  12  25  43  66  93 126 164 206 254 307 364
#     4  11  24  41  63  91 123 161 203 252 305 363
#     4  11  24  41  64  92 125 163 205 253 306 363
#
# _framework density 19.273181999999998
#
# number of rings (size 3 to 8) (size 9 to 14) (size 15 to 20)
#    0.000    0.800    0.000    7.200    0.000   12.800 
#    0.000    0.000    0.000    0.000    0.000    0.000 
#    0.000    0.000    0.000    0.000    0.000    0.000 
#
# Total GULP energy -224001.668355 kJ/mol
# GULP energy per Si atom -5600.041709 kJ/mol
# Density = 1.922932 g / cm^3
# Si number density = 19.273182 Si / 1000 Ang^3
#
#
#
# Elastic Constant Matrix: (Units=GPa)
#
#
# Indices 1 2 3 4 5 6 
#
# 1 227.6983 142.2926 109.3015 0.0000 0.0000 0.0000
# 2 142.2926 245.8960 94.6024 0.0000 0.0000 0.0000
# 3 109.3015 94.6024 114.3286 0.0000 0.0000 0.0000
# 4 0.0000 0.0000 0.0000 43.8206 0.0000 0.0000
# 5 0.0000 0.0000 0.0000 0.0000 34.5055 0.0000
# 6 0.0000 0.0000 0.0000 0.0000 0.0000 44.5958
#
#
#
# Elastic Compliance Matrix: (Units=1/GPa)
#
#
# Indices 1 2 3 4 5 6 
#
# 1 0.009332 -0.002887 -0.006533 0.000000 0.000000 0.000000
# 2 -0.002887 0.006859 -0.002916 0.000000 0.000000 0.000000
# 3 -0.006533 -0.002916 0.017405 0.000000 0.000000 0.000000
# 4 0.000000 0.000000 0.000000 0.022820 0.000000 0.000000
# 5 0.000000 0.000000 0.000000 0.000000 0.028981 0.000000
# 6 0.000000 0.000000 0.000000 0.000000 0.000000 0.022424
#
#
# Mechanical properties :
#
#
# Convention : Reuss Voigt Hill
#
# Bulk Modulus (GPa) = 112.04294 142.25732 127.15013
# Shear Modulus (GPa) = 36.90979 40.69947 38.80463
#
# Velocity S-wave (km/s) = 4.38092 4.60033 4.49196
# Velocity P-wave (km/s) = 9.15698 10.10884 9.64466
#
# Compressibility (1/GPa) = 0.00892515
#
# Stress axis : x y z
#
# Youngs Moduli (GPa) = 107.16370 145.79523 57.45517
#
# Poissons Ratio (x) = 0.42085 0.37534
# Poissons Ratio (y) = 0.30934 0.16753
# Poissons Ratio (z) = 0.70006 0.42511
#
# Static dielectric constant tensor:
#      x y z
#    x 1.638820 0.000000 0.000000 
#    y 0.000000 1.620250 0.000000 
#    z 0.000000 0.000000 1.646470 
# 
# From -- ./inp_files/8856.got.cif
#   From: 2010.05.17/outbox.cif.g08.bks.cpg/sg57_5_cif.got.tgz:8856.got - 2010.06.03 13:58:18.
