data_PCOD9440878
_publ_section_title
;
Structure prediction by ZEFSAII (Michael W. Deem and Ramdas Pophale) SiO2 
 PCOD9440878
Probable space group: P N N M
;
_chemical_formula_sum "Si O2"
_cell_formula_units_Z 48
_cell_length_a 9.498160
_cell_length_b 17.470862
_cell_length_c 16.394149
_cell_angle_alpha 90.000000
_cell_angle_beta 90.000000
_cell_angle_gamma 90.000000
_cell_volume 2720.462178
_symmetry_space_group_name_H-M "P N N M"
_symmetry_group_IT_number 58
_symmetry_cell_setting 'orthorhombic'
loop_
_space_group_symop_operation_xyz
x,y,z
-x,-y,z
1/2+x,1/2-y,1/2-z
1/2-x,1/2+y,1/2-z
-x,-y,-z
x,y,-z
1/2-x,1/2+y,1/2+z
1/2+x,1/2-y,1/2+z
loop_
_atom_site_type_symbol
_atom_site_label
_atom_site_fract_x
_atom_site_fract_y
_atom_site_fract_z
Si Si1 0.333879 0.989974 0.673797
Si Si2 0.209316 0.339727 0.259573
Si Si3 0.354018 0.545585 0.674769
Si Si4 0.399577 0.573399 0.092830
Si Si5 0.537551 0.314803 0.244944
Si Si6 0.357384 0.952790 0.091556
O O1 0.305370 0.899599 0.684570
O O2 0.500000 0.000000 0.674544
O O3 0.255358 0.025847 0.752755
O O4 0.255575 0.036290 0.602838
O O5 0.370938 0.313251 0.259817
O O6 0.106378 0.268034 0.255484
O O7 0.171477 0.388076 0.341025
O O8 0.500000 0.500000 0.687516
O O9 0.392320 0.633774 0.683753
O O10 0.272704 0.512259 0.597738
O O11 0.500000 0.500000 0.109208
O O12 0.430366 0.637986 0.160882
O O13 0.422447 0.599788 0.000000
O O14 0.500000 0.000000 0.109468
O O15 0.368225 0.921663 0.000000
#
# Coordination Sequence:
#
# PCOD9440878 Si02
#       6
#     8   8   8   8   8   8
#     4  10  19  34  58  85 112 143 191 239 274 326
#     4  11  22  36  56  85 116 148 185 235 279 340
#     4  10  17  36  58  81 108 145 198 235 270 327
#     4  10  20  39  62  80 108 150 194 236 278 332
#     4  11  22  35  57  86 114 146 190 232 288 339
#     4  10  22  39  60  85 115 151 191 237 287 336
#
# _framework density 17.64406
#
# number of rings (size 3 to 8) (size 9 to 14) (size 15 to 20)
#    0.000    1.667    5.000    3.000    7.000    1.333 
#    0.000    0.000    0.000    2.000    0.000    0.000 
#    0.000    0.000    0.000    0.000    0.000    0.000 
#
# Total GULP energy -267450.711454 kJ/mol
# GULP energy per Si atom -5571.889822 kJ/mol
# Density = 1.760390 g / cm^3
# Si number density = 17.644060 Si / 1000 Ang^3
#
#
#
# Elastic Constant Matrix: (Units=GPa)
#
#
# Indices 1 2 3 4 5 6 
#
# 1 149.2314 40.3396 13.5231 0.0000 0.0000 0.0000
# 2 40.3396 95.7433 23.9419 0.0000 0.0000 0.0000
# 3 13.5231 23.9419 56.9049 0.0000 0.0000 0.0000
# 4 0.0000 0.0000 0.0000 10.5507 0.0000 0.0000
# 5 0.0000 0.0000 0.0000 0.0000 -252.0495 0.0000
# 6 0.0000 0.0000 0.0000 0.0000 0.0000 37.5343
#
#
#
# Elastic Compliance Matrix: (Units=1/GPa)
#
#
# Indices 1 2 3 4 5 6 
#
# 1 0.007576 -0.003064 -0.000511 0.000000 0.000000 0.000000
# 2 -0.003064 0.012912 -0.004704 0.000000 0.000000 0.000000
# 3 -0.000511 -0.004704 0.019674 0.000000 0.000000 0.000000
# 4 0.000000 0.000000 0.000000 0.094780 0.000000 0.000000
# 5 0.000000 0.000000 0.000000 0.000000 -0.003967 0.000000
# 6 0.000000 0.000000 0.000000 0.000000 0.000000 0.026642
#
#
# Mechanical properties :
#
#
# Convention : Reuss Voigt Hill
#
# Bulk Modulus (GPa) = 42.36854 50.83207 46.60031
# Shear Modulus (GPa) = 27.46600 -25.85456 0.80572
#
# Velocity S-wave (km/s) = 3.94975 -3.83213 0.67649
# Velocity P-wave (km/s) = 6.69819 3.04828 5.20373
#
# Compressibility (1/GPa) = 0.02360242
#
# Stress axis : x y z
#
# Youngs Moduli (GPa) = 132.00324 77.44770 50.82865
#
# Poissons Ratio (x) = 0.23730 0.02598
# Poissons Ratio (y) = 0.40446 0.23912
# Poissons Ratio (z) = 0.06747 0.36434
#
# Static dielectric constant tensor:
#      x y z
#    x 1.616290 0.000000 0.000000 
#    y 0.000000 1.600510 0.000000 
#    z 0.000000 0.000000 1.634120 
# 
# From -- ./inp_files/25416.got.cif
#   From: 2010.05.17/outbox.cif.g08.bks.cpg/sg58_13_cif.got.tgz:25416.got - 2010.06.03 14:20:14.
