data_PCOD9440247
_publ_section_title
;
Structure prediction by ZEFSAII (Michael W. Deem and Ramdas Pophale) SiO2 
 PCOD9440247
Probable space group: P B C M
;
_chemical_formula_sum "Si O2"
_cell_formula_units_Z 56
_cell_length_a 5.146848
_cell_length_b 13.736587
_cell_length_c 29.876811
_cell_angle_alpha 90.000000
_cell_angle_beta 90.000000
_cell_angle_gamma 90.000000
_cell_volume 2112.294282
_symmetry_space_group_name_H-M "P B C M"
_symmetry_group_IT_number 57
_symmetry_cell_setting 'orthorhombic'
loop_
_space_group_symop_operation_xyz
x,y,z
-x,-y,1/2+z
x,1/2-y,-z
-x,1/2+y,1/2-z
-x,-y,-z
x,y,1/2-z
-x,1/2+y,z
x,1/2-y,1/2+z
loop_
_atom_site_type_symbol
_atom_site_label
_atom_site_fract_x
_atom_site_fract_y
_atom_site_fract_z
Si Si1 0.608823 0.151365 0.410050
Si Si2 0.980272 0.937706 0.839773
Si Si3 0.865151 0.616146 0.882453
Si Si4 0.424154 0.527420 0.550599
Si Si5 0.821052 0.534128 0.750000
Si Si6 0.073508 0.713717 0.541988
Si Si7 0.403887 0.256710 0.669703
Si Si8 0.320436 0.831381 0.250000
O O1 0.722542 0.198215 0.454876
O O2 0.528587 0.239498 0.379049
O O3 0.811387 0.100508 0.376136
O O4 0.385268 0.076595 0.424931
O O5 0.763138 0.856626 0.827963
O O6 0.121256 0.967762 0.793711
O O7 0.913753 0.040861 0.864735
O O8 0.659769 0.571005 0.918759
O O9 0.757645 0.657913 0.835844
O O10 0.951067 0.711842 0.909303
O O11 0.500000 0.500000 0.500000
O O12 0.197510 0.606202 0.543773
O O13 0.039376 0.620177 0.750000
O O14 0.532397 0.580403 0.750000
O O15 0.905014 0.750000 0.500000
O O16 0.613023 0.237132 0.707722
#
# Coordination Sequence:
#
# PCOD9440247 Si02
#       8
#     8   8   8   8   4   8   8   4
#     4  11  25  43  73 104 142 199 258 300 390 455
#     4  11  26  48  75 107 149 197 252 312 388 467
#     4  11  25  44  71 105 146 192 251 316 379 454
#     4  11  24  44  66 101 145 191 245 314 376 451
#     4  12  29  51  80 115 160 194 256 312 391 454
#     4  12  24  42  68 102 147 188 248 316 371 458
#     4  12  25  46  76 108 146 200 248 313 380 466
#     4  12  31  49  80 117 154 206 242 326 379 460
#
# _framework density 26.511457
#
# number of rings (size 3 to 8) (size 9 to 14) (size 15 to 20)
#    0.000    0.571    5.714    1.286    6.000    2.857 
#    0.000    0.000    0.000    0.000    0.000    0.000 
#    0.000    0.000    0.000    0.000    0.000    0.000 
#
# Total GULP energy -312531.272431 kJ/mol
# GULP energy per Si atom -5580.915579 kJ/mol
# Density = 2.645112 g / cm^3
# Si number density = 26.511457 Si / 1000 Ang^3
#
#
#
# Elastic Constant Matrix: (Units=GPa)
#
#
# Indices 1 2 3 4 5 6 
#
# 1 64.0699 16.3314 9.5109 0.0000 0.0000 0.0000
# 2 16.3314 89.1271 46.9440 0.0000 0.0000 0.0000
# 3 9.5109 46.9440 101.6641 0.0000 0.0000 0.0000
# 4 0.0000 0.0000 0.0000 45.0532 0.0000 0.0000
# 5 0.0000 0.0000 0.0000 0.0000 30.0211 0.0000
# 6 0.0000 0.0000 0.0000 0.0000 0.0000 48.3193
#
#
#
# Elastic Compliance Matrix: (Units=1/GPa)
#
#
# Indices 1 2 3 4 5 6 
#
# 1 0.016376 -0.002899 -0.000193 0.000000 0.000000 0.000000
# 2 -0.002899 0.015339 -0.006812 0.000000 0.000000 0.000000
# 3 -0.000193 -0.006812 0.013000 0.000000 0.000000 0.000000
# 4 0.000000 0.000000 0.000000 0.022196 0.000000 0.000000
# 5 0.000000 0.000000 0.000000 0.000000 0.033310 0.000000
# 6 0.000000 0.000000 0.000000 0.000000 0.000000 0.020696
#
#
# Mechanical properties :
#
#
# Convention : Reuss Voigt Hill
#
# Bulk Modulus (GPa) = 40.15017 44.49264 42.32140
# Shear Modulus (GPa) = 33.55132 36.81703 35.18417
#
# Velocity S-wave (km/s) = 3.56130 3.73060 3.64693
# Velocity P-wave (km/s) = 5.66461 5.94772 5.80789
#
# Compressibility (1/GPa) = 0.02490650
#
# Stress axis : x y z
#
# Youngs Moduli (GPa) = 61.06669 65.19401 76.92471
#
# Poissons Ratio (x) = 0.18898 0.01488
# Poissons Ratio (y) = 0.17701 0.52398
# Poissons Ratio (z) = 0.01181 0.44408
#
# Static dielectric constant tensor:
#      x y z
#    x 2.294800 0.000000 0.000000 
#    y 0.000000 2.204110 0.000000 
#    z 0.000000 0.000000 2.013620 
# 
# From -- ./inp_files/29204.got.cif
#   From: 2010.05.17/outbox.cif.g08.bks.cpg/sg57_15_cif.got.tgz:29204.got - 2010.06.03 13:58:18.
