data_PCOD9440515
_publ_section_title
;
Structure prediction by ZEFSAII (Michael W. Deem and Ramdas Pophale) SiO2 
 PCOD9440515
Probable space group: P B C M
;
_chemical_formula_sum "Si O2"
_cell_formula_units_Z 56
_cell_length_a 15.000000
_cell_length_b 21.000000
_cell_length_c 9.000000
_cell_angle_alpha 90.000000
_cell_angle_beta 90.000000
_cell_angle_gamma 90.000000
_cell_volume 2835.000000
_symmetry_space_group_name_H-M "P B C M"
_symmetry_group_IT_number 57
_symmetry_cell_setting 'orthorhombic'
loop_
_space_group_symop_operation_xyz
x,y,z
-x,-y,1/2+z
x,1/2-y,-z
-x,1/2+y,1/2-z
-x,-y,-z
x,y,1/2-z
-x,1/2+y,z
x,1/2-y,1/2+z
loop_
_atom_site_type_symbol
_atom_site_label
_atom_site_fract_x
_atom_site_fract_y
_atom_site_fract_z
Si Si1 0.446686 0.558965 0.074291
Si Si2 0.523015 0.815855 0.078022
Si Si3 0.140317 0.309408 0.079407
Si Si4 0.937448 0.315827 0.429663
Si Si5 0.917921 0.461104 0.072080
Si Si6 0.716483 0.010261 0.578544
Si Si7 0.305696 0.390467 0.083495
O O1 0.458009 0.556148 0.250000
O O2 0.500000 0.500000 0.000000
O O3 0.481417 0.624445 0.006099
O O4 0.343324 0.553450 0.026903
O O5 0.495369 0.815435 0.250000
O O6 0.628787 0.830863 0.074003
O O7 0.502021 0.750000 0.000000
O O8 0.129746 0.291897 0.250000
O O9 0.204347 0.368744 0.071417
O O10 0.041319 0.319401 0.020736
O O11 0.183830 0.250000 0.000000
O O12 0.900818 0.250000 0.500000
O O13 0.930871 0.310789 0.250000
O O14 0.905506 0.386580 0.472204
O O15 0.933929 0.461331 0.250000
O O16 0.821092 0.490966 0.042545
O O17 0.000000 0.500000 0.000000
O O18 0.705656 0.028681 0.750000
O O19 0.678303 0.940203 0.545836
O O20 0.320792 0.418603 0.250000
#
# Coordination Sequence:
#
# PCOD9440515 Si02
#       7
#     8   8   8   8   8   8   8
#     4  12  24  42  66  91 121 161 207 255 309 371
#     4  11  23  39  61  91 126 164 206 255 312 370
#     4   9  17  29  47  73 106 147 189 234 291 357
#     4   9  18  34  54  77 110 151 198 248 301 357
#     4  10  22  39  60  89 124 161 204 259 313 368
#     4  11  23  38  60  89 119 157 205 254 310 373
#     4  10  20  34  54  81 116 156 196 242 304 371
#
# _framework density 19.753086
#
# number of rings (size 3 to 8) (size 9 to 14) (size 15 to 20)
#    0.000    1.714    1.429    3.429    0.000    4.000 
#    0.000    3.571    0.000    1.714    0.000    0.000 
#    0.000    0.000    0.000    0.000    0.000    0.000 
#
# Total GULP energy -312068.827285 kJ/mol
# GULP energy per Si atom -5572.657630 kJ/mol
# Density = 1.970813 g / cm^3
# Si number density = 19.753086 Si / 1000 Ang^3
#
#
#
# Elastic Constant Matrix: (Units=GPa)
#
#
# Indices 1 2 3 4 5 6 
#
# 1 52.7197 27.1323 47.3618 0.0000 0.0000 0.0000
# 2 27.1323 131.5809 72.3442 0.0000 0.0000 0.0000
# 3 47.3618 72.3442 93.2631 0.0000 0.0000 0.0000
# 4 0.0000 0.0000 0.0000 31.8662 0.0000 0.0000
# 5 0.0000 0.0000 0.0000 0.0000 21.6733 0.0000
# 6 0.0000 0.0000 0.0000 0.0000 0.0000 -15.8994
#
#
#
# Elastic Compliance Matrix: (Units=1/GPa)
#
#
# Indices 1 2 3 4 5 6 
#
# 1 0.036436 0.004638 -0.022101 0.000000 0.000000 0.000000
# 2 0.004638 0.013842 -0.013093 0.000000 0.000000 0.000000
# 3 -0.022101 -0.013093 0.032102 0.000000 0.000000 0.000000
# 4 0.000000 0.000000 0.000000 0.031381 0.000000 0.000000
# 5 0.000000 0.000000 0.000000 0.000000 0.046140 0.000000
# 6 0.000000 0.000000 0.000000 0.000000 0.000000 -0.062895
#
#
# Mechanical properties :
#
#
# Convention : Reuss Voigt Hill
#
# Bulk Modulus (GPa) = 47.01713 63.47115 55.24414
# Shear Modulus (GPa) = 30.26510 16.24304 23.25407
#
# Velocity S-wave (km/s) = 3.91854 2.87070 3.43481
# Velocity P-wave (km/s) = 6.65788 6.57190 6.61503
#
# Compressibility (1/GPa) = 0.02126884
#
# Stress axis : x y z
#
# Youngs Moduli (GPa) = 27.44507 72.24466 31.15074
#
# Poissons Ratio (x) = -0.33509 0.68847
# Poissons Ratio (y) = -0.12730 0.40784
# Poissons Ratio (z) = 0.60657 0.94587
#
# Static dielectric constant tensor:
#      x y z
#    x 1.737070 0.000000 0.000000 
#    y 0.000000 1.800980 0.000000 
#    z 0.000000 0.000000 1.679850 
# 
# From -- ./inp_files/5269.got.cif
#   From: 2010.05.17/outbox.ucp.g08.bks.cvg/sg57_3_cif.got.tgz:5269.got - 2010.06.11 16:39:23.
