data_PCOD9440894
_publ_section_title
;
Structure prediction by ZEFSAII (Michael W. Deem and Ramdas Pophale) SiO2 
 PCOD9440894
Probable space group: P N N M
;
_chemical_formula_sum "Si O2"
_cell_formula_units_Z 38
_cell_length_a 15.332660
_cell_length_b 7.512072
_cell_length_c 14.806578
_cell_angle_alpha 90.000000
_cell_angle_beta 90.000000
_cell_angle_gamma 90.000000
_cell_volume 1705.422333
_symmetry_space_group_name_H-M "P N N M"
_symmetry_group_IT_number 58
_symmetry_cell_setting 'orthorhombic'
loop_
_space_group_symop_operation_xyz
x,y,z
-x,-y,z
1/2+x,1/2-y,1/2-z
1/2-x,1/2+y,1/2-z
-x,-y,-z
x,y,-z
1/2-x,1/2+y,1/2+z
1/2+x,1/2-y,1/2+z
loop_
_atom_site_type_symbol
_atom_site_label
_atom_site_fract_x
_atom_site_fract_y
_atom_site_fract_z
Si Si1 0.227503 0.893034 0.500000
Si Si2 0.639080 0.413591 0.299009
Si Si3 0.290702 0.811524 0.000000
Si Si4 0.500000 0.500000 0.000000
Si Si5 0.586441 0.692649 0.847558
Si Si6 0.864777 0.906293 0.000000
Si Si7 0.659929 0.056213 0.809518
O O1 0.233190 0.104491 0.500000
O O2 0.171141 0.838298 0.587351
O O3 0.314881 0.782824 0.500000
O O4 0.592798 0.550533 0.232006
O O5 0.597670 0.418375 0.399202
O O6 0.740991 0.479539 0.298522
O O7 0.639941 0.213375 0.260268
O O8 0.205821 0.934816 0.000000
O O9 0.340874 0.859913 0.909284
O O10 0.488436 0.349728 0.080412
O O11 0.595207 0.889051 0.807892
#
# Coordination Sequence:
#
# PCOD9440894 Si02
#       7
#     4   8   4   2   8   4   8
#     4  11  16  30  50  74 113 148 184 240 291 359
#     4  11  20  32  55  84 116 155 199 254 314 362
#     4  10  18  26  46  77 111 150 179 223 301 362
#     4  10  26  44  62  86 128 178 198 250 304 360
#     4  11  21  38  57  81 121 160 208 246 296 373
#     4  10  21  31  46  83 119 140 184 244 306 360
#     4  11  19  32  54  86 115 155 197 247 313 362
#
# _framework density 22.281869
#
# number of rings (size 3 to 8) (size 9 to 14) (size 15 to 20)
#    0.000    1.263    8.421    0.632    0.000    0.000 
#    0.000    2.105    0.000    0.632    0.000    1.474 
#    0.000    0.000    0.000    0.000    0.000    0.000 
#
# Total GULP energy -211828.473098 kJ/mol
# GULP energy per Si atom -5574.433503 kJ/mol
# Density = 2.223115 g / cm^3
# Si number density = 22.281869 Si / 1000 Ang^3
#
#
#
# Elastic Constant Matrix: (Units=GPa)
#
#
# Indices 1 2 3 4 5 6 
#
# 1 46.4168 44.1849 22.6024 0.0000 0.0000 0.0000
# 2 44.1849 196.0131 80.7131 0.0000 0.0000 0.0000
# 3 22.6024 80.7131 205.5980 0.0000 0.0000 0.0000
# 4 0.0000 0.0000 0.0000 -182.3709 0.0000 0.0000
# 5 0.0000 0.0000 0.0000 0.0000 4.2245 0.0000
# 6 0.0000 0.0000 0.0000 0.0000 0.0000 8.3579
#
#
#
# Elastic Compliance Matrix: (Units=1/GPa)
#
#
# Indices 1 2 3 4 5 6 
#
# 1 0.027515 -0.005913 -0.000704 0.000000 0.000000 0.000000
# 2 -0.005913 0.007356 -0.002238 0.000000 0.000000 0.000000
# 3 -0.000704 -0.002238 0.005820 0.000000 0.000000 0.000000
# 4 0.000000 0.000000 0.000000 -0.005483 0.000000 0.000000
# 5 0.000000 0.000000 0.000000 0.000000 0.236715 0.000000
# 6 0.000000 0.000000 0.000000 0.000000 0.000000 0.119647
#
#
# Mechanical properties :
#
#
# Convention : Reuss Voigt Hill
#
# Bulk Modulus (GPa) = 43.51152 82.55875 63.03514
# Shear Modulus (GPa) = 11.99219 -13.92253 -0.96517
#
# Velocity S-wave (km/s) = 2.32244 -2.50239 -0.65886
# Velocity P-wave (km/s) = 5.17318 5.36500 5.26996
#
# Compressibility (1/GPa) = 0.02298242
#
# Stress axis : x y z
#
# Youngs Moduli (GPa) = 36.34399 135.94412 171.82945
#
# Poissons Ratio (x) = 0.80378 0.12092
# Poissons Ratio (y) = 0.21489 0.38452
# Poissons Ratio (z) = 0.02558 0.30421
#
# Static dielectric constant tensor:
#      x y z
#    x 1.938760 0.000000 0.000000 
#    y 0.000000 1.786720 0.000000 
#    z 0.000000 0.000000 1.813320 
# 
# From -- ./inp_files/22660.got.cif
#   From: 2010.05.17/outbox.cif.g08.bks.cpg/sg58_12_cif.got.tgz:22660.got - 2010.06.03 14:20:14.
