data_PCOD9440573
_publ_section_title
;
Structure prediction by ZEFSAII (Michael W. Deem and Ramdas Pophale) SiO2 
 PCOD9440573
Probable space group: P B C M
;
_chemical_formula_sum "Si O2"
_cell_formula_units_Z 64
_cell_length_a 12.000000
_cell_length_b 15.000000
_cell_length_c 18.000000
_cell_angle_alpha 90.000000
_cell_angle_beta 90.000000
_cell_angle_gamma 90.000000
_cell_volume 3240.000000
_symmetry_space_group_name_H-M "P B C M"
_symmetry_group_IT_number 57
_symmetry_cell_setting 'orthorhombic'
loop_
_space_group_symop_operation_xyz
x,y,z
-x,-y,1/2+z
x,1/2-y,-z
-x,1/2+y,1/2-z
-x,-y,-z
x,y,1/2-z
-x,1/2+y,z
x,1/2-y,1/2+z
loop_
_atom_site_type_symbol
_atom_site_label
_atom_site_fract_x
_atom_site_fract_y
_atom_site_fract_z
Si Si1 0.634686 0.064668 0.160825
Si Si2 0.126533 0.173862 0.337948
Si Si3 0.171989 0.486036 0.444028
Si Si4 0.291221 0.201548 0.925719
Si Si5 0.666819 0.258902 0.160217
Si Si6 0.510317 0.892795 0.160886
Si Si7 0.909958 0.219187 0.661221
Si Si8 0.915322 0.480264 0.396834
O O1 0.662496 0.058082 0.250000
O O2 0.604162 0.166670 0.144548
O O3 0.739305 0.034350 0.110214
O O4 0.534264 0.996252 0.145545
O O5 0.135426 0.188606 0.250000
O O6 0.225037 0.225297 0.378652
O O7 0.122901 0.068664 0.353591
O O8 0.013491 0.222664 0.366760
O O9 0.210580 0.382267 0.445549
O O10 0.158169 0.522518 0.527762
O O11 0.046560 0.493479 0.413602
O O12 0.390449 0.160817 0.877642
O O13 0.331256 0.250000 0.000000
O O14 0.674640 0.265926 0.250000
O O15 0.603678 0.347296 0.134697
O O16 0.791515 0.248191 0.131054
O O17 0.517542 0.881763 0.250000
O O18 0.911263 0.231154 0.750000
O O19 0.911951 0.114207 0.644377
#
# Coordination Sequence:
#
# PCOD9440573 Si02
#       8
#     8   8   8   8   8   8   8   8
#     4   9  18  35  60  86 110 148 197 241 284 343
#     4  11  22  36  57  86 115 149 191 234 288 343
#     4  10  21  35  56  80 113 156 192 227 284 346
#     4  11  20  38  57  78 114 148 186 235 285 336
#     4   9  18  37  59  85 117 147 190 241 289 340
#     4   9  19  36  60  85 108 144 192 236 282 339
#     4  10  21  36  57  84 116 152 188 237 287 336
#     4  11  21  36  53  82 118 151 188 233 285 344
#
# _framework density 19.753086
#
# number of rings (size 3 to 8) (size 9 to 14) (size 15 to 20)
#    0.000    2.000    2.500    1.500    0.000    2.500 
#    2.250    3.125    0.000    3.000    0.000    0.000 
#    0.000    0.000    0.000    0.000    0.000    0.000 
#
# Total GULP energy -356922.756871 kJ/mol
# GULP energy per Si atom -5576.918076 kJ/mol
# Density = 1.970813 g / cm^3
# Si number density = 19.753086 Si / 1000 Ang^3
#
#
#
# Elastic Constant Matrix: (Units=GPa)
#
#
# Indices 1 2 3 4 5 6 
#
# 1 13.5015 1.2623 2.2176 0.0000 0.0000 0.0000
# 2 1.2623 64.1459 -11.3456 0.0000 0.0000 0.0000
# 3 2.2176 -11.3456 15.1396 0.0000 0.0000 0.0000
# 4 0.0000 0.0000 0.0000 4.6162 0.0000 0.0000
# 5 0.0000 0.0000 0.0000 0.0000 12.5504 0.0000
# 6 0.0000 0.0000 0.0000 0.0000 0.0000 20.4150
#
#
#
# Elastic Compliance Matrix: (Units=1/GPa)
#
#
# Indices 1 2 3 4 5 6 
#
# 1 0.076787 -0.004035 -0.014272 0.000000 0.000000 0.000000
# 2 -0.004035 0.018184 0.014218 0.000000 0.000000 0.000000
# 3 -0.014272 0.014218 0.078798 0.000000 0.000000 0.000000
# 4 0.000000 0.000000 0.000000 0.216628 0.000000 0.000000
# 5 0.000000 0.000000 0.000000 0.000000 0.079679 0.000000
# 6 0.000000 0.000000 0.000000 0.000000 0.000000 0.048984
#
#
# Mechanical properties :
#
#
# Convention : Reuss Voigt Hill
#
# Bulk Modulus (GPa) = 6.03899 8.56171 7.30035
# Shear Modulus (GPa) = 8.58467 14.22650 11.40559
#
# Velocity S-wave (km/s) = 2.08697 2.68660 2.40554
# Velocity P-wave (km/s) = 2.97844 3.73731 3.37925
#
# Compressibility (1/GPa) = 0.16559050
#
# Stress axis : x y z
#
# Youngs Moduli (GPa) = 13.02297 54.99449 12.69075
#
# Poissons Ratio (x) = 0.22192 0.18112
# Poissons Ratio (y) = 0.05255 -0.18044
# Poissons Ratio (z) = 0.18586 -0.78191
#
# Static dielectric constant tensor:
#      x y z
#    x 1.703000 0.000000 0.000000 
#    y 0.000000 1.701270 0.000000 
#    z 0.000000 0.000000 1.679910 
# 
# From -- ./inp_files/22042.got.cif
#   From: 2010.05.17/outbox.ucp.g08.bks.cvg/sg57_12_cif.got.tgz:22042.got - 2010.06.11 16:39:23.
