data_PCOD9440173
_publ_section_title
;
Structure prediction by ZEFSAII (Michael W. Deem and Ramdas Pophale) SiO2 
 PCOD9440173
Probable space group: P B C M
;
_chemical_formula_sum "Si O2"
_cell_formula_units_Z 40
_cell_length_a 12.704380
_cell_length_b 9.042533
_cell_length_c 16.233442
_cell_angle_alpha 90.000000
_cell_angle_beta 90.000000
_cell_angle_gamma 90.000000
_cell_volume 1864.894171
_symmetry_space_group_name_H-M "P B C M"
_symmetry_group_IT_number 57
_symmetry_cell_setting 'orthorhombic'
loop_
_space_group_symop_operation_xyz
x,y,z
-x,-y,1/2+z
x,1/2-y,-z
-x,1/2+y,1/2-z
-x,-y,-z
x,y,1/2-z
-x,1/2+y,z
x,1/2-y,1/2+z
loop_
_atom_site_type_symbol
_atom_site_label
_atom_site_fract_x
_atom_site_fract_y
_atom_site_fract_z
Si Si1 0.399981 0.165193 0.588905
Si Si2 0.808839 0.718120 0.347219
Si Si3 0.789095 0.389739 0.345044
Si Si4 0.392121 0.687023 0.408708
Si Si5 0.991667 0.361594 0.062042
O O1 0.386260 0.250000 0.500000
O O2 0.296561 0.189746 0.642678
O O3 0.504006 0.236806 0.629721
O O4 0.408704 0.988062 0.583808
O O5 0.840421 0.709841 0.250000
O O6 0.774965 0.555309 0.381268
O O7 0.900210 0.792546 0.402882
O O8 0.765711 0.405449 0.250000
O O9 0.716005 0.254360 0.373132
O O10 0.913000 0.372439 0.361880
O O11 0.391307 0.750000 0.500000
O O12 0.935507 0.250000 0.000000
O O13 0.000000 0.500000 0.000000
#
# Coordination Sequence:
#
# PCOD9440173 Si02
#       5
#     8   8   8   8   8
#     4  11  23  41  69  99 135 175 223 273 327 395
#     4  11  25  44  65  95 137 178 221 278 338 399
#     4  11  25  44  66  97 138 177 222 279 339 399
#     4  11  23  41  68 100 132 175 223 272 329 395
#     4  12  25  44  70  97 129 174 223 277 335 403
#
# _framework density 21.448937000000001
#
# number of rings (size 3 to 8) (size 9 to 14) (size 15 to 20)
#    0.000    0.800    2.000    6.600    5.600    1.600 
#    0.000    0.000    0.000    0.000    0.000    0.000 
#    0.000    0.000    0.000    0.000    0.000    0.000 
#
# Total GULP energy -222861.413102 kJ/mol
# GULP energy per Si atom -5571.535328 kJ/mol
# Density = 2.140012 g / cm^3
# Si number density = 21.448937 Si / 1000 Ang^3
#
#
#
# Elastic Constant Matrix: (Units=GPa)
#
#
# Indices 1 2 3 4 5 6 
#
# 1 107.3530 46.2392 11.5107 0.0000 0.0000 0.0000
# 2 46.2392 187.6831 13.0918 0.0000 0.0000 0.0000
# 3 11.5107 13.0918 30.7273 0.0000 0.0000 0.0000
# 4 0.0000 0.0000 0.0000 21.4722 0.0000 0.0000
# 5 0.0000 0.0000 0.0000 0.0000 22.1692 0.0000
# 6 0.0000 0.0000 0.0000 0.0000 0.0000 36.8756
#
#
#
# Elastic Compliance Matrix: (Units=1/GPa)
#
#
# Indices 1 2 3 4 5 6 
#
# 1 0.010677 -0.002424 -0.002967 0.000000 0.000000 0.000000
# 2 -0.002424 0.006041 -0.001666 0.000000 0.000000 0.000000
# 3 -0.002967 -0.001666 0.034366 0.000000 0.000000 0.000000
# 4 0.000000 0.000000 0.000000 0.046572 0.000000 0.000000
# 5 0.000000 0.000000 0.000000 0.000000 0.045108 0.000000
# 6 0.000000 0.000000 0.000000 0.000000 0.000000 0.027118
#
#
# Mechanical properties :
#
#
# Convention : Reuss Voigt Hill
#
# Bulk Modulus (GPa) = 27.04851 51.93852 39.49352
# Shear Modulus (GPa) = 25.46874 33.09818 29.28346
#
# Velocity S-wave (km/s) = 3.44962 3.93251 3.69896
# Velocity P-wave (km/s) = 5.33897 6.69978 6.05771
#
# Compressibility (1/GPa) = 0.03697061
#
# Stress axis : x y z
#
# Youngs Moduli (GPa) = 93.65863 165.52358 29.09874
#
# Poissons Ratio (x) = 0.40115 0.08634
# Poissons Ratio (y) = 0.22698 0.04848
# Poissons Ratio (z) = 0.27790 0.27579
#
# Static dielectric constant tensor:
#      x y z
#    x 1.927400 0.000000 0.000000 
#    y 0.000000 1.868970 0.000000 
#    z 0.000000 0.000000 2.391970 
# 
# From -- ./inp_files/21593.got.cif
#   From: 2010.05.17/outbox.cif.g08.bks.cpg/sg57_11_cif.got.tgz:21593.got - 2010.06.03 13:58:18.
