data_PCOD9440125
_publ_section_title
;
Structure prediction by ZEFSAII (Michael W. Deem and Ramdas Pophale) SiO2 
 PCOD9440125
Probable space group: P B C M
;
_chemical_formula_sum "Si O2"
_cell_formula_units_Z 60
_cell_length_a 9.289590
_cell_length_b 18.520069
_cell_length_c 16.039465
_cell_angle_alpha 90.000000
_cell_angle_beta 90.000000
_cell_angle_gamma 90.000000
_cell_volume 2759.491275
_symmetry_space_group_name_H-M "P B C M"
_symmetry_group_IT_number 57
_symmetry_cell_setting 'orthorhombic'
loop_
_space_group_symop_operation_xyz
x,y,z
-x,-y,1/2+z
x,1/2-y,-z
-x,1/2+y,1/2-z
-x,-y,-z
x,y,1/2-z
-x,1/2+y,z
x,1/2-y,1/2+z
loop_
_atom_site_type_symbol
_atom_site_label
_atom_site_fract_x
_atom_site_fract_y
_atom_site_fract_z
Si Si1 0.739589 0.750000 0.000000
Si Si2 0.802721 0.024784 0.431246
Si Si3 0.575331 0.112057 0.156427
Si Si4 0.287346 0.593497 0.593331
Si Si5 0.923112 0.803269 0.847015
Si Si6 0.758935 0.244681 0.399094
Si Si7 0.091871 0.027312 0.343979
Si Si8 0.591334 0.901424 0.009659
O O1 0.834996 0.738719 0.082620
O O2 0.644074 0.820073 0.015147
O O3 0.716783 0.956502 0.466912
O O4 0.712462 0.059308 0.355526
O O5 0.793758 0.084948 0.503831
O O6 0.962275 0.005966 0.404753
O O7 0.518459 0.109467 0.250000
O O8 0.633384 0.192162 0.133929
O O9 0.465816 0.088668 0.084385
O O10 0.257005 0.672351 0.630071
O O11 0.223898 0.527020 0.644748
O O12 0.454685 0.586771 0.569767
O O13 0.894694 0.784221 0.750000
O O14 0.882651 0.887732 0.858166
O O15 0.090931 0.788700 0.866932
O O16 0.753293 0.250000 0.500000
O O17 0.038257 0.020670 0.250000
#
# Coordination Sequence:
#
# PCOD9440125 Si02
#       8
#     4   8   8   8   8   8   8   8
#     4  12  26  46  72  98 142 192 228 298 356 416
#     4  11  22  41  69 101 136 182 231 283 343 421
#     4  11  22  41  71 101 137 182 235 293 348 417
#     4  11  23  41  70  97 136 181 232 279 338 421
#     4  11  25  44  69 105 140 183 240 294 357 426
#     4  12  20  39  70 107 138 180 231 290 353 422
#     4  11  24  44  70 104 138 176 234 297 352 409
#     4  11  25  45  68 102 138 185 239 274 352 433
#
# _framework density 21.743137999999998
#
# number of rings (size 3 to 8) (size 9 to 14) (size 15 to 20)
#    0.000    0.800    4.667    4.400    1.867    1.600 
#    0.000    6.000    0.000    0.000    0.000    0.000 
#    0.000    0.000    0.000    0.000    0.000    0.000 
#
# Total GULP energy -335813.411055 kJ/mol
# GULP energy per Si atom -5596.890184 kJ/mol
# Density = 2.169365 g / cm^3
# Si number density = 21.743138 Si / 1000 Ang^3
#
#
#
# Elastic Constant Matrix: (Units=GPa)
#
#
# Indices 1 2 3 4 5 6 
#
# 1 74.3292 29.9301 33.3519 0.0000 0.0000 0.0000
# 2 29.9301 130.7402 31.7261 0.0000 0.0000 0.0000
# 3 33.3519 31.7261 106.0184 0.0000 0.0000 0.0000
# 4 0.0000 0.0000 0.0000 25.6672 0.0000 0.0000
# 5 0.0000 0.0000 0.0000 0.0000 9.7734 0.0000
# 6 0.0000 0.0000 0.0000 0.0000 0.0000 39.1497
#
#
#
# Elastic Compliance Matrix: (Units=1/GPa)
#
#
# Indices 1 2 3 4 5 6 
#
# 1 0.016514 -0.002717 -0.004382 0.000000 0.000000 0.000000
# 2 -0.002717 0.008695 -0.001747 0.000000 0.000000 0.000000
# 3 -0.004382 -0.001747 0.011334 0.000000 0.000000 0.000000
# 4 0.000000 0.000000 0.000000 0.038960 0.000000 0.000000
# 5 0.000000 0.000000 0.000000 0.000000 0.102318 0.000000
# 6 0.000000 0.000000 0.000000 0.000000 0.000000 0.025543
#
#
# Mechanical properties :
#
#
# Convention : Reuss Voigt Hill
#
# Bulk Modulus (GPa) = 53.05067 55.67821 54.36444
# Shear Modulus (GPa) = 21.99350 29.32336 25.65843
#
# Velocity S-wave (km/s) = 3.18388 3.67635 3.43894
# Velocity P-wave (km/s) = 6.16181 6.60935 6.38950
#
# Compressibility (1/GPa) = 0.01884990
#
# Stress axis : x y z
#
# Youngs Moduli (GPa) = 60.55473 115.01179 88.23273
#
# Poissons Ratio (x) = 0.31251 0.38663
# Poissons Ratio (y) = 0.16454 0.15415
# Poissons Ratio (z) = 0.26535 0.20094
#
# Static dielectric constant tensor:
#      x y z
#    x 1.796280 0.000000 0.000000 
#    y 0.000000 1.798530 0.000000 
#    z 0.000000 0.000000 1.807660 
# 
# From -- ./inp_files/21262.got.cif
#   From: 2010.05.17/outbox.cif.g08.bks.cpg/sg57_11_cif.got.tgz:21262.got - 2010.06.03 13:58:18.
