data_PCOD9440272
_publ_section_title
;
Structure prediction by ZEFSAII (Michael W. Deem and Ramdas Pophale) SiO2 
 PCOD9440272
Probable space group: P B C M
;
_chemical_formula_sum "Si O2"
_cell_formula_units_Z 64
_cell_length_a 9.575509
_cell_length_b 19.567963
_cell_length_c 17.637491
_cell_angle_alpha 90.000000
_cell_angle_beta 90.000000
_cell_angle_gamma 90.000000
_cell_volume 3304.793231
_symmetry_space_group_name_H-M "P B C M"
_symmetry_group_IT_number 57
_symmetry_cell_setting 'orthorhombic'
loop_
_space_group_symop_operation_xyz
x,y,z
-x,-y,1/2+z
x,1/2-y,-z
-x,1/2+y,1/2-z
-x,-y,-z
x,y,1/2-z
-x,1/2+y,z
x,1/2-y,1/2+z
loop_
_atom_site_type_symbol
_atom_site_label
_atom_site_fract_x
_atom_site_fract_y
_atom_site_fract_z
Si Si1 0.390197 0.007972 0.430024
Si Si2 0.834089 0.353364 0.571203
Si Si3 0.434317 0.614400 0.339350
Si Si4 0.807751 0.801867 0.428113
Si Si5 0.721520 0.139506 0.899828
Si Si6 0.529327 0.768621 0.158836
Si Si7 0.907448 0.932425 0.518389
Si Si8 0.069986 0.726700 0.835789
O O1 0.465950 0.055485 0.369397
O O2 0.242269 0.042108 0.452178
O O3 0.500000 0.000000 0.500000
O O4 0.348861 0.934164 0.398427
O O5 0.714000 0.390658 0.618581
O O6 0.776682 0.349531 0.485565
O O7 0.855595 0.279646 0.608003
O O8 0.984330 0.390356 0.571154
O O9 0.413009 0.611134 0.250000
O O10 0.504129 0.688163 0.356878
O O11 0.814819 0.750000 0.500000
O O12 0.655670 0.798207 0.391067
O O13 0.862966 0.876155 0.455039
O O14 0.912368 0.776822 0.363093
O O15 0.607164 0.192192 0.869696
O O16 0.855960 0.153726 0.847857
O O17 0.548171 0.777124 0.250000
O O18 0.000000 0.000000 0.500000
O O19 0.086045 0.749860 0.750000
#
# Coordination Sequence:
#
# PCOD9440272 Si02
#       8
#     8   8   8   8   8   8   8   8
#     4  12  24  44  69 101 137 185 223 284 346 413
#     4  12  23  42  68  98 130 178 230 279 341 404
#     4  11  25  44  66  99 140 180 228 285 351 415
#     4  12  23  40  67 100 129 173 226 284 337 411
#     4  12  23  42  70  97 130 176 237 275 333 413
#     4  11  26  43  65 100 137 177 223 288 353 411
#     4  12  23  43  68 103 134 170 233 286 338 408
#     4  12  24  41  64  97 138 176 221 286 347 404
#
# _framework density 19.365811000000001
#
# number of rings (size 3 to 8) (size 9 to 14) (size 15 to 20)
#    0.000    0.250    6.250    3.000    1.750    1.000 
#    0.000    0.625    0.000    3.750    0.000    0.000 
#    0.000    0.000    0.000    0.000    0.000    0.000 
#
# Total GULP energy -357466.259773 kJ/mol
# GULP energy per Si atom -5585.410309 kJ/mol
# Density = 1.932173 g / cm^3
# Si number density = 19.365811 Si / 1000 Ang^3
#
#
#
# Elastic Constant Matrix: (Units=GPa)
#
#
# Indices 1 2 3 4 5 6 
#
# 1 125.0663 17.3768 29.2068 0.0000 0.0000 0.0000
# 2 17.3768 93.1798 33.5164 0.0000 0.0000 0.0000
# 3 29.2068 33.5164 63.8873 0.0000 0.0000 0.0000
# 4 0.0000 0.0000 0.0000 20.8305 0.0000 0.0000
# 5 0.0000 0.0000 0.0000 0.0000 7.0702 0.0000
# 6 0.0000 0.0000 0.0000 0.0000 0.0000 20.5890
#
#
#
# Elastic Compliance Matrix: (Units=1/GPa)
#
#
# Indices 1 2 3 4 5 6 
#
# 1 0.008956 -0.000243 -0.003967 0.000000 0.000000 0.000000
# 2 -0.000243 0.013235 -0.006832 0.000000 0.000000 0.000000
# 3 -0.003967 -0.006832 0.021050 0.000000 0.000000 0.000000
# 4 0.000000 0.000000 0.000000 0.048006 0.000000 0.000000
# 5 0.000000 0.000000 0.000000 0.000000 0.141439 0.000000
# 6 0.000000 0.000000 0.000000 0.000000 0.000000 0.048570
#
#
# Mechanical properties :
#
#
# Convention : Reuss Voigt Hill
#
# Bulk Modulus (GPa) = 47.26587 49.14817 48.20702
# Shear Modulus (GPa) = 16.10868 23.16684 19.63776
#
# Velocity S-wave (km/s) = 2.88724 3.46247 3.18786
# Velocity P-wave (km/s) = 5.96446 6.43575 6.20458
#
# Compressibility (1/GPa) = 0.02115691
#
# Stress axis : x y z
#
# Youngs Moduli (GPa) = 111.65823 75.55878 47.50579
#
# Poissons Ratio (x) = 0.01839 0.18844
# Poissons Ratio (y) = 0.02718 0.32455
# Poissons Ratio (z) = 0.44290 0.51621
#
# Static dielectric constant tensor:
#      x y z
#    x 1.693460 0.000000 0.000000 
#    y 0.000000 1.712240 0.000000 
#    z 0.000000 0.000000 1.658370 
# 
# From -- ./inp_files/21425.got.cif
#   From: 2010.05.17/outbox.cif.g08.bks.cpg/sg57_11_cif.got.tgz:21425.got - 2010.06.03 13:58:18.
