data_PCOD9440453
_publ_section_title
;
Structure prediction by ZEFSAII (Michael W. Deem and Ramdas Pophale) SiO2 
 PCOD9440453
Probable space group: P B C M
;
_chemical_formula_sum "Si O2"
_cell_formula_units_Z 64
_cell_length_a 24.000000
_cell_length_b 15.000000
_cell_length_c 9.000000
_cell_angle_alpha 90.000000
_cell_angle_beta 90.000000
_cell_angle_gamma 90.000000
_cell_volume 3240.000000
_symmetry_space_group_name_H-M "P B C M"
_symmetry_group_IT_number 57
_symmetry_cell_setting 'orthorhombic'
loop_
_space_group_symop_operation_xyz
x,y,z
-x,-y,1/2+z
x,1/2-y,-z
-x,1/2+y,1/2-z
-x,-y,-z
x,y,1/2-z
-x,1/2+y,z
x,1/2-y,1/2+z
loop_
_atom_site_type_symbol
_atom_site_label
_atom_site_fract_x
_atom_site_fract_y
_atom_site_fract_z
Si Si1 0.000082 0.401906 0.927337
Si Si2 0.380763 0.846467 0.927732
Si Si3 0.823453 0.486363 0.578718
Si Si4 0.888908 0.335549 0.075316
Si Si5 0.890743 0.668412 0.579848
Si Si6 0.613373 0.847320 0.428421
Si Si7 0.496089 0.151428 0.427261
Si Si8 0.696448 0.502644 0.569790
O O1 0.997434 0.409011 0.750000
O O2 0.947086 0.350908 0.991521
O O3 0.000000 0.500000 0.000000
O O4 0.054973 0.352611 0.982972
O O5 0.375572 0.835747 0.750000
O O6 0.442523 0.885999 0.954094
O O7 0.335369 0.915336 0.984685
O O8 0.375691 0.750000 0.000000
O O9 0.826011 0.450926 0.750000
O O10 0.853371 0.421463 0.465330
O O11 0.854343 0.580169 0.580674
O O12 0.760452 0.500332 0.531770
O O13 0.897004 0.324422 0.250000
O O14 0.861163 0.250000 0.000000
O O15 0.860567 0.750000 0.500000
O O16 0.905954 0.689461 0.750000
O O17 0.618670 0.750000 0.500000
O O18 0.610490 0.840681 0.250000
O O19 0.556398 0.890439 0.490610
O O20 0.664326 0.908949 0.475921
O O21 0.499066 0.250000 0.500000
O O22 0.486660 0.157191 0.250000
O O23 0.693019 0.501028 0.750000
#
# Coordination Sequence:
#
# PCOD9440453 Si02
#       8
#     8   8   8   8   8   8   8   8
#     4  12  23  39  64  94 128 160 193 237 292 349
#     4   9  18  34  55  79 109 143 183 229 283 344
#     4  10  22  42  63  83 114 154 199 246 293 346
#     4  12  25  42  65  92 123 158 198 242 291 348
#     4  11  23  39  62  90 121 157 198 242 293 349
#     4  10  19  33  54  79 110 147 186 230 282 339
#     4   9  16  28  49  77 108 141 178 226 282 341
#     4   9  20  38  58  80 109 149 191 234 287 342
#
# _framework density 19.753086
#
# number of rings (size 3 to 8) (size 9 to 14) (size 15 to 20)
#    0.000    1.750    1.250    4.500    0.000    2.500 
#    0.000    4.375    0.000    0.000    0.000    0.000 
#    0.000    0.000    0.000    0.000    0.000    0.000 
#
# Total GULP energy -357177.488523 kJ/mol
# GULP energy per Si atom -5580.898258 kJ/mol
# Density = 1.970813 g / cm^3
# Si number density = 19.753086 Si / 1000 Ang^3
#
#
#
# Elastic Constant Matrix: (Units=GPa)
#
#
# Indices 1 2 3 4 5 6 
#
# 1 114.8058 37.6498 42.8919 0.0000 0.0000 0.0000
# 2 37.6498 96.5508 43.0034 0.0000 0.0000 0.0000
# 3 42.8919 43.0034 122.5734 0.0000 0.0000 0.0000
# 4 0.0000 0.0000 0.0000 109.4998 0.0000 0.0000
# 5 0.0000 0.0000 0.0000 0.0000 20.7174 0.0000
# 6 0.0000 0.0000 0.0000 0.0000 0.0000 49.8308
#
#
#
# Elastic Compliance Matrix: (Units=1/GPa)
#
#
# Indices 1 2 3 4 5 6 
#
# 1 0.010692 -0.002967 -0.002701 0.000000 0.000000 0.000000
# 2 -0.002967 0.013098 -0.003557 0.000000 0.000000 0.000000
# 3 -0.002701 -0.003557 0.010352 0.000000 0.000000 0.000000
# 4 0.000000 0.000000 0.000000 0.009132 0.000000 0.000000
# 5 0.000000 0.000000 0.000000 0.000000 0.048269 0.000000
# 6 0.000000 0.000000 0.000000 0.000000 0.000000 0.020068
#
#
# Mechanical properties :
#
#
# Convention : Reuss Voigt Hill
#
# Bulk Modulus (GPa) = 63.72293 64.55780 64.14036
# Shear Modulus (GPa) = 36.95729 50.03526 43.49628
#
# Velocity S-wave (km/s) = 4.33016 5.03839 4.69764
# Velocity P-wave (km/s) = 7.57166 8.16091 7.87180
#
# Compressibility (1/GPa) = 0.01569294
#
# Stress axis : x y z
#
# Youngs Moduli (GPa) = 93.52601 76.34482 96.60426
#
# Poissons Ratio (x) = 0.22648 0.26090
# Poissons Ratio (y) = 0.27744 0.34366
# Poissons Ratio (z) = 0.25259 0.27159
#
# Static dielectric constant tensor:
#      x y z
#    x 1.723300 0.000000 0.000000 
#    y 0.000000 1.692590 0.000000 
#    z 0.000000 0.000000 1.685250 
# 
# From -- ./inp_files/9346.got.cif
#   From: 2010.05.17/outbox.ucp.g08.bks.cvg/sg57_5_cif.got.tgz:9346.got - 2010.06.11 16:39:23.
