data_PCOD9440603
_publ_section_title
;
Structure prediction by ZEFSAII (Michael W. Deem and Ramdas Pophale) SiO2 
 PCOD9440603
Probable space group: P B C M
;
_chemical_formula_sum "Si O2"
_cell_formula_units_Z 48
_cell_length_a 15.000000
_cell_length_b 18.000000
_cell_length_c 9.000000
_cell_angle_alpha 90.000000
_cell_angle_beta 90.000000
_cell_angle_gamma 90.000000
_cell_volume 2430.000000
_symmetry_space_group_name_H-M "P B C M"
_symmetry_group_IT_number 57
_symmetry_cell_setting 'orthorhombic'
loop_
_space_group_symop_operation_xyz
x,y,z
-x,-y,1/2+z
x,1/2-y,-z
-x,1/2+y,1/2-z
-x,-y,-z
x,y,1/2-z
-x,1/2+y,z
x,1/2-y,1/2+z
loop_
_atom_site_type_symbol
_atom_site_label
_atom_site_fract_x
_atom_site_fract_y
_atom_site_fract_z
Si Si1 0.897096 0.828547 0.076595
Si Si2 0.109937 0.828127 0.077413
Si Si3 0.416874 0.668423 0.927122
Si Si4 0.409272 0.328171 0.921072
Si Si5 0.255993 0.917900 0.924209
Si Si6 0.761869 0.932116 0.920183
O O1 0.869400 0.829037 0.250000
O O2 0.003682 0.837791 0.071624
O O3 0.875476 0.750000 0.000000
O O4 0.848513 0.891094 0.982042
O O5 0.137531 0.827568 0.250000
O O6 0.132228 0.750000 0.000000
O O7 0.161592 0.889880 0.986080
O O8 0.417162 0.671929 0.750000
O O9 0.413149 0.750000 0.000000
O O10 0.509213 0.634933 0.989775
O O11 0.332378 0.624793 0.986909
O O12 0.437071 0.316071 0.750000
O O13 0.320013 0.375247 0.920996
O O14 0.391240 0.250000 0.000000
O O15 0.264138 0.904158 0.750000
O O16 0.262609 0.003041 0.967819
O O17 0.774411 0.958774 0.750000
#
# Coordination Sequence:
#
# PCOD9440603 Si02
#       6
#     8   8   8   8   8   8
#     4  10  21  38  62  89 117 152 193 239 287 339
#     4  10  21  39  62  88 117 150 193 240 287 340
#     4  11  22  39  63  88 116 150 191 238 286 339
#     4  10  21  38  61  88 116 149 191 237 285 337
#     4  12  25  40  59  84 117 155 194 237 289 347
#     4  11  24  40  59  85 119 156 194 238 288 344
#
# _framework density 19.753086
#
# number of rings (size 3 to 8) (size 9 to 14) (size 15 to 20)
#    0.000    1.333    0.000    7.000    0.000    7.333 
#    0.000    0.000    0.000    0.000    0.000    0.000 
#    0.000    0.000    0.000    0.000    0.000    0.000 
#
# Total GULP energy -268231.015452 kJ/mol
# GULP energy per Si atom -5588.146155 kJ/mol
# Density = 1.970813 g / cm^3
# Si number density = 19.753086 Si / 1000 Ang^3
#
#
#
# Elastic Constant Matrix: (Units=GPa)
#
#
# Indices 1 2 3 4 5 6 
#
# 1 22.0245 22.8449 35.7602 0.0000 0.0000 0.0000
# 2 22.8449 39.3114 24.0359 0.0000 0.0000 0.0000
# 3 35.7602 24.0359 173.2040 0.0000 0.0000 0.0000
# 4 0.0000 0.0000 0.0000 25.9984 0.0000 0.0000
# 5 0.0000 0.0000 0.0000 0.0000 57.8125 0.0000
# 6 0.0000 0.0000 0.0000 0.0000 0.0000 49.0227
#
#
#
# Elastic Compliance Matrix: (Units=1/GPa)
#
#
# Indices 1 2 3 4 5 6 
#
# 1 0.173831 -0.086405 -0.023899 0.000000 0.000000 0.000000
# 2 -0.086405 0.070745 0.008022 0.000000 0.000000 0.000000
# 3 -0.023899 0.008022 0.009595 0.000000 0.000000 0.000000
# 4 0.000000 0.000000 0.000000 0.038464 0.000000 0.000000
# 5 0.000000 0.000000 0.000000 0.000000 0.017297 0.000000
# 6 0.000000 0.000000 0.000000 0.000000 0.000000 0.020399
#
#
# Mechanical properties :
#
#
# Convention : Reuss Voigt Hill
#
# Bulk Modulus (GPa) = 20.15868 44.42465 32.29166
# Shear Modulus (GPa) = 9.06733 36.69331 22.88032
#
# Velocity S-wave (km/s) = 2.14483 4.31466 3.40710
# Velocity P-wave (km/s) = 4.04490 6.88190 5.64454
#
# Compressibility (1/GPa) = 0.04960643
#
# Stress axis : x y z
#
# Youngs Moduli (GPa) = 5.75272 14.13522 104.22572
#
# Poissons Ratio (x) = 1.22136 2.49089
# Poissons Ratio (y) = 0.49706 -0.83610
# Poissons Ratio (z) = 0.13748 -0.11339
#
# Static dielectric constant tensor:
#      x y z
#    x 1.708220 0.000000 0.000000 
#    y 0.000000 1.710600 0.000000 
#    z 0.000000 0.000000 1.662790 
# 
# From -- ./inp_files/4591.got.cif
#   From: 2010.05.17/outbox.ucp.g08.bks.cvg/sg57_3_cif.got.tgz:4591.got - 2010.06.11 16:39:23.
