data_PCOD9440001
_publ_section_title
;
Structure prediction by ZEFSAII (Michael W. Deem and Ramdas Pophale) SiO2 
 PCOD9440001
Probable space group: P B C M
;
_chemical_formula_sum "Si O2"
_cell_formula_units_Z 40
_cell_length_a 8.137126
_cell_length_b 15.927976
_cell_length_c 14.668299
_cell_angle_alpha 90.000000
_cell_angle_beta 90.000000
_cell_angle_gamma 90.000000
_cell_volume 1901.128129
_symmetry_space_group_name_H-M "P B C M"
_symmetry_group_IT_number 57
_symmetry_cell_setting 'orthorhombic'
loop_
_space_group_symop_operation_xyz
x,y,z
-x,-y,1/2+z
x,1/2-y,-z
-x,1/2+y,1/2-z
-x,-y,-z
x,y,1/2-z
-x,1/2+y,z
x,1/2-y,1/2+z
loop_
_atom_site_type_symbol
_atom_site_label
_atom_site_fract_x
_atom_site_fract_y
_atom_site_fract_z
Si Si1 0.451737 0.239468 0.608870
Si Si2 0.795997 0.177122 0.574243
Si Si3 0.871444 0.868897 0.350140
Si Si4 0.254683 0.500842 0.018245
Si Si5 0.547929 0.934209 0.854791
O O1 0.435424 0.250000 0.500000
O O2 0.620046 0.187527 0.624360
O O3 0.288158 0.191139 0.640237
O O4 0.473993 0.333457 0.646285
O O5 0.805377 0.250000 0.500000
O O6 0.957305 0.179447 0.636057
O O7 0.794054 0.091607 0.517018
O O8 0.867818 0.907428 0.250000
O O9 0.864325 0.940974 0.425980
O O10 0.400553 0.518630 0.091857
O O11 0.305861 0.452518 0.925795
O O12 0.568405 0.962773 0.750000
#
# Coordination Sequence:
#
# PCOD9440001 Si02
#       5
#     8   8   8   8   8
#     4  11  20  45  72  95 136 180 221 274 340 393
#     4  11  24  45  70  94 130 185 222 274 337 397
#     4  12  26  42  68 102 135 176 224 275 334 402
#     4  11  22  43  67  95 141 177 217 284 340 391
#     4  11  22  39  70 104 133 178 230 272 333 408
#
# _framework density 21.040137999999999
#
# number of rings (size 3 to 8) (size 9 to 14) (size 15 to 20)
#    0.000    0.800    6.000    3.600    0.000    2.400 
#    0.000    0.000    0.000    0.000    0.000    0.000 
#    0.000    0.000    0.000    0.000    0.000    0.000 
#
# Total GULP energy -223373.275916 kJ/mol
# GULP energy per Si atom -5584.331898 kJ/mol
# Density = 2.099225 g / cm^3
# Si number density = 21.040138 Si / 1000 Ang^3
#
#
#
# Elastic Constant Matrix: (Units=GPa)
#
#
# Indices 1 2 3 4 5 6 
#
# 1 124.3819 33.6032 48.2277 0.0000 0.0000 0.0000
# 2 33.6032 83.3082 28.3448 0.0000 0.0000 0.0000
# 3 48.2277 28.3448 160.3141 0.0000 0.0000 0.0000
# 4 0.0000 0.0000 0.0000 18.8899 0.0000 0.0000
# 5 0.0000 0.0000 0.0000 0.0000 -35.7888 0.0000
# 6 0.0000 0.0000 0.0000 0.0000 0.0000 64.3365
#
#
#
# Elastic Compliance Matrix: (Units=1/GPa)
#
#
# Indices 1 2 3 4 5 6 
#
# 1 0.009819 -0.003145 -0.002398 0.000000 0.000000 0.000000
# 2 -0.003145 0.013779 -0.001490 0.000000 0.000000 0.000000
# 3 -0.002398 -0.001490 0.007223 0.000000 0.000000 0.000000
# 4 0.000000 0.000000 0.000000 0.052938 0.000000 0.000000
# 5 0.000000 0.000000 0.000000 0.000000 -0.027942 0.000000
# 6 0.000000 0.000000 0.000000 0.000000 0.000000 0.015543
#
#
# Mechanical properties :
#
#
# Convention : Reuss Voigt Hill
#
# Bulk Modulus (GPa) = 59.68334 65.37283 62.52809
# Shear Modulus (GPa) = 54.93818 26.67610 40.80714
#
# Velocity S-wave (km/s) = 5.11545 3.56458 4.40874
# Velocity P-wave (km/s) = 7.95729 6.93394 7.46318
#
# Compressibility (1/GPa) = 0.01675509
#
# Stress axis : x y z
#
# Youngs Moduli (GPa) = 101.84222 72.57354 138.45436
#
# Poissons Ratio (x) = 0.22823 0.33200
# Poissons Ratio (y) = 0.32027 0.20633
# Poissons Ratio (z) = 0.24421 0.10815
#
# Static dielectric constant tensor:
#      x y z
#    x 1.825850 0.000000 0.000000 
#    y 0.000000 1.765250 0.000000 
#    z 0.000000 0.000000 1.745220 
# 
# From -- ./inp_files/15884.got.cif
#   From: 2010.05.17/outbox.cif.g08.bks.cpg/sg57_8_cif.got.tgz:15884.got - 2010.06.03 13:58:18.
