data_PCOD9440303
_publ_section_title
;
Structure prediction by ZEFSAII (Michael W. Deem and Ramdas Pophale) SiO2 
 PCOD9440303
Probable space group: P B C M
;
_chemical_formula_sum "Si O2"
_cell_formula_units_Z 40
_cell_length_a 4.988378
_cell_length_b 17.884267
_cell_length_c 18.410295
_cell_angle_alpha 90.000000
_cell_angle_beta 90.000000
_cell_angle_gamma 90.000000
_cell_volume 1642.446559
_symmetry_space_group_name_H-M "P B C M"
_symmetry_group_IT_number 57
_symmetry_cell_setting 'orthorhombic'
loop_
_space_group_symop_operation_xyz
x,y,z
-x,-y,1/2+z
x,1/2-y,-z
-x,1/2+y,1/2-z
-x,-y,-z
x,y,1/2-z
-x,1/2+y,z
x,1/2-y,1/2+z
loop_
_atom_site_type_symbol
_atom_site_label
_atom_site_fract_x
_atom_site_fract_y
_atom_site_fract_z
Si Si1 0.909741 0.208277 0.663811
Si Si2 0.609399 0.702118 0.119409
Si Si3 0.183794 0.100699 0.250000
Si Si4 0.998047 0.446490 0.383848
Si Si5 0.697455 0.935647 0.529235
Si Si6 0.318647 0.996524 0.750000
O O1 0.968195 0.213311 0.750000
O O2 0.669368 0.262494 0.642606
O O3 0.168598 0.232483 0.616541
O O4 0.831078 0.122891 0.646461
O O5 0.731309 0.650746 0.182544
O O6 0.575964 0.643224 0.053920
O O7 0.373318 0.027065 0.250000
O O8 0.873609 0.077149 0.250000
O O9 0.106985 0.422139 0.462176
O O10 0.225285 0.461723 0.323206
O O11 0.849269 0.523480 0.403976
O O12 0.500000 0.000000 0.500000
#
# Coordination Sequence:
#
# PCOD9440303 Si02
#       6
#     8   8   4   8   8   4
#     4  12  26  48  73 114 149 193 241 307 373 439
#     4  12  26  46  75 104 154 188 244 301 369 446
#     4  12  22  40  72 110 138 187 245 302 360 430
#     4  11  27  47  74 108 149 189 254 310 364 445
#     4  11  27  50  73 107 143 201 252 302 367 444
#     4  12  24  42  78 108 134 193 247 312 362 412
#
# _framework density 24.353911
#
# number of rings (size 3 to 8) (size 9 to 14) (size 15 to 20)
#    0.000    0.400    5.000    2.400    8.400    0.800 
#    0.000    0.000    0.000    0.000    0.000    0.000 
#    0.000    0.000    0.000    0.000    0.000    0.000 
#
# Total GULP energy -223972.089067 kJ/mol
# GULP energy per Si atom -5599.302227 kJ/mol
# Density = 2.429848 g / cm^3
# Si number density = 24.353911 Si / 1000 Ang^3
#
#
#
# Elastic Constant Matrix: (Units=GPa)
#
#
# Indices 1 2 3 4 5 6 
#
# 1 59.5368 20.7715 12.8551 0.0000 0.0000 0.0000
# 2 20.7715 123.0114 47.4119 0.0000 0.0000 0.0000
# 3 12.8551 47.4119 91.8076 0.0000 0.0000 0.0000
# 4 0.0000 0.0000 0.0000 52.7041 0.0000 0.0000
# 5 0.0000 0.0000 0.0000 0.0000 23.7552 0.0000
# 6 0.0000 0.0000 0.0000 0.0000 0.0000 34.7318
#
#
#
# Elastic Compliance Matrix: (Units=1/GPa)
#
#
# Indices 1 2 3 4 5 6 
#
# 1 0.017950 -0.002575 -0.001184 0.000000 0.000000 0.000000
# 2 -0.002575 0.010519 -0.005072 0.000000 0.000000 0.000000
# 3 -0.001184 -0.005072 0.013677 0.000000 0.000000 0.000000
# 4 0.000000 0.000000 0.000000 0.018974 0.000000 0.000000
# 5 0.000000 0.000000 0.000000 0.000000 0.042096 0.000000
# 6 0.000000 0.000000 0.000000 0.000000 0.000000 0.028792
#
#
# Mechanical properties :
#
#
# Convention : Reuss Voigt Hill
#
# Bulk Modulus (GPa) = 40.83984 48.49255 44.66620
# Shear Modulus (GPa) = 31.67949 35.12605 33.40277
#
# Velocity S-wave (km/s) = 3.61057 3.80190 3.70747
# Velocity P-wave (km/s) = 5.84699 6.26318 6.05866
#
# Compressibility (1/GPa) = 0.02448589
#
# Stress axis : x y z
#
# Youngs Moduli (GPa) = 55.70955 95.06720 73.11410
#
# Poissons Ratio (x) = 0.24478 0.08655
# Poissons Ratio (y) = 0.14344 0.37081
# Poissons Ratio (z) = 0.06595 0.48215
#
# Static dielectric constant tensor:
#      x y z
#    x 1.945230 0.000000 0.000000 
#    y 0.000000 1.987630 0.000000 
#    z 0.000000 0.000000 1.547790 
# 
# From -- ./inp_files/20039.got.cif
#   From: 2010.05.17/outbox.cif.g08.bks.cpg/sg57_11_cif.got.tgz:20039.got - 2010.06.03 13:58:18.
