data_PCOD9440760
_publ_section_title
;
Structure prediction by ZEFSAII (Michael W. Deem and Ramdas Pophale) SiO2 
 PCOD9440760
Probable space group: P N N M
;
_chemical_formula_sum "Si O2"
_cell_formula_units_Z 58
_cell_length_a 14.050645
_cell_length_b 22.780974
_cell_length_c 7.311710
_cell_angle_alpha 90.000000
_cell_angle_beta 90.000000
_cell_angle_gamma 90.000000
_cell_volume 2340.386086
_symmetry_space_group_name_H-M "P N N M"
_symmetry_group_IT_number 58
_symmetry_cell_setting 'orthorhombic'
loop_
_space_group_symop_operation_xyz
x,y,z
-x,-y,z
1/2+x,1/2-y,1/2-z
1/2-x,1/2+y,1/2-z
-x,-y,-z
x,y,-z
1/2-x,1/2+y,1/2+z
1/2+x,1/2-y,1/2+z
loop_
_atom_site_type_symbol
_atom_site_label
_atom_site_fract_x
_atom_site_fract_y
_atom_site_fract_z
Si Si1 0.500000 0.000000 0.500000
Si Si2 0.516778 0.238613 0.281087
Si Si3 0.217351 0.122149 0.207888
Si Si4 0.694546 0.621651 0.722883
Si Si5 0.489082 0.625291 0.277478
Si Si6 0.111929 0.442755 0.279693
Si Si7 0.227598 0.256951 0.707775
Si Si8 0.576989 0.876889 0.787477
O O1 0.417199 0.998491 0.337593
O O2 0.521309 0.236862 0.500000
O O3 0.503280 0.305970 0.226796
O O4 0.619076 0.219171 0.204839
O O5 0.436302 0.193615 0.220861
O O6 0.217680 0.193657 0.200158
O O7 0.319740 0.108700 0.292162
O O8 0.114816 0.104431 0.288062
O O9 0.218942 0.099245 0.000000
O O10 0.695163 0.624357 0.500000
O O11 0.590495 0.598696 0.778646
O O12 0.786048 0.583290 0.772370
O O13 0.712184 0.688940 0.784208
O O14 0.484813 0.622422 0.500000
O O15 0.109522 0.450331 0.500000
O O16 0.023788 0.400779 0.213551
O O17 0.259869 0.245753 0.500000
O O18 0.578242 0.894296 0.000000
#
# Coordination Sequence:
#
# PCOD9440760 Si02
#       8
#     2   8   8   8   8   8   8   8
#     4  12  26  44  64  90 114 132 174 240 312 360
#     4  10  18  27  44  68 102 145 191 231 260 305
#     4   9  18  30  44  69 107 150 188 223 255 300
#     4   9  16  29  50  72 100 139 183 224 269 328
#     4   8  15  27  43  69 102 145 190 225 257 299
#     4  10  22  40  62  87 110 140 175 228 293 353
#     4  10  17  27  43  67 103 145 186 224 262 302
#     4  10  19  32  49  73 106 141 181 223 271 328
#
# _framework density 24.782233999999999
#
# number of rings (size 3 to 8) (size 9 to 14) (size 15 to 20)
#    0.000    2.483    1.379    2.690    0.966    1.655 
#    1.241    0.000    7.586    0.000    0.000    1.931 
#    0.000    6.621    0.000    0.000    0.000    0.000 
#
# Total GULP energy -323198.651680 kJ/mol
# GULP energy per Si atom -5572.390546 kJ/mol
# Density = 2.472583 g / cm^3
# Si number density = 24.782234 Si / 1000 Ang^3
#
#
#
# Elastic Constant Matrix: (Units=GPa)
#
#
# Indices 1 2 3 4 5 6 
#
# 1 253.4543 35.5679 18.8510 0.0000 0.0000 0.0000
# 2 35.5679 30.9324 -3.7628 0.0000 0.0000 0.0000
# 3 18.8510 -3.7628 112.5006 0.0000 0.0000 0.0000
# 4 0.0000 0.0000 0.0000 -69.0030 0.0000 0.0000
# 5 0.0000 0.0000 0.0000 0.0000 -15.3731 0.0000
# 6 0.0000 0.0000 0.0000 0.0000 0.0000 30.9903
#
#
#
# Elastic Compliance Matrix: (Units=1/GPa)
#
#
# Indices 1 2 3 4 5 6 
#
# 1 0.004813 -0.005656 -0.000996 0.000000 0.000000 0.000000
# 2 -0.005656 0.039106 0.002256 0.000000 0.000000 0.000000
# 3 -0.000996 0.002256 0.009131 0.000000 0.000000 0.000000
# 4 0.000000 0.000000 0.000000 -0.014492 0.000000 0.000000
# 5 0.000000 0.000000 0.000000 0.000000 -0.065049 0.000000
# 6 0.000000 0.000000 0.000000 0.000000 0.000000 0.032268
#
#
# Mechanical properties :
#
#
# Convention : Reuss Voigt Hill
#
# Bulk Modulus (GPa) = 22.59420 55.35551 38.97486
# Shear Modulus (GPa) = 170.51859 12.40490 91.46175
#
# Velocity S-wave (km/s) = 8.30398 2.23974 6.08164
# Velocity P-wave (km/s) = 10.05378 5.39202 8.06698
#
# Compressibility (1/GPa) = 0.04425914
#
# Stress axis : x y z
#
# Youngs Moduli (GPa) = 207.76145 25.57144 109.51548
#
# Poissons Ratio (x) = 0.14462 0.10904
# Poissons Ratio (y) = 1.17502 -0.24703
# Poissons Ratio (z) = 0.20686 -0.05768
#
# Static dielectric constant tensor:
#      x y z
#    x 2.016360 0.000000 0.000000 
#    y 0.000000 2.085490 0.000000 
#    z 0.000000 0.000000 1.978570 
# 
# From -- ./inp_files/7094.got.cif
#   From: 2010.05.17/outbox.cif.g08.bks.cpg/sg58_4_cif.got.tgz:7094.got - 2010.06.03 14:20:14.
