data_PCOD9440321
_publ_section_title
;
Structure prediction by ZEFSAII (Michael W. Deem and Ramdas Pophale) SiO2 
 PCOD9440321
Probable space group: P B C M
;
_chemical_formula_sum "Si O2"
_cell_formula_units_Z 48
_cell_length_a 6.918982
_cell_length_b 14.335942
_cell_length_c 21.208599
_cell_angle_alpha 90.000000
_cell_angle_beta 90.000000
_cell_angle_gamma 90.000000
_cell_volume 2103.683578
_symmetry_space_group_name_H-M "P B C M"
_symmetry_group_IT_number 57
_symmetry_cell_setting 'orthorhombic'
loop_
_space_group_symop_operation_xyz
x,y,z
-x,-y,1/2+z
x,1/2-y,-z
-x,1/2+y,1/2-z
-x,-y,-z
x,y,1/2-z
-x,1/2+y,z
x,1/2-y,1/2+z
loop_
_atom_site_type_symbol
_atom_site_label
_atom_site_fract_x
_atom_site_fract_y
_atom_site_fract_z
Si Si1 0.649681 0.383023 0.360985
Si Si2 0.562868 0.697703 0.109051
Si Si3 0.674135 0.025032 0.362937
Si Si4 0.067367 0.663903 0.750000
Si Si5 0.855258 0.750000 0.500000
Si Si6 0.256836 0.178225 0.250000
Si Si7 0.006586 0.568185 0.942015
Si Si8 0.928451 0.457325 0.750000
O O1 0.546067 0.296748 0.395002
O O2 0.489462 0.455442 0.336054
O O3 0.790719 0.339118 0.309243
O O4 0.793232 0.440913 0.405387
O O5 0.427695 0.607673 0.098585
O O6 0.633322 0.689661 0.182920
O O7 0.727013 0.702333 0.055358
O O8 0.805658 0.073049 0.310006
O O9 0.822401 0.959864 0.400374
O O10 0.917812 0.747583 0.750000
O O11 0.943192 0.568947 0.750000
O O12 0.982647 0.672979 0.534451
O O13 0.145494 0.079836 0.250000
O O14 0.000000 0.500000 0.000000
#
# Coordination Sequence:
#
# PCOD9440321 Si02
#       8
#     8   8   8   4   4   4   8   4
#     4  12  25  48  73 110 141 196 240 305 374 429
#     4  12  27  46  77 106 152 194 249 310 369 452
#     4  12  26  49  73 111 146 190 252 303 375 441
#     4  12  22  42  76 100 145 183 242 295 362 444
#     4  12  28  50  74 114 148 196 254 304 372 446
#     4  12  26  48  74 114 150 198 246 308 378 438
#     4  12  29  47  75 104 147 195 245 309 367 447
#     4  12  24  44  76 108 143 193 242 307 370 438
#
# _framework density 22.817119000000002
#
# number of rings (size 3 to 8) (size 9 to 14) (size 15 to 20)
#    0.000    0.000    3.333    6.500    7.000    1.333 
#    0.000    0.000    0.000    0.000    0.000    0.000 
#    0.000    0.000    0.000    0.000    0.000    0.000 
#
# Total GULP energy -268797.650762 kJ/mol
# GULP energy per Si atom -5599.951058 kJ/mol
# Density = 2.276519 g / cm^3
# Si number density = 22.817119 Si / 1000 Ang^3
#
#
#
# Elastic Constant Matrix: (Units=GPa)
#
#
# Indices 1 2 3 4 5 6 
#
# 1 95.1560 8.0165 27.4647 0.0000 0.0000 0.0000
# 2 8.0165 63.6746 -13.2428 0.0000 0.0000 0.0000
# 3 27.4647 -13.2428 83.0126 0.0000 0.0000 0.0000
# 4 0.0000 0.0000 0.0000 28.4488 0.0000 0.0000
# 5 0.0000 0.0000 0.0000 0.0000 14.8997 0.0000
# 6 0.0000 0.0000 0.0000 0.0000 0.0000 50.9782
#
#
#
# Elastic Compliance Matrix: (Units=1/GPa)
#
#
# Indices 1 2 3 4 5 6 
#
# 1 0.011966 -0.002410 -0.004343 0.000000 0.000000 0.000000
# 2 -0.002410 0.016729 0.003466 0.000000 0.000000 0.000000
# 3 -0.004343 0.003466 0.014036 0.000000 0.000000 0.000000
# 4 0.000000 0.000000 0.000000 0.035151 0.000000 0.000000
# 5 0.000000 0.000000 0.000000 0.000000 0.067116 0.000000
# 6 0.000000 0.000000 0.000000 0.000000 0.000000 0.019616
#
#
# Mechanical properties :
#
#
# Convention : Reuss Voigt Hill
#
# Bulk Modulus (GPa) = 27.65716 31.81334 29.73525
# Shear Modulus (GPa) = 27.28662 33.50565 30.39614
#
# Velocity S-wave (km/s) = 3.46191 3.83618 3.65384
# Velocity P-wave (km/s) = 5.30352 5.79610 5.55527
#
# Compressibility (1/GPa) = 0.03615700
#
# Stress axis : x y z
#
# Youngs Moduli (GPa) = 83.57252 59.77614 71.24413
#
# Poissons Ratio (x) = 0.14405 0.30943
# Poissons Ratio (y) = 0.20139 -0.24693
# Poissons Ratio (z) = 0.36298 -0.20718
#
# Static dielectric constant tensor:
#      x y z
#    x 1.909110 0.000000 0.000000 
#    y 0.000000 1.841850 0.000000 
#    z 0.000000 0.000000 1.603740 
# 
# From -- ./inp_files/28010.got.cif
#   From: 2010.05.17/outbox.cif.g08.bks.cpg/sg57_15_cif.got.tgz:28010.got - 2010.06.03 13:58:18.
