data_PCOD9440973
_publ_section_title
;
Structure prediction by ZEFSAII (Michael W. Deem and Ramdas Pophale) SiO2 
 PCOD9440973
Probable space group: P N N M
;
_chemical_formula_sum "Si O2"
_cell_formula_units_Z 56
_cell_length_a 30.364051
_cell_length_b 14.272370
_cell_length_c 7.653412
_cell_angle_alpha 90.000000
_cell_angle_beta 90.000000
_cell_angle_gamma 90.000000
_cell_volume 3316.735973
_symmetry_space_group_name_H-M "P N N M"
_symmetry_group_IT_number 58
_symmetry_cell_setting 'orthorhombic'
loop_
_space_group_symop_operation_xyz
x,y,z
-x,-y,z
1/2+x,1/2-y,1/2-z
1/2-x,1/2+y,1/2-z
-x,-y,-z
x,y,-z
1/2-x,1/2+y,1/2+z
1/2+x,1/2-y,1/2+z
loop_
_atom_site_type_symbol
_atom_site_label
_atom_site_fract_x
_atom_site_fract_y
_atom_site_fract_z
Si Si1 0.402806 0.891870 0.284610
Si Si2 0.683170 0.786243 0.792587
Si Si3 0.737319 0.613278 0.296376
Si Si4 0.678023 0.229923 0.702401
Si Si5 0.594979 0.892839 0.289844
Si Si6 0.999488 0.613818 0.201778
Si Si7 0.267983 0.597662 0.285917
O O1 0.402951 0.892388 0.500000
O O2 0.363815 0.824582 0.222407
O O3 0.451632 0.861014 0.224521
O O4 0.395632 0.000269 0.230477
O O5 0.696858 0.685155 0.720042
O O6 0.635239 0.825256 0.751017
O O7 0.720711 0.859735 0.731816
O O8 0.687573 0.779267 0.000000
O O9 0.748992 0.604691 0.500000
O O10 0.779459 0.661984 0.208699
O O11 0.727550 0.509347 0.228816
O O12 0.667134 0.247688 0.500000
O O13 0.695181 0.328628 0.777228
O O14 0.590741 0.897961 0.500000
O O15 0.547021 0.860417 0.220854
O O16 0.000000 0.500000 0.199923
O O17 0.999092 0.646023 0.000000
O O18 0.269308 0.599042 0.500000
#
# Coordination Sequence:
#
# PCOD9440973 Si02
#       7
#     8   8   8   8   8   8   8
#     4   8  13  22  40  63  85 110 137 163 193 235
#     4  10  19  30  42  59  82 106 133 164 201 238
#     4  10  18  29  42  56  77 105 134 161 194 234
#     4   9  16  27  42  61  82 104 132 162 196 234
#     4   9  15  24  40  62  85 109 137 165 194 233
#     4   7  11  20  35  58  85 108 132 163 195 229
#     4   8  16  28  40  55  78 104 127 160 200 232
#
# _framework density 16.884067999999999
#
# number of rings (size 3 to 8) (size 9 to 14) (size 15 to 20)
#    0.000    3.286    0.000    4.286    0.000    0.000 
#    0.000    6.429    0.000    4.714    0.000    1.000 
#    0.000    8.000    0.000    0.000    0.000    0.000 
#
# Total GULP energy -311772.288674 kJ/mol
# GULP energy per Si atom -5567.362298 kJ/mol
# Density = 1.684564 g / cm^3
# Si number density = 16.884068 Si / 1000 Ang^3
#
#
#
# Elastic Constant Matrix: (Units=GPa)
#
#
# Indices 1 2 3 4 5 6 
#
# 1 137.9328 67.0626 -5.3724 0.0000 0.0000 0.0000
# 2 67.0626 120.6978 -1.2617 0.0000 0.0000 0.0000
# 3 -5.3724 -1.2617 30.4613 0.0000 0.0000 0.0000
# 4 0.0000 0.0000 0.0000 5.9305 0.0000 0.0000
# 5 0.0000 0.0000 0.0000 0.0000 7.7619 0.0000
# 6 0.0000 0.0000 0.0000 0.0000 0.0000 26.8942
#
#
#
# Elastic Compliance Matrix: (Units=1/GPa)
#
#
# Indices 1 2 3 4 5 6 
#
# 1 0.010005 -0.005543 0.001535 0.000000 0.000000 0.000000
# 2 -0.005543 0.011360 -0.000507 0.000000 0.000000 0.000000
# 3 0.001535 -0.000507 0.033078 0.000000 0.000000 0.000000
# 4 0.000000 0.000000 0.000000 0.168620 0.000000 0.000000
# 5 0.000000 0.000000 0.000000 0.000000 0.128835 0.000000
# 6 0.000000 0.000000 0.000000 0.000000 0.000000 0.037183
#
#
# Mechanical properties :
#
#
# Convention : Reuss Voigt Hill
#
# Bulk Modulus (GPa) = 22.02033 45.54990 33.78511
# Shear Modulus (GPa) = 12.09928 23.36154 17.73041
#
# Velocity S-wave (km/s) = 2.67986 3.72377 3.24408
# Velocity P-wave (km/s) = 4.75877 6.74724 5.83829
#
# Compressibility (1/GPa) = 0.04541257
#
# Stress axis : x y z
#
# Youngs Moduli (GPa) = 99.95460 88.03191 30.23133
#
# Poissons Ratio (x) = 0.48794 -0.04640
# Poissons Ratio (y) = 0.55402 0.01533
# Poissons Ratio (z) = -0.15342 0.04464
#
# Static dielectric constant tensor:
#      x y z
#    x 1.600270 0.000000 0.000000 
#    y 0.000000 1.558370 0.000000 
#    z 0.000000 0.000000 1.638430 
# 
# From -- ./inp_files/7099.got.cif
#   From: 2010.05.17/outbox.cif.g08.bks.cpg/sg58_4_cif.got.tgz:7099.got - 2010.06.03 14:20:14.
