data_PCOD9440913
_publ_section_title
;
Structure prediction by ZEFSAII (Michael W. Deem and Ramdas Pophale) SiO2 
 PCOD9440913
Probable space group: P N N M
;
_chemical_formula_sum "Si O2"
_cell_formula_units_Z 64
_cell_length_a 22.407023
_cell_length_b 19.688705
_cell_length_c 7.567188
_cell_angle_alpha 90.000000
_cell_angle_beta 90.000000
_cell_angle_gamma 90.000000
_cell_volume 3338.380505
_symmetry_space_group_name_H-M "P N N M"
_symmetry_group_IT_number 58
_symmetry_cell_setting 'orthorhombic'
loop_
_space_group_symop_operation_xyz
x,y,z
-x,-y,z
1/2+x,1/2-y,1/2-z
1/2-x,1/2+y,1/2-z
-x,-y,-z
x,y,-z
1/2-x,1/2+y,1/2+z
1/2+x,1/2-y,1/2+z
loop_
_atom_site_type_symbol
_atom_site_label
_atom_site_fract_x
_atom_site_fract_y
_atom_site_fract_z
Si Si1 0.817041 0.033783 0.798194
Si Si2 0.438461 0.529420 0.207564
Si Si3 0.007486 0.574483 0.703575
Si Si4 0.385401 0.672331 0.784331
Si Si5 0.807487 0.576325 0.713825
Si Si6 0.234893 0.113073 0.285464
Si Si7 0.090355 0.321516 0.283580
Si Si8 0.359576 0.073362 0.708311
O O1 0.761275 0.076399 0.720442
O O2 0.882954 0.023086 0.720723
O O3 0.789536 0.957941 0.788704
O O4 0.825602 0.055165 0.000000
O O5 0.500000 0.500000 0.283556
O O6 0.417341 0.603042 0.279105
O O7 0.448846 0.541098 0.000000
O O8 0.986935 0.567466 0.500000
O O9 0.077416 0.589555 0.706197
O O10 0.000000 0.500000 0.787753
O O11 0.965426 0.633050 0.777859
O O12 0.315134 0.667424 0.737462
O O13 0.411230 0.743807 0.723387
O O14 0.387894 0.670924 0.000000
O O15 0.804463 0.576582 0.500000
O O16 0.849619 0.638220 0.769100
O O17 0.839867 0.505236 0.762978
O O18 0.234878 0.106640 0.500000
O O19 0.303350 0.118281 0.229303
O O20 0.090216 0.319125 0.500000
O O21 0.367241 0.083426 0.500000
#
# Coordination Sequence:
#
# PCOD9440913 Si02
#       8
#     8   8   8   8   8   8   8   8
#     4   9  16  25  43  69  92 111 138 181 226 268
#     4   9  17  30  49  70  91 117 150 189 227 268
#     4  10  18  29  44  64  91 121 155 191 221 256
#     4   8  14  27  48  69  84 107 153 193 220 263
#     4   9  16  28  44  65  90 115 147 185 225 262
#     4   8  15  28  45  65  87 111 144 184 221 263
#     4   9  16  27  46  66  85 116 155 192 222 259
#     4  10  18  27  43  66  92 118 148 186 224 261
#
# _framework density 19.170971000000002
#
# number of rings (size 3 to 8) (size 9 to 14) (size 15 to 20)
#    0.000    3.000    1.250    1.500    0.000    1.500 
#    0.000    0.000    2.750    6.000    0.000    0.000 
#    0.000    0.000    0.000    0.000    0.000    0.000 
#
# Total GULP energy -356289.392362 kJ/mol
# GULP energy per Si atom -5567.021756 kJ/mol
# Density = 1.912734 g / cm^3
# Si number density = 19.170971 Si / 1000 Ang^3
#
#
#
# Elastic Constant Matrix: (Units=GPa)
#
#
# Indices 1 2 3 4 5 6 
#
# 1 161.6162 73.1751 -0.6576 0.0000 0.0000 0.0000
# 2 73.1751 92.3978 5.6465 0.0000 0.0000 0.0000
# 3 -0.6576 5.6465 40.3107 0.0000 0.0000 0.0000
# 4 0.0000 0.0000 0.0000 3.1057 0.0000 0.0000
# 5 0.0000 0.0000 0.0000 0.0000 26.4656 0.0000
# 6 0.0000 0.0000 0.0000 0.0000 0.0000 25.5520
#
#
#
# Elastic Compliance Matrix: (Units=1/GPa)
#
#
# Indices 1 2 3 4 5 6 
#
# 1 0.009708 -0.007765 0.001246 0.000000 0.000000 0.000000
# 2 -0.007765 0.017126 -0.002526 0.000000 0.000000 0.000000
# 3 0.001246 -0.002526 0.025181 0.000000 0.000000 0.000000
# 4 0.000000 0.000000 0.000000 0.321989 0.000000 0.000000
# 5 0.000000 0.000000 0.000000 0.000000 0.037785 0.000000
# 6 0.000000 0.000000 0.000000 0.000000 0.000000 0.039136
#
#
# Mechanical properties :
#
#
# Convention : Reuss Voigt Hill
#
# Bulk Modulus (GPa) = 29.47467 50.07255 39.77361
# Shear Modulus (GPa) = 10.40964 25.43535 17.92249
#
# Velocity S-wave (km/s) = 2.33274 3.64643 3.06089
# Velocity P-wave (km/s) = 4.76063 6.62603 5.76922
#
# Compressibility (1/GPa) = 0.03392744
#
# Stress axis : x y z
#
# Youngs Moduli (GPa) = 103.00627 58.38957 39.71182
#
# Poissons Ratio (x) = 0.45337 -0.04948
# Poissons Ratio (y) = 0.79980 0.10030
# Poissons Ratio (z) = -0.12834 0.14747
#
# Static dielectric constant tensor:
#      x y z
#    x 1.710030 0.000000 0.000000 
#    y 0.000000 1.654330 0.000000 
#    z 0.000000 0.000000 1.710280 
# 
# From -- ./inp_files/9424.got.cif
#   From: 2010.05.17/outbox.cif.g08.bks.cpg/sg58_5_cif.got.tgz:9424.got - 2010.06.03 14:20:14.
