data_PCOD9440311
_publ_section_title
;
Structure prediction by ZEFSAII (Michael W. Deem and Ramdas Pophale) SiO2 
 PCOD9440311
Probable space group: P B C M
;
_chemical_formula_sum "Si O2"
_cell_formula_units_Z 24
_cell_length_a 6.309396
_cell_length_b 18.103750
_cell_length_c 9.597226
_cell_angle_alpha 90.000000
_cell_angle_beta 90.000000
_cell_angle_gamma 90.000000
_cell_volume 1096.230931
_symmetry_space_group_name_H-M "P B C M"
_symmetry_group_IT_number 57
_symmetry_cell_setting 'orthorhombic'
loop_
_space_group_symop_operation_xyz
x,y,z
-x,-y,1/2+z
x,1/2-y,-z
-x,1/2+y,1/2-z
-x,-y,-z
x,y,1/2-z
-x,1/2+y,z
x,1/2-y,1/2+z
loop_
_atom_site_type_symbol
_atom_site_label
_atom_site_fract_x
_atom_site_fract_y
_atom_site_fract_z
Si Si1 0.744416 0.110377 0.250000
Si Si2 0.209304 0.376313 0.250000
Si Si3 0.125068 0.993123 0.250000
Si Si4 0.362855 0.406691 0.950079
Si Si5 0.126206 0.203738 0.250000
O O1 0.918256 0.046099 0.250000
O O2 0.593546 0.103206 0.116174
O O3 0.876883 0.186063 0.250000
O O4 0.974447 0.412651 0.250000
O O5 0.332699 0.402941 0.386773
O O6 0.186061 0.288465 0.250000
O O7 0.261145 0.019242 0.116881
O O8 0.226279 0.339601 0.881902
#
# Coordination Sequence:
#
# PCOD9440311 Si02
#       5
#     4   4   4   8   4
#     4   8  18  42  60  74 114 158 182 226 288 334
#     4  12  20  34  62  90 114 146 190 240 284 330
#     4   9  20  38  59  83 117 155 187 227 282 338
#     4   9  20  39  57  81 117 150 189 235 277 334
#     4   9  20  40  59  77 113 155 189 231 284 334
#
# _framework density 21.893198999999999
#
# number of rings (size 3 to 8) (size 9 to 14) (size 15 to 20)
#    0.000    3.333    0.000    2.000    0.000    1.333 
#    0.000   43.333    0.000    0.000    0.000    0.000 
#    0.000    0.000    0.000    0.000    0.000    0.000 
#
# Total GULP energy -134211.480015 kJ/mol
# GULP energy per Si atom -5592.145001 kJ/mol
# Density = 2.184337 g / cm^3
# Si number density = 21.893199 Si / 1000 Ang^3
#
#
#
# Elastic Constant Matrix: (Units=GPa)
#
#
# Indices 1 2 3 4 5 6 
#
# 1 116.4657 16.2847 43.9429 0.0000 0.0000 0.0000
# 2 16.2847 97.9697 29.1506 0.0000 0.0000 0.0000
# 3 43.9429 29.1506 205.2032 0.0000 0.0000 0.0000
# 4 0.0000 0.0000 0.0000 -9.8960 0.0000 0.0000
# 5 0.0000 0.0000 0.0000 0.0000 3.0489 0.0000
# 6 0.0000 0.0000 0.0000 0.0000 0.0000 21.7764
#
#
#
# Elastic Compliance Matrix: (Units=1/GPa)
#
#
# Indices 1 2 3 4 5 6 
#
# 1 0.009436 -0.001010 -0.001877 0.000000 0.000000 0.000000
# 2 -0.001010 0.010766 -0.001313 0.000000 0.000000 0.000000
# 3 -0.001877 -0.001313 0.005462 0.000000 0.000000 0.000000
# 4 0.000000 0.000000 0.000000 -0.101051 0.000000 0.000000
# 5 0.000000 0.000000 0.000000 0.000000 0.327990 0.000000
# 6 0.000000 0.000000 0.000000 0.000000 0.000000 0.045921
#
#
# Mechanical properties :
#
#
# Convention : Reuss Voigt Hill
#
# Bulk Modulus (GPa) = 57.92741 66.48836 62.20788
# Shear Modulus (GPa) = 15.99089 25.00321 20.49705
#
# Velocity S-wave (km/s) = 2.70553 3.38309 3.06311
# Velocity P-wave (km/s) = 6.02299 6.75987 6.40204
#
# Compressibility (1/GPa) = 0.01726299
#
# Stress axis : x y z
#
# Youngs Moduli (GPa) = 105.98081 92.88665 183.09228
#
# Poissons Ratio (x) = 0.09380 0.34369
# Poissons Ratio (y) = 0.10703 0.24042
# Poissons Ratio (z) = 0.19894 0.12197
#
# Static dielectric constant tensor:
#      x y z
#    x 1.806330 0.000000 0.000000 
#    y 0.000000 1.819080 0.000000 
#    z 0.000000 0.000000 1.796640 
# 
# From -- ./inp_files/10554.got.cif
#   From: 2010.05.17/outbox.cif.g08.bks.cpg/sg57_6_cif.got.tgz:10554.got - 2010.06.03 13:58:18.
