data_PCOD9440253
_publ_section_title
;
Structure prediction by ZEFSAII (Michael W. Deem and Ramdas Pophale) SiO2 
 PCOD9440253
Probable space group: P B C M
;
_chemical_formula_sum "Si O2"
_cell_formula_units_Z 32
_cell_length_a 17.555809
_cell_length_b 9.734553
_cell_length_c 9.776591
_cell_angle_alpha 90.000000
_cell_angle_beta 90.000000
_cell_angle_gamma 90.000000
_cell_volume 1670.799391
_symmetry_space_group_name_H-M "P B C M"
_symmetry_group_IT_number 57
_symmetry_cell_setting 'orthorhombic'
loop_
_space_group_symop_operation_xyz
x,y,z
-x,-y,1/2+z
x,1/2-y,-z
-x,1/2+y,1/2-z
-x,-y,-z
x,y,1/2-z
-x,1/2+y,z
x,1/2-y,1/2+z
loop_
_atom_site_type_symbol
_atom_site_label
_atom_site_fract_x
_atom_site_fract_y
_atom_site_fract_z
Si Si1 0.088440 0.296679 0.250000
Si Si2 0.799303 0.750000 0.000000
Si Si3 0.934509 0.377029 0.750000
Si Si4 0.839077 0.250000 0.000000
Si Si5 0.450499 0.609894 0.584077
Si Si6 0.276433 0.984281 0.407415
O O1 0.142979 0.265182 0.375761
O O2 0.062807 0.456957 0.250000
O O3 0.016597 0.195153 0.250000
O O4 0.746739 0.884184 0.994861
O O5 0.889878 0.322476 0.616122
O O6 0.784130 0.364466 0.064967
O O7 0.462468 0.750000 0.500000
O O8 0.500000 0.500000 0.500000
O O9 0.466878 0.617955 0.750000
O O10 0.361653 0.568952 0.569933
O O11 0.270708 0.027632 0.250000
#
# Coordination Sequence:
#
# PCOD9440253 Si02
#       6
#     4   4   4   4   8   8
#     4  12  28  44  66  96 135 176 227 281 345 408
#     4  12  25  46  67  98 134 174 232 280 341 404
#     4  12  28  42  66  98 131 180 221 285 341 410
#     4  12  23  44  69  96 130 172 228 276 341 400
#     4  11  25  47  71 106 144 185 230 282 345 417
#     4  11  24  44  72 101 133 175 227 285 336 401
#
# _framework density 19.152508999999998
#
# number of rings (size 3 to 8) (size 9 to 14) (size 15 to 20)
#    0.000    0.500    6.250    1.500    5.250    2.000 
#    6.750    0.000    0.000    0.000    0.000    0.000 
#    0.000    0.000    0.000    0.000    0.000    0.000 
#
# Total GULP energy -178819.837176 kJ/mol
# GULP energy per Si atom -5588.119912 kJ/mol
# Density = 1.910892 g / cm^3
# Si number density = 19.152509 Si / 1000 Ang^3
#
#
#
# Elastic Constant Matrix: (Units=GPa)
#
#
# Indices 1 2 3 4 5 6 
#
# 1 73.6629 48.3104 62.7092 0.0000 0.0000 0.0000
# 2 48.3104 111.0990 28.7415 0.0000 0.0000 0.0000
# 3 62.7092 28.7415 137.3897 0.0000 0.0000 0.0000
# 4 0.0000 0.0000 0.0000 26.9102 0.0000 0.0000
# 5 0.0000 0.0000 0.0000 0.0000 9.9099 0.0000
# 6 0.0000 0.0000 0.0000 0.0000 0.0000 23.8274
#
#
#
# Elastic Compliance Matrix: (Units=1/GPa)
#
#
# Indices 1 2 3 4 5 6 
#
# 1 0.030071 -0.010070 -0.011619 0.000000 0.000000 0.000000
# 2 -0.010070 0.012888 0.001900 0.000000 0.000000 0.000000
# 3 -0.011619 0.001900 0.012184 0.000000 0.000000 0.000000
# 4 0.000000 0.000000 0.000000 0.037161 0.000000 0.000000
# 5 0.000000 0.000000 0.000000 0.000000 0.100909 0.000000
# 6 0.000000 0.000000 0.000000 0.000000 0.000000 0.041969
#
#
# Mechanical properties :
#
#
# Convention : Reuss Voigt Hill
#
# Bulk Modulus (GPa) = 64.24294 66.85266 65.54780
# Shear Modulus (GPa) = 17.86052 24.28886 21.07469
#
# Velocity S-wave (km/s) = 3.05707 3.56502 3.32077
# Velocity P-wave (km/s) = 6.78797 7.20604 7.00013
#
# Compressibility (1/GPa) = 0.01556591
#
# Stress axis : x y z
#
# Youngs Moduli (GPa) = 33.25517 77.58969 82.07384
#
# Poissons Ratio (x) = 0.78134 0.95358
# Poissons Ratio (y) = 0.33488 -0.15595
# Poissons Ratio (z) = 0.38638 -0.14743
#
# Static dielectric constant tensor:
#      x y z
#    x 1.628980 0.000000 0.000000 
#    y 0.000000 1.633580 0.000000 
#    z 0.000000 0.000000 1.679160 
# 
# From -- ./inp_files/7580.got.cif
#   From: 2010.05.17/outbox.cif.g08.bks.cpg/sg57_4_cif.got.tgz:7580.got - 2010.06.03 13:58:18.
