data_PCOD9440259
_publ_section_title
;
Structure prediction by ZEFSAII (Michael W. Deem and Ramdas Pophale) SiO2 
 PCOD9440259
Probable space group: P B C M
;
_chemical_formula_sum "Si O2"
_cell_formula_units_Z 48
_cell_length_a 9.786273
_cell_length_b 18.734029
_cell_length_c 13.687491
_cell_angle_alpha 90.000000
_cell_angle_beta 90.000000
_cell_angle_gamma 90.000000
_cell_volume 2509.414260
_symmetry_space_group_name_H-M "P B C M"
_symmetry_group_IT_number 57
_symmetry_cell_setting 'orthorhombic'
loop_
_space_group_symop_operation_xyz
x,y,z
-x,-y,1/2+z
x,1/2-y,-z
-x,1/2+y,1/2-z
-x,-y,-z
x,y,1/2-z
-x,1/2+y,z
x,1/2-y,1/2+z
loop_
_atom_site_type_symbol
_atom_site_label
_atom_site_fract_x
_atom_site_fract_y
_atom_site_fract_z
Si Si1 0.021442 0.985069 0.750000
Si Si2 0.719081 0.586453 0.250000
Si Si3 0.198049 0.819314 0.070074
Si Si4 0.002464 0.158681 0.750000
Si Si5 0.708039 0.758443 0.250000
Si Si6 0.493320 0.309605 0.080055
Si Si7 0.383656 0.054424 0.467202
Si Si8 0.135235 0.534776 0.457104
O O1 0.104847 0.958666 0.656567
O O2 0.867648 0.952468 0.750000
O O3 0.014802 0.071898 0.750000
O O4 0.733942 0.672906 0.250000
O O5 0.641377 0.564406 0.149273
O O6 0.085062 0.818738 0.155041
O O7 0.351747 0.826272 0.114902
O O8 0.186552 0.750000 0.000000
O O9 0.172398 0.890119 0.005845
O O10 0.149849 0.197533 0.750000
O O11 0.613084 0.781123 0.340845
O O12 0.516687 0.250000 0.000000
O O13 0.425276 0.373528 0.020728
O O14 0.500000 0.000000 0.500000
O O15 0.249399 0.022068 0.515395
O O16 0.000000 0.500000 0.500000
#
# Coordination Sequence:
#
# PCOD9440259 Si02
#       8
#     4   4   8   4   4   8   8   8
#     4  12  26  44  73 101 144 181 235 291 352 416
#     4  12  26  45  74 105 145 186 234 299 364 413
#     4  11  26  44  69  99 143 187 227 291 358 424
#     4  12  25  45  69 105 136 186 238 285 364 420
#     4  12  27  42  74 105 135 193 237 293 358 423
#     4  11  24  47  68 100 142 181 232 289 350 424
#     4  12  25  46  73 106 139 188 239 291 357 422
#     4  12  24  45  70 101 141 185 232 293 350 416
#
# _framework density 19.127969
#
# number of rings (size 3 to 8) (size 9 to 14) (size 15 to 20)
#    0.000    0.333    6.667    1.500    2.333    2.000 
#    0.000    0.833    0.000    0.000    0.000    0.000 
#    0.000    0.000    0.000    0.000    0.000    0.000 
#
# Total GULP energy -268125.511631 kJ/mol
# GULP energy per Si atom -5585.948159 kJ/mol
# Density = 1.908443 g / cm^3
# Si number density = 19.127969 Si / 1000 Ang^3
#
#
#
# Elastic Constant Matrix: (Units=GPa)
#
#
# Indices 1 2 3 4 5 6 
#
# 1 172.8983 58.5081 61.0724 0.0000 0.0000 0.0000
# 2 58.5081 133.4497 35.3079 0.0000 0.0000 0.0000
# 3 61.0724 35.3079 136.5617 0.0000 0.0000 0.0000
# 4 0.0000 0.0000 0.0000 31.3205 0.0000 0.0000
# 5 0.0000 0.0000 0.0000 0.0000 41.6649 0.0000
# 6 0.0000 0.0000 0.0000 0.0000 0.0000 37.7702
#
#
#
# Elastic Compliance Matrix: (Units=1/GPa)
#
#
# Indices 1 2 3 4 5 6 
#
# 1 0.007639 -0.002625 -0.002738 0.000000 0.000000 0.000000
# 2 -0.002625 0.008946 -0.001139 0.000000 0.000000 0.000000
# 3 -0.002738 -0.001139 0.008841 0.000000 0.000000 0.000000
# 4 0.000000 0.000000 0.000000 0.031928 0.000000 0.000000
# 5 0.000000 0.000000 0.000000 0.000000 0.024001 0.000000
# 6 0.000000 0.000000 0.000000 0.000000 0.000000 0.026476
#
#
# Mechanical properties :
#
#
# Convention : Reuss Voigt Hill
#
# Bulk Modulus (GPa) = 80.49480 83.63182 82.06331
# Shear Modulus (GPa) = 40.00802 41.35256 40.68029
#
# Velocity S-wave (km/s) = 4.57836 4.65466 4.61667
# Velocity P-wave (km/s) = 8.37390 8.52672 8.45065
#
# Compressibility (1/GPa) = 0.01242316
#
# Stress axis : x y z
#
# Youngs Moduli (GPa) = 130.90756 111.78660 113.10309
#
# Poissons Ratio (x) = 0.29342 0.30963
# Poissons Ratio (y) = 0.34361 0.12883
# Poissons Ratio (z) = 0.35837 0.12733
#
# Static dielectric constant tensor:
#      x y z
#    x 1.627140 0.000000 0.000000 
#    y 0.000000 1.053140 0.000000 
#    z 0.000000 0.000000 1.677040 
# 
# From -- ./inp_files/16450.got.cif
#   From: 2010.05.17/outbox.cif.g08.bks.cpg/sg57_9_cif.got.tgz:16450.got - 2010.06.03 13:58:18.
