data_PCOD9440965
_publ_section_title
;
Structure prediction by ZEFSAII (Michael W. Deem and Ramdas Pophale) SiO2 
 PCOD9440965
Probable space group: P N N M
;
_chemical_formula_sum "Si O2"
_cell_formula_units_Z 48
_cell_length_a 5.178648
_cell_length_b 26.418112
_cell_length_c 23.441467
_cell_angle_alpha 90.000000
_cell_angle_beta 90.000000
_cell_angle_gamma 90.000000
_cell_volume 3207.029512
_symmetry_space_group_name_H-M "P N N M"
_symmetry_group_IT_number 58
_symmetry_cell_setting 'orthorhombic'
loop_
_space_group_symop_operation_xyz
x,y,z
-x,-y,z
1/2+x,1/2-y,1/2-z
1/2-x,1/2+y,1/2-z
-x,-y,-z
x,y,-z
1/2-x,1/2+y,1/2+z
1/2+x,1/2-y,1/2+z
loop_
_atom_site_type_symbol
_atom_site_label
_atom_site_fract_x
_atom_site_fract_y
_atom_site_fract_z
Si Si1 0.252760 0.861194 0.240072
Si Si2 0.733093 0.311483 0.779459
Si Si3 0.705118 0.098051 0.065062
Si Si4 0.790440 0.832023 0.935307
Si Si5 0.755304 0.533684 0.322921
Si Si6 0.990062 0.223296 0.168722
O O1 0.534081 0.848611 0.263358
O O2 0.226302 0.917984 0.218348
O O3 0.030424 0.843095 0.284108
O O4 0.190929 0.824229 0.186248
O O5 0.683945 0.275781 0.723358
O O6 0.823893 0.274206 0.829201
O O7 0.475753 0.138424 0.075478
O O8 0.698200 0.055968 0.113665
O O9 0.978859 0.126857 0.067666
O O10 0.671304 0.078855 0.000000
O O11 0.857687 0.790368 0.888067
O O12 0.784143 0.811863 0.000000
O O13 0.500000 0.500000 0.322448
O O14 0.000000 0.500000 0.306368
#
# Coordination Sequence:
#
# PCOD9440965 Si02
#       6
#     8   8   8   8   8   8
#     4  10  19  32  43  65  89 108 140 195 221 271
#     4  10  18  28  48  71  84 110 139 190 229 258
#     4  10  20  35  46  60  82 117 157 199 236 259
#     4  10  20  31  49  66  91 122 146 186 236 273
#     4  12  23  33  47  63  82 120 155 194 242 271
#     4  10  18  29  50  68  90 107 151 180 229 271
#
# _framework density 14.967121000000001
#
# number of rings (size 3 to 8) (size 9 to 14) (size 15 to 20)
#    1.000    0.667    3.333    3.000    0.000    0.667 
#    0.000    0.000    0.000    0.000    0.000    0.000 
#    0.000    0.000    0.000    0.000    0.000   16.667 
#
# Total GULP energy -267526.904892 kJ/mol
# GULP energy per Si atom -5573.477185 kJ/mol
# Density = 1.493306 g / cm^3
# Si number density = 14.967121 Si / 1000 Ang^3
#
#
#
# Elastic Constant Matrix: (Units=GPa)
#
#
# Indices 1 2 3 4 5 6 
#
# 1 80.7769 18.3952 7.6455 0.0000 0.0000 0.0000
# 2 18.3952 74.5912 25.3015 0.0000 0.0000 0.0000
# 3 7.6455 25.3015 19.9867 0.0000 0.0000 0.0000
# 4 0.0000 0.0000 0.0000 30.3525 0.0000 0.0000
# 5 0.0000 0.0000 0.0000 0.0000 15.8128 0.0000
# 6 0.0000 0.0000 0.0000 0.0000 0.0000 25.3806
#
#
#
# Elastic Compliance Matrix: (Units=1/GPa)
#
#
# Indices 1 2 3 4 5 6 
#
# 1 0.013146 -0.002692 -0.001620 0.000000 0.000000 0.000000
# 2 -0.002692 0.024047 -0.029411 0.000000 0.000000 0.000000
# 3 -0.001620 -0.029411 0.087886 0.000000 0.000000 0.000000
# 4 0.000000 0.000000 0.000000 0.032946 0.000000 0.000000
# 5 0.000000 0.000000 0.000000 0.000000 0.063240 0.000000
# 6 0.000000 0.000000 0.000000 0.000000 0.000000 0.039400
#
#
# Mechanical properties :
#
#
# Convention : Reuss Voigt Hill
#
# Bulk Modulus (GPa) = 17.35202 30.89324 24.12263
# Shear Modulus (GPa) = 14.39580 22.57669 18.48625
#
# Velocity S-wave (km/s) = 3.10470 3.88805 3.51825
# Velocity P-wave (km/s) = 4.94680 6.39073 5.71455
#
# Compressibility (1/GPa) = 0.05763017
#
# Stress axis : x y z
#
# Youngs Moduli (GPa) = 76.06711 41.58559 11.37843
#
# Poissons Ratio (x) = 0.11196 0.01844
# Poissons Ratio (y) = 0.20480 0.33466
# Poissons Ratio (z) = 0.12327 1.22309
#
# Static dielectric constant tensor:
#      x y z
#    x 1.526660 0.000000 0.000000 
#    y 0.000000 1.487050 0.000000 
#    z 0.000000 0.000000 1.500500 
# 
# From -- ./inp_files/24336.got.cif
#   From: 2010.05.17/outbox.cif.g08.bks.cpg/sg58_13_cif.got.tgz:24336.got - 2010.06.03 14:20:14.
