data_PCOD9440865
_publ_section_title
;
Structure prediction by ZEFSAII (Michael W. Deem and Ramdas Pophale) SiO2 
 PCOD9440865
Probable space group: P N N M
;
_chemical_formula_sum "Si O2"
_cell_formula_units_Z 64
_cell_length_a 7.835624
_cell_length_b 19.222720
_cell_length_c 18.688827
_cell_angle_alpha 90.000000
_cell_angle_beta 90.000000
_cell_angle_gamma 90.000000
_cell_volume 2814.948616
_symmetry_space_group_name_H-M "P N N M"
_symmetry_group_IT_number 58
_symmetry_cell_setting 'orthorhombic'
loop_
_space_group_symop_operation_xyz
x,y,z
-x,-y,z
1/2+x,1/2-y,1/2-z
1/2-x,1/2+y,1/2-z
-x,-y,-z
x,y,-z
1/2-x,1/2+y,1/2+z
1/2+x,1/2-y,1/2+z
loop_
_atom_site_type_symbol
_atom_site_label
_atom_site_fract_x
_atom_site_fract_y
_atom_site_fract_z
Si Si1 0.194193 0.148848 0.180959
Si Si2 0.000945 0.149412 0.417941
Si Si3 0.992477 0.714953 0.192356
Si Si4 0.186881 0.593820 0.162508
Si Si5 0.859189 0.715957 0.350441
Si Si6 0.174599 0.953072 0.689818
Si Si7 0.326882 0.043983 0.080834
Si Si8 0.326905 0.414720 0.350780
O O1 0.228195 0.123636 0.262601
O O2 0.330023 0.111129 0.131067
O O3 0.155926 0.230704 0.171762
O O4 0.016804 0.114538 0.154541
O O5 0.950921 0.140890 0.500000
O O6 0.185118 0.114323 0.401096
O O7 0.037860 0.229578 0.398305
O O8 0.874717 0.108800 0.364044
O O9 0.013329 0.638393 0.158680
O O10 0.174444 0.750610 0.172752
O O11 0.965587 0.707578 0.277272
O O12 0.189506 0.511099 0.166669
O O13 0.797403 0.643549 0.383654
O O14 0.223620 0.925043 0.767603
O O15 0.000000 0.000000 0.697624
O O16 0.500000 0.000000 0.084019
O O17 0.193390 0.987271 0.110039
O O18 0.288954 0.064466 0.000000
#
# Coordination Sequence:
#
# PCOD9440865 Si02
#       8
#     8   8   8   8   8   8   8   8
#     4  11  19  39  63  86 127 171 219 271 324 399
#     4  10  19  34  55  88 130 170 213 275 339 385
#     4  10  19  36  57  91 122 167 213 273 323 384
#     4  10  19  33  60  90 124 164 218 278 326 390
#     4  10  21  33  57  89 125 164 221 271 327 398
#     4  10  17  33  56  86 122 164 216 271 326 389
#     4  11  26  42  59  93 134 170 214 274 344 409
#     4  11  20  34  63  92 123 173 219 274 324 404
#
# _framework density 22.735761
#
# number of rings (size 3 to 8) (size 9 to 14) (size 15 to 20)
#    0.000    1.625    6.250    1.125    1.750    3.750 
#    0.000    5.000    0.000    0.000    0.000    3.500 
#    0.000   21.000    0.000    0.000    0.000    0.000 
#
# Total GULP energy -357511.918095 kJ/mol
# GULP energy per Si atom -5586.123720 kJ/mol
# Density = 2.268401 g / cm^3
# Si number density = 22.735761 Si / 1000 Ang^3
#
#
#
# Elastic Constant Matrix: (Units=GPa)
#
#
# Indices 1 2 3 4 5 6 
#
# 1 70.8562 24.5604 -0.6344 0.0000 0.0000 0.0000
# 2 24.5604 150.1168 33.3715 0.0000 0.0000 0.0000
# 3 -0.6344 33.3715 57.9599 0.0000 0.0000 0.0000
# 4 0.0000 0.0000 0.0000 33.6918 0.0000 0.0000
# 5 0.0000 0.0000 0.0000 0.0000 25.9043 0.0000
# 6 0.0000 0.0000 0.0000 0.0000 0.0000 36.6408
#
#
#
# Elastic Compliance Matrix: (Units=1/GPa)
#
#
# Indices 1 2 3 4 5 6 
#
# 1 0.015128 -0.002881 0.001824 0.000000 0.000000 0.000000
# 2 -0.002881 0.008188 -0.004746 0.000000 0.000000 0.000000
# 3 0.001824 -0.004746 0.020006 0.000000 0.000000 0.000000
# 4 0.000000 0.000000 0.000000 0.029681 0.000000 0.000000
# 5 0.000000 0.000000 0.000000 0.000000 0.038604 0.000000
# 6 0.000000 0.000000 0.000000 0.000000 0.000000 0.027292
#
#
# Mechanical properties :
#
#
# Convention : Reuss Voigt Hill
#
# Bulk Modulus (GPa) = 31.52888 43.72534 37.62711
# Shear Modulus (GPa) = 31.04151 34.02307 32.53229
#
# Velocity S-wave (km/s) = 3.69903 3.87260 3.78681
# Velocity P-wave (km/s) = 5.66934 6.26656 5.97541
#
# Compressibility (1/GPa) = 0.03171695
#
# Stress axis : x y z
#
# Youngs Moduli (GPa) = 66.10306 122.13336 49.98563
#
# Poissons Ratio (x) = 0.35181 -0.09118
# Poissons Ratio (y) = 0.19041 0.23722
# Poissons Ratio (z) = -0.12058 0.57962
#
# Static dielectric constant tensor:
#      x y z
#    x 1.972350 0.000000 0.000000 
#    y 0.000000 1.899660 0.000000 
#    z 0.000000 0.000000 1.779620 
# 
# From -- ./inp_files/25663.got.cif
#   From: 2010.05.17/outbox.cif.g08.bks.cpg/sg58_13_cif.got.tgz:25663.got - 2010.06.03 14:20:14.
