data_PCOD9440862
_publ_section_title
;
Structure prediction by ZEFSAII (Michael W. Deem and Ramdas Pophale) SiO2 
 PCOD9440862
Probable space group: P N N M
;
_chemical_formula_sum "Si O2"
_cell_formula_units_Z 44
_cell_length_a 18.004498
_cell_length_b 6.573821
_cell_length_c 22.682487
_cell_angle_alpha 90.000000
_cell_angle_beta 90.000000
_cell_angle_gamma 90.000000
_cell_volume 2684.661668
_symmetry_space_group_name_H-M "P N N M"
_symmetry_group_IT_number 58
_symmetry_cell_setting 'orthorhombic'
loop_
_space_group_symop_operation_xyz
x,y,z
-x,-y,z
1/2+x,1/2-y,1/2-z
1/2-x,1/2+y,1/2-z
-x,-y,-z
x,y,-z
1/2-x,1/2+y,1/2+z
1/2+x,1/2-y,1/2+z
loop_
_atom_site_type_symbol
_atom_site_label
_atom_site_fract_x
_atom_site_fract_y
_atom_site_fract_z
Si Si1 0.650001 0.627863 0.220316
Si Si2 0.764061 0.039689 0.434806
Si Si3 0.685251 0.937173 0.884485
Si Si4 0.770600 0.312722 0.173854
Si Si5 0.415658 0.727870 0.067348
Si Si6 0.000000 0.000000 0.664635
O O1 0.660906 0.794072 0.169084
O O2 0.709986 0.445910 0.210615
O O3 0.666133 0.737899 0.281986
O O4 0.569022 0.544063 0.206745
O O5 0.738441 0.983940 0.500000
O O6 0.713073 0.955264 0.382308
O O7 0.846270 0.933782 0.427432
O O8 0.773621 0.280436 0.427483
O O9 0.734465 0.113241 0.855277
O O10 0.619974 0.053784 0.918546
O O11 0.474189 0.673450 0.118104
O O12 0.443483 0.717120 0.000000
#
# Coordination Sequence:
#
# PCOD9440862 Si02
#       6
#     8   8   8   8   8   4
#     4  11  21  34  53  73 103 137 183 218 260 308
#     4   9  18  33  52  77 101 130 179 220 253 311
#     4  10  17  33  52  70  98 143 180 211 255 295
#     4  10  19  34  54  72  99 141 177 217 260 311
#     4  10  20  33  47  71 109 147 177 207 248 299
#     4  12  21  36  46  78 109 140 180 228 244 306
#
# _framework density 16.389402
#
# number of rings (size 3 to 8) (size 9 to 14) (size 15 to 20)
#    0.000    1.818    7.273    0.818    0.000    1.455 
#    0.000    0.909    0.000    0.000    0.000    0.636 
#    0.000    1.455    0.000    0.000    0.000    0.000 
#
# Total GULP energy -245105.498909 kJ/mol
# GULP energy per Si atom -5570.579521 kJ/mol
# Density = 1.635210 g / cm^3
# Si number density = 16.389402 Si / 1000 Ang^3
#
#
#
# Elastic Constant Matrix: (Units=GPa)
#
#
# Indices 1 2 3 4 5 6 
#
# 1 45.8476 13.9621 39.0777 0.0000 0.0000 0.0000
# 2 13.9621 75.9412 10.0990 0.0000 0.0000 0.0000
# 3 39.0777 10.0990 96.5165 0.0000 0.0000 0.0000
# 4 0.0000 0.0000 0.0000 9.5070 0.0000 0.0000
# 5 0.0000 0.0000 0.0000 0.0000 19.2205 0.0000
# 6 0.0000 0.0000 0.0000 0.0000 0.0000 12.1647
#
#
#
# Elastic Compliance Matrix: (Units=1/GPa)
#
#
# Indices 1 2 3 4 5 6 
#
# 1 0.034814 -0.004590 -0.013615 0.000000 0.000000 0.000000
# 2 -0.004590 0.013959 0.000398 0.000000 0.000000 0.000000
# 3 -0.013615 0.000398 0.015832 0.000000 0.000000 0.000000
# 4 0.000000 0.000000 0.000000 0.105185 0.000000 0.000000
# 5 0.000000 0.000000 0.000000 0.000000 0.052028 0.000000
# 6 0.000000 0.000000 0.000000 0.000000 0.000000 0.082205
#
#
# Mechanical properties :
#
#
# Convention : Reuss Voigt Hill
#
# Bulk Modulus (GPa) = 34.49472 38.28699 36.39085
# Shear Modulus (GPa) = 14.31429 18.52288 16.41859
#
# Velocity S-wave (km/s) = 2.95852 3.36545 3.16853
# Velocity P-wave (km/s) = 5.72391 6.20590 5.96977
#
# Compressibility (1/GPa) = 0.02898995
#
# Stress axis : x y z
#
# Youngs Moduli (GPa) = 28.72408 71.63790 63.16389
#
# Poissons Ratio (x) = 0.32882 0.85999
# Poissons Ratio (y) = 0.13185 -0.02513
# Poissons Ratio (z) = 0.39108 -0.02850
#
# Static dielectric constant tensor:
#      x y z
#    x 1.543520 0.000000 0.000000 
#    y 0.000000 1.592560 0.000000 
#    z 0.000000 0.000000 1.572940 
# 
# From -- ./inp_files/32308.got.cif
#   From: 2010.05.17/outbox.cif.g08.bks.cpg/sg58_17_cif.got.tgz:32308.got - 2010.06.03 14:20:14.
