data_PCOD9440948
_publ_section_title
;
Structure prediction by ZEFSAII (Michael W. Deem and Ramdas Pophale) SiO2 
 PCOD9440948
Probable space group: P N N M
;
_chemical_formula_sum "Si O2"
_cell_formula_units_Z 64
_cell_length_a 5.423310
_cell_length_b 22.389519
_cell_length_c 30.523597
_cell_angle_alpha 90.000000
_cell_angle_beta 90.000000
_cell_angle_gamma 90.000000
_cell_volume 3706.336993
_symmetry_space_group_name_H-M "P N N M"
_symmetry_group_IT_number 58
_symmetry_cell_setting 'orthorhombic'
loop_
_space_group_symop_operation_xyz
x,y,z
-x,-y,z
1/2+x,1/2-y,1/2-z
1/2-x,1/2+y,1/2-z
-x,-y,-z
x,y,-z
1/2-x,1/2+y,1/2+z
1/2+x,1/2-y,1/2+z
loop_
_atom_site_type_symbol
_atom_site_label
_atom_site_fract_x
_atom_site_fract_y
_atom_site_fract_z
Si Si1 0.999697 0.071281 0.178693
Si Si2 0.539513 0.182975 0.717910
Si Si3 0.585984 0.406061 0.581518
Si Si4 0.085803 0.410860 0.551774
Si Si5 0.906697 0.722186 0.407275
Si Si6 0.093976 0.230124 0.051145
Si Si7 0.459981 0.744845 0.808936
Si Si8 0.000545 0.570913 0.731915
O O1 0.736679 0.084092 0.200976
O O2 0.037597 0.104096 0.132764
O O3 0.236064 0.084966 0.209114
O O4 0.000000 0.000000 0.169540
O O5 0.539376 0.211121 0.767159
O O6 0.788078 0.206663 0.695081
O O7 0.531881 0.112327 0.725831
O O8 0.289160 0.206002 0.695639
O O9 0.349679 0.438402 0.561942
O O10 0.605156 0.342258 0.556880
O O11 0.845749 0.437813 0.574224
O O12 0.048239 0.407237 0.500000
O O13 0.104047 0.344955 0.573547
O O14 0.646368 0.750138 0.421848
O O15 0.146253 0.751851 0.429521
O O16 0.946475 0.722351 0.355427
O O17 0.067151 0.243554 0.000000
O O18 0.000000 0.500000 0.740680
#
# Coordination Sequence:
#
# PCOD9440948 Si02
#       8
#     8   8   8   8   8   8   8   8
#     4  10  21  33  48  72  91 110 158 209 254 290
#     4  10  21  35  49  68 105 124 157 206 233 304
#     4  10  18  28  46  63  84 116 139 197 243 282
#     4  10  19  31  46  68  88 116 158 197 228 281
#     4  10  18  29  46  64  92 122 163 190 225 294
#     4  10  19  29  44  68  91 121 162 202 230 277
#     4  10  21  33  47  74  97 135 156 188 255 290
#     4  10  21  36  54  71  92 126 164 207 249 286
#
# _framework density 17.267721999999999
#
# number of rings (size 3 to 8) (size 9 to 14) (size 15 to 20)
#    0.000    2.000    0.000    6.000    7.000    0.000 
#    0.000    0.000    0.000    4.125    0.000    0.000 
#    0.000    0.000    0.000    0.000    0.000   72.500 
#
# Total GULP energy -357162.512210 kJ/mol
# GULP energy per Si atom -5580.664253 kJ/mol
# Density = 1.722842 g / cm^3
# Si number density = 17.267722 Si / 1000 Ang^3
#
#
#
# Elastic Constant Matrix: (Units=GPa)
#
#
# Indices 1 2 3 4 5 6 
#
# 1 151.1720 9.8738 -6.9503 0.0000 0.0000 0.0000
# 2 9.8738 26.1400 -9.3237 0.0000 0.0000 0.0000
# 3 -6.9503 -9.3237 -10.2091 0.0000 0.0000 0.0000
# 4 0.0000 0.0000 0.0000 -50.2341 0.0000 0.0000
# 5 0.0000 0.0000 0.0000 0.0000 27.2922 0.0000
# 6 0.0000 0.0000 0.0000 0.0000 0.0000 12.4771
#
#
#
# Elastic Compliance Matrix: (Units=1/GPa)
#
#
# Indices 1 2 3 4 5 6 
#
# 1 0.006743 -0.003156 -0.001708 0.000000 0.000000 0.000000
# 2 -0.003156 0.030333 -0.025554 0.000000 0.000000 0.000000
# 3 -0.001708 -0.025554 -0.073452 0.000000 0.000000 0.000000
# 4 0.000000 0.000000 0.000000 -0.019907 0.000000 0.000000
# 5 0.000000 0.000000 0.000000 0.000000 0.036640 0.000000
# 6 0.000000 0.000000 0.000000 0.000000 0.000000 0.080147
#
#
# Mechanical properties :
#
#
# Convention : Reuss Voigt Hill
#
# Bulk Modulus (GPa) = -10.28686 17.14474 3.42894
# Shear Modulus (GPa) = 56.22009 9.47391 32.84700
#
# Velocity S-wave (km/s) = 5.71214 2.34487 4.36618
# Velocity P-wave (km/s) = 6.12655 4.15711 5.23527
#
# Compressibility (1/GPa) = -0.09721136
#
# Stress axis : x y z
#
# Youngs Moduli (GPa) = 148.31089 32.96729 -13.61440
#
# Poissons Ratio (x) = 0.10405 -0.02325
# Poissons Ratio (y) = 0.46808 -0.34790
# Poissons Ratio (z) = 0.25331 0.84244
#
# Static dielectric constant tensor:
#      x y z
#    x 1.671000 0.000000 0.000000 
#    y 0.000000 1.496820 0.000000 
#    z 0.000000 0.000000 1.566260 
# 
# From -- ./inp_files/32988.got.cif
#   From: 2010.05.17/outbox.cif.g08.bks.cpg/sg58_17_cif.got.tgz:32988.got - 2010.06.03 14:20:14.
