data_PCOD9440064
_publ_section_title
;
Structure prediction by ZEFSAII (Michael W. Deem and Ramdas Pophale) SiO2 
 PCOD9440064
Probable space group: P B C M
;
_chemical_formula_sum "Si O2"
_cell_formula_units_Z 48
_cell_length_a 7.631003
_cell_length_b 11.768596
_cell_length_c 22.421635
_cell_angle_alpha 90.000000
_cell_angle_beta 90.000000
_cell_angle_gamma 90.000000
_cell_volume 2013.601644
_symmetry_space_group_name_H-M "P B C M"
_symmetry_group_IT_number 57
_symmetry_cell_setting 'orthorhombic'
loop_
_space_group_symop_operation_xyz
x,y,z
-x,-y,1/2+z
x,1/2-y,-z
-x,1/2+y,1/2-z
-x,-y,-z
x,y,1/2-z
-x,1/2+y,z
x,1/2-y,1/2+z
loop_
_atom_site_type_symbol
_atom_site_label
_atom_site_fract_x
_atom_site_fract_y
_atom_site_fract_z
Si Si1 0.935781 0.802928 0.250000
Si Si2 0.154363 0.938717 0.750000
Si Si3 0.387725 0.900713 0.864271
Si Si4 0.619536 0.894031 0.457063
Si Si5 0.760260 0.298645 0.059371
Si Si6 0.234854 0.289113 0.867796
Si Si7 0.122806 0.029949 0.055506
O O1 0.964304 0.943078 0.250000
O O2 0.827014 0.777161 0.309920
O O3 0.067945 0.690210 0.250000
O O4 0.282894 0.942216 0.806987
O O5 0.289034 0.793104 0.892489
O O6 0.588114 0.860550 0.853177
O O7 0.382953 0.997860 0.914122
O O8 0.423644 0.848955 0.464932
O O9 0.723468 0.798708 0.420618
O O10 0.708260 0.923042 0.519584
O O11 0.853938 0.408050 0.086219
O O12 0.853237 0.250000 0.000000
O O13 0.090990 0.376667 0.894336
O O14 0.000000 0.000000 0.000000
#
# Coordination Sequence:
#
# PCOD9440064 Si02
#       7
#     4   4   8   8   8   8   8
#     4  12  29  50  74 102 148 196 237 310 368 446
#     4  12  29  52  74 108 146 196 249 306 380 440
#     4  11  23  46  76 101 135 187 248 301 349 436
#     4  11  21  43  69  97 139 182 236 295 350 423
#     4  11  22  39  69 101 136 178 235 290 348 425
#     4  11  25  46  72 104 137 189 246 299 367 432
#     4  12  26  40  66 107 149 188 229 294 369 444
#
# _framework density 23.837883999999999
#
# number of rings (size 3 to 8) (size 9 to 14) (size 15 to 20)
#    0.000    0.667    5.000    3.500    2.333    4.000 
#    0.000    0.000    0.000    0.000    0.000    0.000 
#    0.000    0.000    0.000    0.000    0.000    0.000 
#
# Total GULP energy -268535.811157 kJ/mol
# GULP energy per Si atom -5594.496066 kJ/mol
# Density = 2.378363 g / cm^3
# Si number density = 23.837884 Si / 1000 Ang^3
#
#
#
# Elastic Constant Matrix: (Units=GPa)
#
#
# Indices 1 2 3 4 5 6 
#
# 1 65.7758 26.8871 8.1189 0.0000 0.0000 0.0000
# 2 26.8871 162.5253 37.4860 0.0000 0.0000 0.0000
# 3 8.1189 37.4860 96.3271 0.0000 0.0000 0.0000
# 4 0.0000 0.0000 0.0000 35.5052 0.0000 0.0000
# 5 0.0000 0.0000 0.0000 0.0000 32.3267 0.0000
# 6 0.0000 0.0000 0.0000 0.0000 0.0000 18.6707
#
#
#
# Elastic Compliance Matrix: (Units=1/GPa)
#
#
# Indices 1 2 3 4 5 6 
#
# 1 0.016317 -0.002617 -0.000357 0.000000 0.000000 0.000000
# 2 -0.002617 0.007179 -0.002573 0.000000 0.000000 0.000000
# 3 -0.000357 -0.002573 0.011413 0.000000 0.000000 0.000000
# 4 0.000000 0.000000 0.000000 0.028165 0.000000 0.000000
# 5 0.000000 0.000000 0.000000 0.000000 0.030934 0.000000
# 6 0.000000 0.000000 0.000000 0.000000 0.000000 0.053560
#
#
# Mechanical properties :
#
#
# Convention : Reuss Voigt Hill
#
# Bulk Modulus (GPa) = 41.99080 52.17912 47.08496
# Shear Modulus (GPa) = 30.01186 34.10960 32.06073
#
# Velocity S-wave (km/s) = 3.55209 3.78683 3.67133
# Velocity P-wave (km/s) = 5.87167 6.40755 6.14546
#
# Compressibility (1/GPa) = 0.02381474
#
# Stress axis : x y z
#
# Youngs Moduli (GPa) = 61.28583 139.28815 87.62116
#
# Poissons Ratio (x) = 0.36453 0.03127
# Poissons Ratio (y) = 0.16039 0.22547
# Poissons Ratio (z) = 0.02187 0.35843
#
# Static dielectric constant tensor:
#      x y z
#    x 1.996930 0.000000 0.000000 
#    y 0.000000 2.023220 0.000000 
#    z 0.000000 0.000000 1.832340 
# 
# From -- ./inp_files/26733.got.cif
#   From: 2010.05.17/outbox.cif.g08.bks.cpg/sg57_14_cif.got.tgz:26733.got - 2010.06.03 13:58:18.
