data_PCOD9440117
_publ_section_title
;
Structure prediction by ZEFSAII (Michael W. Deem and Ramdas Pophale) SiO2 
 PCOD9440117
Probable space group: P B C M
;
_chemical_formula_sum "Si O2"
_cell_formula_units_Z 56
_cell_length_a 11.437343
_cell_length_b 10.720442
_cell_length_c 23.217538
_cell_angle_alpha 90.000000
_cell_angle_beta 90.000000
_cell_angle_gamma 90.000000
_cell_volume 2846.780630
_symmetry_space_group_name_H-M "P B C M"
_symmetry_group_IT_number 57
_symmetry_cell_setting 'orthorhombic'
loop_
_space_group_symop_operation_xyz
x,y,z
-x,-y,1/2+z
x,1/2-y,-z
-x,1/2+y,1/2-z
-x,-y,-z
x,y,1/2-z
-x,1/2+y,z
x,1/2-y,1/2+z
loop_
_atom_site_type_symbol
_atom_site_label
_atom_site_fract_x
_atom_site_fract_y
_atom_site_fract_z
Si Si1 0.429754 0.325276 0.250000
Si Si2 0.665828 0.753561 0.130271
Si Si3 0.172129 0.403489 0.436360
Si Si4 0.636717 0.380188 0.750000
Si Si5 0.751373 0.159719 0.124434
Si Si6 0.904246 0.332626 0.442138
Si Si7 0.709028 0.962539 0.549770
Si Si8 0.453817 0.686156 0.558115
O O1 0.359220 0.274947 0.304326
O O2 0.426337 0.479819 0.250000
O O3 0.549989 0.241982 0.250000
O O4 0.789804 0.803033 0.110364
O O5 0.662853 0.616663 0.103383
O O6 0.563118 0.832126 0.099331
O O7 0.211250 0.534866 0.409218
O O8 0.248114 0.387413 0.494219
O O9 0.035976 0.381443 0.446957
O O10 0.711550 0.368489 0.809782
O O11 0.863103 0.249637 0.112392
O O12 0.642625 0.228901 0.091768
O O13 0.878660 0.250000 0.500000
O O14 0.822163 0.452989 0.438223
O O15 0.607985 0.060921 0.537900
O O16 0.495507 0.750000 0.500000
#
# Coordination Sequence:
#
# PCOD9440117 Si02
#       8
#     4   8   8   4   8   8   8   8
#     4  12  28  46  73  95 135 195 240 287 336 421
#     4  12  27  39  63 101 132 177 234 279 338 412
#     4  12  23  41  68 100 139 174 219 280 344 410
#     4  12  26  50  71  97 137 189 240 283 346 409
#     4  11  23  43  68  97 132 178 226 281 340 409
#     4  11  23  42  72 100 135 180 224 275 353 420
#     4  11  23  40  65 101 140 174 219 282 346 418
#     4  11  22  40  64  99 138 173 212 277 357 415
#
# _framework density 19.671343
#
# number of rings (size 3 to 8) (size 9 to 14) (size 15 to 20)
#    0.000    0.571    5.714    3.429    6.000    1.143 
#    0.000    1.429    0.000    0.000    0.000    0.000 
#    0.000    0.000    0.000    0.000    0.000    0.000 
#
# Total GULP energy -312506.013426 kJ/mol
# GULP energy per Si atom -5580.464525 kJ/mol
# Density = 1.962657 g / cm^3
# Si number density = 19.671343 Si / 1000 Ang^3
#
#
#
# Elastic Constant Matrix: (Units=GPa)
#
#
# Indices 1 2 3 4 5 6 
#
# 1 76.9865 30.1163 33.1040 0.0000 0.0000 0.0000
# 2 30.1163 87.1774 39.3826 0.0000 0.0000 0.0000
# 3 33.1040 39.3826 142.1900 0.0000 0.0000 0.0000
# 4 0.0000 0.0000 0.0000-5666.9767 0.0000 0.0000
# 5 0.0000 0.0000 0.0000 0.0000 35.2666 0.0000
# 6 0.0000 0.0000 0.0000 0.0000 0.0000 23.2944
#
#
#
# Elastic Compliance Matrix: (Units=1/GPa)
#
#
# Indices 1 2 3 4 5 6 
#
# 1 0.015742 -0.004323 -0.002467 0.000000 0.000000 0.000000
# 2 -0.004323 0.014299 -0.002954 0.000000 0.000000 0.000000
# 3 -0.002467 -0.002954 0.008425 0.000000 0.000000 0.000000
# 4 0.000000 0.000000 0.000000 -0.000176 0.000000 0.000000
# 5 0.000000 0.000000 0.000000 0.000000 0.028355 0.000000
# 6 0.000000 0.000000 0.000000 0.000000 0.000000 0.042929
#
#
# Mechanical properties :
#
#
# Convention : Reuss Voigt Hill
#
# Bulk Modulus (GPa) = 52.69671 56.83996 54.76834
# Shear Modulus (GPa) = 36.93082 -1108.09973 -535.58445
#
# Velocity S-wave (km/s) = 4.33759 -23.75983 -16.51840
# Velocity P-wave (km/s) = 7.20645 26.90257 18.32779
#
# Compressibility (1/GPa) = 0.01897652
#
# Stress axis : x y z
#
# Youngs Moduli (GPa) = 63.52614 69.93582 118.68854
#
# Poissons Ratio (x) = 0.30236 0.29285
# Poissons Ratio (y) = 0.27465 0.35058
# Poissons Ratio (z) = 0.15675 0.20658
#
# Static dielectric constant tensor:
#      x y z
#    x 1.689580 0.000000 0.000000 
#    y 0.000000 1.775770 0.000000 
#    z 0.000000 0.000000 1.698120 
# 
# From -- ./inp_files/25068.got.cif
#   From: 2010.05.17/outbox.cif.g08.bks.cpg/sg57_13_cif.got.tgz:25068.got - 2010.06.03 13:58:18.
