data_PCOD9440833
_publ_section_title
;
Structure prediction by ZEFSAII (Michael W. Deem and Ramdas Pophale) SiO2 
 PCOD9440833
Probable space group: P N N M
;
_chemical_formula_sum "Si O2"
_cell_formula_units_Z 44
_cell_length_a 11.587278
_cell_length_b 12.030747
_cell_length_c 20.028159
_cell_angle_alpha 90.000000
_cell_angle_beta 90.000000
_cell_angle_gamma 90.000000
_cell_volume 2791.997667
_symmetry_space_group_name_H-M "P N N M"
_symmetry_group_IT_number 58
_symmetry_cell_setting 'orthorhombic'
loop_
_space_group_symop_operation_xyz
x,y,z
-x,-y,z
1/2+x,1/2-y,1/2-z
1/2-x,1/2+y,1/2-z
-x,-y,-z
x,y,-z
1/2-x,1/2+y,1/2+z
1/2+x,1/2-y,1/2+z
loop_
_atom_site_type_symbol
_atom_site_label
_atom_site_fract_x
_atom_site_fract_y
_atom_site_fract_z
Si Si1 0.630875 0.526777 0.849224
Si Si2 0.324584 0.840491 0.578938
Si Si3 0.000000 0.500000 0.159684
Si Si4 0.883321 0.113026 0.196386
Si Si5 0.651254 0.376877 0.338778
Si Si6 0.293843 0.148259 0.705481
O O1 0.500000 0.500000 0.868299
O O2 0.702879 0.607913 0.896663
O O3 0.632355 0.577048 0.773786
O O4 0.702604 0.413025 0.842049
O O5 0.337637 0.848958 0.500000
O O6 0.423314 0.914563 0.615683
O O7 0.332251 0.712895 0.603447
O O8 0.090434 0.573419 0.202090
O O9 0.819604 0.227397 0.183185
O O10 0.019142 0.133287 0.186163
O O11 0.839983 0.010009 0.151260
O O12 0.738769 0.348152 0.279007
#
# Coordination Sequence:
#
# PCOD9440833 Si02
#       6
#     8   8   4   8   8   8
#     4  10  19  33  52  78 103 134 173 219 263 307
#     4  11  22  35  51  72 106 143 177 210 249 317
#     4  10  21  34  54  78 103 134 178 220 266 296
#     4  10  17  31  52  79 109 127 162 225 269 302
#     4  10  19  31  51  78 107 134 164 210 266 307
#     4  10  18  31  55  82 105 130 170 222 272 301
#
# _framework density 15.759325
#
# number of rings (size 3 to 8) (size 9 to 14) (size 15 to 20)
#    0.000    1.818    7.273    0.273    0.000    0.364 
#    0.000    1.818    0.000    0.000    0.000    4.455 
#    0.000    0.000    0.000    0.000    0.000    0.000 
#
# Total GULP energy -245130.601711 kJ/mol
# GULP energy per Si atom -5571.150039 kJ/mol
# Density = 1.572346 g / cm^3
# Si number density = 15.759325 Si / 1000 Ang^3
#
#
#
# Elastic Constant Matrix: (Units=GPa)
#
#
# Indices 1 2 3 4 5 6 
#
# 1 94.9460 52.7101 13.1474 0.0000 0.0000 0.0000
# 2 52.7101 133.4765 22.1219 0.0000 0.0000 0.0000
# 3 13.1474 22.1219 41.3594 0.0000 0.0000 0.0000
# 4 0.0000 0.0000 0.0000 13.3235 0.0000 0.0000
# 5 0.0000 0.0000 0.0000 0.0000 10.2453 0.0000
# 6 0.0000 0.0000 0.0000 0.0000 0.0000 23.5310
#
#
#
# Elastic Compliance Matrix: (Units=1/GPa)
#
#
# Indices 1 2 3 4 5 6 
#
# 1 0.013584 -0.005101 -0.001590 0.000000 0.000000 0.000000
# 2 -0.005101 0.010136 -0.003800 0.000000 0.000000 0.000000
# 3 -0.001590 -0.003800 0.026716 0.000000 0.000000 0.000000
# 4 0.000000 0.000000 0.000000 0.075055 0.000000 0.000000
# 5 0.000000 0.000000 0.000000 0.000000 0.097606 0.000000
# 6 0.000000 0.000000 0.000000 0.000000 0.000000 0.042497
#
#
# Mechanical properties :
#
#
# Convention : Reuss Voigt Hill
#
# Bulk Modulus (GPa) = 33.95010 49.52674 41.73842
# Shear Modulus (GPa) = 16.86941 21.54013 19.20477
#
# Velocity S-wave (km/s) = 3.27531 3.70106 3.49467
# Velocity P-wave (km/s) = 5.99109 7.05400 6.54416
#
# Compressibility (1/GPa) = 0.02945499
#
# Stress axis : x y z
#
# Youngs Moduli (GPa) = 73.61442 98.65691 37.43048
#
# Poissons Ratio (x) = 0.50325 0.05951
# Poissons Ratio (y) = 0.37550 0.14224
# Poissons Ratio (z) = 0.11703 0.37490
#
# Static dielectric constant tensor:
#      x y z
#    x 1.533730 0.000000 0.000000 
#    y 0.000000 1.558240 0.000000 
#    z 0.000000 0.000000 1.490550 
# 
# From -- ./inp_files/26094.got.cif
#   From: 2010.05.17/outbox.cif.g08.bks.cpg/sg58_14_cif.got.tgz:26094.got - 2010.06.03 14:20:14.
