data_PCOD9440823
_publ_section_title
;
Structure prediction by ZEFSAII (Michael W. Deem and Ramdas Pophale) SiO2 
 PCOD9440823
Probable space group: P N N M
;
_chemical_formula_sum "Si O2"
_cell_formula_units_Z 56
_cell_length_a 14.942127
_cell_length_b 21.996690
_cell_length_c 7.619322
_cell_angle_alpha 90.000000
_cell_angle_beta 90.000000
_cell_angle_gamma 90.000000
_cell_volume 2504.298454
_symmetry_space_group_name_H-M "P N N M"
_symmetry_group_IT_number 58
_symmetry_cell_setting 'orthorhombic'
loop_
_space_group_symop_operation_xyz
x,y,z
-x,-y,z
1/2+x,1/2-y,1/2-z
1/2-x,1/2+y,1/2-z
-x,-y,-z
x,y,-z
1/2-x,1/2+y,1/2+z
1/2+x,1/2-y,1/2+z
loop_
_atom_site_type_symbol
_atom_site_label
_atom_site_fract_x
_atom_site_fract_y
_atom_site_fract_z
Si Si1 0.488335 0.226771 0.801747
Si Si2 0.746643 0.110648 0.210612
Si Si3 0.559559 0.646575 0.289738
Si Si4 0.310019 0.754722 0.784372
Si Si5 0.072845 0.049754 0.214597
Si Si6 0.674298 0.850499 0.700963
Si Si7 0.269769 0.019628 0.792103
O O1 0.431869 0.288636 0.797439
O O2 0.585564 0.246084 0.730438
O O3 0.424558 0.178133 0.711654
O O4 0.502972 0.205229 0.000000
O O5 0.853274 0.105754 0.242064
O O6 0.720368 0.177698 0.274925
O O7 0.703012 0.047512 0.276115
O O8 0.732194 0.114301 0.000000
O O9 0.556744 0.656262 0.500000
O O10 0.469613 0.613524 0.230331
O O11 0.246677 0.698670 0.722601
O O12 0.305017 0.753136 0.000000
O O13 0.171594 0.036892 0.279325
O O14 0.074483 0.049943 0.000000
O O15 0.000000 0.000000 0.266995
O O16 0.700273 0.857419 0.500000
O O17 0.674218 0.918830 0.773700
O O18 0.258929 0.010133 0.000000
#
# Coordination Sequence:
#
# PCOD9440823 Si02
#       7
#     8   8   8   8   8   8   8
#     4  11  22  36  56  82 109 138 185 241 280 320
#     4   9  16  31  56  80 105 145 187 220 263 327
#     4  10  17  30  54  79 108 145 181 218 274 338
#     4   9  19  36  58  81 107 146 191 228 270 330
#     4   9  15  25  47  81 112 141 179 223 268 326
#     4  11  22  39  60  81 113 151 184 224 283 344
#     4  10  19  32  54  83 114 144 184 234 277 323
#
# _framework density 22.361550999999999
#
# number of rings (size 3 to 8) (size 9 to 14) (size 15 to 20)
#    0.000    2.143    2.857    1.714    0.000    0.000 
#    0.000    3.571    0.000    5.143    0.000    0.000 
#    0.000    0.000    0.000    0.000    0.000    0.000 
#
# Total GULP energy -312226.161662 kJ/mol
# GULP energy per Si atom -5575.467173 kJ/mol
# Density = 2.231066 g / cm^3
# Si number density = 22.361551 Si / 1000 Ang^3
#
#
#
# Elastic Constant Matrix: (Units=GPa)
#
#
# Indices 1 2 3 4 5 6 
#
# 1 43.4073 9.1400 1.4317 0.0000 0.0000 0.0000
# 2 9.1400 126.5385 5.1702 0.0000 0.0000 0.0000
# 3 1.4317 5.1702 38.3455 0.0000 0.0000 0.0000
# 4 0.0000 0.0000 0.0000 8.1516 0.0000 0.0000
# 5 0.0000 0.0000 0.0000 0.0000 10.3032 0.0000
# 6 0.0000 0.0000 0.0000 0.0000 0.0000 30.2653
#
#
#
# Elastic Compliance Matrix: (Units=1/GPa)
#
#
# Indices 1 2 3 4 5 6 
#
# 1 0.023409 -0.001664 -0.000650 0.000000 0.000000 0.000000
# 2 -0.001664 0.008065 -0.001025 0.000000 0.000000 0.000000
# 3 -0.000650 -0.001025 0.026241 0.000000 0.000000 0.000000
# 4 0.000000 0.000000 0.000000 0.122675 0.000000 0.000000
# 5 0.000000 0.000000 0.000000 0.000000 0.097057 0.000000
# 6 0.000000 0.000000 0.000000 0.000000 0.000000 0.033041
#
#
# Mechanical properties :
#
#
# Convention : Reuss Voigt Hill
#
# Bulk Modulus (GPa) = 19.59363 26.64168 23.11766
# Shear Modulus (GPa) = 14.96202 22.58065 18.77133
#
# Velocity S-wave (km/s) = 2.58949 3.18118 2.90046
# Velocity P-wave (km/s) = 4.20973 5.04313 4.64516
#
# Compressibility (1/GPa) = 0.05103699
#
# Stress axis : x y z
#
# Youngs Moduli (GPa) = 42.71770 123.99500 38.10810
#
# Poissons Ratio (x) = 0.20637 0.02476
# Poissons Ratio (y) = 0.07110 0.03907
# Poissons Ratio (z) = 0.02775 0.12713
#
# Static dielectric constant tensor:
#      x y z
#    x 1.830750 0.000000 0.000000 
#    y 0.000000 1.869710 0.000000 
#    z 0.000000 0.000000 1.861520 
# 
# From -- ./inp_files/6298.got.cif
#   From: 2010.05.17/outbox.cif.g08.bks.cpg/sg58_4_cif.got.tgz:6298.got - 2010.06.03 14:20:14.
