data_PCOD9440083
_publ_section_title
;
Structure prediction by ZEFSAII (Michael W. Deem and Ramdas Pophale) SiO2 
 PCOD9440083
Probable space group: P B C M
;
_chemical_formula_sum "Si O2"
_cell_formula_units_Z 28
_cell_length_a 16.663741
_cell_length_b 4.773446
_cell_length_c 15.661914
_cell_angle_alpha 90.000000
_cell_angle_beta 90.000000
_cell_angle_gamma 90.000000
_cell_volume 1245.802952
_symmetry_space_group_name_H-M "P B C M"
_symmetry_group_IT_number 57
_symmetry_cell_setting 'orthorhombic'
loop_
_space_group_symop_operation_xyz
x,y,z
-x,-y,1/2+z
x,1/2-y,-z
-x,1/2+y,1/2-z
-x,-y,-z
x,y,1/2-z
-x,1/2+y,z
x,1/2-y,1/2+z
loop_
_atom_site_type_symbol
_atom_site_label
_atom_site_fract_x
_atom_site_fract_y
_atom_site_fract_z
Si Si1 0.707002 0.452656 0.417209
Si Si2 0.437021 0.250000 0.000000
Si Si3 0.207850 0.477285 0.152454
Si Si4 0.049713 0.792128 0.146098
O O1 0.714034 0.250000 0.500000
O O2 0.625630 0.633612 0.428269
O O3 0.770254 0.700331 0.399783
O O4 0.721212 0.210906 0.347404
O O5 0.500000 0.500000 0.000000
O O6 0.191486 0.387833 0.250000
O O7 0.131479 0.648462 0.117259
O O8 0.054350 0.792580 0.250000
O O9 0.026348 0.102503 0.120265
#
# Coordination Sequence:
#
# PCOD9440083 Si02
#       4
#     8   4   8   8
#     4  12  22  41  63  95 121 162 201 257 299 373
#     4  12  22  42  70  94 110 152 210 246 282 370
#     4  11  22  37  63  94 126 161 207 262 312 356
#     4   9  17  31  52  82 117 159 210 256 294 346
#
# _framework density 22.475463999999999
#
# number of rings (size 3 to 8) (size 9 to 14) (size 15 to 20)
#    0.000    1.143    4.286    2.571    0.000    4.571 
#    0.000    0.000    0.000   34.286    0.000    0.000 
#    0.000    0.000    0.000    0.000    0.000    0.000 
#
# Total GULP energy -155888.673803 kJ/mol
# GULP energy per Si atom -5567.452636 kJ/mol
# Density = 2.242431 g / cm^3
# Si number density = 22.475464 Si / 1000 Ang^3
#
#
#
# Elastic Constant Matrix: (Units=GPa)
#
#
# Indices 1 2 3 4 5 6 
#
# 1 103.4295 41.8036 12.4334 0.0000 0.0000 0.0000
# 2 41.8036 175.8961 9.5407 0.0000 0.0000 0.0000
# 3 12.4334 9.5407 42.9941 0.0000 0.0000 0.0000
# 4 0.0000 0.0000 0.0000 33.7530 0.0000 0.0000
# 5 0.0000 0.0000 0.0000 0.0000 22.5610 0.0000
# 6 0.0000 0.0000 0.0000 0.0000 0.0000 56.7746
#
#
#
# Elastic Compliance Matrix: (Units=1/GPa)
#
#
# Indices 1 2 3 4 5 6 
#
# 1 0.010982 -0.002467 -0.002628 0.000000 0.000000 0.000000
# 2 -0.002467 0.006309 -0.000686 0.000000 0.000000 0.000000
# 3 -0.002628 -0.000686 0.024171 0.000000 0.000000 0.000000
# 4 0.000000 0.000000 0.000000 0.029627 0.000000 0.000000
# 5 0.000000 0.000000 0.000000 0.000000 0.044324 0.000000
# 6 0.000000 0.000000 0.000000 0.000000 0.000000 0.017614
#
#
# Mechanical properties :
#
#
# Convention : Reuss Voigt Hill
#
# Bulk Modulus (GPa) = 33.44731 49.98612 41.71671
# Shear Modulus (GPa) = 32.35064 39.85386 36.10225
#
# Velocity S-wave (km/s) = 3.79803 4.21553 4.01221
# Velocity P-wave (km/s) = 5.84357 6.78106 6.32970
#
# Compressibility (1/GPa) = 0.02989777
#
# Stress axis : x y z
#
# Youngs Moduli (GPa) = 91.06142 158.50888 41.37123
#
# Poissons Ratio (x) = 0.39109 0.10873
# Poissons Ratio (y) = 0.22468 0.02840
# Poissons Ratio (z) = 0.23933 0.10881
#
# Static dielectric constant tensor:
#      x y z
#    x 2.175010 0.000000 0.000000 
#    y 0.000000 1.805490 0.000000 
#    z 0.000000 0.000000 1.938000 
# 
# From -- ./inp_files/22214.got.cif
#   From: 2010.05.17/outbox.cif.g08.bks.cpg/sg57_12_cif.got.tgz:22214.got - 2010.06.03 13:58:18.
