data_PCOD9440443
_publ_section_title
;
Structure prediction by ZEFSAII (Michael W. Deem and Ramdas Pophale) SiO2 
 PCOD9440443
Probable space group: P B C M
;
_chemical_formula_sum "Si O2"
_cell_formula_units_Z 64
_cell_length_a 15.000000
_cell_length_b 30.000000
_cell_length_c 9.000000
_cell_angle_alpha 90.000000
_cell_angle_beta 90.000000
_cell_angle_gamma 90.000000
_cell_volume 4050.000000
_symmetry_space_group_name_H-M "P B C M"
_symmetry_group_IT_number 57
_symmetry_cell_setting 'orthorhombic'
loop_
_space_group_symop_operation_xyz
x,y,z
-x,-y,1/2+z
x,1/2-y,-z
-x,1/2+y,1/2-z
-x,-y,-z
x,y,1/2-z
-x,1/2+y,z
x,1/2-y,1/2+z
loop_
_atom_site_type_symbol
_atom_site_label
_atom_site_fract_x
_atom_site_fract_y
_atom_site_fract_z
Si Si1 0.806519 0.956432 0.426498
Si Si2 0.818715 0.060823 0.425335
Si Si3 0.414843 0.704645 0.570874
Si Si4 0.017306 0.047500 0.075711
Si Si5 0.519001 0.452536 0.576199
Si Si6 0.665043 0.390880 0.073811
Si Si7 0.661170 0.896012 0.923605
Si Si8 0.611919 0.795941 0.570555
O O1 0.814890 0.956965 0.250000
O O2 0.894799 0.934949 0.497735
O O3 0.724745 0.926833 0.479093
O O4 0.800921 0.008959 0.472257
O O5 0.796239 0.063449 0.250000
O O6 0.761649 0.094915 0.519151
O O7 0.923201 0.071576 0.441785
O O8 0.376408 0.750000 0.500000
O O9 0.421409 0.708817 0.750000
O O10 0.361900 0.659567 0.533779
O O11 0.513165 0.699999 0.499668
O O12 0.033948 0.041560 0.250000
O O13 0.000000 0.000000 0.000000
O O14 0.500000 0.500000 0.500000
O O15 0.536557 0.460367 0.750000
O O16 0.600453 0.426824 0.502059
O O17 0.435955 0.418582 0.563069
O O18 0.656286 0.394920 0.250000
O O19 0.687535 0.899366 0.750000
O O20 0.658607 0.843467 0.962945
O O21 0.650024 0.750000 0.500000
O O22 0.606466 0.791698 0.750000
#
# Coordination Sequence:
#
# PCOD9440443 Si02
#       8
#     8   8   8   8   8   8   8   8
#     4  10  20  32  49  73  99 129 165 202 241 285
#     4   9  19  33  49  71  98 131 165 199 239 285
#     4  10  20  33  50  71  94 123 161 203 247 290
#     4   9  17  31  50  71  96 126 162 202 244 286
#     4  11  22  35  48  65  95 133 169 201 236 281
#     4  11  22  33  48  72  98 128 164 201 242 288
#     4  10  21  34  48  68  96 130 164 198 241 289
#     4  10  19  33  51  71  93 123 161 203 250 291
#
# _framework density 15.802469
#
# number of rings (size 3 to 8) (size 9 to 14) (size 15 to 20)
#    0.000    2.000    1.250    4.500    0.000    8.500 
#    0.000    0.000    0.000    0.000    0.000    0.875 
#    0.000    6.000    0.000    0.000    0.000    0.000 
#
# Total GULP energy -356762.742825 kJ/mol
# GULP energy per Si atom -5574.417857 kJ/mol
# Density = 1.576650 g / cm^3
# Si number density = 15.802469 Si / 1000 Ang^3
#
#
#
# Elastic Constant Matrix: (Units=GPa)
#
#
# Indices 1 2 3 4 5 6 
#
# 1 29.5366 -6.8959 17.1890 0.0000 0.0000 0.0000
# 2 -6.8959 52.7980 6.3901 0.0000 0.0000 0.0000
# 3 17.1890 6.3901 35.6576 0.0000 0.0000 0.0000
# 4 0.0000 0.0000 0.0000 27.6631 0.0000 0.0000
# 5 0.0000 0.0000 0.0000 0.0000 26.6215 0.0000
# 6 0.0000 0.0000 0.0000 0.0000 0.0000 2.7860
#
#
#
# Elastic Compliance Matrix: (Units=1/GPa)
#
#
# Indices 1 2 3 4 5 6 
#
# 1 0.051750 0.009995 -0.026738 0.000000 0.000000 0.000000
# 2 0.009995 0.021290 -0.008634 0.000000 0.000000 0.000000
# 3 -0.026738 -0.008634 0.042481 0.000000 0.000000 0.000000
# 4 0.000000 0.000000 0.000000 0.036149 0.000000 0.000000
# 5 0.000000 0.000000 0.000000 0.000000 0.037564 0.000000
# 6 0.000000 0.000000 0.000000 0.000000 0.000000 0.358940
#
#
# Mechanical properties :
#
#
# Convention : Reuss Voigt Hill
#
# Bulk Modulus (GPa) = 15.43952 16.81763 16.12858
# Shear Modulus (GPa) = 8.05781 18.16804 13.11292
#
# Velocity S-wave (km/s) = 2.26056 3.39440 2.88375
# Velocity P-wave (km/s) = 4.07493 5.10177 4.61699
#
# Compressibility (1/GPa) = 0.06476885
#
# Stress axis : x y z
#
# Youngs Moduli (GPa) = 19.32366 46.96937 23.54007
#
# Poissons Ratio (x) = -0.46946 0.62941
# Poissons Ratio (y) = -0.19314 0.20323
# Poissons Ratio (z) = 0.51667 0.40551
#
# Static dielectric constant tensor:
#      x y z
#    x 1.551540 0.000000 0.000000 
#    y 0.000000 1.516380 0.000000 
#    z 0.000000 0.000000 1.529470 
# 
# From -- ./inp_files/6020.got.cif
#   From: 2010.05.17/outbox.ucp.g08.bks.cvg/sg57_4_cif.got.tgz:6020.got - 2010.06.11 16:39:23.
