data_PCOD9440790
_publ_section_title
;
Structure prediction by ZEFSAII (Michael W. Deem and Ramdas Pophale) SiO2 
 PCOD9440790
Probable space group: P N N M
;
_chemical_formula_sum "Si O2"
_cell_formula_units_Z 52
_cell_length_a 5.532222
_cell_length_b 22.313917
_cell_length_c 29.722195
_cell_angle_alpha 90.000000
_cell_angle_beta 90.000000
_cell_angle_gamma 90.000000
_cell_volume 3669.072487
_symmetry_space_group_name_H-M "P N N M"
_symmetry_group_IT_number 58
_symmetry_cell_setting 'orthorhombic'
loop_
_space_group_symop_operation_xyz
x,y,z
-x,-y,z
1/2+x,1/2-y,1/2-z
1/2-x,1/2+y,1/2-z
-x,-y,-z
x,y,-z
1/2-x,1/2+y,1/2+z
1/2+x,1/2-y,1/2+z
loop_
_atom_site_type_symbol
_atom_site_label
_atom_site_fract_x
_atom_site_fract_y
_atom_site_fract_z
Si Si1 0.649779 0.062122 0.947764
Si Si2 0.592040 0.295198 0.646914
Si Si3 0.000000 0.000000 0.114843
Si Si4 0.857066 0.924962 0.194207
Si Si5 0.086899 0.336620 0.619022
Si Si6 0.636313 0.099625 0.217363
Si Si7 0.378875 0.777861 0.731483
O O1 0.537734 0.118305 0.922088
O O2 0.882992 0.048329 0.917663
O O3 0.500000 0.000000 0.945166
O O4 0.699283 0.073747 0.000000
O O5 0.611361 0.354998 0.678906
O O6 0.349200 0.304515 0.617663
O O7 0.571860 0.238498 0.679729
O O8 0.851426 0.295039 0.622812
O O9 0.827936 0.964108 0.148906
O O10 0.620588 0.931802 0.223974
O O11 0.116804 0.937561 0.216562
O O12 0.108267 0.374288 0.665993
O O13 0.653229 0.154378 0.251987
O O14 0.622586 0.753790 0.756185
#
# Coordination Sequence:
#
# PCOD9440790 Si02
#       7
#     8   8   4   8   8   8   8
#     4  11  23  34  44  56  69  96 136 179 212 244
#     4  10  17  29  42  59  75  94 111 142 185 243
#     4  12  21  32  46  54  72 102 132 174 208 246
#     4  10  19  27  42  53  75  95 121 148 190 228
#     4  10  18  31  42  53  75  92 115 152 195 233
#     4  10  17  29  39  60  75  94 112 144 183 238
#     4  12  16  24  42  60  78  94 110 133 176 242
#
# _framework density 14.172518999999999
#
# number of rings (size 3 to 8) (size 9 to 14) (size 15 to 20)
#    0.000    1.385    9.231    2.077    0.000    0.000 
#    0.000    0.000    0.000    0.000    0.000    0.000 
#    0.000    0.000    0.000    0.000    0.000    0.000 
#
# Total GULP energy -289510.361139 kJ/mol
# GULP energy per Si atom -5567.506945 kJ/mol
# Density = 1.414026 g / cm^3
# Si number density = 14.172519 Si / 1000 Ang^3
#
#
#
# Elastic Constant Matrix: (Units=GPa)
#
#
# Indices 1 2 3 4 5 6 
#
# 1 121.2277 14.8706 15.8714 0.0000 0.0000 0.0000
# 2 14.8706 35.8637 37.9949 0.0000 0.0000 0.0000
# 3 15.8714 37.9949 58.1346 0.0000 0.0000 0.0000
# 4 0.0000 0.0000 0.0000 19.3242 0.0000 0.0000
# 5 0.0000 0.0000 0.0000 0.0000 -39.4946 0.0000
# 6 0.0000 0.0000 0.0000 0.0000 0.0000 20.4649
#
#
#
# Elastic Compliance Matrix: (Units=1/GPa)
#
#
# Indices 1 2 3 4 5 6 
#
# 1 0.008691 -0.003543 -0.000057 0.000000 0.000000 0.000000
# 2 -0.003543 0.092094 -0.059222 0.000000 0.000000 0.000000
# 3 -0.000057 -0.059222 0.055923 0.000000 0.000000 0.000000
# 4 0.000000 0.000000 0.000000 0.051749 0.000000 0.000000
# 5 0.000000 0.000000 0.000000 0.000000 -0.025320 0.000000
# 6 0.000000 0.000000 0.000000 0.000000 0.000000 0.048864
#
#
# Mechanical properties :
#
#
# Convention : Reuss Voigt Hill
#
# Bulk Modulus (GPa) = 32.19295 39.18889 35.69092
# Shear Modulus (GPa) = 13.58693 9.82484 11.70589
#
# Velocity S-wave (km/s) = 3.09962 2.63579 2.87706
# Velocity P-wave (km/s) = 5.96444 6.08067 6.02283
#
# Compressibility (1/GPa) = 0.03106270
#
# Stress axis : x y z
#
# Youngs Moduli (GPa) = 115.06102 10.85845 17.88178
#
# Poissons Ratio (x) = 0.03847 0.00102
# Poissons Ratio (y) = 0.40770 1.05900
# Poissons Ratio (z) = 0.00655 0.64306
#
# Static dielectric constant tensor:
#      x y z
#    x 1.589320 0.000000 0.000000 
#    y 0.000000 1.493490 0.000000 
#    z 0.000000 0.000000 1.437380 
# 
# From -- ./inp_files/34305.got.cif
#   From: 2010.05.17/outbox.cif.g08.bks.cpg/sg58_18_cif.got.tgz:34305.got - 2010.06.03 14:20:14.
