data_PCOD9440624
_publ_section_title
;
Structure prediction by ZEFSAII (Michael W. Deem and Ramdas Pophale) SiO2 
 PCOD9440624
Probable space group: P B C M
;
_chemical_formula_sum "Si O2"
_cell_formula_units_Z 56
_cell_length_a 6.000000
_cell_length_b 30.000000
_cell_length_c 15.000000
_cell_angle_alpha 90.000000
_cell_angle_beta 90.000000
_cell_angle_gamma 90.000000
_cell_volume 2700.000000
_symmetry_space_group_name_H-M "P B C M"
_symmetry_group_IT_number 57
_symmetry_cell_setting 'orthorhombic'
loop_
_space_group_symop_operation_xyz
x,y,z
-x,-y,1/2+z
x,1/2-y,-z
-x,1/2+y,1/2-z
-x,-y,-z
x,y,1/2-z
-x,1/2+y,z
x,1/2-y,1/2+z
loop_
_atom_site_type_symbol
_atom_site_label
_atom_site_fract_x
_atom_site_fract_y
_atom_site_fract_z
Si Si1 0.049383 0.361558 0.853205
Si Si2 0.032998 0.546979 0.611060
Si Si3 0.468077 0.494068 0.352244
Si Si4 0.191098 0.801066 0.995029
Si Si5 0.578367 0.642483 0.500641
Si Si6 0.058194 0.353862 0.351209
Si Si7 0.242787 0.929016 0.557836
O O1 0.097445 0.352673 0.750000
O O2 0.886185 0.404304 0.862841
O O3 0.265340 0.367852 0.915921
O O4 0.918986 0.323001 0.907263
O O5 0.279222 0.525465 0.633652
O O6 0.050839 0.550816 0.504171
O O7 0.780356 0.529964 0.635148
O O8 0.040027 0.596466 0.650873
O O9 0.466627 0.508157 0.250000
O O10 0.428194 0.535921 0.415265
O O11 0.454440 0.810552 0.990379
O O12 0.093104 0.823723 0.084442
O O13 0.136756 0.750000 0.000000
O O14 0.714576 0.641204 0.591793
O O15 0.376545 0.607678 0.498224
O O16 0.085847 0.337664 0.250000
#
# Coordination Sequence:
#
# PCOD9440624 Si02
#       7
#     8   8   8   8   8   8   8
#     4  10  22  41  68  96 130 170 220 277 337 407
#     4  12  24  44  65  96 136 186 231 285 342 403
#     4  12  27  41  63 100 138 183 239 292 338 401
#     4  10  23  44  67  94 132 169 214 274 345 418
#     4  10  21  42  66  98 130 173 224 272 348 404
#     4  11  23  42  68  96 132 176 223 275 340 409
#     4  11  23  42  65  92 131 180 227 276 346 402
#
# _framework density 20.740741
#
# number of rings (size 3 to 8) (size 9 to 14) (size 15 to 20)
#    0.000    1.143    4.286    3.429    2.000    6.286 
#    0.000    0.000    0.000    0.000    0.000    0.000 
#    0.000    0.000    0.000    0.000    0.000    0.000 
#
# Total GULP energy -312009.721274 kJ/mol
# GULP energy per Si atom -5571.602166 kJ/mol
# Density = 2.069353 g / cm^3
# Si number density = 20.740741 Si / 1000 Ang^3
#
#
#
# Elastic Constant Matrix: (Units=GPa)
#
#
# Indices 1 2 3 4 5 6 
#
# 1 97.9023 9.4639 26.1830 0.0000 0.0000 0.0000
# 2 9.4639 62.6073 19.9119 0.0000 0.0000 0.0000
# 3 26.1830 19.9119 144.1303 0.0000 0.0000 0.0000
# 4 0.0000 0.0000 0.0000 8.2804 0.0000 0.0000
# 5 0.0000 0.0000 0.0000 0.0000 6.4713 0.0000
# 6 0.0000 0.0000 0.0000 0.0000 0.0000 2.4442
#
#
#
# Elastic Compliance Matrix: (Units=1/GPa)
#
#
# Indices 1 2 3 4 5 6 
#
# 1 0.010802 -0.001055 -0.001817 0.000000 0.000000 0.000000
# 2 -0.001055 0.016810 -0.002131 0.000000 0.000000 0.000000
# 3 -0.001817 -0.002131 0.007563 0.000000 0.000000 0.000000
# 4 0.000000 0.000000 0.000000 0.120768 0.000000 0.000000
# 5 0.000000 0.000000 0.000000 0.000000 0.154529 0.000000
# 6 0.000000 0.000000 0.000000 0.000000 0.000000 0.409133
#
#
# Mechanical properties :
#
#
# Convention : Reuss Voigt Hill
#
# Bulk Modulus (GPa) = 39.73032 46.19527 42.96279
# Shear Modulus (GPa) = 6.77509 20.04457 13.40983
#
# Velocity S-wave (km/s) = 1.80932 3.11213 2.54548
# Velocity P-wave (km/s) = 4.85408 5.93589 5.42204
#
# Compressibility (1/GPa) = 0.02516970
#
# Stress axis : x y z
#
# Youngs Moduli (GPa) = 92.57474 59.48945 132.23109
#
# Poissons Ratio (x) = 0.06277 0.24021
# Poissons Ratio (y) = 0.09768 0.28173
# Poissons Ratio (z) = 0.16817 0.12675
#
# Static dielectric constant tensor:
#      x y z
#    x 1.782470 0.000000 0.000000 
#    y 0.000000 1.830410 0.000000 
#    z 0.000000 0.000000 1.791590 
# 
# From -- ./inp_files/15247.got.cif
#   From: 2010.05.17/outbox.ucp.g08.bks.cvg/sg57_8_cif.got.tgz:15247.got - 2010.06.11 16:39:23.
