data_PCOD9440720
_publ_section_title
;
Structure prediction by ZEFSAII (Michael W. Deem and Ramdas Pophale) SiO2 
 PCOD9440720
Probable space group: P N N M
;
_chemical_formula_sum "Si O2"
_cell_formula_units_Z 40
_cell_length_a 5.107941
_cell_length_b 33.873574
_cell_length_c 18.002219
_cell_angle_alpha 90.000000
_cell_angle_beta 90.000000
_cell_angle_gamma 90.000000
_cell_volume 3114.819855
_symmetry_space_group_name_H-M "P N N M"
_symmetry_group_IT_number 58
_symmetry_cell_setting 'orthorhombic'
loop_
_space_group_symop_operation_xyz
x,y,z
-x,-y,z
1/2+x,1/2-y,1/2-z
1/2-x,1/2+y,1/2-z
-x,-y,-z
x,y,-z
1/2-x,1/2+y,1/2+z
1/2+x,1/2-y,1/2+z
loop_
_atom_site_type_symbol
_atom_site_label
_atom_site_fract_x
_atom_site_fract_y
_atom_site_fract_z
Si Si1 0.048530 0.678551 0.853146
Si Si2 0.421423 0.907735 0.410179
Si Si3 0.421814 0.543472 0.090028
Si Si4 0.446457 0.771588 0.778033
Si Si5 0.547637 0.724255 0.912649
O O1 0.995643 0.633578 0.873576
O O2 0.014217 0.688527 0.765690
O O3 0.828986 0.705444 0.893798
O O4 0.328735 0.693643 0.882237
O O5 0.426903 0.902368 0.500000
O O6 0.635542 0.940939 0.390419
O O7 0.137924 0.924154 0.388616
O O8 0.500000 0.500000 0.117319
O O9 0.428517 0.541542 0.000000
O O10 0.647182 0.740433 0.738696
O O11 0.504687 0.763978 0.864263
O O12 0.517991 0.729846 0.000000
#
# Coordination Sequence:
#
# PCOD9440720 Si02
#       5
#     8   8   8   8   8
#     4  10  18  27  37  53  73  91 116 151 182 205
#     4  10  17  24  36  51  65  85 114 144 172 198
#     4   9  17  27  36  47  65  87 111 139 170 205
#     4   8  16  27  37  49  69  94 115 140 177 213
#     4  10  17  26  39  53  70  93 121 149 175 204
#
# _framework density 12.841832999999999
#
# number of rings (size 3 to 8) (size 9 to 14) (size 15 to 20)
#    0.000    2.600    0.000    3.600    0.000    4.000 
#    0.000    0.000    0.000    0.000    0.000    0.000 
#    0.000    0.000    0.000    0.000    0.000    6.000 
#
# Total GULP energy -222692.861556 kJ/mol
# GULP energy per Si atom -5567.321539 kJ/mol
# Density = 1.281260 g / cm^3
# Si number density = 12.841833 Si / 1000 Ang^3
#
#
#
# Elastic Constant Matrix: (Units=GPa)
#
#
# Indices 1 2 3 4 5 6 
#
# 1 45.0723 -14.1851 -8.5296 0.0000 0.0000 0.0000
# 2 -14.1851 34.7227 16.5531 0.0000 0.0000 0.0000
# 3 -8.5296 16.5531 38.6279 0.0000 0.0000 0.0000
# 4 0.0000 0.0000 0.0000 14.3635 0.0000 0.0000
# 5 0.0000 0.0000 0.0000 0.0000 10.1177 0.0000
# 6 0.0000 0.0000 0.0000 0.0000 0.0000 14.0273
#
#
#
# Elastic Compliance Matrix: (Units=1/GPa)
#
#
# Indices 1 2 3 4 5 6 
#
# 1 0.025526 0.009728 0.001468 0.000000 0.000000 0.000000
# 2 0.009728 0.039901 -0.014951 0.000000 0.000000 0.000000
# 3 0.001468 -0.014951 0.032619 0.000000 0.000000 0.000000
# 4 0.000000 0.000000 0.000000 0.069621 0.000000 0.000000
# 5 0.000000 0.000000 0.000000 0.000000 0.098836 0.000000
# 6 0.000000 0.000000 0.000000 0.000000 0.000000 0.071290
#
#
# Mechanical properties :
#
#
# Convention : Reuss Voigt Hill
#
# Bulk Modulus (GPa) = 11.04522 11.78886 11.41704
# Shear Modulus (GPa) = 13.31624 16.00733 14.66178
#
# Velocity S-wave (km/s) = 3.22365 3.53441 3.38260
# Velocity P-wave (km/s) = 4.74084 5.08488 4.91587
#
# Compressibility (1/GPa) = 0.09053693
#
# Stress axis : x y z
#
# Youngs Moduli (GPa) = 39.17570 25.06186 30.65714
#
# Poissons Ratio (x) = -0.24381 -0.04499
# Poissons Ratio (y) = -0.38112 0.45834
# Poissons Ratio (z) = -0.05749 0.37469
#
# Static dielectric constant tensor:
#      x y z
#    x 1.440610 0.000000 0.000000 
#    y 0.000000 1.412860 0.000000 
#    z 0.000000 0.000000 1.415750 
# 
# From -- ./inp_files/18655.got.cif
#   From: 2010.05.17/outbox.cif.g08.bks.cpg/sg58_10_cif.got.tgz:18655.got - 2010.06.03 14:20:14.
