data_PCOD9440693
_publ_section_title
;
Structure prediction by ZEFSAII (Michael W. Deem and Ramdas Pophale) SiO2 
 PCOD9440693
Probable space group: P N N M
;
_chemical_formula_sum "Si O2"
_cell_formula_units_Z 52
_cell_length_a 13.973938
_cell_length_b 8.619551
_cell_length_c 23.315375
_cell_angle_alpha 90.000000
_cell_angle_beta 90.000000
_cell_angle_gamma 90.000000
_cell_volume 2808.315265
_symmetry_space_group_name_H-M "P N N M"
_symmetry_group_IT_number 58
_symmetry_cell_setting 'orthorhombic'
loop_
_space_group_symop_operation_xyz
x,y,z
-x,-y,z
1/2+x,1/2-y,1/2-z
1/2-x,1/2+y,1/2-z
-x,-y,-z
x,y,-z
1/2-x,1/2+y,1/2+z
1/2+x,1/2-y,1/2+z
loop_
_atom_site_type_symbol
_atom_site_label
_atom_site_fract_x
_atom_site_fract_y
_atom_site_fract_z
Si Si1 0.690630 0.846922 0.322559
Si Si2 0.962555 0.672890 0.934492
Si Si3 0.500000 0.500000 0.729079
Si Si4 0.167834 0.817444 0.065589
Si Si5 0.664043 0.389135 0.358590
Si Si6 0.001693 0.335137 0.753282
Si Si7 0.773728 0.669281 0.222136
O O1 0.703127 0.810588 0.389042
O O2 0.578434 0.856377 0.303505
O O3 0.731299 0.708311 0.283572
O O4 0.746184 0.000949 0.303028
O O5 0.885764 0.746151 0.892230
O O6 0.000000 0.500000 0.920059
O O7 0.053192 0.788961 0.934365
O O8 0.925998 0.663958 0.000000
O O9 0.412558 0.533129 0.685078
O O10 0.482249 0.342989 0.765582
O O11 0.189905 0.982235 0.094544
O O12 0.200252 0.803394 0.000000
O O13 0.748082 0.311826 0.320789
O O14 0.111511 0.326810 0.772050
O O15 0.000000 0.500000 0.719556
#
# Coordination Sequence:
#
# PCOD9440693 Si02
#       7
#     8   8   4   8   8   8   8
#     4  11  20  37  50  75 105 131 173 211 255 309
#     4  10  19  29  43  65  95 133 172 206 244 295
#     4  10  16  26  49  64  92 132 159 206 238 296
#     4  11  20  30  46  66  96 135 170 206 244 299
#     4  11  17  30  43  68  92 129 169 204 248 295
#     4   9  19  33  50  72 102 138 168 206 256 304
#     4  10  22  32  55  73  99 139 166 212 262 306
#
# _framework density 18.516439999999999
#
# number of rings (size 3 to 8) (size 9 to 14) (size 15 to 20)
#    0.000    1.692    3.077    3.231    2.154    4.308 
#    0.000    0.769    0.000    0.000    0.000    0.000 
#    0.000   19.077    0.000    0.000    0.000    0.308 
#
# Total GULP energy -289666.253344 kJ/mol
# GULP energy per Si atom -5570.504872 kJ/mol
# Density = 1.847430 g / cm^3
# Si number density = 18.516440 Si / 1000 Ang^3
#
#
#
# Elastic Constant Matrix: (Units=GPa)
#
#
# Indices 1 2 3 4 5 6 
#
# 1 19.8891 11.6936 19.0952 0.0000 0.0000 0.0000
# 2 11.6936 100.4689 20.1238 0.0000 0.0000 0.0000
# 3 19.0952 20.1238 94.0631 0.0000 0.0000 0.0000
# 4 0.0000 0.0000 0.0000 28.4429 0.0000 0.0000
# 5 0.0000 0.0000 0.0000 0.0000 12.3754 0.0000
# 6 0.0000 0.0000 0.0000 0.0000 0.0000 22.0758
#
#
#
# Elastic Compliance Matrix: (Units=1/GPa)
#
#
# Indices 1 2 3 4 5 6 
#
# 1 0.064890 -0.005134 -0.012075 0.000000 0.000000 0.000000
# 2 -0.005134 0.010805 -0.001269 0.000000 0.000000 0.000000
# 3 -0.012075 -0.001269 0.013354 0.000000 0.000000 0.000000
# 4 0.000000 0.000000 0.000000 0.035158 0.000000 0.000000
# 5 0.000000 0.000000 0.000000 0.000000 0.080806 0.000000
# 6 0.000000 0.000000 0.000000 0.000000 0.000000 0.045298
#
#
# Mechanical properties :
#
#
# Convention : Reuss Voigt Hill
#
# Bulk Modulus (GPa) = 19.19644 35.13847 27.16745
# Shear Modulus (GPa) = 16.41327 23.47938 19.94633
#
# Velocity S-wave (km/s) = 2.98050 3.56480 3.28567
# Velocity P-wave (km/s) = 4.71532 5.99682 5.39426
#
# Compressibility (1/GPa) = 0.05209299
#
# Stress axis : x y z
#
# Youngs Moduli (GPa) = 15.41073 92.54859 74.88438
#
# Poissons Ratio (x) = 0.47515 0.90419
# Poissons Ratio (y) = 0.07912 0.09506
# Poissons Ratio (z) = 0.18608 0.11748
#
# Static dielectric constant tensor:
#      x y z
#    x 1.651720 0.000000 0.000000 
#    y 0.000000 1.789950 0.000000 
#    z 0.000000 0.000000 1.645820 
# 
# From -- ./inp_files/32162.got.cif
#   From: 2010.05.17/outbox.cif.g08.bks.cpg/sg58_17_cif.got.tgz:32162.got - 2010.06.03 14:20:14.
