data_PCOD9440763
_publ_section_title
;
Structure prediction by ZEFSAII (Michael W. Deem and Ramdas Pophale) SiO2 
 PCOD9440763
Probable space group: P N N M
;
_chemical_formula_sum "Si O2"
_cell_formula_units_Z 64
_cell_length_a 14.877814
_cell_length_b 31.914777
_cell_length_c 7.554453
_cell_angle_alpha 90.000000
_cell_angle_beta 90.000000
_cell_angle_gamma 90.000000
_cell_volume 3587.021359
_symmetry_space_group_name_H-M "P N N M"
_symmetry_group_IT_number 58
_symmetry_cell_setting 'orthorhombic'
loop_
_space_group_symop_operation_xyz
x,y,z
-x,-y,z
1/2+x,1/2-y,1/2-z
1/2-x,1/2+y,1/2-z
-x,-y,-z
x,y,-z
1/2-x,1/2+y,1/2+z
1/2+x,1/2-y,1/2+z
loop_
_atom_site_type_symbol
_atom_site_label
_atom_site_fract_x
_atom_site_fract_y
_atom_site_fract_z
Si Si1 0.994682 0.174936 0.285916
Si Si2 0.991005 0.729757 0.712290
Si Si3 0.105445 0.048122 0.283073
Si Si4 0.314912 0.632674 0.214729
Si Si5 0.900262 0.045384 0.708824
Si Si6 0.313839 0.370409 0.300698
Si Si7 0.687257 0.794660 0.289040
Si Si8 0.789775 0.709944 0.717760
O O1 0.983819 0.173182 0.500000
O O2 0.993461 0.222782 0.225084
O O3 0.912814 0.149827 0.204956
O O4 0.090727 0.155244 0.245475
O O5 0.984946 0.731743 0.500000
O O6 0.080971 0.704803 0.757177
O O7 0.893554 0.714232 0.772938
O O8 0.107088 0.049611 0.500000
O O9 0.171638 0.085008 0.222379
O O10 0.001486 0.056297 0.226450
O O11 0.126761 0.000719 0.224478
O O12 0.237417 0.663863 0.280246
O O13 0.306542 0.630893 0.000000
O O14 0.912236 0.040242 0.500000
O O15 0.830053 0.082812 0.731956
O O16 0.281306 0.375487 0.500000
O O17 0.252514 0.333876 0.217824
O O18 0.701991 0.793927 0.500000
O O19 0.732772 0.751013 0.223817
O O20 0.785776 0.709779 0.500000
#
# Coordination Sequence:
#
# PCOD9440763 Si02
#       8
#     8   8   8   8   8   8   8   8
#     4  10  17  27  46  66  86 117 155 186 212 256
#     4  10  19  32  47  64  88 121 156 187 218 258
#     4   8  14  25  45  69  88 114 150 186 217 262
#     4   9  15  26  47  68  87 118 154 178 214 270
#     4   9  16  28  46  66  89 115 151 188 218 260
#     4  11  20  29  43  65  93 123 151 180 220 266
#     4  10  18  30  47  67  90 117 149 186 222 263
#     4   9  18  31  45  62  89 124 152 175 217 272
#
# _framework density 17.842101
#
# number of rings (size 3 to 8) (size 9 to 14) (size 15 to 20)
#    0.000    2.500    3.750    1.125    0.000    0.000 
#    0.000    3.750    0.000    0.000    0.000    0.875 
#    0.000    7.000    0.000    0.000    0.000    0.000 
#
# Total GULP energy -356682.788971 kJ/mol
# GULP energy per Si atom -5573.168578 kJ/mol
# Density = 1.780149 g / cm^3
# Si number density = 17.842101 Si / 1000 Ang^3
#
#
#
# Elastic Constant Matrix: (Units=GPa)
#
#
# Indices 1 2 3 4 5 6 
#
# 1 88.4673 56.2535 -1.0199 0.0000 0.0000 0.0000
# 2 56.2535 144.5155 5.4688 0.0000 0.0000 0.0000
# 3 -1.0199 5.4688 35.3729 0.0000 0.0000 0.0000
# 4 0.0000 0.0000 0.0000 9.2009 0.0000 0.0000
# 5 0.0000 0.0000 0.0000 0.0000 23.1047 0.0000
# 6 0.0000 0.0000 0.0000 0.0000 0.0000 23.4982
#
#
#
# Elastic Compliance Matrix: (Units=1/GPa)
#
#
# Indices 1 2 3 4 5 6 
#
# 1 0.015086 -0.005923 0.001351 0.000000 0.000000 0.000000
# 2 -0.005923 0.009286 -0.001606 0.000000 0.000000 0.000000
# 3 0.001351 -0.001606 0.028558 0.000000 0.000000 0.000000
# 4 0.000000 0.000000 0.000000 0.108686 0.000000 0.000000
# 5 0.000000 0.000000 0.000000 0.000000 0.043281 0.000000
# 6 0.000000 0.000000 0.000000 0.000000 0.000000 0.042557
#
#
# Mechanical properties :
#
#
# Convention : Reuss Voigt Hill
#
# Bulk Modulus (GPa) = 24.64800 43.30672 33.97736
# Shear Modulus (GPa) = 18.29262 25.00430 21.64846
#
# Velocity S-wave (km/s) = 3.20543 3.74762 3.48708
# Velocity P-wave (km/s) = 5.24826 6.56133 5.94118
#
# Compressibility (1/GPa) = 0.04057124
#
# Stress axis : x y z
#
# Youngs Moduli (GPa) = 66.28840 107.68745 35.01704
#
# Poissons Ratio (x) = 0.63786 -0.04730
# Poissons Ratio (y) = 0.39264 0.05625
# Poissons Ratio (z) = -0.08954 0.17299
#
# Static dielectric constant tensor:
#      x y z
#    x 1.587350 0.000000 0.000000 
#    y 0.000000 1.648560 0.000000 
#    z 0.000000 0.000000 1.683550 
# 
# From -- ./inp_files/7158.got.cif
#   From: 2010.05.17/outbox.cif.g08.bks.cpg/sg58_4_cif.got.tgz:7158.got - 2010.06.03 14:20:14.
