data_PCOD9440085
_publ_section_title
;
Structure prediction by ZEFSAII (Michael W. Deem and Ramdas Pophale) SiO2 
 PCOD9440085
Probable space group: P B C M
;
_chemical_formula_sum "Si O2"
_cell_formula_units_Z 48
_cell_length_a 15.137269
_cell_length_b 18.620322
_cell_length_c 8.501235
_cell_angle_alpha 90.000000
_cell_angle_beta 90.000000
_cell_angle_gamma 90.000000
_cell_volume 2396.165093
_symmetry_space_group_name_H-M "P B C M"
_symmetry_group_IT_number 57
_symmetry_cell_setting 'orthorhombic'
loop_
_space_group_symop_operation_xyz
x,y,z
-x,-y,1/2+z
x,1/2-y,-z
-x,1/2+y,1/2-z
-x,-y,-z
x,y,1/2-z
-x,1/2+y,z
x,1/2-y,1/2+z
loop_
_atom_site_type_symbol
_atom_site_label
_atom_site_fract_x
_atom_site_fract_y
_atom_site_fract_z
Si Si1 0.377014 0.558850 0.061153
Si Si2 0.821524 0.411255 0.937257
Si Si3 0.267141 0.327508 0.438672
Si Si4 0.875453 0.936988 0.564701
Si Si5 0.020798 0.670881 0.564370
Si Si6 0.557119 0.598947 0.938891
O O1 0.373113 0.556504 0.250000
O O2 0.280233 0.582871 0.007032
O O3 0.402107 0.477974 0.007255
O O4 0.459965 0.606712 0.009471
O O5 0.823040 0.398539 0.750000
O O6 0.866170 0.488219 0.973599
O O7 0.879219 0.351179 0.022719
O O8 0.239167 0.250000 0.500000
O O9 0.256624 0.332515 0.250000
O O10 0.208649 0.388648 0.518468
O O11 0.369595 0.342210 0.478634
O O12 0.878089 0.951664 0.750000
O O13 0.958749 0.888965 0.514964
O O14 0.000527 0.750000 0.500000
O O15 0.005783 0.669269 0.750000
O O16 0.549069 0.596068 0.750000
#
# Coordination Sequence:
#
# PCOD9440085 Si02
#       6
#     8   8   8   8   8   8
#     4   9  18  34  58  86 116 151 193 243 294 346
#     4  11  22  41  65  93 125 159 202 253 301 356
#     4  11  22  38  57  85 123 162 202 251 307 364
#     4  12  24  40  63  92 121 159 203 250 304 362
#     4  12  26  45  65  89 121 160 202 249 305 365
#     4   9  18  34  55  82 117 155 194 242 295 350
#
# _framework density 20.03201
#
# number of rings (size 3 to 8) (size 9 to 14) (size 15 to 20)
#    0.000    1.333    1.667    5.000    0.000    2.667 
#    0.000    0.833    0.000    2.000    0.000    0.000 
#    0.000    0.000    0.000    0.000    0.000    0.000 
#
# Total GULP energy -268338.978166 kJ/mol
# GULP energy per Si atom -5590.395378 kJ/mol
# Density = 1.998642 g / cm^3
# Si number density = 20.032010 Si / 1000 Ang^3
#
#
#
# Elastic Constant Matrix: (Units=GPa)
#
#
# Indices 1 2 3 4 5 6 
#
# 1 114.1620 6.4373 1.6792 0.0000 0.0000 0.0000
# 2 6.4373 29.3120 -9.3756 0.0000 0.0000 0.0000
# 3 1.6792 -9.3756 31.5728 0.0000 0.0000 0.0000
# 4 0.0000 0.0000 0.0000 28.7562 0.0000 0.0000
# 5 0.0000 0.0000 0.0000 0.0000 35.2967 0.0000
# 6 0.0000 0.0000 0.0000 0.0000 0.0000 2.0494
#
#
#
# Elastic Compliance Matrix: (Units=1/GPa)
#
#
# Indices 1 2 3 4 5 6 
#
# 1 0.008908 -0.002329 -0.001165 0.000000 0.000000 0.000000
# 2 -0.002329 0.038305 0.011499 0.000000 0.000000 0.000000
# 3 -0.001165 0.011499 0.035149 0.000000 0.000000 0.000000
# 4 0.000000 0.000000 0.000000 0.034775 0.000000 0.000000
# 5 0.000000 0.000000 0.000000 0.000000 0.028331 0.000000
# 6 0.000000 0.000000 0.000000 0.000000 0.000000 0.487957
#
#
# Mechanical properties :
#
#
# Convention : Reuss Voigt Hill
#
# Bulk Modulus (GPa) = 10.16561 19.16985 14.66773
# Shear Modulus (GPa) = 7.68984 24.97417 16.33200
#
# Velocity S-wave (km/s) = 1.96141 3.53471 2.85844
# Velocity P-wave (km/s) = 3.19612 5.12341 4.26992
#
# Compressibility (1/GPa) = 0.09837085
#
# Stress axis : x y z
#
# Youngs Moduli (GPa) = 112.25924 26.10613 28.45002
#
# Poissons Ratio (x) = 0.06080 0.03316
# Poissons Ratio (y) = 0.26146 -0.32714
# Poissons Ratio (z) = 0.13083 -0.30019
#
# Static dielectric constant tensor:
#      x y z
#    x 1.741270 0.000000 0.000000 
#    y 0.000000 1.717160 0.000000 
#    z 0.000000 0.000000 1.804650 
# 
# From -- ./inp_files/4576.got.cif
#   From: 2010.05.17/outbox.cif.g08.bks.cpg/sg57_3_cif.got.tgz:4576.got - 2010.06.03 13:58:18.
