data_PCOD9440854
_publ_section_title
;
Structure prediction by ZEFSAII (Michael W. Deem and Ramdas Pophale) SiO2 
 PCOD9440854
Probable space group: P N N M
;
_chemical_formula_sum "Si O2"
_cell_formula_units_Z 64
_cell_length_a 10.520593
_cell_length_b 38.386730
_cell_length_c 7.547930
_cell_angle_alpha 90.000000
_cell_angle_beta 90.000000
_cell_angle_gamma 90.000000
_cell_volume 3048.240308
_symmetry_space_group_name_H-M "P N N M"
_symmetry_group_IT_number 58
_symmetry_cell_setting 'orthorhombic'
loop_
_space_group_symop_operation_xyz
x,y,z
-x,-y,z
1/2+x,1/2-y,1/2-z
1/2-x,1/2+y,1/2-z
-x,-y,-z
x,y,-z
1/2-x,1/2+y,1/2+z
1/2+x,1/2-y,1/2+z
loop_
_atom_site_type_symbol
_atom_site_label
_atom_site_fract_x
_atom_site_fract_y
_atom_site_fract_z
Si Si1 0.686915 0.123585 0.706494
Si Si2 0.414530 0.148429 0.282962
Si Si3 0.835519 0.273707 0.786362
Si Si4 0.537533 0.643707 0.218055
Si Si5 0.831752 0.470342 0.288344
Si Si6 0.383537 0.953250 0.214726
Si Si7 0.554856 0.280949 0.209094
Si Si8 0.691506 0.402830 0.211272
O O1 0.686385 0.133630 0.500000
O O2 0.554844 0.138271 0.781610
O O3 0.819188 0.137470 0.781383
O O4 0.679987 0.081834 0.718739
O O5 0.414878 0.147214 0.500000
O O6 0.375710 0.187365 0.231478
O O7 0.309115 0.120699 0.221606
O O8 0.691059 0.267529 0.721951
O O9 0.939699 0.245713 0.730451
O O10 0.836560 0.272838 0.000000
O O11 0.483124 0.680932 0.277978
O O12 0.440567 0.613412 0.275282
O O13 0.540315 0.643606 0.000000
O O14 0.842082 0.472262 0.500000
O O15 0.820519 0.510263 0.227081
O O16 0.722374 0.442981 0.246598
O O17 0.968635 0.455526 0.225817
O O18 0.382016 0.951782 0.000000
O O19 0.574657 0.286110 0.000000
O O20 0.690780 0.398586 0.000000
#
# Coordination Sequence:
#
# PCOD9440854 Si02
#       8
#     8   8   8   8   8   8   8   8
#     4  10  19  32  53  80 103 130 173 216 256 307
#     4   9  17  31  53  77 100 130 172 216 254 299
#     4  10  21  37  56  80 110 141 178 221 265 318
#     4   9  19  35  55  77 106 139 170 213 267 311
#     4   9  18  32  51  75 104 137 171 209 259 311
#     4   9  18  33  50  73 107 139 166 208 263 310
#     4  10  21  38  57  79 109 144 179 218 267 319
#     4  10  17  32  55  77  99 131 174 216 255 299
#
# _framework density 20.995721
#
# number of rings (size 3 to 8) (size 9 to 14) (size 15 to 20)
#    0.000    2.500    2.500    0.750    1.750    1.000 
#    0.000    5.000    0.000    3.750    0.000    0.000 
#    0.000    0.000    0.000    0.000    0.000    0.000 
#
# Total GULP energy -357240.382413 kJ/mol
# GULP energy per Si atom -5581.880975 kJ/mol
# Density = 2.094793 g / cm^3
# Si number density = 20.995721 Si / 1000 Ang^3
#
#
#
# Elastic Constant Matrix: (Units=GPa)
#
#
# Indices 1 2 3 4 5 6 
#
# 1 132.9117 25.2860 0.0113 0.0000 0.0000 0.0000
# 2 25.2860 49.9763 -15.1439 0.0000 0.0000 0.0000
# 3 0.0113 -15.1439 44.5680 0.0000 0.0000 0.0000
# 4 0.0000 0.0000 0.0000 -20.9591 0.0000 0.0000
# 5 0.0000 0.0000 0.0000 0.0000 6.7541 0.0000
# 6 0.0000 0.0000 0.0000 0.0000 0.0000 26.9340
#
#
#
# Elastic Compliance Matrix: (Units=1/GPa)
#
#
# Indices 1 2 3 4 5 6 
#
# 1 0.008428 -0.004755 -0.001618 0.000000 0.000000 0.000000
# 2 -0.004755 0.024988 0.008492 0.000000 0.000000 0.000000
# 3 -0.001618 0.008492 0.025324 0.000000 0.000000 0.000000
# 4 0.000000 0.000000 0.000000 -0.047712 0.000000 0.000000
# 5 0.000000 0.000000 0.000000 0.000000 0.148058 0.000000
# 6 0.000000 0.000000 0.000000 0.000000 0.000000 0.037128
#
#
# Mechanical properties :
#
#
# Convention : Reuss Voigt Hill
#
# Bulk Modulus (GPa) = 15.87807 27.52920 21.70363
# Shear Modulus (GPa) = 23.47765 17.03266 20.25515
#
# Velocity S-wave (km/s) = 3.34759 2.85132 3.10938
# Velocity P-wave (km/s) = 4.74561 4.89697 4.82188
#
# Compressibility (1/GPa) = 0.06297996
#
# Stress axis : x y z
#
# Youngs Moduli (GPa) = 118.64517 40.01845 39.48882
#
# Poissons Ratio (x) = 0.19028 0.06388
# Poissons Ratio (y) = 0.56412 -0.33534
# Poissons Ratio (z) = 0.19194 -0.33984
#
# Static dielectric constant tensor:
#      x y z
#    x 1.754070 0.000000 0.000000 
#    y 0.000000 1.727340 0.000000 
#    z 0.000000 0.000000 1.802180 
# 
# From -- ./inp_files/13450.got.cif
#   From: 2010.05.17/outbox.cif.g08.bks.cpg/sg58_7_cif.got.tgz:13450.got - 2010.06.03 14:20:14.
