data_PCOD9440489
_publ_section_title
;
Structure prediction by ZEFSAII (Michael W. Deem and Ramdas Pophale) SiO2 
 PCOD9440489
Probable space group: P B C M
;
_chemical_formula_sum "Si O2"
_cell_formula_units_Z 64
_cell_length_a 15.000000
_cell_length_b 24.000000
_cell_length_c 9.000000
_cell_angle_alpha 90.000000
_cell_angle_beta 90.000000
_cell_angle_gamma 90.000000
_cell_volume 3240.000000
_symmetry_space_group_name_H-M "P B C M"
_symmetry_group_IT_number 57
_symmetry_cell_setting 'orthorhombic'
loop_
_space_group_symop_operation_xyz
x,y,z
-x,-y,1/2+z
x,1/2-y,-z
-x,1/2+y,1/2-z
-x,-y,-z
x,y,1/2-z
-x,1/2+y,z
x,1/2-y,1/2+z
loop_
_atom_site_type_symbol
_atom_site_label
_atom_site_fract_x
_atom_site_fract_y
_atom_site_fract_z
Si Si1 0.581981 0.868230 0.428240
Si Si2 0.846558 0.007234 0.572472
Si Si3 0.098037 0.398818 0.425738
Si Si4 0.241740 0.308192 0.070963
Si Si5 0.404771 0.890391 0.572135
Si Si6 0.903040 0.132602 0.575013
Si Si7 0.345996 0.010161 0.570495
Si Si8 0.250574 0.692727 0.073748
O O1 0.575120 0.867331 0.250000
O O2 0.657923 0.824789 0.472706
O O3 0.487222 0.858963 0.500818
O O4 0.612658 0.930707 0.472103
O O5 0.843168 0.004476 0.750000
O O6 0.877479 0.069270 0.531557
O O7 0.750439 0.996255 0.501349
O O8 0.906230 0.956976 0.511017
O O9 0.107800 0.411474 0.250000
O O10 0.180012 0.360252 0.473485
O O11 0.008376 0.363834 0.445132
O O12 0.236850 0.304349 0.250000
O O13 0.214622 0.250000 0.000000
O O14 0.412494 0.889367 0.750000
O O15 0.400583 0.955087 0.525009
O O16 0.314584 0.858510 0.530109
O O17 0.882182 0.139425 0.750000
O O18 0.846867 0.176227 0.482456
O O19 0.337237 0.009598 0.750000
O O20 0.252480 0.698348 0.250000
O O21 0.280501 0.750000 0.000000
#
# Coordination Sequence:
#
# PCOD9440489 Si02
#       8
#     8   8   8   8   8   8   8   8
#     4  10  21  37  60  86 115 153 191 235 290 349
#     4  11  21  33  57  93 123 151 192 241 290 344
#     4  10  21  40  62  84 120 160 193 236 293 355
#     4  10  22  40  60  82 111 152 196 239 289 339
#     4  10  22  38  60  88 116 152 192 236 293 350
#     4  10  22  39  61  90 120 154 196 242 293 349
#     4  10  19  37  60  84 118 156 192 231 292 360
#     4  11  24  42  63  85 116 157 199 247 296 347
#
# _framework density 19.753086
#
# number of rings (size 3 to 8) (size 9 to 14) (size 15 to 20)
#    0.000    1.750    2.500    1.500    0.000    5.000 
#    0.000    3.750    0.000    0.000    0.000    0.000 
#    0.000    0.000    0.000    0.000    0.000    0.000 
#
# Total GULP energy -357361.258578 kJ/mol
# GULP energy per Si atom -5583.769665 kJ/mol
# Density = 1.970813 g / cm^3
# Si number density = 19.753086 Si / 1000 Ang^3
#
#
#
# Elastic Constant Matrix: (Units=GPa)
#
#
# Indices 1 2 3 4 5 6 
#
# 1 52.0876 -0.2894 14.2959 0.0000 0.0000 0.0000
# 2 -0.2894 57.7420 15.3104 0.0000 0.0000 0.0000
# 3 14.2959 15.3104 1.6075 0.0000 0.0000 0.0000
# 4 0.0000 0.0000 0.0000 29.9073 0.0000 0.0000
# 5 0.0000 0.0000 0.0000 0.0000 18.4007 0.0000
# 6 0.0000 0.0000 0.0000 0.0000 0.0000 7.0358
#
#
#
# Elastic Compliance Matrix: (Units=1/GPa)
#
#
# Indices 1 2 3 4 5 6 
#
# 1 0.007335 -0.011363 0.042994 0.000000 0.000000 0.000000
# 2 -0.011363 0.006250 0.041529 0.000000 0.000000 0.000000
# 3 0.042994 0.041529 -0.155809 0.000000 0.000000 0.000000
# 4 0.000000 0.000000 0.000000 0.033437 0.000000 0.000000
# 5 0.000000 0.000000 0.000000 0.000000 0.054346 0.000000
# 6 0.000000 0.000000 0.000000 0.000000 0.000000 0.142131
#
#
# Mechanical properties :
#
#
# Convention : Reuss Voigt Hill
#
# Bulk Modulus (GPa) = 244.20217 18.89679 131.54948
# Shear Modulus (GPa) = -87.31558 16.54344 -35.38607
#
# Velocity S-wave (km/s) = -6.65578 2.89712 -4.23711
# Velocity P-wave (km/s) = 8.05169 4.55833 6.54248
#
# Compressibility (1/GPa) = 0.00409497
#
# Stress axis : x y z
#
# Youngs Moduli (GPa) = 136.32792 159.99807 -6.41813
#
# Poissons Ratio (x) = 1.81808 0.27594
# Poissons Ratio (y) = 1.54912 0.26654
# Poissons Ratio (z) = -5.86126 -6.64449
#
# Static dielectric constant tensor:
#      x y z
#    x 1.707670 0.000000 0.000000 
#    y 0.000000 1.685630 0.000000 
#    z 0.000000 0.000000 1.662280 
# 
# From -- ./inp_files/5717.got.cif
#   From: 2010.05.17/outbox.ucp.g08.bks.cvg/sg57_3_cif.got.tgz:5717.got - 2010.06.11 16:39:23.
