data_PCOD9440291
_publ_section_title
;
Structure prediction by ZEFSAII (Michael W. Deem and Ramdas Pophale) SiO2 
 PCOD9440291
Probable space group: P B C M
;
_chemical_formula_sum "Si O2"
_cell_formula_units_Z 48
_cell_length_a 6.520368
_cell_length_b 16.135929
_cell_length_c 20.233306
_cell_angle_alpha 90.000000
_cell_angle_beta 90.000000
_cell_angle_gamma 90.000000
_cell_volume 2128.790538
_symmetry_space_group_name_H-M "P B C M"
_symmetry_group_IT_number 57
_symmetry_cell_setting 'orthorhombic'
loop_
_space_group_symop_operation_xyz
x,y,z
-x,-y,1/2+z
x,1/2-y,-z
-x,1/2+y,1/2-z
-x,-y,-z
x,y,1/2-z
-x,1/2+y,z
x,1/2-y,1/2+z
loop_
_atom_site_type_symbol
_atom_site_label
_atom_site_fract_x
_atom_site_fract_y
_atom_site_fract_z
Si Si1 0.725861 0.750000 0.000000
Si Si2 0.312933 0.952032 0.533277
Si Si3 0.597066 0.563902 0.750000
Si Si4 0.449595 0.264170 0.750000
Si Si5 0.084363 0.663649 0.567537
Si Si6 0.065652 0.023816 0.855875
Si Si7 0.210162 0.437110 0.750000
Si Si8 0.606096 0.298797 0.892412
O O1 0.581450 0.769245 0.938137
O O2 0.876877 0.679144 0.973226
O O3 0.236147 0.889045 0.477695
O O4 0.387249 0.895692 0.594029
O O5 0.500000 0.000000 0.500000
O O6 0.128148 0.999888 0.569260
O O7 0.590400 0.664714 0.750000
O O8 0.731079 0.539672 0.686189
O O9 0.394667 0.505653 0.750000
O O10 0.281569 0.340534 0.750000
O O11 0.572554 0.279930 0.816751
O O12 0.190796 0.751075 0.583499
O O13 0.048083 0.611579 0.634034
O O14 0.926334 0.959480 0.815035
#
# Coordination Sequence:
#
# PCOD9440291 Si02
#       8
#     4   8   4   4   8   8   4   8
#     4  12  22  46  76 100 150 190 264 308 382 454
#     4  12  26  45  72 111 148 194 245 317 389 442
#     4  11  25  53  69 106 150 200 247 311 383 448
#     4  12  28  42  84 104 146 206 244 317 387 455
#     4  12  25  46  73 107 142 200 255 310 376 462
#     4  11  27  44  75 103 150 197 247 310 381 461
#     4  11  27  51  73 110 154 200 255 316 378 469
#     4  12  26  49  72 112 150 198 253 321 378 465
#
# _framework density 22.548013999999998
#
# number of rings (size 3 to 8) (size 9 to 14) (size 15 to 20)
#    0.000    0.333    3.333    4.500    9.333    2.667 
#    0.000    4.167    0.000    0.000    0.000    0.000 
#    0.000    0.000    0.000    0.000    0.000    0.000 
#
# Total GULP energy -268303.245717 kJ/mol
# GULP energy per Si atom -5589.650952 kJ/mol
# Density = 2.249669 g / cm^3
# Si number density = 22.548014 Si / 1000 Ang^3
#
#
#
# Elastic Constant Matrix: (Units=GPa)
#
#
# Indices 1 2 3 4 5 6 
#
# 1 73.1604 37.1122 32.1065 0.0000 0.0000 0.0000
# 2 37.1122 118.3233 30.9649 0.0000 0.0000 0.0000
# 3 32.1065 30.9649 126.2239 0.0000 0.0000 0.0000
# 4 0.0000 0.0000 0.0000 37.9220 0.0000 0.0000
# 5 0.0000 0.0000 0.0000 0.0000 34.8325 0.0000
# 6 0.0000 0.0000 0.0000 0.0000 0.0000 39.1950
#
#
#
# Elastic Compliance Matrix: (Units=1/GPa)
#
#
# Indices 1 2 3 4 5 6 
#
# 1 0.017460 -0.004610 -0.003310 0.000000 0.000000 0.000000
# 2 -0.004610 0.010248 -0.001342 0.000000 0.000000 0.000000
# 3 -0.003310 -0.001342 0.009094 0.000000 0.000000 0.000000
# 4 0.000000 0.000000 0.000000 0.026370 0.000000 0.000000
# 5 0.000000 0.000000 0.000000 0.000000 0.028709 0.000000
# 6 0.000000 0.000000 0.000000 0.000000 0.000000 0.025513
#
#
# Mechanical properties :
#
#
# Convention : Reuss Voigt Hill
#
# Bulk Modulus (GPa) = 54.70960 57.56387 56.13674
# Shear Modulus (GPa) = 35.20876 36.89151 36.05013
#
# Velocity S-wave (km/s) = 3.95587 4.04930 4.00286
# Velocity P-wave (km/s) = 6.72172 6.88820 6.80547
#
# Compressibility (1/GPa) = 0.01827833
#
# Stress axis : x y z
#
# Youngs Moduli (GPa) = 57.27436 97.57594 109.96860
#
# Poissons Ratio (x) = 0.44983 0.36402
# Poissons Ratio (y) = 0.26404 0.14752
# Poissons Ratio (z) = 0.18959 0.13090
#
# Static dielectric constant tensor:
#      x y z
#    x 1.914570 0.000000 0.000000 
#    y 0.000000 1.992820 0.000000 
#    z 0.000000 0.000000 1.818220 
# 
# From -- ./inp_files/26265.got.cif
#   From: 2010.05.17/outbox.cif.g08.bks.cpg/sg57_14_cif.got.tgz:26265.got - 2010.06.03 13:58:18.
