data_PCOD9440994
_publ_section_title
;
Structure prediction by ZEFSAII (Michael W. Deem and Ramdas Pophale) SiO2 
 PCOD9440994
Probable space group: P N N M
;
_chemical_formula_sum "Si O2"
_cell_formula_units_Z 48
_cell_length_a 15.656460
_cell_length_b 20.483934
_cell_length_c 7.359619
_cell_angle_alpha 90.000000
_cell_angle_beta 90.000000
_cell_angle_gamma 90.000000
_cell_volume 2360.273186
_symmetry_space_group_name_H-M "P N N M"
_symmetry_group_IT_number 58
_symmetry_cell_setting 'orthorhombic'
loop_
_space_group_symop_operation_xyz
x,y,z
-x,-y,z
1/2+x,1/2-y,1/2-z
1/2-x,1/2+y,1/2-z
-x,-y,-z
x,y,-z
1/2-x,1/2+y,1/2+z
1/2+x,1/2-y,1/2+z
loop_
_atom_site_type_symbol
_atom_site_label
_atom_site_fract_x
_atom_site_fract_y
_atom_site_fract_z
Si Si1 0.801928 0.832006 0.720955
Si Si2 0.011621 0.193101 0.715613
Si Si3 0.613598 0.812670 0.717615
Si Si4 0.434081 0.442966 0.778226
Si Si5 0.918065 0.459855 0.221849
Si Si6 0.270952 0.517698 0.220513
O O1 0.800864 0.829029 0.500000
O O2 0.891024 0.801324 0.784687
O O3 0.711298 0.802460 0.782873
O O4 0.800368 0.908917 0.770052
O O5 0.019867 0.183359 0.500000
O O6 0.952027 0.255459 0.741126
O O7 0.966502 0.127261 0.785820
O O8 0.618452 0.816804 0.500000
O O9 0.582798 0.884159 0.780075
O O10 0.500000 0.500000 0.726551
O O11 0.339996 0.465039 0.718136
O O12 0.433119 0.441729 0.000000
O O13 0.827000 0.490035 0.278314
O O14 0.000000 0.500000 0.283428
O O15 0.919116 0.460151 0.000000
O O16 0.271006 0.516537 0.000000
#
# Coordination Sequence:
#
# PCOD9440994 Si02
#       6
#     8   8   8   8   8   8
#     4   8  14  27  46  63  85 123 157 175 212 277
#     4  10  18  29  47  70  93 118 151 191 228 265
#     4   9  18  32  47  65  92 125 154 181 222 276
#     4   9  14  22  40  67  90 107 140 190 230 256
#     4   8  14  26  44  63  84 114 151 186 220 262
#     4   8  12  21  39  62  85 109 142 184 223 259
#
# _framework density 20.336628000000001
#
# number of rings (size 3 to 8) (size 9 to 14) (size 15 to 20)
#    0.000    3.333    1.667    2.000    0.000    0.000 
#    3.000    0.833    0.000    1.000    0.000    1.167 
#    0.000    0.000    0.000    0.000    0.000    0.000 
#
# Total GULP energy -267659.224317 kJ/mol
# GULP energy per Si atom -5576.233840 kJ/mol
# Density = 2.029034 g / cm^3
# Si number density = 20.336628 Si / 1000 Ang^3
#
#
#
# Elastic Constant Matrix: (Units=GPa)
#
#
# Indices 1 2 3 4 5 6 
#
# 1 248.4644 123.1941 6.1891 0.0000 0.0000 0.0000
# 2 123.1941 108.8861 1.3543 0.0000 0.0000 0.0000
# 3 6.1891 1.3543 71.1544 0.0000 0.0000 0.0000
# 4 0.0000 0.0000 0.0000 5.3134 0.0000 0.0000
# 5 0.0000 0.0000 0.0000 0.0000 -0.1017 0.0000
# 6 0.0000 0.0000 0.0000 0.0000 0.0000 37.5316
#
#
#
# Elastic Compliance Matrix: (Units=1/GPa)
#
#
# Indices 1 2 3 4 5 6 
#
# 1 0.009193 -0.010394 -0.000602 0.000000 0.000000 0.000000
# 2 -0.010394 0.020937 0.000506 0.000000 0.000000 0.000000
# 3 -0.000602 0.000506 0.014097 0.000000 0.000000 0.000000
# 4 0.000000 0.000000 0.000000 0.188204 0.000000 0.000000
# 5 0.000000 0.000000 0.000000 0.000000 -9.830358 0.000000
# 6 0.000000 0.000000 0.000000 0.000000 0.000000 0.026644
#
#
# Mechanical properties :
#
#
# Convention : Reuss Voigt Hill
#
# Bulk Modulus (GPa) = 43.01629 76.66445 59.84037
# Shear Modulus (GPa) = -0.52397 28.39982 13.93793
#
# Velocity S-wave (km/s) = -0.50814 3.74101 2.62078
# Velocity P-wave (km/s) = 4.56659 7.51264 6.21665
#
# Compressibility (1/GPa) = 0.02324701
#
# Stress axis : x y z
#
# Youngs Moduli (GPa) = 108.77733 47.76237 70.93876
#
# Poissons Ratio (x) = 0.49642 0.04269
# Poissons Ratio (y) = 1.13059 -0.03586
# Poissons Ratio (z) = 0.06546 -0.02415
#
# Static dielectric constant tensor:
#      x y z
#    x 1.739750 0.000000 0.000000 
#    y 0.000000 1.673890 0.000000 
#    z 0.000000 0.000000 1.822190 
# 
# From -- ./inp_files/6036.got.cif
#   From: 2010.05.17/outbox.cif.g08.bks.cpg/sg58_4_cif.got.tgz:6036.got - 2010.06.03 14:20:14.
