data_PCOD9440668
_publ_section_title
;
Structure prediction by ZEFSAII (Michael W. Deem and Ramdas Pophale) SiO2 
 PCOD9440668
Probable space group: P N N M
;
_chemical_formula_sum "Si O2"
_cell_formula_units_Z 34
_cell_length_a 9.117939
_cell_length_b 9.267788
_cell_length_c 18.365581
_cell_angle_alpha 90.000000
_cell_angle_beta 90.000000
_cell_angle_gamma 90.000000
_cell_volume 1551.948999
_symmetry_space_group_name_H-M "P N N M"
_symmetry_group_IT_number 58
_symmetry_cell_setting 'orthorhombic'
loop_
_space_group_symop_operation_xyz
x,y,z
-x,-y,z
1/2+x,1/2-y,1/2-z
1/2-x,1/2+y,1/2-z
-x,-y,-z
x,y,-z
1/2-x,1/2+y,1/2+z
1/2+x,1/2-y,1/2+z
loop_
_atom_site_type_symbol
_atom_site_label
_atom_site_fract_x
_atom_site_fract_y
_atom_site_fract_z
Si Si1 0.642107 0.286136 0.118775
Si Si2 0.000000 0.000000 0.500000
Si Si3 0.174230 0.704675 0.346069
Si Si4 0.154719 0.844219 0.000000
Si Si5 0.324628 0.496464 0.242910
Si Si6 0.673636 0.311020 0.500000
O O1 0.501707 0.197171 0.147290
O O2 0.760309 0.200450 0.072815
O O3 0.708923 0.382591 0.182335
O O4 0.572920 0.398969 0.062816
O O5 0.242031 0.558370 0.313220
O O6 0.240500 0.734270 0.426849
O O7 0.209747 0.841383 0.293136
O O8 0.996442 0.767035 0.000000
O O9 0.158308 0.016537 0.000000
O O10 0.500000 0.500000 0.256655
#
# Coordination Sequence:
#
# PCOD9440668 Si02
#       6
#     8   2   8   4   8   4
#     4  10  21  42  74  98 133 180 236 281 349 416
#     4  10  14  38  74  96 130 166 238 286 336 402
#     4  11  24  44  74 100 141 185 232 284 350 423
#     4  10  25  42  68 101 139 181 226 303 338 415
#     4  10  24  44  69 103 144 181 225 290 353 409
#     4  11  26  44  68  96 146 180 232 286 362 397
#
# _framework density 21.907935999999999
#
# number of rings (size 3 to 8) (size 9 to 14) (size 15 to 20)
#    0.000    1.647    3.529    1.412    6.588    3.765 
#    4.235    7.059    0.000    0.000    0.000    0.000 
#    0.000    0.000    0.000    0.000    0.000    0.000 
#
# Total GULP energy -189529.862812 kJ/mol
# GULP energy per Si atom -5574.407730 kJ/mol
# Density = 2.185807 g / cm^3
# Si number density = 21.907936 Si / 1000 Ang^3
#
#
#
# Elastic Constant Matrix: (Units=GPa)
#
#
# Indices 1 2 3 4 5 6 
#
# 1 64.5081 49.0195 35.9390 0.0000 0.0000 0.0000
# 2 49.0195 70.6137 50.5154 0.0000 0.0000 0.0000
# 3 35.9390 50.5154 114.3937 0.0000 0.0000 0.0000
# 4 0.0000 0.0000 0.0000 15.6600 0.0000 0.0000
# 5 0.0000 0.0000 0.0000 0.0000 7.7937 0.0000
# 6 0.0000 0.0000 0.0000 0.0000 0.0000 29.3874
#
#
#
# Elastic Compliance Matrix: (Units=1/GPa)
#
#
# Indices 1 2 3 4 5 6 
#
# 1 0.032820 -0.022522 -0.000366 0.000000 0.000000 0.000000
# 2 -0.022522 0.036156 -0.008891 0.000000 0.000000 0.000000
# 3 -0.000366 -0.008891 0.012783 0.000000 0.000000 0.000000
# 4 0.000000 0.000000 0.000000 0.063857 0.000000 0.000000
# 5 0.000000 0.000000 0.000000 0.000000 0.128310 0.000000
# 6 0.000000 0.000000 0.000000 0.000000 0.000000 0.034028
#
#
# Mechanical properties :
#
#
# Convention : Reuss Voigt Hill
#
# Bulk Modulus (GPa) = 54.93691 57.82925 56.38308
# Shear Modulus (GPa) = 13.24235 18.17100 15.70668
#
# Velocity S-wave (km/s) = 2.46123 2.88310 2.68048
# Velocity P-wave (km/s) = 5.76260 6.12673 5.94745
#
# Compressibility (1/GPa) = 0.01820270
#
# Stress axis : x y z
#
# Youngs Moduli (GPa) = 30.46942 27.65780 78.23121
#
# Poissons Ratio (x) = 0.62290 0.02859
# Poissons Ratio (y) = 0.68623 0.69553
# Poissons Ratio (z) = 0.01114 0.24590
#
# Static dielectric constant tensor:
#      x y z
#    x 1.796010 0.000000 0.000000 
#    y 0.000000 1.820690 0.000000 
#    z 0.000000 0.000000 1.798260 
# 
# From -- ./inp_files/28573.got.cif
#   From: 2010.05.17/outbox.cif.g08.bks.cpg/sg58_15_cif.got.tgz:28573.got - 2010.06.03 14:20:14.
