data_PCOD9440908
_publ_section_title
;
Structure prediction by ZEFSAII (Michael W. Deem and Ramdas Pophale) SiO2 
 PCOD9440908
Probable space group: P N N M
;
_chemical_formula_sum "Si O2"
_cell_formula_units_Z 64
_cell_length_a 15.224050
_cell_length_b 16.892098
_cell_length_c 12.565793
_cell_angle_alpha 90.000000
_cell_angle_beta 90.000000
_cell_angle_gamma 90.000000
_cell_volume 3231.496539
_symmetry_space_group_name_H-M "P N N M"
_symmetry_group_IT_number 58
_symmetry_cell_setting 'orthorhombic'
loop_
_space_group_symop_operation_xyz
x,y,z
-x,-y,z
1/2+x,1/2-y,1/2-z
1/2-x,1/2+y,1/2-z
-x,-y,-z
x,y,-z
1/2-x,1/2+y,1/2+z
1/2+x,1/2-y,1/2+z
loop_
_atom_site_type_symbol
_atom_site_label
_atom_site_fract_x
_atom_site_fract_y
_atom_site_fract_z
Si Si1 0.704951 0.142539 0.182134
Si Si2 0.965878 0.178724 0.871782
Si Si3 0.241469 0.116865 0.119980
Si Si4 0.195914 0.715441 0.184884
Si Si5 0.084968 0.574677 0.117622
Si Si6 0.590234 0.184297 0.622306
Si Si7 0.634242 0.530926 0.371335
Si Si8 0.099323 0.497885 0.654959
O O1 0.732775 0.226221 0.134123
O O2 0.666079 0.158646 0.298554
O O3 0.789057 0.085145 0.178611
O O4 0.632150 0.089393 0.127753
O O5 0.890683 0.228684 0.810461
O O6 0.952488 0.084923 0.849755
O O7 0.055039 0.226871 0.851412
O O8 0.949826 0.188822 0.000000
O O9 0.267083 0.184504 0.202928
O O10 0.161948 0.058645 0.157574
O O11 0.328809 0.060747 0.115542
O O12 0.222569 0.144544 0.000000
O O13 0.163907 0.637958 0.124055
O O14 0.096576 0.516768 0.217355
O O15 0.995993 0.627016 0.131544
O O16 0.085281 0.537917 0.000000
O O17 0.617489 0.181496 0.500000
O O18 0.642968 0.531147 0.500000
O O19 0.000000 0.500000 0.618352
#
# Coordination Sequence:
#
# PCOD9440908 Si02
#       8
#     8   8   8   8   8   8   8   8
#     4  10  18  27  42  66  93 114 142 184 220 266
#     4   8  14  27  47  65  81 106 143 184 224 265
#     4   9  18  30  43  59  86 124 155 180 210 254
#     4   9  17  28  43  61  85 119 149 180 216 261
#     4   9  17  30  47  65  88 118 149 182 226 274
#     4   9  16  25  40  63  89 114 136 169 225 273
#     4   8  15  29  47  63  79 110 152 186 213 248
#     4  10  18  29  45  67  95 120 147 181 226 276
#
# _framework density 19.805066
#
# number of rings (size 3 to 8) (size 9 to 14) (size 15 to 20)
#    0.000    3.000    1.250    1.125    0.000    2.000 
#    0.000    0.000    0.000    0.750    0.000    3.500 
#    0.000    0.000    0.000   25.000    0.000    0.000 
#
# Total GULP energy -356342.053387 kJ/mol
# GULP energy per Si atom -5567.844584 kJ/mol
# Density = 1.975999 g / cm^3
# Si number density = 19.805066 Si / 1000 Ang^3
#
#
#
# Elastic Constant Matrix: (Units=GPa)
#
#
# Indices 1 2 3 4 5 6 
#
# 1 40.3708 18.7906 -2.9652 0.0000 0.0000 0.0000
# 2 18.7906 98.0482 22.5013 0.0000 0.0000 0.0000
# 3 -2.9652 22.5013 71.4134 0.0000 0.0000 0.0000
# 4 0.0000 0.0000 0.0000 705.8780 0.0000 0.0000
# 5 0.0000 0.0000 0.0000 0.0000 7.9426 0.0000
# 6 0.0000 0.0000 0.0000 0.0000 0.0000 33.6524
#
#
#
# Elastic Compliance Matrix: (Units=1/GPa)
#
#
# Indices 1 2 3 4 5 6 
#
# 1 0.027801 -0.006029 0.003054 0.000000 0.000000 0.000000
# 2 -0.006029 0.012301 -0.004126 0.000000 0.000000 0.000000
# 3 0.003054 -0.004126 0.015430 0.000000 0.000000 0.000000
# 4 0.000000 0.000000 0.000000 0.001417 0.000000 0.000000
# 5 0.000000 0.000000 0.000000 0.000000 0.125903 0.000000
# 6 0.000000 0.000000 0.000000 0.000000 0.000000 0.029716
#
#
# Mechanical properties :
#
#
# Convention : Reuss Voigt Hill
#
# Bulk Modulus (GPa) = 24.19564 31.83174 28.01369
# Shear Modulus (GPa) = 20.78605 160.92833 90.85719
#
# Velocity S-wave (km/s) = 3.24316 9.02400 6.78051
# Velocity P-wave (km/s) = 5.12519 11.16621 8.68768
#
# Compressibility (1/GPa) = 0.04132976
#
# Stress axis : x y z
#
# Youngs Moduli (GPa) = 35.97025 81.29145 64.80912
#
# Poissons Ratio (x) = 0.49009 -0.19792
# Poissons Ratio (y) = 0.21686 0.26742
# Poissons Ratio (z) = -0.10985 0.33543
#
# Static dielectric constant tensor:
#      x y z
#    x 1.755370 0.000000 0.000000 
#    y 0.000000 1.768490 0.000000 
#    z 0.000000 0.000000 1.670740 
# 
# From -- ./inp_files/16675.got.cif
#   From: 2010.05.17/outbox.cif.g08.bks.cpg/sg58_9_cif.got.tgz:16675.got - 2010.06.03 14:20:14.
