data_PCOD9440776
_publ_section_title
;
Structure prediction by ZEFSAII (Michael W. Deem and Ramdas Pophale) SiO2 
 PCOD9440776
Probable space group: P N N M
;
_chemical_formula_sum "Si O2"
_cell_formula_units_Z 40
_cell_length_a 14.730822
_cell_length_b 13.118631
_cell_length_c 7.928412
_cell_angle_alpha 90.000000
_cell_angle_beta 90.000000
_cell_angle_gamma 90.000000
_cell_volume 1532.151492
_symmetry_space_group_name_H-M "P N N M"
_symmetry_group_IT_number 58
_symmetry_cell_setting 'orthorhombic'
loop_
_space_group_symop_operation_xyz
x,y,z
-x,-y,z
1/2+x,1/2-y,1/2-z
1/2-x,1/2+y,1/2-z
-x,-y,-z
x,y,-z
1/2-x,1/2+y,1/2+z
1/2+x,1/2-y,1/2+z
loop_
_atom_site_type_symbol
_atom_site_label
_atom_site_fract_x
_atom_site_fract_y
_atom_site_fract_z
Si Si1 0.595674 0.075930 0.198785
Si Si2 0.069791 0.695669 0.296285
Si Si3 0.771256 0.177551 0.801748
Si Si4 0.452733 0.605861 0.206542
Si Si5 0.233956 0.038755 0.307993
O O1 0.497267 0.105741 0.269674
O O2 0.663384 0.171944 0.231709
O O3 0.665573 0.983964 0.236868
O O4 0.581628 0.069222 0.000000
O O5 0.072852 0.690126 0.500000
O O6 0.013628 0.797852 0.245271
O O7 0.171685 0.722851 0.238933
O O8 0.804663 0.078895 0.698213
O O9 0.781711 0.155190 0.000000
O O10 0.500000 0.500000 0.257130
O O11 0.348480 0.601563 0.270615
O O12 0.447365 0.607543 0.000000
O O13 0.245539 0.070638 0.500000
#
# Coordination Sequence:
#
# PCOD9440776 Si02
#       5
#     8   8   8   8   8
#     4   8  17  29  40  58  85 112 139 170 205 245
#     4  10  17  28  45  63  84 114 142 167 207 252
#     4   9  17  28  39  59  86 110 137 171 205 238
#     4   9  14  22  40  64  84 105 137 169 201 249
#     4   9  15  26  42  57  81 113 138 165 199 242
#
# _framework density 26.107075999999999
#
# number of rings (size 3 to 8) (size 9 to 14) (size 15 to 20)
#    1.200    1.800    2.000    0.600    0.000    0.800 
#    0.000    3.000    0.000    0.000    0.000    1.400 
#    0.000   11.200    0.000    0.000    0.000    0.000 
#
# Total GULP energy -223068.871734 kJ/mol
# GULP energy per Si atom -5576.721793 kJ/mol
# Density = 2.604766 g / cm^3
# Si number density = 26.107076 Si / 1000 Ang^3
#
#
#
# Elastic Constant Matrix: (Units=GPa)
#
#
# Indices 1 2 3 4 5 6 
#
# 1 221.4951 18.0834 8.1266 0.0000 0.0000 0.0000
# 2 18.0834 101.6246 -12.0905 0.0000 0.0000 0.0000
# 3 8.1266 -12.0905 29.8132 0.0000 0.0000 0.0000
# 4 0.0000 0.0000 0.0000 16.3872 0.0000 0.0000
# 5 0.0000 0.0000 0.0000 0.0000 96.3848 0.0000
# 6 0.0000 0.0000 0.0000 0.0000 0.0000 43.8093
#
#
#
# Elastic Compliance Matrix: (Units=1/GPa)
#
#
# Indices 1 2 3 4 5 6 
#
# 1 0.004661 -0.001030 -0.001688 0.000000 0.000000 0.000000
# 2 -0.001030 0.010567 0.004566 0.000000 0.000000 0.000000
# 3 -0.001688 0.004566 0.035854 0.000000 0.000000 0.000000
# 4 0.000000 0.000000 0.000000 0.061023 0.000000 0.000000
# 5 0.000000 0.000000 0.000000 0.000000 0.010375 0.000000
# 6 0.000000 0.000000 0.000000 0.000000 0.000000 0.022826
#
#
# Mechanical properties :
#
#
# Convention : Reuss Voigt Hill
#
# Bulk Modulus (GPa) = 18.25593 42.35245 30.30419
# Shear Modulus (GPa) = 31.27540 53.90381 42.58961
#
# Velocity S-wave (km/s) = 3.46492 4.54885 4.04337
# Velocity P-wave (km/s) = 4.79744 6.62172 5.78198
#
# Compressibility (1/GPa) = 0.05477671
#
# Stress axis : x y z
#
# Youngs Moduli (GPa) = 214.55428 94.63701 27.89084
#
# Poissons Ratio (x) = 0.09750 0.04709
# Poissons Ratio (y) = 0.22104 -0.12735
# Poissons Ratio (z) = 0.36222 -0.43212
#
# Static dielectric constant tensor:
#      x y z
#    x 2.132740 0.000000 0.000000 
#    y 0.000000 2.275110 0.000000 
#    z 0.000000 0.000000 1.925130 
# 
# From -- ./inp_files/5994.got.cif
#   From: 2010.05.17/outbox.cif.g08.bks.cpg/sg58_3_cif.got.tgz:5994.got - 2010.06.03 14:20:14.
