data_PCOD9440666
_publ_section_title
;
Structure prediction by ZEFSAII (Michael W. Deem and Ramdas Pophale) SiO2 
 PCOD9440666
Probable space group: P N N M
;
_chemical_formula_sum "Si O2"
_cell_formula_units_Z 52
_cell_length_a 25.164929
_cell_length_b 7.134823
_cell_length_c 13.994719
_cell_angle_alpha 90.000000
_cell_angle_beta 90.000000
_cell_angle_gamma 90.000000
_cell_volume 2512.714210
_symmetry_space_group_name_H-M "P N N M"
_symmetry_group_IT_number 58
_symmetry_cell_setting 'orthorhombic'
loop_
_space_group_symop_operation_xyz
x,y,z
-x,-y,z
1/2+x,1/2-y,1/2-z
1/2-x,1/2+y,1/2-z
-x,-y,-z
x,y,-z
1/2-x,1/2+y,1/2+z
1/2+x,1/2-y,1/2+z
loop_
_atom_site_type_symbol
_atom_site_label
_atom_site_fract_x
_atom_site_fract_y
_atom_site_fract_z
Si Si1 0.493528 0.725710 0.611076
Si Si2 0.807823 0.258280 0.697064
Si Si3 0.793546 0.774013 0.500000
Si Si4 0.272829 0.304211 0.000000
Si Si5 0.679563 0.918465 0.500000
Si Si6 0.876520 0.844743 0.116138
Si Si7 0.302220 0.684593 0.209129
Si Si8 0.106564 0.711631 0.832260
O O1 0.500000 0.500000 0.616555
O O2 0.500051 0.777623 0.500000
O O3 0.432680 0.755656 0.639465
O O4 0.543446 0.814251 0.665162
O O5 0.786411 0.310989 0.593463
O O6 0.760731 0.301326 0.771009
O O7 0.863928 0.331516 0.733262
O O8 0.812690 0.034554 0.695643
O O9 0.728277 0.766543 0.500000
O O10 0.813114 0.716958 0.393514
O O11 0.805113 0.999713 0.500000
O O12 0.214113 0.391835 0.000000
O O13 0.640421 0.897790 0.588636
O O14 0.833328 0.768142 0.192776
O O15 0.883266 0.068056 0.139349
O O16 0.870432 0.836350 0.000000
#
# Coordination Sequence:
#
# PCOD9440666 Si02
#       8
#     8   8   4   4   4   8   8   8
#     4   8  13  22  36  61  91 111 137 187 231 252
#     4  10  18  30  42  65  85 120 148 178 219 265
#     4   8  16  30  39  58  87 115 149 172 201 266
#     4   8  18  28  38  55  96 116 134 174 228 263
#     4  10  14  26  40  63  83 119 144 171 211 272
#     4   9  17  25  38  67  94 114 142 188 232 257
#     4  10  19  29  46  62  90 118 150 177 220 263
#     4  10  14  23  45  62  85 115 155 181 209 264
#
# _framework density 20.694752000000001
#
# number of rings (size 3 to 8) (size 9 to 14) (size 15 to 20)
#    0.462    2.308    3.077    0.923    1.077    0.000 
#    0.000    0.000    0.000    0.923    0.000   11.846 
#    0.000    0.000    0.000    6.923    0.000    7.231 
#
# Total GULP energy -289709.825165 kJ/mol
# GULP energy per Si atom -5571.342792 kJ/mol
# Density = 2.064765 g / cm^3
# Si number density = 20.694752 Si / 1000 Ang^3
#
#
#
# Elastic Constant Matrix: (Units=GPa)
#
#
# Indices 1 2 3 4 5 6 
#
# 1 124.8049 -1.3568 46.2893 0.0000 0.0000 0.0000
# 2 -1.3568 56.2569 -6.4059 0.0000 0.0000 0.0000
# 3 46.2893 -6.4059 115.5728 0.0000 0.0000 0.0000
# 4 0.0000 0.0000 0.0000 7.4587 0.0000 0.0000
# 5 0.0000 0.0000 0.0000 0.0000 30.5933 0.0000
# 6 0.0000 0.0000 0.0000 0.0000 0.0000 18.3407
#
#
#
# Elastic Compliance Matrix: (Units=1/GPa)
#
#
# Indices 1 2 3 4 5 6 
#
# 1 0.009413 -0.000204 -0.003781 0.000000 0.000000 0.000000
# 2 -0.000204 0.017893 0.001073 0.000000 0.000000 0.000000
# 3 -0.003781 0.001073 0.010227 0.000000 0.000000 0.000000
# 4 0.000000 0.000000 0.000000 0.134072 0.000000 0.000000
# 5 0.000000 0.000000 0.000000 0.000000 0.032687 0.000000
# 6 0.000000 0.000000 0.000000 0.000000 0.000000 0.054524
#
#
# Mechanical properties :
#
#
# Convention : Reuss Voigt Hill
#
# Bulk Modulus (GPa) = 31.53671 41.52086 36.52878
# Shear Modulus (GPa) = 18.16813 28.48574 23.32694
#
# Velocity S-wave (km/s) = 2.96617 3.71411 3.36101
# Velocity P-wave (km/s) = 5.19644 6.20482 5.72288
#
# Compressibility (1/GPa) = 0.03170908
#
# Stress axis : x y z
#
# Youngs Moduli (GPa) = 106.23896 55.88809 97.78492
#
# Poissons Ratio (x) = 0.01138 0.36975
# Poissons Ratio (y) = 0.02162 -0.10495
# Poissons Ratio (z) = 0.40172 -0.05998
#
# Static dielectric constant tensor:
#      x y z
#    x 1.728090 0.000000 0.000000 
#    y 0.000000 1.838500 0.000000 
#    z 0.000000 0.000000 1.795610 
# 
# From -- ./inp_files/23577.got.cif
#   From: 2010.05.17/outbox.cif.g08.bks.cpg/sg58_12_cif.got.tgz:23577.got - 2010.06.03 14:20:14.
