data_PCOD9440110
_publ_section_title
;
Structure prediction by ZEFSAII (Michael W. Deem and Ramdas Pophale) SiO2 
 PCOD9440110
Probable space group: P B C M
;
_chemical_formula_sum "Si O2"
_cell_formula_units_Z 32
_cell_length_a 6.794840
_cell_length_b 15.379416
_cell_length_c 13.294142
_cell_angle_alpha 90.000000
_cell_angle_beta 90.000000
_cell_angle_gamma 90.000000
_cell_volume 1389.246760
_symmetry_space_group_name_H-M "P B C M"
_symmetry_group_IT_number 57
_symmetry_cell_setting 'orthorhombic'
loop_
_space_group_symop_operation_xyz
x,y,z
-x,-y,1/2+z
x,1/2-y,-z
-x,1/2+y,1/2-z
-x,-y,-z
x,y,1/2-z
-x,1/2+y,z
x,1/2-y,1/2+z
loop_
_atom_site_type_symbol
_atom_site_label
_atom_site_fract_x
_atom_site_fract_y
_atom_site_fract_z
Si Si1 0.265020 0.845218 0.867882
Si Si2 0.624133 0.865788 0.994200
Si Si3 0.751314 0.453594 0.056418
Si Si4 0.965441 0.685877 0.636539
O O1 0.278505 0.865262 0.750000
O O2 0.477516 0.819013 0.915388
O O3 0.204870 0.925559 0.939941
O O4 0.111424 0.766992 0.882600
O O5 0.467544 0.913504 0.068667
O O6 0.785905 0.820088 0.060789
O O7 0.732668 0.943873 0.934398
O O8 0.904161 0.400990 0.122538
O O9 0.893562 0.693464 0.750000
#
# Coordination Sequence:
#
# PCOD9440110 Si02
#       4
#     8   8   8   8
#     4   9  20  41  65  95 130 167 214 266 327 388
#     4   9  21  41  68  93 129 174 214 266 329 379
#     4   9  20  42  65  94 132 163 220 270 324 383
#     4  11  22  39  65  97 130 170 214 267 331 389
#
# _framework density 23.034065999999999
#
# number of rings (size 3 to 8) (size 9 to 14) (size 15 to 20)
#    1.500    1.000    0.000    1.500    0.000    3.000 
#    9.000    1.250    0.000    1.500    0.000    0.000 
#    0.000    0.000    0.000    0.000    0.000    0.000 
#
# Total GULP energy -178676.101600 kJ/mol
# GULP energy per Si atom -5583.628175 kJ/mol
# Density = 2.298164 g / cm^3
# Si number density = 23.034066 Si / 1000 Ang^3
#
#
#
# Elastic Constant Matrix: (Units=GPa)
#
#
# Indices 1 2 3 4 5 6 
#
# 1 110.7575 35.4864 29.8485 0.0000 0.0000 0.0000
# 2 35.4864 63.5644 36.6223 0.0000 0.0000 0.0000
# 3 29.8485 36.6223 102.1961 0.0000 0.0000 0.0000
# 4 0.0000 0.0000 0.0000 14.1199 0.0000 0.0000
# 5 0.0000 0.0000 0.0000 0.0000 33.9516 0.0000
# 6 0.0000 0.0000 0.0000 0.0000 0.0000 27.5181
#
#
#
# Elastic Compliance Matrix: (Units=1/GPa)
#
#
# Indices 1 2 3 4 5 6 
#
# 1 0.011129 -0.005470 -0.001290 0.000000 0.000000 0.000000
# 2 -0.005470 0.022513 -0.006470 0.000000 0.000000 0.000000
# 3 -0.001290 -0.006470 0.012481 0.000000 0.000000 0.000000
# 4 0.000000 0.000000 0.000000 0.070822 0.000000 0.000000
# 5 0.000000 0.000000 0.000000 0.000000 0.029454 0.000000
# 6 0.000000 0.000000 0.000000 0.000000 0.000000 0.036340
#
#
# Mechanical properties :
#
#
# Convention : Reuss Voigt Hill
#
# Bulk Modulus (GPa) = 50.85811 53.38138 52.11975
# Shear Modulus (GPa) = 23.17464 26.75530 24.96497
#
# Velocity S-wave (km/s) = 3.17535 3.41185 3.29573
# Velocity P-wave (km/s) = 5.96417 6.22465 6.09580
#
# Compressibility (1/GPa) = 0.01966255
#
# Stress axis : x y z
#
# Youngs Moduli (GPa) = 89.85606 44.41801 80.12410
#
# Poissons Ratio (x) = 0.24295 0.10339
# Poissons Ratio (y) = 0.49147 0.51842
# Poissons Ratio (z) = 0.11595 0.28740
#
# Static dielectric constant tensor:
#      x y z
#    x 1.897500 0.000000 0.000000 
#    y 0.000000 1.980000 0.000000 
#    z 0.000000 0.000000 1.801060 
# 
# From -- ./inp_files/11510.got.cif
#   From: 2010.05.17/outbox.cif.g08.bks.cpg/sg57_6_cif.got.tgz:11510.got - 2010.06.03 13:58:18.
