data_PCOD9440893
_publ_section_title
;
Structure prediction by ZEFSAII (Michael W. Deem and Ramdas Pophale) SiO2 
 PCOD9440893
Probable space group: P N N M
;
_chemical_formula_sum "Si O2"
_cell_formula_units_Z 64
_cell_length_a 21.474948
_cell_length_b 20.247468
_cell_length_c 7.339569
_cell_angle_alpha 90.000000
_cell_angle_beta 90.000000
_cell_angle_gamma 90.000000
_cell_volume 3191.342382
_symmetry_space_group_name_H-M "P N N M"
_symmetry_group_IT_number 58
_symmetry_cell_setting 'orthorhombic'
loop_
_space_group_symop_operation_xyz
x,y,z
-x,-y,z
1/2+x,1/2-y,1/2-z
1/2-x,1/2+y,1/2-z
-x,-y,-z
x,y,-z
1/2-x,1/2+y,1/2+z
1/2+x,1/2-y,1/2+z
loop_
_atom_site_type_symbol
_atom_site_label
_atom_site_fract_x
_atom_site_fract_y
_atom_site_fract_z
Si Si1 0.045999 0.940654 0.722184
Si Si2 0.287964 0.181941 0.287456
Si Si3 0.939299 0.460541 0.223249
Si Si4 0.830312 0.991180 0.277593
Si Si5 0.482490 0.693511 0.216749
Si Si6 0.846731 0.837832 0.722564
Si Si7 0.195559 0.522270 0.212840
Si Si8 0.922615 0.310418 0.217911
O O1 0.046692 0.939517 0.500000
O O2 0.018823 0.871137 0.786151
O O3 0.115533 0.959553 0.780981
O O4 0.000000 0.000000 0.774701
O O5 0.285395 0.201371 0.500000
O O6 0.218632 0.193463 0.212313
O O7 0.296362 0.102087 0.279528
O O8 0.353382 0.208771 0.211430
O O9 0.873305 0.491102 0.285926
O O10 0.940201 0.383966 0.281246
O O11 0.000000 0.500000 0.281528
O O12 0.938385 0.461093 0.000000
O O13 0.828861 0.991548 0.500000
O O14 0.847480 0.915639 0.227333
O O15 0.760232 0.005779 0.212260
O O16 0.411241 0.694754 0.283686
O O17 0.524094 0.757656 0.246790
O O18 0.477196 0.684484 0.000000
O O19 0.844252 0.836413 0.500000
O O20 0.193917 0.503832 0.000000
O O21 0.915729 0.315586 0.000000
#
# Coordination Sequence:
#
# PCOD9440893 Si02
#       8
#     8   8   8   8   8   8   8   8
#     4   9  14  21  34  56  83 108 132 163 205 242
#     4   7  11  21  38  57  75  98 137 177 199 224
#     4   8  13  23  41  61  77  97 132 174 209 241
#     4   8  11  17  31  52  78 100 126 167 205 232
#     4  10  18  26  41  64  88 111 136 169 209 251
#     4   8  12  20  37  61  80  99 136 181 206 221
#     4   7  10  16  30  54  76  94 122 165 206 233
#     4   9  17  29  44  61  83 111 139 170 208 250
#
# _framework density 20.054258000000001
#
# number of rings (size 3 to 8) (size 9 to 14) (size 15 to 20)
#    0.000    3.750    1.250    3.000    0.000    0.000 
#    0.000    0.000    2.750    1.500    0.000    0.000 
#    0.000    1.250    0.000    0.000    0.000    0.000 
#
# Total GULP energy -356383.537029 kJ/mol
# GULP energy per Si atom -5568.492766 kJ/mol
# Density = 2.000861 g / cm^3
# Si number density = 20.054258 Si / 1000 Ang^3
#
#
#
# Elastic Constant Matrix: (Units=GPa)
#
#
# Indices 1 2 3 4 5 6 
#
# 1 269.3553 82.0141 11.0525 0.0000 0.0000 0.0000
# 2 82.0141 57.7933 0.8277 0.0000 0.0000 0.0000
# 3 11.0525 0.8277 74.1637 0.0000 0.0000 0.0000
# 4 0.0000 0.0000 0.0000 3.4062 0.0000 0.0000
# 5 0.0000 0.0000 0.0000 0.0000 -5.1664 0.0000
# 6 0.0000 0.0000 0.0000 0.0000 0.0000 30.5087
#
#
#
# Elastic Compliance Matrix: (Units=1/GPa)
#
#
# Indices 1 2 3 4 5 6 
#
# 1 0.006594 -0.009345 -0.000878 0.000000 0.000000 0.000000
# 2 -0.009345 0.030549 0.001052 0.000000 0.000000 0.000000
# 3 -0.000878 0.001052 0.013603 0.000000 0.000000 0.000000
# 4 0.000000 0.000000 0.000000 0.293584 0.000000 0.000000
# 5 0.000000 0.000000 0.000000 0.000000 -0.193557 0.000000
# 6 0.000000 0.000000 0.000000 0.000000 0.000000 0.032778
#
#
# Mechanical properties :
#
#
# Convention : Reuss Voigt Hill
#
# Bulk Modulus (GPa) = 30.86143 65.45568 48.15856
# Shear Modulus (GPa) = 23.50798 26.24422 24.87610
#
# Velocity S-wave (km/s) = 3.42748 3.62147 3.52581
# Velocity P-wave (km/s) = 5.57547 7.08497 6.37506
#
# Compressibility (1/GPa) = 0.03240290
#
# Stress axis : x y z
#
# Youngs Moduli (GPa) = 151.65386 32.73405 73.51403
#
# Poissons Ratio (x) = 0.30590 0.06457
# Poissons Ratio (y) = 1.41719 -0.07731
# Poissons Ratio (z) = 0.13321 -0.03443
#
# Static dielectric constant tensor:
#      x y z
#    x 1.770670 0.000000 0.000000 
#    y 0.000000 1.648720 0.000000 
#    z 0.000000 0.000000 1.838270 
# 
# From -- ./inp_files/17212.got.cif
#   From: 2010.05.17/outbox.cif.g08.bks.cpg/sg58_9_cif.got.tgz:17212.got - 2010.06.03 14:20:14.
