data_PCOD9440228
_publ_section_title
;
Structure prediction by ZEFSAII (Michael W. Deem and Ramdas Pophale) SiO2 
 PCOD9440228
Probable space group: P B C M
;
_chemical_formula_sum "Si O2"
_cell_formula_units_Z 40
_cell_length_a 6.185432
_cell_length_b 18.725494
_cell_length_c 16.111731
_cell_angle_alpha 90.000000
_cell_angle_beta 90.000000
_cell_angle_gamma 90.000000
_cell_volume 1866.145590
_symmetry_space_group_name_H-M "P B C M"
_symmetry_group_IT_number 57
_symmetry_cell_setting 'orthorhombic'
loop_
_space_group_symop_operation_xyz
x,y,z
-x,-y,1/2+z
x,1/2-y,-z
-x,1/2+y,1/2-z
-x,-y,-z
x,y,1/2-z
-x,1/2+y,z
x,1/2-y,1/2+z
loop_
_atom_site_type_symbol
_atom_site_label
_atom_site_fract_x
_atom_site_fract_y
_atom_site_fract_z
Si Si1 0.298262 0.421159 0.342242
Si Si2 0.980621 0.147278 0.977364
Si Si3 0.654592 0.193907 0.658340
Si Si4 0.634636 0.800789 0.576453
Si Si5 0.625484 0.446199 0.560857
O O1 0.209918 0.408472 0.250000
O O2 0.529939 0.381850 0.346588
O O3 0.319356 0.504820 0.360729
O O4 0.154811 0.385860 0.413958
O O5 0.824569 0.193536 0.917132
O O6 0.837349 0.085089 0.017203
O O7 0.116070 0.183871 0.052309
O O8 0.754581 0.201306 0.750000
O O9 0.463783 0.253070 0.649836
O O10 0.565461 0.750000 0.500000
O O11 0.519774 0.877100 0.578710
O O12 0.500000 0.500000 0.500000
#
# Coordination Sequence:
#
# PCOD9440228 Si02
#       5
#     8   8   8   8   8
#     4  11  24  42  65  99 135 171 222 278 335 398
#     4  12  22  41  73  97 130 180 227 272 331 410
#     4  11  25  45  68  99 139 176 219 282 340 392
#     4  12  24  41  67 100 130 175 230 275 327 406
#     4  12  23  42  67  97 132 174 223 277 330 400
#
# _framework density 21.434552
#
# number of rings (size 3 to 8) (size 9 to 14) (size 15 to 20)
#    0.000    0.400    8.000    1.200    2.800    0.800 
#    0.000    1.000    0.000    0.000    0.000    0.000 
#    0.000    0.000    0.000    0.000    0.000    0.000 
#
# Total GULP energy -223262.405141 kJ/mol
# GULP energy per Si atom -5581.560129 kJ/mol
# Density = 2.138577 g / cm^3
# Si number density = 21.434552 Si / 1000 Ang^3
#
#
#
# Elastic Constant Matrix: (Units=GPa)
#
#
# Indices 1 2 3 4 5 6 
#
# 1 86.4441 34.6654 28.4138 0.0000 0.0000 0.0000
# 2 34.6654 119.9934 25.4704 0.0000 0.0000 0.0000
# 3 28.4138 25.4704 62.8715 0.0000 0.0000 0.0000
# 4 0.0000 0.0000 0.0000 23.8004 0.0000 0.0000
# 5 0.0000 0.0000 0.0000 0.0000 12.9562 0.0000
# 6 0.0000 0.0000 0.0000 0.0000 0.0000 56.3508
#
#
#
# Elastic Compliance Matrix: (Units=1/GPa)
#
#
# Indices 1 2 3 4 5 6 
#
# 1 0.014553 -0.003072 -0.005332 0.000000 0.000000 0.000000
# 2 -0.003072 0.009766 -0.002568 0.000000 0.000000 0.000000
# 3 -0.005332 -0.002568 0.019356 0.000000 0.000000 0.000000
# 4 0.000000 0.000000 0.000000 0.042016 0.000000 0.000000
# 5 0.000000 0.000000 0.000000 0.000000 0.077183 0.000000
# 6 0.000000 0.000000 0.000000 0.000000 0.000000 0.017746
#
#
# Mechanical properties :
#
#
# Convention : Reuss Voigt Hill
#
# Bulk Modulus (GPa) = 46.02018 49.60092 47.81055
# Shear Modulus (GPa) = 23.83117 30.67209 27.25163
#
# Velocity S-wave (km/s) = 3.33800 3.78691 3.56952
# Velocity P-wave (km/s) = 6.03101 6.50475 6.27235
#
# Compressibility (1/GPa) = 0.02172960
#
# Stress axis : x y z
#
# Youngs Moduli (GPa) = 68.71461 102.39084 51.66442
#
# Poissons Ratio (x) = 0.31459 0.27549
# Poissons Ratio (y) = 0.21112 0.13268
# Poissons Ratio (z) = 0.36641 0.26295
#
# Static dielectric constant tensor:
#      x y z
#    x 1.809610 0.000000 0.000000 
#    y 0.000000 1.789800 0.000000 
#    z 0.000000 0.000000 1.544370 
# 
# From -- ./inp_files/19963.got.cif
#   From: 2010.05.17/outbox.cif.g08.bks.cpg/sg57_10_cif.got.tgz:19963.got - 2010.06.03 13:58:18.
