data_PCOD9440974
_publ_section_title
;
Structure prediction by ZEFSAII (Michael W. Deem and Ramdas Pophale) SiO2 
 PCOD9440974
Probable space group: P N N M
;
_chemical_formula_sum "Si O2"
_cell_formula_units_Z 64
_cell_length_a 24.213211
_cell_length_b 19.901062
_cell_length_c 7.628918
_cell_angle_alpha 90.000000
_cell_angle_beta 90.000000
_cell_angle_gamma 90.000000
_cell_volume 3676.136138
_symmetry_space_group_name_H-M "P N N M"
_symmetry_group_IT_number 58
_symmetry_cell_setting 'orthorhombic'
loop_
_space_group_symop_operation_xyz
x,y,z
-x,-y,z
1/2+x,1/2-y,1/2-z
1/2-x,1/2+y,1/2-z
-x,-y,-z
x,y,-z
1/2-x,1/2+y,1/2+z
1/2+x,1/2-y,1/2+z
loop_
_atom_site_type_symbol
_atom_site_label
_atom_site_fract_x
_atom_site_fract_y
_atom_site_fract_z
Si Si1 0.662328 0.766040 0.789833
Si Si2 0.437235 0.141579 0.290206
Si Si3 0.727628 0.640503 0.211283
Si Si4 0.335471 0.775300 0.286263
Si Si5 0.387425 0.001966 0.705211
Si Si6 0.769198 0.850493 0.786095
Si Si7 0.240099 0.504766 0.705986
Si Si8 0.937600 0.638457 0.215360
O O1 0.603541 0.796598 0.743961
O O2 0.679961 0.691786 0.727750
O O3 0.710884 0.817022 0.731195
O O4 0.665634 0.764580 0.000000
O O5 0.440508 0.135235 0.500000
O O6 0.499740 0.149658 0.226221
O O7 0.409720 0.072447 0.220294
O O8 0.785882 0.674263 0.266279
O O9 0.726458 0.563659 0.267744
O O10 0.727547 0.640347 0.000000
O O11 0.335725 0.775150 0.500000
O O12 0.316983 0.700947 0.228760
O O13 0.393648 0.805243 0.228061
O O14 0.401987 0.002465 0.500000
O O15 0.321340 0.997645 0.717131
O O16 0.415450 0.934369 0.776136
O O17 0.769253 0.927455 0.726734
O O18 0.770581 0.849951 0.000000
O O19 0.231200 0.514193 0.500000
O O20 0.936849 0.638453 0.000000
#
# Coordination Sequence:
#
# PCOD9440974 Si02
#       8
#     8   8   8   8   8   8   8   8
#     4   9  17  31  47  62  86 119 150 179 215 268
#     4  10  19  28  43  67  91 116 150 190 221 247
#     4   9  17  30  48  65  83 115 153 180 214 267
#     4   8  13  25  45  63  80 109 149 184 210 252
#     4  10  18  29  42  60  91 125 155 177 205 257
#     4   8  15  26  41  62  86 112 142 176 219 263
#     4  11  19  27  43  67  93 115 141 182 226 262
#     4   9  16  27  44  64  86 117 155 187 214 249
#
# _framework density 17.409583000000001
#
# number of rings (size 3 to 8) (size 9 to 14) (size 15 to 20)
#    0.000    2.750    2.500    2.250    0.000    2.000 
#    0.000    0.625    0.000    1.500    0.000    0.875 
#    0.000    7.000    0.000    0.000    0.000    0.000 
#
# Total GULP energy -356753.678622 kJ/mol
# GULP energy per Si atom -5574.276228 kJ/mol
# Density = 1.736996 g / cm^3
# Si number density = 17.409583 Si / 1000 Ang^3
#
#
#
# Elastic Constant Matrix: (Units=GPa)
#
#
# Indices 1 2 3 4 5 6 
#
# 1 105.8803 78.6660 1.7092 0.0000 0.0000 0.0000
# 2 78.6660 156.5800 0.2802 0.0000 0.0000 0.0000
# 3 1.7092 0.2802 28.5319 0.0000 0.0000 0.0000
# 4 0.0000 0.0000 0.0000 11.0802 0.0000 0.0000
# 5 0.0000 0.0000 0.0000 0.0000 9.2462 0.0000
# 6 0.0000 0.0000 0.0000 0.0000 0.0000 20.3259
#
#
#
# Elastic Compliance Matrix: (Units=1/GPa)
#
#
# Indices 1 2 3 4 5 6 
#
# 1 0.015089 -0.007579 -0.000830 0.000000 0.000000 0.000000
# 2 -0.007579 0.010194 0.000354 0.000000 0.000000 0.000000
# 3 -0.000830 0.000354 0.035095 0.000000 0.000000 0.000000
# 4 0.000000 0.000000 0.000000 0.090251 0.000000 0.000000
# 5 0.000000 0.000000 0.000000 0.000000 0.108153 0.000000
# 6 0.000000 0.000000 0.000000 0.000000 0.000000 0.049198
#
#
# Mechanical properties :
#
#
# Convention : Reuss Voigt Hill
#
# Bulk Modulus (GPa) = 22.58977 50.25589 36.42283
# Shear Modulus (GPa) = 14.75598 22.15291 18.45444
#
# Velocity S-wave (km/s) = 2.91448 3.57102 3.25932
# Velocity P-wave (km/s) = 4.93247 6.77734 5.92712
#
# Compressibility (1/GPa) = 0.04426783
#
# Stress axis : x y z
#
# Youngs Moduli (GPa) = 66.27213 98.09901 28.49436
#
# Poissons Ratio (x) = 0.74353 0.02364
# Poissons Ratio (y) = 0.50230 -0.01009
# Poissons Ratio (z) = 0.05497 -0.03472
#
# Static dielectric constant tensor:
#      x y z
#    x 1.569100 0.000000 0.000000 
#    y 0.000000 1.616450 0.000000 
#    z 0.000000 0.000000 1.663290 
# 
# From -- ./inp_files/8416.got.cif
#   From: 2010.05.17/outbox.cif.g08.bks.cpg/sg58_5_cif.got.tgz:8416.got - 2010.06.03 14:20:14.
