data_PCOD9440635
_publ_section_title
;
Structure prediction by ZEFSAII (Michael W. Deem and Ramdas Pophale) SiO2 
 PCOD9440635
Probable space group: P B C M
;
_chemical_formula_sum "Si O2"
_cell_formula_units_Z 48
_cell_length_a 9.000000
_cell_length_b 30.000000
_cell_length_c 9.000000
_cell_angle_alpha 90.000000
_cell_angle_beta 90.000000
_cell_angle_gamma 90.000000
_cell_volume 2430.000000
_symmetry_space_group_name_H-M "P B C M"
_symmetry_group_IT_number 57
_symmetry_cell_setting 'orthorhombic'
loop_
_space_group_symop_operation_xyz
x,y,z
-x,-y,1/2+z
x,1/2-y,-z
-x,1/2+y,1/2-z
-x,-y,-z
x,y,1/2-z
-x,1/2+y,z
x,1/2-y,1/2+z
loop_
_atom_site_type_symbol
_atom_site_label
_atom_site_fract_x
_atom_site_fract_y
_atom_site_fract_z
Si Si1 0.902519 0.616197 0.927228
Si Si2 0.403552 0.796745 0.574522
Si Si3 0.250862 0.879605 0.070842
Si Si4 0.878218 0.528085 0.085652
Si Si5 0.597008 0.465570 0.413084
Si Si6 0.243847 0.202344 0.426751
O O1 0.882422 0.617198 0.750000
O O2 0.078330 0.611565 0.960687
O O3 0.829991 0.572116 0.997385
O O4 0.841565 0.661359 0.998900
O O5 0.366722 0.750000 0.500000
O O6 0.378831 0.795034 0.750000
O O7 0.305457 0.834380 0.499994
O O8 0.579449 0.804899 0.549085
O O9 0.264349 0.878452 0.250000
O O10 0.358493 0.918912 0.014821
O O11 0.930026 0.541837 0.250000
O O12 0.748603 0.492624 0.102517
O O13 0.000000 0.500000 0.000000
O O14 0.500000 0.500000 0.500000
O O15 0.531475 0.456933 0.250000
O O16 0.204937 0.250000 0.500000
O O17 0.216794 0.203934 0.250000
#
# Coordination Sequence:
#
# PCOD9440635 Si02
#       6
#     8   8   8   8   8   8
#     4  11  23  40  62  89 120 159 200 244 297 352
#     4  10  22  40  63  89 118 154 195 242 296 353
#     4  10  22  41  60  85 121 157 197 244 292 349
#     4  11  22  40  62  87 121 158 199 245 294 351
#     4  10  23  41  59  86 121 157 199 246 292 347
#     4  10  22  41  63  91 121 153 196 245 295 355
#
# _framework density 19.753086
#
# number of rings (size 3 to 8) (size 9 to 14) (size 15 to 20)
#    0.000    1.667    1.667    2.000    2.333    6.000 
#    0.000    0.000    0.000    0.000    0.000    0.000 
#    0.000    0.000    0.000    0.000    0.000    0.000 
#
# Total GULP energy -267867.174851 kJ/mol
# GULP energy per Si atom -5580.566143 kJ/mol
# Density = 1.970813 g / cm^3
# Si number density = 19.753086 Si / 1000 Ang^3
#
#
#
# Elastic Constant Matrix: (Units=GPa)
#
#
# Indices 1 2 3 4 5 6 
#
# 1 4.6719 -2.9089 6.8043 0.0000 0.0000 0.0000
# 2 -2.9089 90.1912 9.9343 0.0000 0.0000 0.0000
# 3 6.8043 9.9343 30.6618 0.0000 0.0000 0.0000
# 4 0.0000 0.0000 0.0000 36.4401 0.0000 0.0000
# 5 0.0000 0.0000 0.0000 0.0000 19.6472 0.0000
# 6 0.0000 0.0000 0.0000 0.0000 0.0000 40.3829
#
#
#
# Elastic Compliance Matrix: (Units=1/GPa)
#
#
# Indices 1 2 3 4 5 6 
#
# 1 0.349495 0.020548 -0.084216 0.000000 0.000000 0.000000
# 2 0.020548 0.012706 -0.008677 0.000000 0.000000 0.000000
# 3 -0.084216 -0.008677 0.054114 0.000000 0.000000 0.000000
# 4 0.000000 0.000000 0.000000 0.027442 0.000000 0.000000
# 5 0.000000 0.000000 0.000000 0.000000 0.050898 0.000000
# 6 0.000000 0.000000 0.000000 0.000000 0.000000 0.024763
#
#
# Mechanical properties :
#
#
# Convention : Reuss Voigt Hill
#
# Bulk Modulus (GPa) = 3.68152 17.02047 10.35099
# Shear Modulus (GPa) = 6.62560 26.74039 16.68300
#
# Velocity S-wave (km/s) = 1.83344 3.68330 2.90931
# Velocity P-wave (km/s) = 2.51988 5.16955 4.06658
#
# Compressibility (1/GPa) = 0.27162711
#
# Stress axis : x y z
#
# Youngs Moduli (GPa) = 2.86127 78.70295 18.47961
#
# Poissons Ratio (x) = -1.61722 1.55627
# Poissons Ratio (y) = -0.05879 0.16034
# Poissons Ratio (z) = 0.24096 0.68288
#
# Static dielectric constant tensor:
#      x y z
#    x 1.691830 0.000000 0.000000 
#    y 0.000000 1.646690 0.000000 
#    z 0.000000 0.000000 1.695500 
# 
# From -- ./inp_files/1998.got.cif
#   From: 2010.05.17/outbox.ucp.g08.bks.cvg/sg57_1_cif.got.tgz:1998.got - 2010.06.11 16:39:23.
