data_PCOD9440981
_publ_section_title
;
Structure prediction by ZEFSAII (Michael W. Deem and Ramdas Pophale) SiO2 
 PCOD9440981
Probable space group: P N N M
;
_chemical_formula_sum "Si O2"
_cell_formula_units_Z 58
_cell_length_a 34.857735
_cell_length_b 10.216885
_cell_length_c 7.343493
_cell_angle_alpha 90.000000
_cell_angle_beta 90.000000
_cell_angle_gamma 90.000000
_cell_volume 2615.293017
_symmetry_space_group_name_H-M "P N N M"
_symmetry_group_IT_number 58
_symmetry_cell_setting 'orthorhombic'
loop_
_space_group_symop_operation_xyz
x,y,z
-x,-y,z
1/2+x,1/2-y,1/2-z
1/2-x,1/2+y,1/2-z
-x,-y,-z
x,y,-z
1/2-x,1/2+y,1/2+z
1/2+x,1/2-y,1/2+z
loop_
_atom_site_type_symbol
_atom_site_label
_atom_site_fract_x
_atom_site_fract_y
_atom_site_fract_z
Si Si1 0.633130 0.500162 0.202785
Si Si2 0.500000 0.000000 0.500000
Si Si3 0.071104 0.499838 0.280791
Si Si4 0.280374 0.165789 0.781320
Si Si5 0.866477 0.716921 0.277670
Si Si6 0.779409 0.000162 0.781299
Si Si7 0.780375 0.666110 0.718680
Si Si8 0.866475 0.283401 0.277672
O O1 0.624178 0.362077 0.289946
O O2 0.679354 0.500164 0.187918
O O3 0.624177 0.638247 0.289947
O O4 0.615987 0.500162 0.000000
O O5 0.533648 0.000135 0.340558
O O6 0.063523 0.499836 0.500000
O O7 0.098879 0.378120 0.237156
O O8 0.098882 0.621553 0.237162
O O9 0.230367 0.167092 0.747044
O O10 0.324366 0.172009 0.711435
O O11 0.269927 0.999840 0.732597
O O12 0.282557 0.157910 0.000000
O O13 0.863217 0.722329 0.500000
O O14 0.824368 0.672328 0.211437
O O15 0.769632 0.167414 0.747044
O O16 0.785606 0.000162 0.000000
O O17 0.782558 0.658232 0.500000
O O18 0.863215 0.277989 0.500000
#
# Coordination Sequence:
#
# PCOD9440981 Si02
#       8
#     8   2   8   8   8   8   8   8
#     4  10  18  31  53  80 114 156 210 248 284 358
#     4  12  26  48  76 112 120 144 214 274 328 422
#     4  10  22  45  72  96 127 163 194 258 338 396
#     4  10  18  29  45  69 108 160 211 249 286 342
#     4   9  18  34  58  84 117 164 209 252 311 376
#     4  10  19  28  40  67 105 156 206 254 302 339
#     4  10  18  29  45  69 108 160 211 249 286 342
#     4   9  18  34  58  84 117 164 209 252 311 376
#
# _framework density 22.177246
#
# number of rings (size 3 to 8) (size 9 to 14) (size 15 to 20)
#    0.000    2.207    2.759    1.034    0.000    3.310 
#    4.966    0.000    3.034    1.655    0.000    4.828 
#    0.000    0.000    0.000    0.000    0.000    0.000 
#
# Total GULP energy -322948.065375 kJ/mol
# GULP energy per Si atom -5568.070093 kJ/mol
# Density = 2.212677 g / cm^3
# Si number density = 22.177246 Si / 1000 Ang^3
#
#
#
# Elastic Constant Matrix: (Units=GPa)
#
#
# Indices 1 2 3 4 5 6 
#
# 1 192.9763 105.3678 41.6338 0.0000 0.0000 0.0000
# 2 105.3678 215.1825 36.9183 0.0000 0.0000 0.0000
# 3 41.6338 36.9183 108.3409 0.0000 0.0000 0.0000
# 4 0.0000 0.0000 0.0000 19.2080 0.0000 0.0000
# 5 0.0000 0.0000 0.0000 0.0000 24.2393 0.0000
# 6 0.0000 0.0000 0.0000 0.0000 0.0000 -0.2921
#
#
#
# Elastic Compliance Matrix: (Units=1/GPa)
#
#
# Indices 1 2 3 4 5 6 
#
# 1 0.007356 -0.003311 -0.001699 0.000000 0.000000 0.000000
# 2 -0.003311 0.006426 -0.000917 0.000000 0.000000 0.000000
# 3 -0.001699 -0.000917 0.010196 0.000000 0.000000 0.000000
# 4 0.000000 0.000000 0.000000 0.052062 0.000000 0.000000
# 5 0.000000 0.000000 0.000000 0.000000 0.041255 0.000000
# 6 0.000000 0.000000 0.000000 0.000000 0.000000 -3.422912
#
#
# Mechanical properties :
#
#
# Convention : Reuss Voigt Hill
#
# Bulk Modulus (GPa) = 82.48183 98.25995 90.37089
# Shear Modulus (GPa) = -1.51989 30.80302 14.64157
#
# Velocity S-wave (km/s) = -0.82875 3.73090 2.57224
# Velocity P-wave (km/s) = 6.02968 7.93488 7.04696
#
# Compressibility (1/GPa) = 0.01212388
#
# Stress axis : x y z
#
# Youngs Moduli (GPa) = 135.94139 155.62482 98.08220
#
# Poissons Ratio (x) = 0.51521 0.16661
# Poissons Ratio (y) = 0.45005 0.08998
# Poissons Ratio (z) = 0.23093 0.14277
#
# Static dielectric constant tensor:
#      x y z
#    x 1.712500 0.000000 0.000000 
#    y 0.000000 2.100040 0.000000 
#    z 0.000000 0.000000 1.252720 
# 
# From -- ./inp_files/10906.got.cif
#   From: 2010.05.17/outbox.cif.g08.bks.cpg/sg58_6_cif.got.tgz:10906.got - 2010.06.03 14:20:14.
