data_PCOD9440442
_publ_section_title
;
Structure prediction by ZEFSAII (Michael W. Deem and Ramdas Pophale) SiO2 
 PCOD9440442
Probable space group: P B C M
;
_chemical_formula_sum "Si O2"
_cell_formula_units_Z 56
_cell_length_a 18.000000
_cell_length_b 21.000000
_cell_length_c 9.000000
_cell_angle_alpha 90.000000
_cell_angle_beta 90.000000
_cell_angle_gamma 90.000000
_cell_volume 3402.000000
_symmetry_space_group_name_H-M "P B C M"
_symmetry_group_IT_number 57
_symmetry_cell_setting 'orthorhombic'
loop_
_space_group_symop_operation_xyz
x,y,z
-x,-y,1/2+z
x,1/2-y,-z
-x,1/2+y,1/2-z
-x,-y,-z
x,y,1/2-z
-x,1/2+y,z
x,1/2-y,1/2+z
loop_
_atom_site_type_symbol
_atom_site_label
_atom_site_fract_x
_atom_site_fract_y
_atom_site_fract_z
Si Si1 0.952409 0.058412 0.570636
Si Si2 0.654456 0.816958 0.923774
Si Si3 0.784740 0.023183 0.571212
Si Si4 0.533852 0.920557 0.576771
Si Si5 0.623726 0.034927 0.072558
Si Si6 0.794583 0.615500 0.571607
Si Si7 0.951211 0.681350 0.928308
O O1 0.958173 0.051886 0.750000
O O2 0.991774 0.125006 0.527564
O O3 0.863817 0.057609 0.534212
O O4 0.000000 0.000000 0.500000
O O5 0.674656 0.812029 0.750000
O O6 0.577627 0.855128 0.934069
O O7 0.645321 0.750000 0.000000
O O8 0.720684 0.852126 0.009497
O O9 0.777513 0.022096 0.750000
O O10 0.797992 0.952809 0.506296
O O11 0.704256 0.044935 0.504416
O O12 0.537119 0.942200 0.750000
O O13 0.446287 0.918077 0.537556
O O14 0.583918 0.969524 0.481601
O O15 0.635772 0.033791 0.250000
O O16 0.791220 0.608131 0.750000
O O17 0.868054 0.656432 0.535099
O O18 0.955308 0.687708 0.750000
O O19 0.965296 0.750000 0.000000
#
# Coordination Sequence:
#
# PCOD9440442 Si02
#       7
#     8   8   8   8   8   8   8
#     4  10  21  37  56  80 109 142 181 226 273 325
#     4  11  22  35  51  74 108 143 179 215 260 316
#     4  11  21  33  53  80 111 142 174 220 274 321
#     4   9  19  34  51  74 103 136 173 214 257 306
#     4  10  19  32  53  77 103 134 171 214 260 311
#     4  11  21  34  53  78 109 143 181 218 262 322
#     4  10  22  38  55  78 108 142 183 225 268 325
#
# _framework density 16.460905
#
# number of rings (size 3 to 8) (size 9 to 14) (size 15 to 20)
#    0.000    1.714    2.857    2.143    0.000    4.571 
#    0.000    0.000    0.000    0.857    0.000    6.000 
#    0.000    0.000    0.000    0.000    0.000    0.000 
#
# Total GULP energy -312177.218142 kJ/mol
# GULP energy per Si atom -5574.593181 kJ/mol
# Density = 1.642344 g / cm^3
# Si number density = 16.460905 Si / 1000 Ang^3
#
#
#
# Elastic Constant Matrix: (Units=GPa)
#
#
# Indices 1 2 3 4 5 6 
#
# 1 165.6625 64.5314 50.6695 0.0000 0.0000 0.0000
# 2 64.5314 92.6141 32.5421 0.0000 0.0000 0.0000
# 3 50.6695 32.5421 47.7367 0.0000 0.0000 0.0000
# 4 0.0000 0.0000 0.0000 24.2008 0.0000 0.0000
# 5 0.0000 0.0000 0.0000 0.0000 28.4086 0.0000
# 6 0.0000 0.0000 0.0000 0.0000 0.0000 12.8234
#
#
#
# Elastic Compliance Matrix: (Units=1/GPa)
#
#
# Indices 1 2 3 4 5 6 
#
# 1 0.010090 -0.004296 -0.007781 0.000000 0.000000 0.000000
# 2 -0.004296 0.016028 -0.006366 0.000000 0.000000 0.000000
# 3 -0.007781 -0.006366 0.033547 0.000000 0.000000 0.000000
# 4 0.000000 0.000000 0.000000 0.041321 0.000000 0.000000
# 5 0.000000 0.000000 0.000000 0.000000 0.035201 0.000000
# 6 0.000000 0.000000 0.000000 0.000000 0.000000 0.077982
#
#
# Mechanical properties :
#
#
# Convention : Reuss Voigt Hill
#
# Bulk Modulus (GPa) = 43.90152 66.83323 55.36737
# Shear Modulus (GPa) = 19.33135 23.63792 21.48463
#
# Velocity S-wave (km/s) = 3.43064 3.79358 3.61666
# Velocity P-wave (km/s) = 6.51310 7.73806 7.15186
#
# Compressibility (1/GPa) = 0.02277825
#
# Stress axis : x y z
#
# Youngs Moduli (GPa) = 99.10987 62.39117 29.80910
#
# Poissons Ratio (x) = 0.26806 0.23194
# Poissons Ratio (y) = 0.42581 0.18976
# Poissons Ratio (z) = 0.77116 0.39718
#
# Static dielectric constant tensor:
#      x y z
#    x 1.637770 0.000000 0.000000 
#    y 0.000000 1.547000 0.000000 
#    z 0.000000 0.000000 1.546080 
# 
# From -- ./inp_files/7046.got.cif
#   From: 2010.05.17/outbox.ucp.g08.bks.cvg/sg57_4_cif.got.tgz:7046.got - 2010.06.11 16:39:23.
