data_PCOD9440374
_publ_section_title
;
Structure prediction by ZEFSAII (Michael W. Deem and Ramdas Pophale) SiO2 
 PCOD9440374
Probable space group: P B C M
;
_chemical_formula_sum "Si O2"
_cell_formula_units_Z 40
_cell_length_a 8.403720
_cell_length_b 18.344666
_cell_length_c 11.279470
_cell_angle_alpha 90.000000
_cell_angle_beta 90.000000
_cell_angle_gamma 90.000000
_cell_volume 1738.881858
_symmetry_space_group_name_H-M "P B C M"
_symmetry_group_IT_number 57
_symmetry_cell_setting 'orthorhombic'
loop_
_space_group_symop_operation_xyz
x,y,z
-x,-y,1/2+z
x,1/2-y,-z
-x,1/2+y,1/2-z
-x,-y,-z
x,y,1/2-z
-x,1/2+y,z
x,1/2-y,1/2+z
loop_
_atom_site_type_symbol
_atom_site_label
_atom_site_fract_x
_atom_site_fract_y
_atom_site_fract_z
Si Si1 0.390526 0.247493 0.875212
Si Si2 0.019869 0.901301 0.380437
Si Si3 0.632230 0.386816 0.379624
Si Si4 0.485797 0.906749 0.877125
Si Si5 0.138338 0.069628 0.120043
O O1 0.300757 0.250184 0.750000
O O2 0.500434 0.176219 0.876276
O O3 0.504737 0.318406 0.875559
O O4 0.299771 0.250000 0.000000
O O5 0.944208 0.888740 0.250000
O O6 0.187125 0.858640 0.385887
O O7 0.921994 0.891814 0.500519
O O8 0.076027 0.986408 0.381982
O O9 0.619285 0.424537 0.250000
O O10 0.601800 0.428889 0.502613
O O11 0.416234 0.931040 0.750000
O O12 0.670917 0.927794 0.882574
O O13 0.088849 0.099751 0.250000
#
# Coordination Sequence:
#
# PCOD9440374 Si02
#       5
#     8   8   8   8   8
#     4   8  14  26  44  64  86 114 148 186 228 270
#     4   9  18  32  48  68  96 127 158 193 232 276
#     4   9  17  29  47  70  94 121 155 195 236 278
#     4   9  17  29  47  70  94 121 155 195 236 278
#     4   9  18  32  48  68  96 127 158 193 232 276
#
# _framework density 23.003288999999999
#
# number of rings (size 3 to 8) (size 9 to 14) (size 15 to 20)
#    0.000    3.200    0.000    0.000    0.000    2.400 
#    0.000    0.000    0.000   10.800    0.000   64.400 
#    0.000    0.000    0.000    0.000    0.000    0.000 
#
# Total GULP energy -222747.679030 kJ/mol
# GULP energy per Si atom -5568.691976 kJ/mol
# Density = 2.295093 g / cm^3
# Si number density = 23.003289 Si / 1000 Ang^3
#
#
#
# Elastic Constant Matrix: (Units=GPa)
#
#
# Indices 1 2 3 4 5 6 
#
# 1 30.5582 -0.0729 58.5411 0.0000 0.0000 0.0000
# 2 -0.0729 33.2851 4.9672 0.0000 0.0000 0.0000
# 3 58.5411 4.9672 329.4779 0.0000 0.0000 0.0000
# 4 0.0000 0.0000 0.0000 -7.3476 0.0000 0.0000
# 5 0.0000 0.0000 0.0000 0.0000 45.4424 0.0000
# 6 0.0000 0.0000 0.0000 0.0000 0.0000 21.3852
#
#
#
# Elastic Compliance Matrix: (Units=1/GPa)
#
#
# Indices 1 2 3 4 5 6 
#
# 1 0.049679 0.001429 -0.008848 0.000000 0.000000 0.000000
# 2 0.001429 0.030152 -0.000709 0.000000 0.000000 0.000000
# 3 -0.008848 -0.000709 0.004618 0.000000 0.000000 0.000000
# 4 0.000000 0.000000 0.000000 -0.136099 0.000000 0.000000
# 5 0.000000 0.000000 0.000000 0.000000 0.022006 0.000000
# 6 0.000000 0.000000 0.000000 0.000000 0.000000 0.046761
#
#
# Mechanical properties :
#
#
# Convention : Reuss Voigt Hill
#
# Bulk Modulus (GPa) = 14.66404 57.79912 36.23158
# Shear Modulus (GPa) = 89.11908 33.88839 61.50373
#
# Velocity S-wave (km/s) = 6.23105 3.84239 5.17639
# Velocity P-wave (km/s) = 7.62605 6.69823 7.17715
#
# Compressibility (1/GPa) = 0.06819401
#
# Stress axis : x y z
#
# Youngs Moduli (GPa) = 20.12917 33.16494 216.54551
#
# Poissons Ratio (x) = -0.04740 1.91609
# Poissons Ratio (y) = -0.02877 0.15343
# Poissons Ratio (z) = 0.17811 0.02350
#
# Static dielectric constant tensor:
#      x y z
#    x 1.798880 0.000000 0.000000 
#    y 0.000000 1.879520 0.000000 
#    z 0.000000 0.000000 1.917890 
# 
# From -- ./inp_files/10932.got.cif
#   From: 2010.05.17/outbox.cif.g08.bks.cpg/sg57_6_cif.got.tgz:10932.got - 2010.06.03 13:58:18.
