data_PCOD9440726
_publ_section_title
;
Structure prediction by ZEFSAII (Michael W. Deem and Ramdas Pophale) SiO2 
 PCOD9440726
Probable space group: P N N M
;
_chemical_formula_sum "Si O2"
_cell_formula_units_Z 56
_cell_length_a 30.729977
_cell_length_b 14.033186
_cell_length_c 7.651206
_cell_angle_alpha 90.000000
_cell_angle_beta 90.000000
_cell_angle_gamma 90.000000
_cell_volume 3299.502120
_symmetry_space_group_name_H-M "P N N M"
_symmetry_group_IT_number 58
_symmetry_cell_setting 'orthorhombic'
loop_
_space_group_symop_operation_xyz
x,y,z
-x,-y,z
1/2+x,1/2-y,1/2-z
1/2-x,1/2+y,1/2-z
-x,-y,-z
x,y,-z
1/2-x,1/2+y,1/2+z
1/2+x,1/2-y,1/2+z
loop_
_atom_site_type_symbol
_atom_site_label
_atom_site_fract_x
_atom_site_fract_y
_atom_site_fract_z
Si Si1 0.001871 0.889427 0.711075
Si Si2 0.096344 0.906527 0.793614
Si Si3 0.728965 0.884714 0.291055
Si Si4 0.681943 0.290739 0.214464
Si Si5 0.772116 0.600672 0.291161
Si Si6 0.316836 0.304629 0.713833
Si Si7 0.591641 0.372526 0.203935
O O1 0.000879 0.888257 0.500000
O O2 0.049688 0.856169 0.765096
O O3 0.956258 0.845896 0.776022
O O4 0.000000 0.000000 0.768657
O O5 0.137143 0.845799 0.726640
O O6 0.095513 0.012492 0.713080
O O7 0.101908 0.921094 0.000000
O O8 0.730283 0.875761 0.500000
O O9 0.777797 0.858027 0.229006
O O10 0.696302 0.801918 0.228669
O O11 0.716760 0.992523 0.250685
O O12 0.695269 0.183830 0.269205
O O13 0.635242 0.326214 0.279568
O O14 0.681068 0.293751 0.000000
O O15 0.770973 0.609063 0.500000
O O16 0.723446 0.628326 0.229978
O O17 0.317896 0.304369 0.500000
O O18 0.590779 0.345646 0.000000
#
# Coordination Sequence:
#
# PCOD9440726 Si02
#       7
#     8   8   8   8   8   8   8
#     4   8  15  26  38  54  78 104 128 158 195 231
#     4  10  17  25  39  58  80 106 133 159 189 227
#     4   9  16  28  43  58  79 106 133 158 189 231
#     4   8  15  27  43  59  77 106 135 155 187 237
#     4   9  16  28  43  59  80 103 130 163 194 224
#     4   8  16  28  40  56  81 110 131 152 192 237
#     4   9  16  27  41  57  79 106 132 157 191 233
#
# _framework density 16.972256000000002
#
# number of rings (size 3 to 8) (size 9 to 14) (size 15 to 20)
#    0.000    3.286    0.000    3.857    0.000    2.571 
#    0.000    5.714    0.000    0.000    0.000    1.000 
#    0.000    8.000    0.000    0.000    0.000    0.000 
#
# Total GULP energy -311741.760665 kJ/mol
# GULP energy per Si atom -5566.817155 kJ/mol
# Density = 1.693363 g / cm^3
# Si number density = 16.972256 Si / 1000 Ang^3
#
#
#
# Elastic Constant Matrix: (Units=GPa)
#
#
# Indices 1 2 3 4 5 6 
#
# 1 161.3811 53.0995 0.6169 0.0000 0.0000 0.0000
# 2 53.0995 79.0649 -8.5388 0.0000 0.0000 0.0000
# 3 0.6169 -8.5388 25.9307 0.0000 0.0000 0.0000
# 4 0.0000 0.0000 0.0000 13.8182 0.0000 0.0000
# 5 0.0000 0.0000 0.0000 0.0000 12.8116 0.0000
# 6 0.0000 0.0000 0.0000 0.0000 0.0000 24.2869
#
#
#
# Elastic Compliance Matrix: (Units=1/GPa)
#
#
# Indices 1 2 3 4 5 6 
#
# 1 0.008058 -0.005632 -0.002046 0.000000 0.000000 0.000000
# 2 -0.005632 0.017051 0.005749 0.000000 0.000000 0.000000
# 3 -0.002046 0.005749 0.040506 0.000000 0.000000 0.000000
# 4 0.000000 0.000000 0.000000 0.072368 0.000000 0.000000
# 5 0.000000 0.000000 0.000000 0.000000 0.078054 0.000000
# 6 0.000000 0.000000 0.000000 0.000000 0.000000 0.041174
#
#
# Mechanical properties :
#
#
# Convention : Reuss Voigt Hill
#
# Bulk Modulus (GPa) = 16.19296 39.63688 27.91492
# Shear Modulus (GPa) = 17.75209 24.92995 21.34102
#
# Velocity S-wave (km/s) = 3.23762 3.83674 3.54984
# Velocity P-wave (km/s) = 4.85158 6.55988 5.76931
#
# Compressibility (1/GPa) = 0.06175522
#
# Stress axis : x y z
#
# Youngs Moduli (GPa) = 124.10669 58.64623 24.68763
#
# Poissons Ratio (x) = 0.33032 0.05052
# Poissons Ratio (y) = 0.69902 -0.14193
# Poissons Ratio (z) = 0.25397 -0.33715
#
# Static dielectric constant tensor:
#      x y z
#    x 1.617410 0.000000 0.000000 
#    y 0.000000 1.558320 0.000000 
#    z 0.000000 0.000000 1.636160 
# 
# From -- ./inp_files/7097.got.cif
#   From: 2010.05.17/outbox.cif.g08.bks.cpg/sg58_4_cif.got.tgz:7097.got - 2010.06.03 14:20:14.
