data_PCOD9440406
_publ_section_title
;
Structure prediction by ZEFSAII (Michael W. Deem and Ramdas Pophale) SiO2 
 PCOD9440406
Probable space group: P B C M
;
_chemical_formula_sum "Si O2"
_cell_formula_units_Z 64
_cell_length_a 21.000000
_cell_length_b 9.000000
_cell_length_c 18.000000
_cell_angle_alpha 90.000000
_cell_angle_beta 90.000000
_cell_angle_gamma 90.000000
_cell_volume 3402.000000
_symmetry_space_group_name_H-M "P B C M"
_symmetry_group_IT_number 57
_symmetry_cell_setting 'orthorhombic'
loop_
_space_group_symop_operation_xyz
x,y,z
-x,-y,1/2+z
x,1/2-y,-z
-x,1/2+y,1/2-z
-x,-y,-z
x,y,1/2-z
-x,1/2+y,z
x,1/2-y,1/2+z
loop_
_atom_site_type_symbol
_atom_site_label
_atom_site_fract_x
_atom_site_fract_y
_atom_site_fract_z
Si Si1 0.429554 0.252249 0.161910
Si Si2 0.067847 0.981458 0.161894
Si Si3 0.324512 0.387300 0.444978
Si Si4 0.209729 0.004818 0.160269
Si Si5 0.433305 0.895773 0.338507
Si Si6 0.810591 0.816863 0.083019
Si Si7 0.062712 0.163377 0.661198
Si Si8 0.320464 0.632164 0.558435
O O1 0.418856 0.270804 0.250000
O O2 0.373832 0.334782 0.117034
O O3 0.497788 0.326284 0.143970
O O4 0.431165 0.074342 0.147520
O O5 0.068031 0.950034 0.250000
O O6 0.139739 0.942237 0.137404
O O7 0.004233 0.902736 0.133050
O O8 0.060608 0.158396 0.152666
O O9 0.314594 0.250000 0.500000
O O10 0.252396 0.419490 0.417710
O O11 0.348758 0.513173 0.500142
O O12 0.218179 0.991081 0.250000
O O13 0.266191 0.933611 0.112237
O O14 0.206881 0.178144 0.136860
O O15 0.422056 0.874101 0.250000
O O16 0.378195 0.821035 0.387804
O O17 0.874985 0.887418 0.115796
O O18 0.822514 0.750000 0.000000
O O19 0.070129 0.131148 0.750000
O O20 0.293489 0.750000 0.500000
#
# Coordination Sequence:
#
# PCOD9440406 Si02
#       8
#     8   8   8   8   8   8   8   8
#     4  10  22  39  63  90 117 151 193 239 285 339
#     4   8  16  31  54  80 106 141 192 240 279 335
#     4  11  21  40  59  82 117 149 192 235 285 343
#     4  10  19  38  64  83 109 159 203 232 283 358
#     4  10  22  41  63  88 116 151 194 236 282 345
#     4  10  18  34  58  84 114 142 190 245 284 338
#     4   9  17  32  53  78 107 146 189 232 283 341
#     4  12  25  40  58  88 118 155 191 244 295 343
#
# _framework density 18.812463000000001
#
# number of rings (size 3 to 8) (size 9 to 14) (size 15 to 20)
#    0.000    2.000    3.750    1.500    1.750    3.000 
#    2.250    3.750    0.000    0.000    0.000    0.000 
#    0.000    0.000    0.000    0.000    0.000    0.000 
#
# Total GULP energy -356678.157366 kJ/mol
# GULP energy per Si atom -5573.096209 kJ/mol
# Density = 1.876965 g / cm^3
# Si number density = 18.812463 Si / 1000 Ang^3
#
#
#
# Elastic Constant Matrix: (Units=GPa)
#
#
# Indices 1 2 3 4 5 6 
#
# 1 134.6303 1.6620 54.9431 0.0000 0.0000 0.0000
# 2 1.6620 5.6965 17.0575 0.0000 0.0000 0.0000
# 3 54.9431 17.0575 74.3877 0.0000 0.0000 0.0000
# 4 0.0000 0.0000 0.0000 23.9654 0.0000 0.0000
# 5 0.0000 0.0000 0.0000 0.0000 26.4464 0.0000
# 6 0.0000 0.0000 0.0000 0.0000 0.0000 25.0878
#
#
#
# Elastic Compliance Matrix: (Units=1/GPa)
#
#
# Indices 1 2 3 4 5 6 
#
# 1 0.036979 0.226561 -0.079265 0.000000 0.000000 0.000000
# 2 0.226561 1.948283 -0.614091 0.000000 0.000000 0.000000
# 3 -0.079265 -0.614091 0.212803 0.000000 0.000000 0.000000
# 4 0.000000 0.000000 0.000000 0.041727 0.000000 0.000000
# 5 0.000000 0.000000 0.000000 0.000000 0.037812 0.000000
# 6 0.000000 0.000000 0.000000 0.000000 0.000000 0.039860
#
#
# Mechanical properties :
#
#
# Convention : Reuss Voigt Hill
#
# Bulk Modulus (GPa) = 0.79084 40.22663 20.50874
# Shear Modulus (GPa) = 1.36145 24.50335 12.93240
#
# Velocity S-wave (km/s) = 0.85163 3.61294 2.62475
# Velocity P-wave (km/s) = 1.17827 6.23168 4.48454
#
# Compressibility (1/GPa) = 1.26447587
#
# Stress axis : x y z
#
# Youngs Moduli (GPa) = 27.04238 0.51327 4.69919
#
# Poissons Ratio (x) = -0.11629 0.37248
# Poissons Ratio (y) = -6.12675 2.88573
# Poissons Ratio (z) = 2.14350 0.31520
#
# Static dielectric constant tensor:
#      x y z
#    x 1.685150 0.000000 0.000000 
#    y 0.000000 1.732440 0.000000 
#    z 0.000000 0.000000 1.639970 
# 
# From -- ./inp_files/23075.got.cif
#   From: 2010.05.17/outbox.ucp.g08.bks.cvg/sg57_12_cif.got.tgz:23075.got - 2010.06.11 16:39:23.
