data_PCOD9440449
_publ_section_title
;
Structure prediction by ZEFSAII (Michael W. Deem and Ramdas Pophale) SiO2 
 PCOD9440449
Probable space group: P B C M
;
_chemical_formula_sum "Si O2"
_cell_formula_units_Z 40
_cell_length_a 15.000000
_cell_length_b 18.000000
_cell_length_c 9.000000
_cell_angle_alpha 90.000000
_cell_angle_beta 90.000000
_cell_angle_gamma 90.000000
_cell_volume 2430.000000
_symmetry_space_group_name_H-M "P B C M"
_symmetry_group_IT_number 57
_symmetry_cell_setting 'orthorhombic'
loop_
_space_group_symop_operation_xyz
x,y,z
-x,-y,1/2+z
x,1/2-y,-z
-x,1/2+y,1/2-z
-x,-y,-z
x,y,1/2-z
-x,1/2+y,z
x,1/2-y,1/2+z
loop_
_atom_site_type_symbol
_atom_site_label
_atom_site_fract_x
_atom_site_fract_y
_atom_site_fract_z
Si Si1 0.129640 0.606244 0.068863
Si Si2 0.784606 0.959085 0.931526
Si Si3 0.308405 0.670201 0.567634
Si Si4 0.600431 0.021059 0.065778
Si Si5 0.930299 0.831845 0.571708
O O1 0.139302 0.606199 0.250000
O O2 0.027832 0.631686 0.032967
O O3 0.155751 0.525941 0.000720
O O4 0.207154 0.656728 0.993570
O O5 0.776801 0.966595 0.750000
O O6 0.844745 0.885217 0.963439
O O7 0.684392 0.969115 0.004458
O O8 0.337320 0.750000 0.500000
O O9 0.310459 0.668895 0.750000
O O10 0.368108 0.602265 0.498947
O O11 0.598941 0.020515 0.250000
O O12 0.500000 0.000000 0.000000
O O13 0.923345 0.750000 0.500000
O O14 0.931003 0.823879 0.750000
#
# Coordination Sequence:
#
# PCOD9440449 Si02
#       5
#     8   8   8   8   8
#     4  10  19  33  53  80 109 144 183 221 265 318
#     4  10  20  36  55  79 107 140 180 225 270 321
#     4  11  21  35  55  83 114 144 177 223 273 320
#     4  11  22  39  61  84 107 139 179 223 273 329
#     4  10  22  35  51  76 110 147 185 222 263 312
#
# _framework density 16.460905
#
# number of rings (size 3 to 8) (size 9 to 14) (size 15 to 20)
#    0.000    1.600    0.000    8.400    0.000    4.800 
#    0.000    1.000    0.000    2.400    0.000    0.000 
#    0.000    0.000    0.000    0.000    0.000    0.000 
#
# Total GULP energy -222916.586192 kJ/mol
# GULP energy per Si atom -5572.914655 kJ/mol
# Density = 1.642344 g / cm^3
# Si number density = 16.460905 Si / 1000 Ang^3
#
#
#
# Elastic Constant Matrix: (Units=GPa)
#
#
# Indices 1 2 3 4 5 6 
#
# 1 165.7265 73.4417 56.4182 0.0000 0.0000 0.0000
# 2 73.4417 122.1811 45.2311 0.0000 0.0000 0.0000
# 3 56.4182 45.2311 140.9957 0.0000 0.0000 0.0000
# 4 0.0000 0.0000 0.0000 36.0605 0.0000 0.0000
# 5 0.0000 0.0000 0.0000 0.0000 38.8326 0.0000
# 6 0.0000 0.0000 0.0000 0.0000 0.0000 30.5477
#
#
#
# Elastic Compliance Matrix: (Units=1/GPa)
#
#
# Indices 1 2 3 4 5 6 
#
# 1 0.008718 -0.004481 -0.002051 0.000000 0.000000 0.000000
# 2 -0.004481 0.011591 -0.001925 0.000000 0.000000 0.000000
# 3 -0.002051 -0.001925 0.008531 0.000000 0.000000 0.000000
# 4 0.000000 0.000000 0.000000 0.027731 0.000000 0.000000
# 5 0.000000 0.000000 0.000000 0.000000 0.025752 0.000000
# 6 0.000000 0.000000 0.000000 0.000000 0.000000 0.032736
#
#
# Mechanical properties :
#
#
# Convention : Reuss Voigt Hill
#
# Bulk Modulus (GPa) = 83.85707 86.56503 85.21105
# Shear Modulus (GPa) = 36.77891 38.00897 37.39394
#
# Velocity S-wave (km/s) = 4.73199 4.81047 4.77139
# Velocity P-wave (km/s) = 8.99496 9.14093 9.06824
#
# Compressibility (1/GPa) = 0.01192505
#
# Stress axis : x y z
#
# Youngs Moduli (GPa) = 114.70504 86.27521 117.22385
#
# Poissons Ratio (x) = 0.38660 0.24042
# Poissons Ratio (y) = 0.51400 0.22569
# Poissons Ratio (z) = 0.23525 0.16610
#
# Static dielectric constant tensor:
#      x y z
#    x 1.559540 0.000000 0.000000 
#    y 0.000000 1.584590 0.000000 
#    z 0.000000 0.000000 1.562890 
# 
# From -- ./inp_files/4395.got.cif
#   From: 2010.05.17/outbox.ucp.g08.bks.cvg/sg57_3_cif.got.tgz:4395.got - 2010.06.11 16:39:23.
