data_PCOD9440632
_publ_section_title
;
Structure prediction by ZEFSAII (Michael W. Deem and Ramdas Pophale) SiO2 
 PCOD9440632
Probable space group: P B C M
;
_chemical_formula_sum "Si O2"
_cell_formula_units_Z 48
_cell_length_a 30.000000
_cell_length_b 9.000000
_cell_length_c 9.000000
_cell_angle_alpha 90.000000
_cell_angle_beta 90.000000
_cell_angle_gamma 90.000000
_cell_volume 2430.000000
_symmetry_space_group_name_H-M "P B C M"
_symmetry_group_IT_number 57
_symmetry_cell_setting 'orthorhombic'
loop_
_space_group_symop_operation_xyz
x,y,z
-x,-y,1/2+z
x,1/2-y,-z
-x,1/2+y,1/2-z
-x,-y,-z
x,y,1/2-z
-x,1/2+y,z
x,1/2-y,1/2+z
loop_
_atom_site_type_symbol
_atom_site_label
_atom_site_fract_x
_atom_site_fract_y
_atom_site_fract_z
Si Si1 0.803650 0.091036 0.573875
Si Si2 0.459548 0.411525 0.927202
Si Si3 0.631076 0.088963 0.927338
Si Si4 0.964151 0.097992 0.083590
Si Si5 0.283724 0.408444 0.572310
Si Si6 0.122745 0.102381 0.582296
O O1 0.810624 0.250000 0.500000
O O2 0.809298 0.104153 0.750000
O O3 0.754900 0.026685 0.540870
O O4 0.838019 0.973483 0.508299
O O5 0.465791 0.396675 0.750000
O O6 0.415468 0.508044 0.955090
O O7 0.455533 0.250000 0.000000
O O8 0.500000 0.500000 0.000000
O O9 0.636416 0.107047 0.750000
O O10 0.670210 0.980279 0.980869
O O11 0.633214 0.250000 0.000000
O O12 0.980062 0.128204 0.250000
O O13 0.918189 0.009771 0.088178
O O14 0.957082 0.250000 0.000000
O O15 0.000000 0.000000 0.000000
O O16 0.274621 0.250000 0.500000
O O17 0.285724 0.387636 0.750000
O O18 0.107703 0.250000 0.500000
O O19 0.137465 0.136604 0.750000
#
# Coordination Sequence:
#
# PCOD9440632 Si02
#       6
#     8   8   8   8   8   8
#     4  11  23  39  61  88 119 155 196 242 292 347
#     4  11  23  39  60  86 117 153 194 240 291 347
#     4  10  22  39  59  85 116 151 192 238 289 345
#     4  11  24  41  63  90 121 157 197 243 293 347
#     4  10  22  39  59  86 117 151 193 239 289 345
#     4  11  24  41  62  89 121 157 197 242 292 347
#
# _framework density 19.753086
#
# number of rings (size 3 to 8) (size 9 to 14) (size 15 to 20)
#    0.000    1.333    0.000    5.000    0.000   11.333 
#    0.000    0.000    0.000    0.000    0.000    0.000 
#    0.000    0.000    0.000    0.000    0.000    0.000 
#
# Total GULP energy -268351.830897 kJ/mol
# GULP energy per Si atom -5590.663144 kJ/mol
# Density = 1.970813 g / cm^3
# Si number density = 19.753086 Si / 1000 Ang^3
#
#
#
# Elastic Constant Matrix: (Units=GPa)
#
#
# Indices 1 2 3 4 5 6 
#
# 1 50.2346 -9.8961 41.1246 0.0000 0.0000 0.0000
# 2 -9.8961 95.7036 33.8496 0.0000 0.0000 0.0000
# 3 41.1246 33.8496 43.5391 0.0000 0.0000 0.0000
# 4 0.0000 0.0000 0.0000 35.5272 0.0000 0.0000
# 5 0.0000 0.0000 0.0000 0.0000 21.1491 0.0000
# 6 0.0000 0.0000 0.0000 0.0000 0.0000 26.7216
#
#
#
# Elastic Compliance Matrix: (Units=1/GPa)
#
#
# Indices 1 2 3 4 5 6 
#
# 1 -0.072081 -0.043494 0.101899 0.000000 0.000000 0.000000
# 2 -0.043494 -0.011833 0.050282 0.000000 0.000000 0.000000
# 3 0.101899 0.050282 -0.112372 0.000000 0.000000 0.000000
# 4 0.000000 0.000000 0.000000 0.028147 0.000000 0.000000
# 5 0.000000 0.000000 0.000000 0.000000 0.047283 0.000000
# 6 0.000000 0.000000 0.000000 0.000000 0.000000 0.037423
#
#
# Mechanical properties :
#
#
# Convention : Reuss Voigt Hill
#
# Bulk Modulus (GPa) = 47.42336 35.51485 41.46911
# Shear Modulus (GPa) = -17.01976 24.97285 3.97654
#
# Velocity S-wave (km/s) = -2.93853 3.55949 1.42039
# Velocity P-wave (km/s) = 3.54216 5.90861 4.87127
#
# Compressibility (1/GPa) = 0.02108665
#
# Stress axis : x y z
#
# Youngs Moduli (GPa) = -13.87324 -84.51081 -8.89901
#
# Poissons Ratio (x) = -3.67574 0.90680
# Poissons Ratio (y) = -0.60341 0.44746
# Poissons Ratio (z) = 1.41367 4.24936
#
# Static dielectric constant tensor:
#      x y z
#    x 1.663270 0.000000 0.000000 
#    y 0.000000 1.630860 0.000000 
#    z 0.000000 0.000000 1.720570 
# 
# From -- ./inp_files/10002.got.cif
#   From: 2010.05.17/outbox.ucp.g08.bks.cvg/sg57_6_cif.got.tgz:10002.got - 2010.06.11 16:39:23.
