data_PCOD9440156
_publ_section_title
;
Structure prediction by ZEFSAII (Michael W. Deem and Ramdas Pophale) SiO2 
 PCOD9440156
Probable space group: P B C M
;
_chemical_formula_sum "Si O2"
_cell_formula_units_Z 64
_cell_length_a 15.150523
_cell_length_b 24.202940
_cell_length_c 8.657303
_cell_angle_alpha 90.000000
_cell_angle_beta 90.000000
_cell_angle_gamma 90.000000
_cell_volume 3174.522189
_symmetry_space_group_name_H-M "P B C M"
_symmetry_group_IT_number 57
_symmetry_cell_setting 'orthorhombic'
loop_
_space_group_symop_operation_xyz
x,y,z
-x,-y,1/2+z
x,1/2-y,-z
-x,1/2+y,1/2-z
-x,-y,-z
x,y,1/2-z
-x,1/2+y,z
x,1/2-y,1/2+z
loop_
_atom_site_type_symbol
_atom_site_label
_atom_site_fract_x
_atom_site_fract_y
_atom_site_fract_z
Si Si1 0.901175 0.006280 0.435224
Si Si2 0.003406 0.689137 0.565897
Si Si3 0.853992 0.608687 0.066078
Si Si4 0.350626 0.604085 0.936745
Si Si5 0.550767 0.626192 0.934534
Si Si6 0.596465 0.514465 0.434677
Si Si7 0.288025 0.308677 0.434471
Si Si8 0.167590 0.628602 0.434678
O O1 0.902899 0.003566 0.250000
O O2 0.849817 0.953209 0.499893
O O3 0.862905 0.066206 0.479230
O O4 0.000000 0.000000 0.500000
O O5 0.982447 0.750000 0.500000
O O6 0.994231 0.689808 0.750000
O O7 0.101727 0.671212 0.516026
O O8 0.939138 0.642102 0.496784
O O9 0.859007 0.605636 0.250000
O O10 0.772171 0.645033 0.011189
O O11 0.345541 0.608593 0.750000
O O12 0.448848 0.623846 0.987392
O O13 0.345276 0.538544 0.978155
O O14 0.268790 0.634547 0.013403
O O15 0.546785 0.619612 0.750000
O O16 0.609149 0.679369 0.971332
O O17 0.608255 0.574969 0.998065
O O18 0.500000 0.500000 0.500000
O O19 0.595043 0.517204 0.250000
O O20 0.260526 0.250000 0.500000
O O21 0.276777 0.310567 0.250000
O O22 0.159317 0.633977 0.250000
#
# Coordination Sequence:
#
# PCOD9440156 Si02
#       8
#     8   8   8   8   8   8   8   8
#     4  11  23  40  63  93 130 169 209 255 313 375
#     4  12  25  44  69  92 122 161 206 256 309 366
#     4  12  25  42  65  94 128 164 208 255 311 377
#     4   9  19  36  57  85 120 161 202 248 307 364
#     4   9  20  38  59  83 116 156 203 255 305 361
#     4   9  17  30  51  80 113 149 192 240 294 355
#     4  11  24  43  64  90 123 161 210 263 319 377
#     4  11  24  40  61  93 130 167 210 257 308 370
#
# _framework density 20.160513000000002
#
# number of rings (size 3 to 8) (size 9 to 14) (size 15 to 20)
#    0.000    1.500    1.250    4.875    1.750    5.000 
#    0.000    0.625    0.000    1.500    0.000    0.000 
#    0.000    0.000    0.000    0.000    0.000    0.000 
#
# Total GULP energy -357549.814076 kJ/mol
# GULP energy per Si atom -5586.715845 kJ/mol
# Density = 2.011463 g / cm^3
# Si number density = 20.160513 Si / 1000 Ang^3
#
#
#
# Elastic Constant Matrix: (Units=GPa)
#
#
# Indices 1 2 3 4 5 6 
#
# 1 82.6401 4.8922 17.7536 0.0000 0.0000 0.0000
# 2 4.8922 66.9201 20.9995 0.0000 0.0000 0.0000
# 3 17.7536 20.9995 56.1957 0.0000 0.0000 0.0000
# 4 0.0000 0.0000 0.0000 30.5042 0.0000 0.0000
# 5 0.0000 0.0000 0.0000 0.0000 23.5598 0.0000
# 6 0.0000 0.0000 0.0000 0.0000 0.0000 26.7306
#
#
#
# Elastic Compliance Matrix: (Units=1/GPa)
#
#
# Indices 1 2 3 4 5 6 
#
# 1 0.012990 0.000383 -0.004247 0.000000 0.000000 0.000000
# 2 0.000383 0.016940 -0.006451 0.000000 0.000000 0.000000
# 3 -0.004247 -0.006451 0.021547 0.000000 0.000000 0.000000
# 4 0.000000 0.000000 0.000000 0.032782 0.000000 0.000000
# 5 0.000000 0.000000 0.000000 0.000000 0.042445 0.000000
# 6 0.000000 0.000000 0.000000 0.000000 0.000000 0.037410
#
#
# Mechanical properties :
#
#
# Convention : Reuss Voigt Hill
#
# Bulk Modulus (GPa) = 32.41798 32.56071 32.48935
# Shear Modulus (GPa) = 25.63738 26.96630 26.30184
#
# Velocity S-wave (km/s) = 3.56991 3.66126 3.61587
# Velocity P-wave (km/s) = 5.75388 5.83600 5.79509
#
# Compressibility (1/GPa) = 0.03084708
#
# Stress axis : x y z
#
# Youngs Moduli (GPa) = 76.97992 59.03354 46.40936
#
# Poissons Ratio (x) = -0.02261 0.19711
# Poissons Ratio (y) = -0.02949 0.29939
# Poissons Ratio (z) = 0.32694 0.38083
#
# Static dielectric constant tensor:
#      x y z
#    x 1.730960 0.000000 0.000000 
#    y 0.000000 1.719530 0.000000 
#    z 0.000000 0.000000 1.670000 
# 
# From -- ./inp_files/5566.got.cif
#   From: 2010.05.17/outbox.cif.g08.bks.cpg/sg57_3_cif.got.tgz:5566.got - 2010.06.03 13:58:18.
