data_PCOD9440771
_publ_section_title
;
Structure prediction by ZEFSAII (Michael W. Deem and Ramdas Pophale) SiO2 
 PCOD9440771
Probable space group: P N N M
;
_chemical_formula_sum "Si O2"
_cell_formula_units_Z 60
_cell_length_a 5.380712
_cell_length_b 20.102151
_cell_length_c 38.980782
_cell_angle_alpha 90.000000
_cell_angle_beta 90.000000
_cell_angle_gamma 90.000000
_cell_volume 4216.312826
_symmetry_space_group_name_H-M "P N N M"
_symmetry_group_IT_number 58
_symmetry_cell_setting 'orthorhombic'
loop_
_space_group_symop_operation_xyz
x,y,z
-x,-y,z
1/2+x,1/2-y,1/2-z
1/2-x,1/2+y,1/2-z
-x,-y,-z
x,y,-z
1/2-x,1/2+y,1/2+z
1/2+x,1/2-y,1/2+z
loop_
_atom_site_type_symbol
_atom_site_label
_atom_site_fract_x
_atom_site_fract_y
_atom_site_fract_z
Si Si1 0.819496 0.785496 0.261334
Si Si2 0.364410 0.755282 0.837644
Si Si3 0.173444 0.113903 0.795906
Si Si4 0.500000 0.500000 0.373635
Si Si5 0.321793 0.915003 0.178296
Si Si6 0.094721 0.114595 0.078234
Si Si7 0.867536 0.782589 0.139126
Si Si8 0.924921 0.577972 0.459551
O O1 0.567047 0.743240 0.256860
O O2 0.883955 0.781524 0.301317
O O3 0.764464 0.852154 0.240106
O O4 0.347568 0.836336 0.832050
O O5 0.606738 0.745235 0.860321
O O6 0.105299 0.737204 0.854762
O O7 0.403105 0.068880 0.808253
O O8 0.150123 0.168976 0.826818
O O9 0.901325 0.082054 0.794194
O O10 0.700578 0.542675 0.352267
O O11 0.644704 0.448138 0.396977
O O12 0.090294 0.175504 0.104754
O O13 0.330625 0.117676 0.053097
O O14 0.828340 0.099062 0.060331
O O15 0.881370 0.587721 0.500000
O O16 0.000000 0.500000 0.454924
#
# Coordination Sequence:
#
# PCOD9440771 Si02
#       8
#     8   8   8   4   8   8   8   8
#     4  12  16  25  42  54  71 101 114 134 171 194
#     4  10  17  28  38  56  76  91 115 141 161 205
#     4  10  18  29  37  55  74  91 115 142 160 200
#     4  12  22  30  43  60  72  98 116 140 190 228
#     4  10  20  28  37  50  78  88 115 143 164 206
#     4  12  22  32  48  58  72  93 115 140 189 231
#     4  10  18  28  40  56  76  87 109 141 166 207
#     4  11  23  36  46  58  70  85 113 150 181 224
#
# _framework density 14.230442
#
# number of rings (size 3 to 8) (size 9 to 14) (size 15 to 20)
#    0.000    1.200    9.333    1.200    1.867    2.667 
#    0.000    0.000    0.000    0.000    0.000    0.000 
#    0.000    0.000    0.000    0.000    0.000    0.000 
#
# Total GULP energy -334103.203156 kJ/mol
# GULP energy per Si atom -5568.386719 kJ/mol
# Density = 1.419805 g / cm^3
# Si number density = 14.230442 Si / 1000 Ang^3
#
#
#
# Elastic Constant Matrix: (Units=GPa)
#
#
# Indices 1 2 3 4 5 6 
#
# 1 124.5248 5.3492 29.1600 0.0000 0.0000 0.0000
# 2 5.3492 8.0773 17.8265 0.0000 0.0000 0.0000
# 3 29.1600 17.8265 77.0499 0.0000 0.0000 0.0000
# 4 0.0000 0.0000 0.0000 36.3400 0.0000 0.0000
# 5 0.0000 0.0000 0.0000 0.0000 36.9191 0.0000
# 6 0.0000 0.0000 0.0000 0.0000 0.0000 11.9199
#
#
#
# Elastic Compliance Matrix: (Units=1/GPa)
#
#
# Indices 1 2 3 4 5 6 
#
# 1 0.008850 0.003128 -0.004073 0.000000 0.000000 0.000000
# 2 0.003128 0.254084 -0.059969 0.000000 0.000000 0.000000
# 3 -0.004073 -0.059969 0.028395 0.000000 0.000000 0.000000
# 4 0.000000 0.000000 0.000000 0.027518 0.000000 0.000000
# 5 0.000000 0.000000 0.000000 0.000000 0.027086 0.000000
# 6 0.000000 0.000000 0.000000 0.000000 0.000000 0.083893
#
#
# Mechanical properties :
#
#
# Convention : Reuss Voigt Hill
#
# Bulk Modulus (GPa) = 5.89970 34.92481 20.41226
# Shear Modulus (GPa) = 8.22160 27.52356 17.87258
#
# Velocity S-wave (km/s) = 2.40625 4.40265 3.54777
# Velocity P-wave (km/s) = 3.44599 7.10211 5.58188
#
# Compressibility (1/GPa) = 0.16950020
#
# Stress axis : x y z
#
# Youngs Moduli (GPa) = 112.99507 3.93571 35.21773
#
# Poissons Ratio (x) = -0.01231 0.14345
# Poissons Ratio (y) = -0.35350 2.11199
# Poissons Ratio (z) = 0.46024 0.23602
#
# Static dielectric constant tensor:
#      x y z
#    x 1.391620 0.000000 0.000000 
#    y 0.000000 1.579390 0.000000 
#    z 0.000000 0.000000 1.485110 
# 
# From -- ./inp_files/34315.got.cif
#   From: 2010.05.17/outbox.cif.g08.bks.cpg/sg58_18_cif.got.tgz:34315.got - 2010.06.03 14:20:14.
