data_PCOD9440956
_publ_section_title
;
Structure prediction by ZEFSAII (Michael W. Deem and Ramdas Pophale) SiO2 
 PCOD9440956
Probable space group: P N N M
;
_chemical_formula_sum "Si O2"
_cell_formula_units_Z 48
_cell_length_a 5.031613
_cell_length_b 25.722769
_cell_length_c 15.688188
_cell_angle_alpha 90.000000
_cell_angle_beta 90.000000
_cell_angle_gamma 90.000000
_cell_volume 2030.475405
_symmetry_space_group_name_H-M "P N N M"
_symmetry_group_IT_number 58
_symmetry_cell_setting 'orthorhombic'
loop_
_space_group_symop_operation_xyz
x,y,z
-x,-y,z
1/2+x,1/2-y,1/2-z
1/2-x,1/2+y,1/2-z
-x,-y,-z
x,y,-z
1/2-x,1/2+y,1/2+z
1/2+x,1/2-y,1/2+z
loop_
_atom_site_type_symbol
_atom_site_label
_atom_site_fract_x
_atom_site_fract_y
_atom_site_fract_z
Si Si1 0.355555 0.073270 0.703913
Si Si2 0.669836 0.594151 0.900941
Si Si3 0.799863 0.210776 0.650693
Si Si4 0.583541 0.118440 0.861901
Si Si5 0.615127 0.448608 0.368242
Si Si6 0.203250 0.774243 0.856118
O O1 0.612267 0.060120 0.649032
O O2 0.445316 0.120534 0.767837
O O3 0.114852 0.087618 0.642959
O O4 0.244041 0.035189 0.776949
O O5 0.756119 0.654173 0.886764
O O6 0.660529 0.581517 0.000000
O O7 0.797857 0.212888 0.754280
O O8 0.094944 0.227776 0.625854
O O9 0.588349 0.254238 0.621153
O O10 0.859928 0.087657 0.853684
O O11 0.670334 0.174033 0.895891
O O12 0.356985 0.084315 0.908143
O O13 0.500000 0.500000 0.409958
#
# Coordination Sequence:
#
# PCOD9440956 Si02
#       6
#     8   8   8   8   8   8
#     4  10  19  33  48  64  89 114 162 191 238 273
#     4  12  22  34  48  66  92 124 164 200 232 273
#     4  10  19  28  44  67  87 118 147 183 238 260
#     4  10  18  30  48  68  93 113 151 186 236 284
#     4  10  18  30  51  70  90 115 151 194 235 298
#     4  10  18  28  47  65  93 110 143 194 221 284
#
# _framework density 23.639780999999999
#
# number of rings (size 3 to 8) (size 9 to 14) (size 15 to 20)
#    1.000    0.667    3.333    3.000    4.667    0.000 
#    0.000    0.000    0.000    3.000    0.000    0.000 
#    0.000    0.000    0.000    0.000    0.000   58.333 
#
# Total GULP energy -267863.772572 kJ/mol
# GULP energy per Si atom -5580.495262 kJ/mol
# Density = 2.358598 g / cm^3
# Si number density = 23.639781 Si / 1000 Ang^3
#
#
#
# Elastic Constant Matrix: (Units=GPa)
#
#
# Indices 1 2 3 4 5 6 
#
# 1 157.0280 13.6508 33.5272 0.0000 0.0000 0.0000
# 2 13.6508 43.5842 5.2497 0.0000 0.0000 0.0000
# 3 33.5272 5.2497 119.9726 0.0000 0.0000 0.0000
# 4 0.0000 0.0000 0.0000 -66.5853 0.0000 0.0000
# 5 0.0000 0.0000 0.0000 0.0000 -141.7056 0.0000
# 6 0.0000 0.0000 0.0000 0.0000 0.0000 35.2854
#
#
#
# Elastic Compliance Matrix: (Units=1/GPa)
#
#
# Indices 1 2 3 4 5 6 
#
# 1 0.006933 -0.001948 -0.001852 0.000000 0.000000 0.000000
# 2 -0.001948 0.023613 -0.000489 0.000000 0.000000 0.000000
# 3 -0.001852 -0.000489 0.008874 0.000000 0.000000 0.000000
# 4 0.000000 0.000000 0.000000 -0.015018 0.000000 0.000000
# 5 0.000000 0.000000 0.000000 0.000000 -0.007057 0.000000
# 6 0.000000 0.000000 0.000000 0.000000 0.000000 0.028340
#
#
# Mechanical properties :
#
#
# Convention : Reuss Voigt Hill
#
# Bulk Modulus (GPa) = 32.42356 47.27113 39.84734
# Shear Modulus (GPa) = 77.46517 -16.72395 30.37061
#
# Velocity S-wave (km/s) = 5.73063 -2.66268 3.58819
# Velocity P-wave (km/s) = 7.58500 3.25372 5.83605
#
# Compressibility (1/GPa) = 0.03084177
#
# Stress axis : x y z
#
# Youngs Moduli (GPa) = 144.23467 42.34919 112.68555
#
# Poissons Ratio (x) = 0.08251 0.20872
# Poissons Ratio (y) = 0.28102 0.05508
# Poissons Ratio (z) = 0.26716 0.02070
#
# Static dielectric constant tensor:
#      x y z
#    x 1.852870 0.000000 0.000000 
#    y 0.000000 1.926180 0.000000 
#    z 0.000000 0.000000 1.911070 
# 
# From -- ./inp_files/28218.got.cif
#   From: 2010.05.17/outbox.cif.g08.bks.cpg/sg58_15_cif.got.tgz:28218.got - 2010.06.03 14:20:14.
