data_PCOD9440322
_publ_section_title
;
Structure prediction by ZEFSAII (Michael W. Deem and Ramdas Pophale) SiO2 
 PCOD9440322
Probable space group: P B C M
;
_chemical_formula_sum "Si O2"
_cell_formula_units_Z 40
_cell_length_a 7.722997
_cell_length_b 9.957483
_cell_length_c 24.581203
_cell_angle_alpha 90.000000
_cell_angle_beta 90.000000
_cell_angle_gamma 90.000000
_cell_volume 1890.334119
_symmetry_space_group_name_H-M "P B C M"
_symmetry_group_IT_number 57
_symmetry_cell_setting 'orthorhombic'
loop_
_space_group_symop_operation_xyz
x,y,z
-x,-y,1/2+z
x,1/2-y,-z
-x,1/2+y,1/2-z
-x,-y,-z
x,y,1/2-z
-x,1/2+y,z
x,1/2-y,1/2+z
loop_
_atom_site_type_symbol
_atom_site_label
_atom_site_fract_x
_atom_site_fract_y
_atom_site_fract_z
Si Si1 0.394233 0.126048 0.515529
Si Si2 0.389994 0.827812 0.814835
Si Si3 0.318141 0.372143 0.358002
Si Si4 0.067429 0.801710 0.125739
Si Si5 0.078698 0.063986 0.054385
O O1 0.516130 0.250000 0.500000
O O2 0.331180 0.113195 0.576762
O O3 0.247404 0.135895 0.469256
O O4 0.500000 0.000000 0.500000
O O5 0.402530 0.824089 0.750000
O O6 0.553641 0.746976 0.839548
O O7 0.219320 0.748368 0.835226
O O8 0.372749 0.983621 0.833332
O O9 0.118380 0.332992 0.346213
O O10 0.033681 0.678246 0.083834
O O11 0.115822 0.939903 0.094717
O O12 0.000000 0.000000 0.000000
#
# Coordination Sequence:
#
# PCOD9440322 Si02
#       5
#     8   8   8   8   8
#     4  12  23  39  67 105 146 187 227 277 359 436
#     4  12  29  50  74 103 138 193 252 312 366 411
#     4  12  26  48  74 106 147 185 246 301 355 441
#     4  12  25  47  73 106 147 189 242 295 363 433
#     4  12  22  43  68 103 148 189 225 282 353 442
#
# _framework density 21.160278999999999
#
# number of rings (size 3 to 8) (size 9 to 14) (size 15 to 20)
#    0.000    0.000    6.000    3.600    2.800    3.200 
#    0.000    0.000    0.000    0.000    0.000    0.000 
#    0.000    0.000    0.000    0.000    0.000    0.000 
#
# Total GULP energy -223616.528067 kJ/mol
# GULP energy per Si atom -5590.413202 kJ/mol
# Density = 2.111212 g / cm^3
# Si number density = 21.160279 Si / 1000 Ang^3
#
#
#
# Elastic Constant Matrix: (Units=GPa)
#
#
# Indices 1 2 3 4 5 6 
#
# 1 86.4027 27.1211 40.8919 0.0000 0.0000 0.0000
# 2 27.1211 154.4783 34.6111 0.0000 0.0000 0.0000
# 3 40.8919 34.6111 88.1286 0.0000 0.0000 0.0000
# 4 0.0000 0.0000 0.0000 35.2969 0.0000 0.0000
# 5 0.0000 0.0000 0.0000 0.0000 20.5856 0.0000
# 6 0.0000 0.0000 0.0000 0.0000 0.0000 35.6375
#
#
#
# Elastic Compliance Matrix: (Units=1/GPa)
#
#
# Indices 1 2 3 4 5 6 
#
# 1 0.015024 -0.001180 -0.006508 0.000000 0.000000 0.000000
# 2 -0.001180 0.007191 -0.002277 0.000000 0.000000 0.000000
# 3 -0.006508 -0.002277 0.015261 0.000000 0.000000 0.000000
# 4 0.000000 0.000000 0.000000 0.028331 0.000000 0.000000
# 5 0.000000 0.000000 0.000000 0.000000 0.048578 0.000000
# 6 0.000000 0.000000 0.000000 0.000000 0.000000 0.028060
#
#
# Mechanical properties :
#
#
# Convention : Reuss Voigt Hill
#
# Bulk Modulus (GPa) = 56.98937 59.36197 58.17567
# Shear Modulus (GPa) = 29.72268 33.39638 31.55953
#
# Velocity S-wave (km/s) = 3.75193 3.97704 3.86612
# Velocity P-wave (km/s) = 6.76461 7.01452 6.89070
#
# Compressibility (1/GPa) = 0.01754713
#
# Stress axis : x y z
#
# Youngs Moduli (GPa) = 66.56023 139.07081 65.52713
#
# Poissons Ratio (x) = 0.16405 0.42644
# Poissons Ratio (y) = 0.07851 0.14918
# Poissons Ratio (z) = 0.43317 0.31662
#
# Static dielectric constant tensor:
#      x y z
#    x 1.814020 0.000000 0.000000 
#    y 0.000000 1.911010 0.000000 
#    z 0.000000 0.000000 1.680860 
# 
# From -- ./inp_files/28249.got.cif
#   From: 2010.05.17/outbox.cif.g08.bks.cpg/sg57_15_cif.got.tgz:28249.got - 2010.06.03 13:58:18.
