data_PCOD9440334
_publ_section_title
;
Structure prediction by ZEFSAII (Michael W. Deem and Ramdas Pophale) SiO2 
 PCOD9440334
Probable space group: P B C M
;
_chemical_formula_sum "Si O2"
_cell_formula_units_Z 48
_cell_length_a 28.135137
_cell_length_b 5.040611
_cell_length_c 15.168649
_cell_angle_alpha 90.000000
_cell_angle_beta 90.000000
_cell_angle_gamma 90.000000
_cell_volume 2151.191727
_symmetry_space_group_name_H-M "P B C M"
_symmetry_group_IT_number 57
_symmetry_cell_setting 'orthorhombic'
loop_
_space_group_symop_operation_xyz
x,y,z
-x,-y,1/2+z
x,1/2-y,-z
-x,1/2+y,1/2-z
-x,-y,-z
x,y,1/2-z
-x,1/2+y,z
x,1/2-y,1/2+z
loop_
_atom_site_type_symbol
_atom_site_label
_atom_site_fract_x
_atom_site_fract_y
_atom_site_fract_z
Si Si1 0.728359 0.216301 0.604345
Si Si2 0.330633 0.295195 0.151282
Si Si3 0.471311 0.035398 0.750000
Si Si4 0.967935 0.632763 0.750000
Si Si5 0.163061 0.810426 0.148957
Si Si6 0.575973 0.987152 0.059437
Si Si7 0.105460 0.329953 0.404092
O O1 0.728023 0.250000 0.500000
O O2 0.711760 0.492498 0.646016
O O3 0.781390 0.142979 0.632897
O O4 0.690895 0.990590 0.630361
O O5 0.350928 0.292153 0.250000
O O6 0.370943 0.391543 0.084712
O O7 0.517886 0.848577 0.750000
O O8 0.447230 0.970169 0.655724
O O9 0.935683 0.593065 0.836226
O O10 0.011198 0.428016 0.750000
O O11 0.156565 0.723424 0.250000
O O12 0.142267 0.573601 0.089831
O O13 0.133764 0.077236 0.133153
O O14 0.576360 0.250000 0.000000
O O15 0.553684 0.750000 0.000000
O O16 0.086824 0.250000 0.500000
#
# Coordination Sequence:
#
# PCOD9440334 Si02
#       7
#     8   8   4   4   8   8   8
#     4  12  25  40  64 100 139 183 238 281 329 398
#     4  12  24  44  66  99 140 188 234 284 339 404
#     4  12  28  50  76 109 146 181 238 306 364 438
#     4  12  26  46  72  99 134 169 218 286 348 414
#     4  12  23  44  67  98 138 185 227 277 336 399
#     4  12  26  47  76 106 145 192 237 291 362 427
#     4  12  25  45  71 100 135 178 224 276 342 410
#
# _framework density 22.313212
#
# number of rings (size 3 to 8) (size 9 to 14) (size 15 to 20)
#    0.000    0.000    2.500    9.000    0.000    2.667 
#    0.000    0.000    0.000    0.000    0.000    0.000 
#    0.000    0.000    0.000    0.000    0.000    0.000 
#
# Total GULP energy -268949.369524 kJ/mol
# GULP energy per Si atom -5603.111865 kJ/mol
# Density = 2.226243 g / cm^3
# Si number density = 22.313212 Si / 1000 Ang^3
#
#
#
# Elastic Constant Matrix: (Units=GPa)
#
#
# Indices 1 2 3 4 5 6 
#
# 1 43.3373 -15.3277 33.2329 0.0000 0.0000 0.0000
# 2 -15.3277 85.0220 23.9695 0.0000 0.0000 0.0000
# 3 33.2329 23.9695 172.8500 0.0000 0.0000 0.0000
# 4 0.0000 0.0000 0.0000 -25.5270 0.0000 0.0000
# 5 0.0000 0.0000 0.0000 0.0000 15.6470 0.0000
# 6 0.0000 0.0000 0.0000 0.0000 0.0000 29.2781
#
#
#
# Elastic Compliance Matrix: (Units=1/GPa)
#
#
# Indices 1 2 3 4 5 6 
#
# 1 0.031169 0.007606 -0.007047 0.000000 0.000000 0.000000
# 2 0.007606 0.014096 -0.003417 0.000000 0.000000 0.000000
# 3 -0.007047 -0.003417 0.007614 0.000000 0.000000 0.000000
# 4 0.000000 0.000000 0.000000 -0.039174 0.000000 0.000000
# 5 0.000000 0.000000 0.000000 0.000000 0.063910 0.000000
# 6 0.000000 0.000000 0.000000 0.000000 0.000000 0.034155
#
#
# Mechanical properties :
#
#
# Convention : Reuss Voigt Hill
#
# Bulk Modulus (GPa) = 21.20328 42.77317 31.98823
# Shear Modulus (GPa) = 37.53505 21.16860 29.35182
#
# Velocity S-wave (km/s) = 4.10590 3.08344 3.63084
# Velocity P-wave (km/s) = 5.65695 5.64694 5.65194
#
# Compressibility (1/GPa) = 0.04716251
#
# Stress axis : x y z
#
# Youngs Moduli (GPa) = 32.08289 70.94099 131.33356
#
# Poissons Ratio (x) = -0.53958 0.92557
# Poissons Ratio (y) = -0.24402 0.44878
# Poissons Ratio (z) = 0.22610 0.24241
#
# Static dielectric constant tensor:
#      x y z
#    x 1.803040 0.000000 0.000000 
#    y 0.000000 1.764850 0.000000 
#    z 0.000000 0.000000 1.808440 
# 
# From -- ./inp_files/19609.got.cif
#   From: 2010.05.17/outbox.cif.g08.bks.cpg/sg57_10_cif.got.tgz:19609.got - 2010.06.03 13:58:18.
