data_PCOD9440734
_publ_section_title
;
Structure prediction by ZEFSAII (Michael W. Deem and Ramdas Pophale) SiO2 
 PCOD9440734
Probable space group: P N N M
;
_chemical_formula_sum "Si O2"
_cell_formula_units_Z 64
_cell_length_a 5.365926
_cell_length_b 24.388248
_cell_length_c 31.818756
_cell_angle_alpha 90.000000
_cell_angle_beta 90.000000
_cell_angle_gamma 90.000000
_cell_volume 4163.978496
_symmetry_space_group_name_H-M "P N N M"
_symmetry_group_IT_number 58
_symmetry_cell_setting 'orthorhombic'
loop_
_space_group_symop_operation_xyz
x,y,z
-x,-y,z
1/2+x,1/2-y,1/2-z
1/2-x,1/2+y,1/2-z
-x,-y,-z
x,y,-z
1/2-x,1/2+y,1/2+z
1/2+x,1/2-y,1/2+z
loop_
_atom_site_type_symbol
_atom_site_label
_atom_site_fract_x
_atom_site_fract_y
_atom_site_fract_z
Si Si1 0.347724 0.561515 0.093872
Si Si2 0.348444 0.934678 0.546922
Si Si3 0.749110 0.070865 0.282970
Si Si4 0.256946 0.049840 0.685709
Si Si5 0.624306 0.178694 0.255104
Si Si6 0.623889 0.280520 0.198420
Si Si7 0.656169 0.305724 0.100041
Si Si8 0.344572 0.802007 0.548850
O O1 0.621853 0.549734 0.076949
O O2 0.286221 0.533935 0.138145
O O3 0.341678 0.627624 0.101418
O O4 0.124578 0.550328 0.061744
O O5 0.294014 0.953342 0.500000
O O6 0.346104 0.868291 0.546538
O O7 0.518639 0.080565 0.314236
O O8 0.674114 0.113724 0.246933
O O9 0.021565 0.084419 0.299614
O O10 0.744599 0.004047 0.283892
O O11 0.634688 0.217455 0.214498
O O12 0.359922 0.190623 0.278047
O O13 0.855742 0.197402 0.284890
O O14 0.647753 0.286411 0.148376
O O15 0.408925 0.287960 0.074083
O O16 0.905931 0.287393 0.075069
O O17 0.346789 0.782608 0.500000
#
# Coordination Sequence:
#
# PCOD9440734 Si02
#       8
#     8   8   8   8   8   8   8   8
#     4  10  17  26  41  59  79 100 127 172 212 243
#     4   9  17  27  39  57  78 101 129 161 210 264
#     4  10  19  32  46  62  83 105 129 170 208 245
#     4  10  20  30  45  67  82 101 137 173 210 248
#     4  10  19  32  46  62  90 114 138 172 215 259
#     4  10  20  30  45  67  86 114 142 169 211 261
#     4  10  17  26  41  59  83 109 139 175 211 253
#     4   9  17  27  39  57  82 110 137 172 213 253
#
# _framework density 15.369916999999999
#
# number of rings (size 3 to 8) (size 9 to 14) (size 15 to 20)
#    0.000    2.250    0.000    4.500    0.000    5.000 
#    0.000    0.000    0.000    0.000    0.000   35.000 
#    0.000   20.000    0.000    0.000    0.000    0.000 
#
# Total GULP energy -356468.975995 kJ/mol
# GULP energy per Si atom -5569.827750 kJ/mol
# Density = 1.533493 g / cm^3
# Si number density = 15.369917 Si / 1000 Ang^3
#
#
#
# Elastic Constant Matrix: (Units=GPa)
#
#
# Indices 1 2 3 4 5 6 
#
# 1 135.0381 13.7699 39.1091 0.0000 0.0000 0.0000
# 2 13.7699 42.9384 30.2179 0.0000 0.0000 0.0000
# 3 39.1091 30.2179 84.9021 0.0000 0.0000 0.0000
# 4 0.0000 0.0000 0.0000 9.5702 0.0000 0.0000
# 5 0.0000 0.0000 0.0000 0.0000 19.7611 0.0000
# 6 0.0000 0.0000 0.0000 0.0000 0.0000 14.0434
#
#
#
# Elastic Compliance Matrix: (Units=1/GPa)
#
#
# Indices 1 2 3 4 5 6 
#
# 1 0.008545 0.000040 -0.003950 0.000000 0.000000 0.000000
# 2 0.000040 0.031072 -0.011077 0.000000 0.000000 0.000000
# 3 -0.003950 -0.011077 0.017541 0.000000 0.000000 0.000000
# 4 0.000000 0.000000 0.000000 0.104491 0.000000 0.000000
# 5 0.000000 0.000000 0.000000 0.000000 0.050604 0.000000
# 6 0.000000 0.000000 0.000000 0.000000 0.000000 0.071208
#
#
# Mechanical properties :
#
#
# Convention : Reuss Voigt Hill
#
# Bulk Modulus (GPa) = 36.78909 47.67469 42.23189
# Shear Modulus (GPa) = 15.50398 20.66040 18.08219
#
# Velocity S-wave (km/s) = 3.17948 3.67032 3.43369
# Velocity P-wave (km/s) = 6.12099 7.00337 6.57700
#
# Compressibility (1/GPa) = 0.02718197
#
# Stress axis : x y z
#
# Youngs Moduli (GPa) = 117.02229 32.18322 57.01067
#
# Poissons Ratio (x) = -0.00128 0.22522
# Poissons Ratio (y) = -0.00465 0.63152
# Poissons Ratio (z) = 0.46229 0.35650
#
# Static dielectric constant tensor:
#      x y z
#    x 1.612980 0.000000 0.000000 
#    y 0.000000 1.596010 0.000000 
#    z 0.000000 0.000000 1.494430 
# 
# From -- ./inp_files/33012.got.cif
#   From: 2010.05.17/outbox.cif.g08.bks.cpg/sg58_17_cif.got.tgz:33012.got - 2010.06.03 14:20:14.
