data_PCOD9440160
_publ_section_title
;
Structure prediction by ZEFSAII (Michael W. Deem and Ramdas Pophale) SiO2 
 PCOD9440160
Probable space group: P B C M
;
_chemical_formula_sum "Si O2"
_cell_formula_units_Z 48
_cell_length_a 15.289955
_cell_length_b 19.319060
_cell_length_c 8.734470
_cell_angle_alpha 90.000000
_cell_angle_beta 90.000000
_cell_angle_gamma 90.000000
_cell_volume 2580.053764
_symmetry_space_group_name_H-M "P B C M"
_symmetry_group_IT_number 57
_symmetry_cell_setting 'orthorhombic'
loop_
_space_group_symop_operation_xyz
x,y,z
-x,-y,1/2+z
x,1/2-y,-z
-x,1/2+y,1/2-z
-x,-y,-z
x,y,1/2-z
-x,1/2+y,z
x,1/2-y,1/2+z
loop_
_atom_site_type_symbol
_atom_site_label
_atom_site_fract_x
_atom_site_fract_y
_atom_site_fract_z
Si Si1 0.629258 0.326659 0.933048
Si Si2 0.276725 0.077734 0.932801
Si Si3 0.023011 0.575229 0.567406
Si Si4 0.227237 0.571643 0.567745
Si Si5 0.467252 0.426866 0.933256
Si Si6 0.875616 0.826958 0.932993
O O1 0.640026 0.324220 0.750000
O O2 0.540865 0.369608 0.966396
O O3 0.624687 0.250000 0.000000
O O4 0.709149 0.369221 0.005851
O O5 0.273507 0.081943 0.750000
O O6 0.374441 0.091121 0.992662
O O7 0.207857 0.130690 0.005431
O O8 0.250739 0.000462 0.986053
O O9 0.007601 0.574772 0.750000
O O10 0.125555 0.588507 0.540061
O O11 0.000000 0.500000 0.500000
O O12 0.960808 0.631512 0.490088
O O13 0.239568 0.562721 0.750000
O O14 0.457776 0.433060 0.750000
O O15 0.500000 0.500000 0.000000
O O16 0.873865 0.825204 0.750000
O O17 0.875547 0.750000 0.000000
#
# Coordination Sequence:
#
# PCOD9440160 Si02
#       6
#     8   8   8   8   8   8
#     4  11  25  43  65  94 130 170 212 265 325 382
#     4  12  24  40  66  97 130 170 217 266 322 387
#     4  11  23  40  66  98 130 170 216 265 320 381
#     4  11  23  40  66  96 129 169 216 265 318 381
#     4  11  23  40  65  96 129 169 218 266 320 382
#     4  12  26  45  67  95 132 172 215 271 330 388
#
# _framework density 18.604264000000001
#
# number of rings (size 3 to 8) (size 9 to 14) (size 15 to 20)
#    0.000    0.667    3.333    5.000    0.000    5.333 
#    0.000    1.667    0.000    0.000    0.000    0.000 
#    0.000    0.000    0.000    0.000    0.000    0.000 
#
# Total GULP energy -268662.278849 kJ/mol
# GULP energy per Si atom -5597.130809 kJ/mol
# Density = 1.856192 g / cm^3
# Si number density = 18.604264 Si / 1000 Ang^3
#
#
#
# Elastic Constant Matrix: (Units=GPa)
#
#
# Indices 1 2 3 4 5 6 
#
# 1 176.3035 98.5786 117.4937 0.0000 0.0000 0.0000
# 2 98.5786 182.2111 94.7898 0.0000 0.0000 0.0000
# 3 117.4937 94.7898 162.1588 0.0000 0.0000 0.0000
# 4 0.0000 0.0000 0.0000 38.5536 0.0000 0.0000
# 5 0.0000 0.0000 0.0000 0.0000 34.4429 0.0000
# 6 0.0000 0.0000 0.0000 0.0000 0.0000 31.4519
#
#
#
# Elastic Compliance Matrix: (Units=1/GPa)
#
#
# Indices 1 2 3 4 5 6 
#
# 1 0.011887 -0.002803 -0.006975 0.000000 0.000000 0.000000
# 2 -0.002803 0.008547 -0.002965 0.000000 0.000000 0.000000
# 3 -0.006975 -0.002965 0.012954 0.000000 0.000000 0.000000
# 4 0.000000 0.000000 0.000000 0.025938 0.000000 0.000000
# 5 0.000000 0.000000 0.000000 0.000000 0.029034 0.000000
# 6 0.000000 0.000000 0.000000 0.000000 0.000000 0.031795
#
#
# Mechanical properties :
#
#
# Convention : Reuss Voigt Hill
#
# Bulk Modulus (GPa) = 126.54338 126.93306 126.73822
# Shear Modulus (GPa) = 33.72124 34.87711 34.29917
#
# Velocity S-wave (km/s) = 4.26203 4.33446 4.29840
# Velocity P-wave (km/s) = 9.61176 9.66572 9.63878
#
# Compressibility (1/GPa) = 0.00790243
#
# Stress axis : x y z
#
# Youngs Moduli (GPa) = 84.12294 116.99751 77.19728
#
# Poissons Ratio (x) = 0.32793 0.53843
# Poissons Ratio (y) = 0.23578 0.22892
# Poissons Ratio (z) = 0.58673 0.34695
#
# Static dielectric constant tensor:
#      x y z
#    x 1.630970 0.000000 0.000000 
#    y 0.000000 1.595090 0.000000 
#    z 0.000000 0.000000 1.622100 
# 
# From -- ./inp_files/4711.got.cif
#   From: 2010.05.17/outbox.cif.g08.bks.cpg/sg57_3_cif.got.tgz:4711.got - 2010.06.03 13:58:18.
