data_PCOD9440958
_publ_section_title
;
Structure prediction by ZEFSAII (Michael W. Deem and Ramdas Pophale) SiO2 
 PCOD9440958
Probable space group: P N N M
;
_chemical_formula_sum "Si O2"
_cell_formula_units_Z 48
_cell_length_a 14.252724
_cell_length_b 24.604744
_cell_length_c 8.367797
_cell_angle_alpha 90.000000
_cell_angle_beta 90.000000
_cell_angle_gamma 90.000000
_cell_volume 2934.457756
_symmetry_space_group_name_H-M "P N N M"
_symmetry_group_IT_number 58
_symmetry_cell_setting 'orthorhombic'
loop_
_space_group_symop_operation_xyz
x,y,z
-x,-y,z
1/2+x,1/2-y,1/2-z
1/2-x,1/2+y,1/2-z
-x,-y,-z
x,y,-z
1/2-x,1/2+y,1/2+z
1/2+x,1/2-y,1/2+z
loop_
_atom_site_type_symbol
_atom_site_label
_atom_site_fract_x
_atom_site_fract_y
_atom_site_fract_z
Si Si1 0.398122 0.938698 0.691099
Si Si2 0.390093 0.057645 0.808980
Si Si3 0.891761 0.227143 0.191405
Si Si4 0.287157 0.165538 0.806788
Si Si5 0.603780 0.274726 0.305413
Si Si6 0.786213 0.666448 0.192875
O O1 0.407953 0.935231 0.500000
O O2 0.501464 0.931110 0.764932
O O3 0.328508 0.891010 0.745349
O O4 0.365358 0.999135 0.736252
O O5 0.326639 0.107761 0.751207
O O6 0.382719 0.053674 0.000000
O O7 0.853990 0.285137 0.253222
O O8 0.816244 0.182426 0.245194
O O9 0.997657 0.216945 0.249921
O O10 0.892968 0.229072 0.000000
O O11 0.182078 0.181668 0.753586
O O12 0.287445 0.164979 0.000000
O O13 0.602380 0.275602 0.500000
O O14 0.644105 0.215595 0.258243
O O15 0.782605 0.666783 0.000000
#
# Coordination Sequence:
#
# PCOD9440958 Si02
#       6
#     8   8   8   8   8   8
#     4  10  19  31  48  67  92 125 153 182 226 277
#     4  10  19  30  47  70  94 119 151 192 228 263
#     4  10  18  28  47  71  91 114 149 190 223 261
#     4   9  18  32  47  64  92 125 149 177 224 274
#     4   8  15  29  46  64  88 117 147 178 218 267
#     4   9  18  32  47  64  91 124 151 179 223 274
#
# _framework density 16.357365000000001
#
# number of rings (size 3 to 8) (size 9 to 14) (size 15 to 20)
#    0.000    2.667    0.000    4.500    0.000    4.000 
#    0.000    8.333    0.000    1.000    0.000    7.000 
#    0.000    0.000    0.000    0.000    0.000    0.000 
#
# Total GULP energy -267571.628363 kJ/mol
# GULP energy per Si atom -5574.408924 kJ/mol
# Density = 1.632014 g / cm^3
# Si number density = 16.357365 Si / 1000 Ang^3
#
#
#
# Elastic Constant Matrix: (Units=GPa)
#
#
# Indices 1 2 3 4 5 6 
#
# 1 139.4990 83.2837 6.7786 0.0000 0.0000 0.0000
# 2 83.2837 123.1678 3.8825 0.0000 0.0000 0.0000
# 3 6.7786 3.8825 10.4746 0.0000 0.0000 0.0000
# 4 0.0000 0.0000 0.0000 -5.7794 0.0000 0.0000
# 5 0.0000 0.0000 0.0000 0.0000 17.4899 0.0000
# 6 0.0000 0.0000 0.0000 0.0000 0.0000 24.6236
#
#
#
# Elastic Compliance Matrix: (Units=1/GPa)
#
#
# Indices 1 2 3 4 5 6 
#
# 1 0.012267 -0.008140 -0.004922 0.000000 0.000000 0.000000
# 2 -0.008140 0.013616 0.000221 0.000000 0.000000 0.000000
# 3 -0.004922 0.000221 0.098572 0.000000 0.000000 0.000000
# 4 0.000000 0.000000 0.000000 -0.173029 0.000000 0.000000
# 5 0.000000 0.000000 0.000000 0.000000 0.057176 0.000000
# 6 0.000000 0.000000 0.000000 0.000000 0.000000 0.040612
#
#
# Mechanical properties :
#
#
# Convention : Reuss Voigt Hill
#
# Bulk Modulus (GPa) = 10.12415 51.22568 30.67491
# Shear Modulus (GPa) = 46.37400 19.21326 32.79363
#
# Velocity S-wave (km/s) = 5.33030 3.43095 4.48238
# Velocity P-wave (km/s) = 6.63970 6.86147 6.75150
#
# Compressibility (1/GPa) = 0.09877375
#
# Stress axis : x y z
#
# Youngs Moduli (GPa) = 81.51788 73.44313 10.14488
#
# Poissons Ratio (x) = 0.59781 0.04993
# Poissons Ratio (y) = 0.66353 -0.00224
# Poissons Ratio (z) = 0.40120 -0.01621
#
# Static dielectric constant tensor:
#      x y z
#    x 1.545870 0.000000 0.000000 
#    y 0.000000 1.544690 0.000000 
#    z 0.000000 0.000000 1.567180 
# 
# From -- ./inp_files/6545.got.cif
#   From: 2010.05.17/outbox.cif.g08.bks.cpg/sg58_4_cif.got.tgz:6545.got - 2010.06.03 14:20:14.
