data_PCOD9440002
_publ_section_title
;
Structure prediction by ZEFSAII (Michael W. Deem and Ramdas Pophale) SiO2 
 PCOD9440002
Probable space group: P B C M
;
_chemical_formula_sum "Si O2"
_cell_formula_units_Z 48
_cell_length_a 5.124365
_cell_length_b 29.018791
_cell_length_c 14.483785
_cell_angle_alpha 90.000000
_cell_angle_beta 90.000000
_cell_angle_gamma 90.000000
_cell_volume 2153.780499
_symmetry_space_group_name_H-M "P B C M"
_symmetry_group_IT_number 57
_symmetry_cell_setting 'orthorhombic'
loop_
_space_group_symop_operation_xyz
x,y,z
-x,-y,1/2+z
x,1/2-y,-z
-x,1/2+y,1/2-z
-x,-y,-z
x,y,1/2-z
-x,1/2+y,z
x,1/2-y,1/2+z
loop_
_atom_site_type_symbol
_atom_site_label
_atom_site_fract_x
_atom_site_fract_y
_atom_site_fract_z
Si Si1 0.376312 0.176087 0.916854
Si Si2 0.566085 0.752928 0.250000
Si Si3 0.689428 0.552423 0.250000
Si Si4 0.646585 0.312294 0.605449
Si Si5 0.183019 0.886704 0.750000
Si Si6 0.131349 0.981744 0.093831
Si Si7 0.995930 0.250000 0.500000
Si Si8 0.619320 0.572912 0.855668
O O1 0.455830 0.206834 0.830027
O O2 0.315167 0.124732 0.885415
O O3 0.573749 0.172956 0.002612
O O4 0.150311 0.206226 0.963114
O O5 0.571761 0.711906 0.169001
O O6 0.394799 0.571741 0.250000
O O7 0.759171 0.522063 0.339920
O O8 0.891296 0.594590 0.250000
O O9 0.765200 0.354247 0.662027
O O10 0.839953 0.269681 0.587362
O O11 0.384196 0.948578 0.083318
O O12 0.886842 0.955663 0.139909
O O13 0.000000 0.000000 0.000000
O O14 0.520996 0.572320 0.750000
#
# Coordination Sequence:
#
# PCOD9440002 Si02
#       8
#     8   4   4   8   4   8   4   8
#     4  12  26  43  71 104 149 190 253 298 371 434
#     4  11  20  48  63  96 138 196 232 299 361 425
#     4  12  26  52  76 109 146 187 252 309 379 457
#     4  11  26  46  66 106 148 190 254 300 361 439
#     4  11  30  44  79 107 148 195 246 312 374 436
#     4  12  28  50  80 107 148 195 243 309 389 451
#     4  12  24  46  72 102 150 202 248 312 352 456
#     4  12  26  49  73 114 150 191 248 313 365 453
#
# _framework density 22.286394999999999
#
# number of rings (size 3 to 8) (size 9 to 14) (size 15 to 20)
#    0.000    0.333    5.833    1.500    9.333    1.333 
#    3.000    0.000    0.000    0.000    0.000    0.000 
#    0.000    0.000    0.000    0.000    0.000    0.000 
#
# Total GULP energy -267204.416256 kJ/mol
# GULP energy per Si atom -5566.758672 kJ/mol
# Density = 2.223567 g / cm^3
# Si number density = 22.286395 Si / 1000 Ang^3
#
#
#
# Elastic Constant Matrix: (Units=GPa)
#
#
# Indices 1 2 3 4 5 6 
#
# 1 68.7325 8.8333 -1.8039 0.0000 0.0000 0.0000
# 2 8.8333 95.0586 19.7154 0.0000 0.0000 0.0000
# 3 -1.8039 19.7154 111.3421 0.0000 0.0000 0.0000
# 4 0.0000 0.0000 0.0000 14.6412 0.0000 0.0000
# 5 0.0000 0.0000 0.0000 0.0000 -0.2004 0.0000
# 6 0.0000 0.0000 0.0000 0.0000 0.0000 73.7316
#
#
#
# Elastic Compliance Matrix: (Units=1/GPa)
#
#
# Indices 1 2 3 4 5 6 
#
# 1 0.014752 -0.001475 0.000500 0.000000 0.000000 0.000000
# 2 -0.001475 0.011068 -0.001984 0.000000 0.000000 0.000000
# 3 0.000500 -0.001984 0.009341 0.000000 0.000000 0.000000
# 4 0.000000 0.000000 0.000000 0.068301 0.000000 0.000000
# 5 0.000000 0.000000 0.000000 0.000000 -4.990193 0.000000
# 6 0.000000 0.000000 0.000000 0.000000 0.000000 0.013563
#
#
# Mechanical properties :
#
#
# Convention : Reuss Voigt Hill
#
# Bulk Modulus (GPa) = 34.19460 36.51364 35.35412
# Shear Modulus (GPa) = -1.02934 34.19370 16.58218
#
# Velocity S-wave (km/s) = -0.68035 3.92125 2.73069
# Velocity P-wave (km/s) = 3.84180 6.07626 5.08332
#
# Compressibility (1/GPa) = 0.02924439
#
# Stress axis : x y z
#
# Youngs Moduli (GPa) = 67.78845 90.34830 107.05839
#
# Poissons Ratio (x) = 0.13322 -0.05354
# Poissons Ratio (y) = 0.09996 0.21238
# Poissons Ratio (z) = -0.03390 0.17923
#
# Static dielectric constant tensor:
#      x y z
#    x 1.886270 0.000000 0.000000 
#    y 0.000000 1.828040 0.000000 
#    z 0.000000 0.000000 1.820260 
# 
# From -- ./inp_files/15179.got.cif
#   From: 2010.05.17/outbox.cif.g08.bks.cpg/sg57_8_cif.got.tgz:15179.got - 2010.06.03 13:58:18.
