data_PCOD9440945
_publ_section_title
;
Structure prediction by ZEFSAII (Michael W. Deem and Ramdas Pophale) SiO2 
 PCOD9440945
Probable space group: P N N M
;
_chemical_formula_sum "Si O2"
_cell_formula_units_Z 40
_cell_length_a 16.451743
_cell_length_b 16.186362
_cell_length_c 7.754584
_cell_angle_alpha 90.000000
_cell_angle_beta 90.000000
_cell_angle_gamma 90.000000
_cell_volume 2064.998166
_symmetry_space_group_name_H-M "P N N M"
_symmetry_group_IT_number 58
_symmetry_cell_setting 'orthorhombic'
loop_
_space_group_symop_operation_xyz
x,y,z
-x,-y,z
1/2+x,1/2-y,1/2-z
1/2-x,1/2+y,1/2-z
-x,-y,-z
x,y,-z
1/2-x,1/2+y,1/2+z
1/2+x,1/2-y,1/2+z
loop_
_atom_site_type_symbol
_atom_site_label
_atom_site_fract_x
_atom_site_fract_y
_atom_site_fract_z
Si Si1 0.306241 0.452777 0.204381
Si Si2 0.461870 0.127688 0.710912
Si Si3 0.427445 0.308339 0.300481
Si Si4 0.124291 0.458384 0.210455
Si Si5 0.064486 0.075655 0.300376
O O1 0.362640 0.372120 0.222847
O O2 0.215385 0.441569 0.272465
O O3 0.355032 0.532726 0.275530
O O4 0.299725 0.468590 0.000000
O O5 0.462604 0.130736 0.500000
O O6 0.431875 0.216398 0.774243
O O7 0.405302 0.050366 0.758950
O O8 0.553482 0.104386 0.766313
O O9 0.405147 0.302061 0.500000
O O10 0.516867 0.349738 0.287135
O O11 0.124481 0.455352 0.000000
O O12 0.078072 0.098978 0.500000
O O13 0.000000 0.000000 0.299337
#
# Coordination Sequence:
#
# PCOD9440945 Si02
#       5
#     8   8   8   8   8
#     4   9  17  30  49  69  90 120 157 189 219 264
#     4   8  15  28  47  69  90 117 154 191 225 264
#     4  10  18  28  45  71  99 119 143 186 236 273
#     4   8  14  29  50  66  86 120 159 191 218 260
#     4   8  15  28  44  64  89 121 156 181 212 265
#
# _framework density 19.370476
#
# number of rings (size 3 to 8) (size 9 to 14) (size 15 to 20)
#    0.000    3.400    0.000    3.000    0.000    3.600 
#    3.600    0.000    0.000    3.600    0.000    7.000 
#    0.000    0.000    0.000    0.000    0.000    0.000 
#
# Total GULP energy -222684.715433 kJ/mol
# GULP energy per Si atom -5567.117886 kJ/mol
# Density = 1.932639 g / cm^3
# Si number density = 19.370476 Si / 1000 Ang^3
#
#
#
# Elastic Constant Matrix: (Units=GPa)
#
#
# Indices 1 2 3 4 5 6 
#
# 1 140.1789 45.5967 -2.8103 0.0000 0.0000 0.0000
# 2 45.5967 87.2637 -10.0831 0.0000 0.0000 0.0000
# 3 -2.8103 -10.0831 21.0152 0.0000 0.0000 0.0000
# 4 0.0000 0.0000 0.0000 5.9551 0.0000 0.0000
# 5 0.0000 0.0000 0.0000 0.0000 8.3769 0.0000
# 6 0.0000 0.0000 0.0000 0.0000 0.0000 9.0854
#
#
#
# Elastic Compliance Matrix: (Units=1/GPa)
#
#
# Indices 1 2 3 4 5 6 
#
# 1 0.008617 -0.004626 -0.001067 0.000000 0.000000 0.000000
# 2 -0.004626 0.014615 0.006394 0.000000 0.000000 0.000000
# 3 -0.001067 0.006394 0.050510 0.000000 0.000000 0.000000
# 4 0.000000 0.000000 0.000000 0.167922 0.000000 0.000000
# 5 0.000000 0.000000 0.000000 0.000000 0.119376 0.000000
# 6 0.000000 0.000000 0.000000 0.000000 0.000000 0.110067
#
#
# Mechanical properties :
#
#
# Convention : Reuss Voigt Hill
#
# Bulk Modulus (GPa) = 13.30781 34.87383 24.09082
# Shear Modulus (GPa) = 10.10605 19.06712 14.58659
#
# Velocity S-wave (km/s) = 2.28661 3.14082 2.74712
# Velocity P-wave (km/s) = 3.72243 5.58531 4.74617
#
# Compressibility (1/GPa) = 0.07514383
#
# Stress axis : x y z
#
# Youngs Moduli (GPa) = 116.04940 68.42109 19.79818
#
# Poissons Ratio (x) = 0.31650 0.02113
# Poissons Ratio (y) = 0.53683 -0.12659
# Poissons Ratio (z) = 0.12384 -0.43747
#
# Static dielectric constant tensor:
#      x y z
#    x 1.698360 0.000000 0.000000 
#    y 0.000000 1.674340 0.000000 
#    z 0.000000 0.000000 1.712590 
# 
# From -- ./inp_files/5553.got.cif
#   From: 2010.05.17/outbox.cif.g08.bks.cpg/sg58_3_cif.got.tgz:5553.got - 2010.06.03 14:20:14.
