data_PCOD9440836
_publ_section_title
;
Structure prediction by ZEFSAII (Michael W. Deem and Ramdas Pophale) SiO2 
 PCOD9440836
Probable space group: P N N M
;
_chemical_formula_sum "Si O2"
_cell_formula_units_Z 52
_cell_length_a 15.042076
_cell_length_b 19.660277
_cell_length_c 8.031682
_cell_angle_alpha 90.000000
_cell_angle_beta 90.000000
_cell_angle_gamma 90.000000
_cell_volume 2375.220408
_symmetry_space_group_name_H-M "P N N M"
_symmetry_group_IT_number 58
_symmetry_cell_setting 'orthorhombic'
loop_
_space_group_symop_operation_xyz
x,y,z
-x,-y,z
1/2+x,1/2-y,1/2-z
1/2-x,1/2+y,1/2-z
-x,-y,-z
x,y,-z
1/2-x,1/2+y,1/2+z
1/2+x,1/2-y,1/2+z
loop_
_atom_site_type_symbol
_atom_site_label
_atom_site_fract_x
_atom_site_fract_y
_atom_site_fract_z
Si Si1 0.101061 0.222287 0.702316
Si Si2 0.425683 0.341197 0.197397
Si Si3 0.274310 0.436601 0.800828
Si Si4 0.591487 0.123466 0.196513
Si Si5 0.196281 0.716866 0.804954
Si Si6 0.500000 0.000000 0.749075
Si Si7 0.684053 0.930709 0.814775
O O1 0.105199 0.215386 0.500000
O O2 0.070979 0.299249 0.736928
O O3 0.202216 0.216745 0.761884
O O4 0.024427 0.172223 0.766586
O O5 0.367154 0.404661 0.259372
O O6 0.366761 0.272770 0.221245
O O7 0.436472 0.351567 0.000000
O O8 0.195683 0.392354 0.717696
O O9 0.253288 0.515313 0.761777
O O10 0.268155 0.427712 0.000000
O O11 0.540361 0.070729 0.314707
O O12 0.567547 0.111758 0.000000
O O13 0.167522 0.638725 0.782861
O O14 0.198224 0.734525 0.000000
O O15 0.591158 0.971263 0.825922
O O16 0.712937 0.912459 0.000000
#
# Coordination Sequence:
#
# PCOD9440836 Si02
#       7
#     8   8   8   8   8   4   8
#     4   9  19  35  57  81 112 156 199 233 280 352
#     4  10  20  37  60  83 112 153 196 233 281 349
#     4  10  20  34  54  81 112 143 183 232 284 334
#     4  10  17  31  53  78 110 147 186 227 278 342
#     4  11  22  38  59  87 119 150 193 247 294 338
#     4  10  19  32  57  86 109 146 195 230 277 360
#     4  11  22  38  59  80 112 153 193 235 290 355
#
# _framework density 21.892704999999999
#
# number of rings (size 3 to 8) (size 9 to 14) (size 15 to 20)
#    0.000    1.846    1.538    4.615    0.000    1.846 
#    0.000   15.769    0.000    4.615    0.000    0.000 
#    0.000    0.000    0.000    0.000    0.000    0.000 
#
# Total GULP energy -289808.179612 kJ/mol
# GULP energy per Si atom -5573.234223 kJ/mol
# Density = 2.184288 g / cm^3
# Si number density = 21.892705 Si / 1000 Ang^3
#
#
#
# Elastic Constant Matrix: (Units=GPa)
#
#
# Indices 1 2 3 4 5 6 
#
# 1 62.9229 -4.6876 -6.1998 0.0000 0.0000 0.0000
# 2 -4.6876 40.8754 -4.3510 0.0000 0.0000 0.0000
# 3 -6.1998 -4.3510 40.5434 0.0000 0.0000 0.0000
# 4 0.0000 0.0000 0.0000 13.5370 0.0000 0.0000
# 5 0.0000 0.0000 0.0000 0.0000 -1.1793 0.0000
# 6 0.0000 0.0000 0.0000 0.0000 0.0000 32.7929
#
#
#
# Elastic Compliance Matrix: (Units=1/GPa)
#
#
# Indices 1 2 3 4 5 6 
#
# 1 0.016322 0.002162 0.002728 0.000000 0.000000 0.000000
# 2 0.002162 0.025034 0.003017 0.000000 0.000000 0.000000
# 3 0.002728 0.003017 0.025406 0.000000 0.000000 0.000000
# 4 0.000000 0.000000 0.000000 0.073871 0.000000 0.000000
# 5 0.000000 0.000000 0.000000 0.000000 -0.847946 0.000000
# 6 0.000000 0.000000 0.000000 0.000000 0.000000 0.030494
#
#
# Mechanical properties :
#
#
# Convention : Reuss Voigt Hill
#
# Bulk Modulus (GPa) = 12.10994 12.65166 12.38080
# Shear Modulus (GPa) = -7.51758 19.66880 6.07561
#
# Velocity S-wave (km/s) = -1.85507 3.00061 1.66769
# Velocity P-wave (km/s) = 0.97730 4.21858 3.06199
#
# Compressibility (1/GPa) = 0.08257679
#
# Stress axis : x y z
#
# Youngs Moduli (GPa) = 61.26571 39.94615 39.36098
#
# Poissons Ratio (x) = -0.08637 -0.10738
# Poissons Ratio (y) = -0.13247 -0.11876
# Poissons Ratio (z) = -0.16713 -0.12052
#
# Static dielectric constant tensor:
#      x y z
#    x 1.828040 0.000000 0.000000 
#    y 0.000000 1.800070 0.000000 
#    z 0.000000 0.000000 1.790720 
# 
# From -- ./inp_files/6184.got.cif
#   From: 2010.05.17/outbox.cif.g08.bks.cpg/sg58_4_cif.got.tgz:6184.got - 2010.06.03 14:20:14.
