data_PCOD9440863
_publ_section_title
;
Structure prediction by ZEFSAII (Michael W. Deem and Ramdas Pophale) SiO2 
 PCOD9440863
Probable space group: P N N M
;
_chemical_formula_sum "Si O2"
_cell_formula_units_Z 44
_cell_length_a 8.099935
_cell_length_b 12.216565
_cell_length_c 18.323453
_cell_angle_alpha 90.000000
_cell_angle_beta 90.000000
_cell_angle_gamma 90.000000
_cell_volume 1813.167652
_symmetry_space_group_name_H-M "P N N M"
_symmetry_group_IT_number 58
_symmetry_cell_setting 'orthorhombic'
loop_
_space_group_symop_operation_xyz
x,y,z
-x,-y,z
1/2+x,1/2-y,1/2-z
1/2-x,1/2+y,1/2-z
-x,-y,-z
x,y,-z
1/2-x,1/2+y,1/2+z
1/2+x,1/2-y,1/2+z
loop_
_atom_site_type_symbol
_atom_site_label
_atom_site_fract_x
_atom_site_fract_y
_atom_site_fract_z
Si Si1 0.841991 0.588388 0.000000
Si Si2 0.332882 0.058608 0.871310
Si Si3 0.810660 0.294280 0.000000
Si Si4 0.511581 0.806602 0.737829
Si Si5 0.636445 0.331356 0.500000
Si Si6 0.333747 0.415246 0.747220
Si Si7 0.747238 0.926587 0.627431
O O1 0.784281 0.526695 0.072192
O O2 0.038960 0.614423 0.000000
O O3 0.779251 0.711729 0.000000
O O4 0.406970 0.143179 0.811118
O O5 0.211493 0.110100 0.929939
O O6 0.500000 0.000000 0.901490
O O7 0.221239 0.972621 0.827076
O O8 0.704466 0.326580 0.071816
O O9 0.934680 0.189321 0.000000
O O10 0.528317 0.676423 0.736125
O O11 0.323336 0.840521 0.733248
O O12 0.598263 0.868502 0.670556
O O13 0.340764 0.510507 0.807799
#
# Coordination Sequence:
#
# PCOD9440863 Si02
#       7
#     4   8   4   8   4   8   8
#     4   9  16  25  51  83 103 136 188 241 289 330
#     4   9  19  35  52  79 111 156 196 231 288 346
#     4   9  18  27  55  88 104 145 187 250 289 331
#     4  10  20  33  58  80 111 152 194 237 287 345
#     4  10  19  29  56  85 113 141 205 238 281 350
#     4  10  20  35  56  81 113 155 190 239 290 347
#     4  10  17  33  53  81 114 140 192 242 292 340
#
# _framework density 24.266923999999999
#
# number of rings (size 3 to 8) (size 9 to 14) (size 15 to 20)
#    0.545    1.818    0.000    6.273    2.545    0.000 
#    0.000    5.455    0.000    1.091    0.000   10.182 
#    0.000    0.000    0.000    0.000    0.000    0.000 
#
# Total GULP energy -245458.691006 kJ/mol
# GULP energy per Si atom -5578.606614 kJ/mol
# Density = 2.421169 g / cm^3
# Si number density = 24.266924 Si / 1000 Ang^3
#
#
#
# Elastic Constant Matrix: (Units=GPa)
#
#
# Indices 1 2 3 4 5 6 
#
# 1 69.7579 63.7991 31.8707 0.0000 0.0000 0.0000
# 2 63.7991 132.6662 59.2189 0.0000 0.0000 0.0000
# 3 31.8707 59.2189 118.4421 0.0000 0.0000 0.0000
# 4 0.0000 0.0000 0.0000 23.1005 0.0000 0.0000
# 5 0.0000 0.0000 0.0000 0.0000 -14.4756 0.0000
# 6 0.0000 0.0000 0.0000 0.0000 0.0000 40.9494
#
#
#
# Elastic Compliance Matrix: (Units=1/GPa)
#
#
# Indices 1 2 3 4 5 6 
#
# 1 0.025673 -0.011923 -0.000947 0.000000 0.000000 0.000000
# 2 -0.011923 0.015241 -0.004412 0.000000 0.000000 0.000000
# 3 -0.000947 -0.004412 0.010903 0.000000 0.000000 0.000000
# 4 0.000000 0.000000 0.000000 0.043289 0.000000 0.000000
# 5 0.000000 0.000000 0.000000 0.000000 -0.069082 0.000000
# 6 0.000000 0.000000 0.000000 0.000000 0.000000 0.024420
#
#
# Mechanical properties :
#
#
# Convention : Reuss Voigt Hill
#
# Bulk Modulus (GPa) = 57.95926 70.07149 64.01538
# Shear Modulus (GPa) = 55.09040 20.98002 38.03521
#
# Velocity S-wave (km/s) = 4.76981 2.94352 3.96330
# Velocity P-wave (km/s) = 7.36687 6.36321 6.88335
#
# Compressibility (1/GPa) = 0.01725350
#
# Stress axis : x y z
#
# Youngs Moduli (GPa) = 38.95186 65.61229 91.71369
#
# Poissons Ratio (x) = 0.78233 0.08681
# Poissons Ratio (y) = 0.46444 0.40463
# Poissons Ratio (z) = 0.03687 0.28947
#
# Static dielectric constant tensor:
#      x y z
#    x 1.986120 0.000000 0.000000 
#    y 0.000000 2.018090 0.000000 
#    z 0.000000 0.000000 1.954570 
# 
# From -- ./inp_files/25236.got.cif
#   From: 2010.05.17/outbox.cif.g08.bks.cpg/sg58_13_cif.got.tgz:25236.got - 2010.06.03 14:20:14.
