data_PCOD9440673
_publ_section_title
;
Structure prediction by ZEFSAII (Michael W. Deem and Ramdas Pophale) SiO2 
 PCOD9440673
Probable space group: P N N M
;
_chemical_formula_sum "Si O2"
_cell_formula_units_Z 44
_cell_length_a 19.747657
_cell_length_b 13.474584
_cell_length_c 7.673043
_cell_angle_alpha 90.000000
_cell_angle_beta 90.000000
_cell_angle_gamma 90.000000
_cell_volume 2041.731238
_symmetry_space_group_name_H-M "P N N M"
_symmetry_group_IT_number 58
_symmetry_cell_setting 'orthorhombic'
loop_
_space_group_symop_operation_xyz
x,y,z
-x,-y,z
1/2+x,1/2-y,1/2-z
1/2-x,1/2+y,1/2-z
-x,-y,-z
x,y,-z
1/2-x,1/2+y,1/2+z
1/2+x,1/2-y,1/2+z
loop_
_atom_site_type_symbol
_atom_site_label
_atom_site_fract_x
_atom_site_fract_y
_atom_site_fract_z
Si Si1 0.926601 0.805123 0.215330
Si Si2 0.499510 0.890762 0.300460
Si Si3 0.500000 0.500000 0.250418
Si Si4 0.284727 0.605189 0.712177
Si Si5 0.646960 0.590904 0.303954
Si Si6 0.141955 0.687075 0.299616
O O1 0.847862 0.823423 0.253870
O O2 0.953363 0.697948 0.271649
O O3 0.936843 0.816209 0.000000
O O4 0.969280 0.893025 0.306504
O O5 0.475490 0.903394 0.500000
O O6 0.575657 0.849508 0.298565
O O7 0.500000 0.000000 0.218100
O O8 0.571991 0.542977 0.318502
O O9 0.283231 0.601275 0.500000
O O10 0.305535 0.495116 0.772480
O O11 0.212204 0.643308 0.771384
O O12 0.669928 0.614030 0.500000
O O13 0.644973 0.693926 0.205309
O O14 0.134421 0.654640 0.500000
#
# Coordination Sequence:
#
# PCOD9440673 Si02
#       6
#     8   8   4   8   8   8
#     4   9  15  28  52  81 104 130 181 236 273 311
#     4  10  21  36  57  82 106 143 196 241 267 310
#     4  10  15  26  57  86  99 122 177 242 281 306
#     4   8  18  33  52  77 107 145 183 219 270 336
#     4  10  18  33  58  82 101 135 187 235 270 318
#     4  11  22  36  53  81 119 152 176 217 289 351
#
# _framework density 21.550339000000001
#
# number of rings (size 3 to 8) (size 9 to 14) (size 15 to 20)
#    0.000    2.364    1.818    3.273    0.000    1.818 
#    0.000    4.091    0.000    2.182    0.000    0.000 
#    0.000    0.000    0.000    0.000    0.000    0.000 
#
# Total GULP energy -244975.997075 kJ/mol
# GULP energy per Si atom -5567.636297 kJ/mol
# Density = 2.150129 g / cm^3
# Si number density = 21.550339 Si / 1000 Ang^3
#
#
#
# Elastic Constant Matrix: (Units=GPa)
#
#
# Indices 1 2 3 4 5 6 
#
# 1 66.4174 27.3110 -9.9630 0.0000 0.0000 0.0000
# 2 27.3110 139.9905 -3.6785 0.0000 0.0000 0.0000
# 3 -9.9630 -3.6785 46.0254 0.0000 0.0000 0.0000
# 4 0.0000 0.0000 0.0000 5.5519 0.0000 0.0000
# 5 0.0000 0.0000 0.0000 0.0000 -0.3319 0.0000
# 6 0.0000 0.0000 0.0000 0.0000 0.0000 31.6469
#
#
#
# Elastic Compliance Matrix: (Units=1/GPa)
#
#
# Indices 1 2 3 4 5 6 
#
# 1 0.016884 -0.003205 0.003399 0.000000 0.000000 0.000000
# 2 -0.003205 0.007767 -0.000073 0.000000 0.000000 0.000000
# 3 0.003399 -0.000073 0.022457 0.000000 0.000000 0.000000
# 4 0.000000 0.000000 0.000000 0.180119 0.000000 0.000000
# 5 0.000000 0.000000 0.000000 0.000000 -3.013404 0.000000
# 6 0.000000 0.000000 0.000000 0.000000 0.000000 0.031599
#
#
# Mechanical properties :
#
#
# Convention : Reuss Voigt Hill
#
# Bulk Modulus (GPa) = 21.11945 31.08582 26.10263
# Shear Modulus (GPa) = -1.82546 23.29098 10.73276
#
# Velocity S-wave (km/s) = -0.92136 3.29107 2.23408
# Velocity P-wave (km/s) = 2.94779 5.37565 4.33515
#
# Compressibility (1/GPa) = 0.04734972
#
# Stress axis : x y z
#
# Youngs Moduli (GPa) = 59.22821 128.75624 44.52954
#
# Poissons Ratio (x) = 0.41261 -0.15134
# Poissons Ratio (y) = 0.18980 0.00325
# Poissons Ratio (z) = -0.20130 0.00939
#
# Static dielectric constant tensor:
#      x y z
#    x 1.734800 0.000000 0.000000 
#    y 0.000000 1.774730 0.000000 
#    z 0.000000 0.000000 1.878700 
# 
# From -- ./inp_files/7644.got.cif
#   From: 2010.05.17/outbox.cif.g08.bks.cpg/sg58_4_cif.got.tgz:7644.got - 2010.06.03 14:20:14.
