data_PCOD9440082
_publ_section_title
;
Structure prediction by ZEFSAII (Michael W. Deem and Ramdas Pophale) SiO2 
 PCOD9440082
Probable space group: P B C M
;
_chemical_formula_sum "Si O2"
_cell_formula_units_Z 40
_cell_length_a 7.023200
_cell_length_b 29.743970
_cell_length_c 9.166004
_cell_angle_alpha 90.000000
_cell_angle_beta 90.000000
_cell_angle_gamma 90.000000
_cell_volume 1914.758530
_symmetry_space_group_name_H-M "P B C M"
_symmetry_group_IT_number 57
_symmetry_cell_setting 'orthorhombic'
loop_
_space_group_symop_operation_xyz
x,y,z
-x,-y,1/2+z
x,1/2-y,-z
-x,1/2+y,1/2-z
-x,-y,-z
x,y,1/2-z
-x,1/2+y,z
x,1/2-y,1/2+z
loop_
_atom_site_type_symbol
_atom_site_label
_atom_site_fract_x
_atom_site_fract_y
_atom_site_fract_z
Si Si1 0.226289 0.529038 0.084305
Si Si2 0.128208 0.204615 0.078413
Si Si3 0.811988 0.371969 0.578342
Si Si4 0.418005 0.144525 0.923153
Si Si5 0.677724 0.555772 0.084347
O O1 0.175224 0.516224 0.250000
O O2 0.130350 0.576538 0.044119
O O3 0.453470 0.541421 0.086297
O O4 0.210007 0.487366 0.975554
O O5 0.159682 0.212166 0.250000
O O6 0.974575 0.164834 0.062158
O O7 0.062910 0.250000 0.000000
O O8 0.316865 0.186425 0.999953
O O9 0.752982 0.372677 0.750000
O O10 0.633862 0.359255 0.478735
O O11 0.406355 0.147388 0.750000
O O12 0.316937 0.099029 0.981312
O O13 0.732420 0.567635 0.250000
#
# Coordination Sequence:
#
# PCOD9440082 Si02
#       5
#     8   8   8   8   8
#     4   8  14  27  49  79 112 147 188 232 281 335
#     4  11  24  43  64  86 114 147 189 241 294 346
#     4   9  20  39  62  86 116 154 193 238 289 342
#     4  11  22  37  60  88 119 155 194 236 283 341
#     4   9  16  28  49  79 115 153 191 232 279 332
#
# _framework density 20.890363000000001
#
# number of rings (size 3 to 8) (size 9 to 14) (size 15 to 20)
#    0.000    2.400    0.000    4.200    0.000    7.200 
#    0.000    3.000    0.000    0.000    0.000    0.000 
#    0.000    0.000    0.000    0.000    0.000    0.000 
#
# Total GULP energy -223654.389607 kJ/mol
# GULP energy per Si atom -5591.359740 kJ/mol
# Density = 2.084282 g / cm^3
# Si number density = 20.890363 Si / 1000 Ang^3
#
#
#
# Elastic Constant Matrix: (Units=GPa)
#
#
# Indices 1 2 3 4 5 6 
#
# 1 52.2298 23.5122 46.1142 0.0000 0.0000 0.0000
# 2 23.5122 105.0549 65.2104 0.0000 0.0000 0.0000
# 3 46.1142 65.2104 143.1370 0.0000 0.0000 0.0000
# 4 0.0000 0.0000 0.0000 40.9670 0.0000 0.0000
# 5 0.0000 0.0000 0.0000 0.0000 20.2388 0.0000
# 6 0.0000 0.0000 0.0000 0.0000 0.0000 30.6709
#
#
#
# Elastic Compliance Matrix: (Units=1/GPa)
#
#
# Indices 1 2 3 4 5 6 
#
# 1 0.026817 -0.000891 -0.008234 0.000000 0.000000 0.000000
# 2 -0.000891 0.013302 -0.005773 0.000000 0.000000 0.000000
# 3 -0.008234 -0.005773 0.012269 0.000000 0.000000 0.000000
# 4 0.000000 0.000000 0.000000 0.024410 0.000000 0.000000
# 5 0.000000 0.000000 0.000000 0.000000 0.049410 0.000000
# 6 0.000000 0.000000 0.000000 0.000000 0.000000 0.032604
#
#
# Mechanical properties :
#
#
# Convention : Reuss Voigt Hill
#
# Bulk Modulus (GPa) = 44.26284 63.34393 53.80339
# Shear Modulus (GPa) = 25.49235 29.41434 27.45335
#
# Velocity S-wave (km/s) = 3.49706 3.75645 3.62907
# Velocity P-wave (km/s) = 6.12699 7.01445 6.58569
#
# Compressibility (1/GPa) = 0.02259231
#
# Stress axis : x y z
#
# Youngs Moduli (GPa) = 37.29010 75.17863 81.50663
#
# Poissons Ratio (x) = 0.06699 0.67109
# Poissons Ratio (y) = 0.03323 0.47053
# Poissons Ratio (z) = 0.30703 0.43400
#
# Static dielectric constant tensor:
#      x y z
#    x 1.817610 0.000000 0.000000 
#    y 0.000000 1.739440 0.000000 
#    z 0.000000 0.000000 1.695640 
# 
# From -- ./inp_files/1746.got.cif
#   From: 2010.05.17/outbox.cif.g08.bks.cpg/sg57_1_cif.got.tgz:1746.got - 2010.06.03 13:58:18.
