data_PCOD9440738
_publ_section_title
;
Structure prediction by ZEFSAII (Michael W. Deem and Ramdas Pophale) SiO2 
 PCOD9440738
Probable space group: P N N M
;
_chemical_formula_sum "Si O2"
_cell_formula_units_Z 64
_cell_length_a 5.234850
_cell_length_b 30.964503
_cell_length_c 24.562750
_cell_angle_alpha 90.000000
_cell_angle_beta 90.000000
_cell_angle_gamma 90.000000
_cell_volume 3981.487381
_symmetry_space_group_name_H-M "P N N M"
_symmetry_group_IT_number 58
_symmetry_cell_setting 'orthorhombic'
loop_
_space_group_symop_operation_xyz
x,y,z
-x,-y,z
1/2+x,1/2-y,1/2-z
1/2-x,1/2+y,1/2-z
-x,-y,-z
x,y,-z
1/2-x,1/2+y,1/2+z
1/2+x,1/2-y,1/2+z
loop_
_atom_site_type_symbol
_atom_site_label
_atom_site_fract_x
_atom_site_fract_y
_atom_site_fract_z
Si Si1 0.912382 0.452213 0.403263
Si Si2 0.916038 0.820675 0.061112
Si Si3 0.533513 0.758651 0.177392
Si Si4 0.465544 0.304296 0.719902
Si Si5 0.082276 0.548419 0.729841
Si Si6 0.416513 0.765389 0.938466
Si Si7 0.084284 0.906057 0.228513
Si Si8 0.411611 0.408901 0.398808
O O1 0.899328 0.450920 0.336722
O O2 0.131792 0.418755 0.421428
O O3 0.000000 0.500000 0.418724
O O4 0.634417 0.438430 0.423451
O O5 0.627311 0.803881 0.065538
O O6 0.994983 0.859873 0.098740
O O7 0.127680 0.782997 0.066178
O O8 0.948451 0.838129 0.000000
O O9 0.529246 0.721494 0.222885
O O10 0.298840 0.790896 0.190787
O O11 0.487677 0.740291 0.116703
O O12 0.796375 0.785367 0.185253
O O13 0.476154 0.355289 0.730363
O O14 0.862175 0.581030 0.749782
O O15 0.000000 0.500000 0.744532
O O16 0.354007 0.565070 0.751151
O O17 0.447587 0.747132 0.000000
O O18 0.103677 0.919013 0.165014
#
# Coordination Sequence:
#
# PCOD9440738 Si02
#       8
#     8   8   8   8   8   8   8   8
#     4   9  17  27  39  55  71  92 123 156 197 245
#     4  10  20  31  44  62  79  97 128 171 215 250
#     4  10  19  32  45  63  91 116 146 177 212 252
#     4  10  20  30  45  65  89 120 143 175 212 254
#     4   9  17  27  39  57  80 102 129 169 204 239
#     4  10  19  31  47  64  83 108 138 173 208 244
#     4  10  17  26  41  60  78 102 138 163 199 250
#     4  10  17  26  42  55  71  96 120 161 202 239
#
# _framework density 16.074396
#
# number of rings (size 3 to 8) (size 9 to 14) (size 15 to 20)
#    0.000    2.250    0.000    4.500    0.000    5.000 
#    0.000    0.000    0.000    2.250    0.000    0.000 
#    0.000    0.000    0.000    0.000    0.000    3.750 
#
# Total GULP energy -356586.768109 kJ/mol
# GULP energy per Si atom -5571.668252 kJ/mol
# Density = 1.603781 g / cm^3
# Si number density = 16.074396 Si / 1000 Ang^3
#
#
#
# Elastic Constant Matrix: (Units=GPa)
#
#
# Indices 1 2 3 4 5 6 
#
# 1 60.7576 1.4685 0.8212 0.0000 0.0000 0.0000
# 2 1.4685 23.2039 0.0026 0.0000 0.0000 0.0000
# 3 0.8212 0.0026 45.1122 0.0000 0.0000 0.0000
# 4 0.0000 0.0000 0.0000 -2.1599 0.0000 0.0000
# 5 0.0000 0.0000 0.0000 0.0000 10.8692 0.0000
# 6 0.0000 0.0000 0.0000 0.0000 0.0000 18.5233
#
#
#
# Elastic Compliance Matrix: (Units=1/GPa)
#
#
# Indices 1 2 3 4 5 6 
#
# 1 0.016488 -0.001043 -0.000300 0.000000 0.000000 0.000000
# 2 -0.001043 0.043162 0.000016 0.000000 0.000000 0.000000
# 3 -0.000300 0.000016 0.022172 0.000000 0.000000 0.000000
# 4 0.000000 0.000000 0.000000 -0.462982 0.000000 0.000000
# 5 0.000000 0.000000 0.000000 0.000000 0.092003 0.000000
# 6 0.000000 0.000000 0.000000 0.000000 0.000000 0.053986
#
#
# Mechanical properties :
#
#
# Convention : Reuss Voigt Hill
#
# Bulk Modulus (GPa) = 12.63125 14.85092 13.74109
# Shear Modulus (GPa) = -24.25701 13.89861 -5.17920
#
# Velocity S-wave (km/s) = -3.88886 2.94367 -1.79695
# Velocity P-wave (km/s) = 3.50560 4.56207 2.06437
#
# Compressibility (1/GPa) = 0.07916871
#
# Stress axis : x y z
#
# Youngs Moduli (GPa) = 60.64972 23.16840 45.10113
#
# Poissons Ratio (x) = 0.02417 0.01353
# Poissons Ratio (y) = 0.06328 -0.00074
# Poissons Ratio (z) = 0.01820 -0.00038
#
# Static dielectric constant tensor:
#      x y z
#    x 1.580890 0.000000 0.000000 
#    y 0.000000 1.524150 0.000000 
#    z 0.000000 0.000000 1.569090 
# 
# From -- ./inp_files/31112.got.cif
#   From: 2010.05.17/outbox.cif.g08.bks.cpg/sg58_16_cif.got.tgz:31112.got - 2010.06.03 14:20:14.
