data_PCOD9440332
_publ_section_title
;
Structure prediction by ZEFSAII (Michael W. Deem and Ramdas Pophale) SiO2 
 PCOD9440332
Probable space group: P B C M
;
_chemical_formula_sum "Si O2"
_cell_formula_units_Z 40
_cell_length_a 5.219260
_cell_length_b 24.377837
_cell_length_c 14.643737
_cell_angle_alpha 90.000000
_cell_angle_beta 90.000000
_cell_angle_gamma 90.000000
_cell_volume 1863.185181
_symmetry_space_group_name_H-M "P B C M"
_symmetry_group_IT_number 57
_symmetry_cell_setting 'orthorhombic'
loop_
_space_group_symop_operation_xyz
x,y,z
-x,-y,1/2+z
x,1/2-y,-z
-x,1/2+y,1/2-z
-x,-y,-z
x,y,1/2-z
-x,1/2+y,z
x,1/2-y,1/2+z
loop_
_atom_site_type_symbol
_atom_site_label
_atom_site_fract_x
_atom_site_fract_y
_atom_site_fract_z
Si Si1 0.007349 0.898619 0.554743
Si Si2 0.443502 0.973536 0.250000
Si Si3 0.943043 0.457291 0.750000
Si Si4 0.981663 0.713937 0.151084
Si Si5 0.478750 0.775716 0.399798
Si Si6 0.489897 0.404256 0.434078
O O1 0.997426 0.832919 0.574142
O O2 0.761971 0.915165 0.494774
O O3 0.008660 0.925987 0.654519
O O4 0.262492 0.912500 0.498360
O O5 0.494972 0.939711 0.157513
O O6 0.648916 0.022855 0.250000
O O7 0.150481 0.993659 0.250000
O O8 0.009802 0.686620 0.250000
O O9 0.715148 0.745630 0.147662
O O10 0.209015 0.757336 0.141137
O O11 0.480602 0.750000 0.500000
O O12 0.512420 0.840493 0.404375
#
# Coordination Sequence:
#
# PCOD9440332 Si02
#       6
#     8   4   4   8   8   8
#     4  12  24  46  75 103 133 179 232 289 342 397
#     4  12  30  50  66 104 138 180 234 286 346 410
#     4  12  28  50  76 100 132 172 240 302 346 398
#     4  12  24  40  66 106 140 180 225 274 334 406
#     4  12  23  42  66 101 144 184 219 267 337 415
#     4  12  27  45  71 102 144 183 225 276 343 416
#
# _framework density 21.468612
#
# number of rings (size 3 to 8) (size 9 to 14) (size 15 to 20)
#    0.000    0.000    5.000    4.800    2.800    4.800 
#    0.000    0.000    0.000    0.000    0.000    0.000 
#    0.000    0.000    0.000    0.000    0.000    0.000 
#
# Total GULP energy -223972.069942 kJ/mol
# GULP energy per Si atom -5599.301749 kJ/mol
# Density = 2.141975 g / cm^3
# Si number density = 21.468612 Si / 1000 Ang^3
#
#
#
# Elastic Constant Matrix: (Units=GPa)
#
#
# Indices 1 2 3 4 5 6 
#
# 1 96.1891 -9.8794 37.4408 0.0000 0.0000 0.0000
# 2 -9.8794 45.8839 30.8263 0.0000 0.0000 0.0000
# 3 37.4408 30.8263 151.9763 0.0000 0.0000 0.0000
# 4 0.0000 0.0000 0.0000 40.4777 0.0000 0.0000
# 5 0.0000 0.0000 0.0000 0.0000 44.7601 0.0000
# 6 0.0000 0.0000 0.0000 0.0000 0.0000 19.1767
#
#
#
# Elastic Compliance Matrix: (Units=1/GPa)
#
#
# Indices 1 2 3 4 5 6 
#
# 1 0.012617 0.005563 -0.004237 0.000000 0.000000 0.000000
# 2 0.005563 0.027685 -0.006986 0.000000 0.000000 0.000000
# 3 -0.004237 -0.006986 0.009041 0.000000 0.000000 0.000000
# 4 0.000000 0.000000 0.000000 0.024705 0.000000 0.000000
# 5 0.000000 0.000000 0.000000 0.000000 0.022341 0.000000
# 6 0.000000 0.000000 0.000000 0.000000 0.000000 0.052147
#
#
# Mechanical properties :
#
#
# Convention : Reuss Voigt Hill
#
# Bulk Modulus (GPa) = 26.29987 45.64718 35.97352
# Shear Modulus (GPa) = 28.98055 36.59366 32.78710
#
# Velocity S-wave (km/s) = 3.67809 4.13306 3.91219
# Velocity P-wave (km/s) = 5.50588 6.63963 6.09916
#
# Compressibility (1/GPa) = 0.03802300
#
# Stress axis : x y z
#
# Youngs Moduli (GPa) = 79.26085 36.12021 110.61082
#
# Poissons Ratio (x) = -0.20093 0.46861
# Poissons Ratio (y) = -0.44091 0.77273
# Poissons Ratio (z) = 0.33579 0.25234
#
# Static dielectric constant tensor:
#      x y z
#    x 1.738300 0.000000 0.000000 
#    y 0.000000 1.764060 0.000000 
#    z 0.000000 0.000000 1.736730 
# 
# From -- ./inp_files/14981.got.cif
#   From: 2010.05.17/outbox.cif.g08.bks.cpg/sg57_8_cif.got.tgz:14981.got - 2010.06.03 13:58:18.
