data_PCOD9440959
_publ_section_title
;
Structure prediction by ZEFSAII (Michael W. Deem and Ramdas Pophale) SiO2 
 PCOD9440959
Probable space group: P N N M
;
_chemical_formula_sum "Si O2"
_cell_formula_units_Z 64
_cell_length_a 15.148604
_cell_length_b 31.203715
_cell_length_c 7.717800
_cell_angle_alpha 90.000000
_cell_angle_beta 90.000000
_cell_angle_gamma 90.000000
_cell_volume 3648.147889
_symmetry_space_group_name_H-M "P N N M"
_symmetry_group_IT_number 58
_symmetry_cell_setting 'orthorhombic'
loop_
_space_group_symop_operation_xyz
x,y,z
-x,-y,z
1/2+x,1/2-y,1/2-z
1/2-x,1/2+y,1/2-z
-x,-y,-z
x,y,-z
1/2-x,1/2+y,1/2+z
1/2+x,1/2-y,1/2+z
loop_
_atom_site_type_symbol
_atom_site_label
_atom_site_fract_x
_atom_site_fract_y
_atom_site_fract_z
Si Si1 0.298896 0.129027 0.300287
Si Si2 0.673371 0.297559 0.207193
Si Si3 0.981280 0.224709 0.291877
Si Si4 0.337553 0.861748 0.203774
Si Si5 0.604182 0.952530 0.287794
Si Si6 0.713238 0.713743 0.201204
Si Si7 0.976695 0.326200 0.292812
Si Si8 0.901298 0.549809 0.208846
O O1 0.273103 0.121177 0.500000
O O2 0.227420 0.161597 0.221671
O O3 0.326639 0.082945 0.224115
O O4 0.390737 0.154989 0.295955
O O5 0.573725 0.293655 0.277027
O O6 0.727553 0.253109 0.229601
O O7 0.667829 0.303178 0.000000
O O8 0.982352 0.216606 0.500000
O O9 0.983808 0.275682 0.266523
O O10 0.885636 0.210419 0.222889
O O11 0.263728 0.831197 0.282443
O O12 0.433278 0.847264 0.272627
O O13 0.336879 0.912621 0.230621
O O14 0.336373 0.852228 0.000000
O O15 0.603836 0.951074 0.500000
O O16 0.503096 0.942242 0.233102
O O17 0.622709 0.001517 0.236592
O O18 0.702135 0.724622 0.000000
O O19 0.968158 0.334033 0.500000
O O20 0.902217 0.550323 0.000000
#
# Coordination Sequence:
#
# PCOD9440959 Si02
#       8
#     8   8   8   8   8   8   8   8
#     4  10  18  28  47  71  93 121 159 190 221 269
#     4  10  19  32  48  68  94 121 151 193 233 264
#     4   9  18  33  46  61  91 125 153 185 231 268
#     4  11  21  32  46  67  95 124 156 194 234 270
#     4   8  15  27  44  69  96 123 152 189 229 272
#     4  11  21  32  48  66  88 123 161 187 219 277
#     4  10  18  29  44  62  93 128 151 184 228 268
#     4   9  16  29  47  65  94 126 154 188 229 278
#
# _framework density 17.543150000000001
#
# number of rings (size 3 to 8) (size 9 to 14) (size 15 to 20)
#    0.000    2.250    3.750    1.500    0.000    0.500 
#    0.000    3.125    0.000    0.000    0.000    0.875 
#    0.000    7.000    0.000    0.000    0.000    0.000 
#
# Total GULP energy -356774.920317 kJ/mol
# GULP energy per Si atom -5574.608130 kJ/mol
# Density = 1.750322 g / cm^3
# Si number density = 17.543150 Si / 1000 Ang^3
#
#
#
# Elastic Constant Matrix: (Units=GPa)
#
#
# Indices 1 2 3 4 5 6 
#
# 1 105.3633 51.8559 -3.7779 0.0000 0.0000 0.0000
# 2 51.8559 94.4465 -3.4657 0.0000 0.0000 0.0000
# 3 -3.7779 -3.4657 25.6618 0.0000 0.0000 0.0000
# 4 0.0000 0.0000 0.0000 19.1785 0.0000 0.0000
# 5 0.0000 0.0000 0.0000 0.0000 13.2241 0.0000
# 6 0.0000 0.0000 0.0000 0.0000 0.0000 22.2423
#
#
#
# Elastic Compliance Matrix: (Units=1/GPa)
#
#
# Indices 1 2 3 4 5 6 
#
# 1 0.013029 -0.007118 0.000957 0.000000 0.000000 0.000000
# 2 -0.007118 0.014530 0.000914 0.000000 0.000000 0.000000
# 3 0.000957 0.000914 0.039233 0.000000 0.000000 0.000000
# 4 0.000000 0.000000 0.000000 0.052142 0.000000 0.000000
# 5 0.000000 0.000000 0.000000 0.000000 0.075619 0.000000
# 6 0.000000 0.000000 0.000000 0.000000 0.000000 0.044959
#
#
# Mechanical properties :
#
#
# Convention : Reuss Voigt Hill
#
# Bulk Modulus (GPa) = 17.76298 34.96625 26.36462
# Shear Modulus (GPa) = 18.60316 22.98628 20.79472
#
# Velocity S-wave (km/s) = 3.25995 3.62369 3.44662
# Velocity P-wave (km/s) = 4.93122 6.12234 5.55878
#
# Compressibility (1/GPa) = 0.05629685
#
# Stress axis : x y z
#
# Youngs Moduli (GPa) = 76.75408 68.82384 25.48889
#
# Poissons Ratio (x) = 0.48991 -0.02439
# Poissons Ratio (y) = 0.54636 -0.02331
# Poissons Ratio (z) = -0.07343 -0.06293
#
# Static dielectric constant tensor:
#      x y z
#    x 1.612170 0.000000 0.000000 
#    y 0.000000 1.610940 0.000000 
#    z 0.000000 0.000000 1.658000 
# 
# From -- ./inp_files/7162.got.cif
#   From: 2010.05.17/outbox.cif.g08.bks.cpg/sg58_4_cif.got.tgz:7162.got - 2010.06.03 14:20:14.
