data_PCOD9440623
_publ_section_title
;
Structure prediction by ZEFSAII (Michael W. Deem and Ramdas Pophale) SiO2 
 PCOD9440623
Probable space group: P B C M
;
_chemical_formula_sum "Si O2"
_cell_formula_units_Z 56
_cell_length_a 6.000000
_cell_length_b 15.000000
_cell_length_c 30.000000
_cell_angle_alpha 90.000000
_cell_angle_beta 90.000000
_cell_angle_gamma 90.000000
_cell_volume 2700.000000
_symmetry_space_group_name_H-M "P B C M"
_symmetry_group_IT_number 57
_symmetry_cell_setting 'orthorhombic'
loop_
_space_group_symop_operation_xyz
x,y,z
-x,-y,1/2+z
x,1/2-y,-z
-x,1/2+y,1/2-z
-x,-y,-z
x,y,1/2-z
-x,1/2+y,z
x,1/2-y,1/2+z
loop_
_atom_site_type_symbol
_atom_site_label
_atom_site_fract_x
_atom_site_fract_y
_atom_site_fract_z
Si Si1 0.186626 0.150322 0.517619
Si Si2 0.854710 0.945874 0.925202
Si Si3 0.314102 0.632580 0.937878
Si Si4 0.830934 0.470064 0.300471
Si Si5 0.769674 0.991162 0.369689
Si Si6 0.533132 0.174304 0.849994
Si Si7 0.393346 0.370268 0.655448
O O1 0.191130 0.250000 0.500000
O O2 0.171585 0.086512 0.474965
O O3 0.442959 0.139313 0.537596
O O4 0.934502 0.143915 0.540277
O O5 0.771787 0.876028 0.887728
O O6 0.103002 0.980936 0.914732
O O7 0.698317 0.031796 0.919207
O O8 0.326266 0.696091 0.894675
O O9 0.898583 0.455851 0.250000
O O10 0.677260 0.387510 0.316843
O O11 0.707270 0.565047 0.306776
O O12 0.038126 0.479694 0.333106
O O13 0.613240 0.074113 0.357812
O O14 0.654906 0.894418 0.367758
O O15 0.441228 0.268068 0.832370
#
# Coordination Sequence:
#
# PCOD9440623 Si02
#       7
#     8   8   8   8   8   8   8
#     4  12  28  41  64 101 139 186 245 295 344 406
#     4  11  23  41  63  94 133 183 230 287 345 413
#     4  12  24  43  66  96 139 188 235 291 349 415
#     4  10  23  44  67 100 135 171 225 284 355 426
#     4  10  21  42  66  94 134 177 222 281 355 414
#     4  11  23  42  69  99 133 180 227 282 351 415
#     4  10  23  41  70  96 136 175 233 277 351 422
#
# _framework density 20.740741
#
# number of rings (size 3 to 8) (size 9 to 14) (size 15 to 20)
#    0.000    1.143    4.286    3.000    4.000    5.143 
#    0.000    1.429    0.000    0.000    0.000    0.000 
#    0.000    0.000    0.000    0.000    0.000    0.000 
#
# Total GULP energy -312001.588386 kJ/mol
# GULP energy per Si atom -5571.456935 kJ/mol
# Density = 2.069353 g / cm^3
# Si number density = 20.740741 Si / 1000 Ang^3
#
#
#
# Elastic Constant Matrix: (Units=GPa)
#
#
# Indices 1 2 3 4 5 6 
#
# 1 81.3842 13.8398 -8.7383 0.0000 0.0000 0.0000
# 2 13.8398 105.1827 -18.0100 0.0000 0.0000 0.0000
# 3 -8.7383 -18.0100 31.4266 0.0000 0.0000 0.0000
# 4 0.0000 0.0000 0.0000 13.3605 0.0000 0.0000
# 5 0.0000 0.0000 0.0000 0.0000 5.3335 0.0000
# 6 0.0000 0.0000 0.0000 0.0000 0.0000 23.4490
#
#
#
# Elastic Compliance Matrix: (Units=1/GPa)
#
#
# Indices 1 2 3 4 5 6 
#
# 1 0.012799 -0.001192 0.002876 0.000000 0.000000 0.000000
# 2 -0.001192 0.010653 0.005773 0.000000 0.000000 0.000000
# 3 0.002876 0.005773 0.035928 0.000000 0.000000 0.000000
# 4 0.000000 0.000000 0.000000 0.074848 0.000000 0.000000
# 5 0.000000 0.000000 0.000000 0.000000 0.187494 0.000000
# 6 0.000000 0.000000 0.000000 0.000000 0.000000 0.042646
#
#
# Mechanical properties :
#
#
# Convention : Reuss Voigt Hill
#
# Bulk Modulus (GPa) = 13.45981 21.35297 17.40639
# Shear Modulus (GPa) = 13.36123 23.82207 18.59165
#
# Velocity S-wave (km/s) = 2.54087 3.39272 2.99721
# Velocity P-wave (km/s) = 3.88737 5.06606 4.51534
#
# Compressibility (1/GPa) = 0.07429525
#
# Stress axis : x y z
#
# Youngs Moduli (GPa) = 78.13221 93.87364 27.83311
#
# Poissons Ratio (x) = 0.11186 -0.08004
# Poissons Ratio (y) = 0.09310 -0.16069
# Poissons Ratio (z) = -0.22470 -0.54198
#
# Static dielectric constant tensor:
#      x y z
#    x 1.796090 0.000000 0.000000 
#    y 0.000000 1.424750 0.000000 
#    z 0.000000 0.000000 1.369370 
# 
# From -- ./inp_files/29172.got.cif
#   From: 2010.05.17/outbox.ucp.g08.bks.cvg/sg57_15_cif.got.tgz:29172.got - 2010.06.11 16:39:23.
