data_PCOD9440806
_publ_section_title
;
Structure prediction by ZEFSAII (Michael W. Deem and Ramdas Pophale) SiO2 
 PCOD9440806
Probable space group: P N N M
;
_chemical_formula_sum "Si O2"
_cell_formula_units_Z 52
_cell_length_a 13.767462
_cell_length_b 18.912536
_cell_length_c 7.421524
_cell_angle_alpha 90.000000
_cell_angle_beta 90.000000
_cell_angle_gamma 90.000000
_cell_volume 1932.398761
_symmetry_space_group_name_H-M "P N N M"
_symmetry_group_IT_number 58
_symmetry_cell_setting 'orthorhombic'
loop_
_space_group_symop_operation_xyz
x,y,z
-x,-y,z
1/2+x,1/2-y,1/2-z
1/2-x,1/2+y,1/2-z
-x,-y,-z
x,y,-z
1/2-x,1/2+y,1/2+z
1/2+x,1/2-y,1/2+z
loop_
_atom_site_type_symbol
_atom_site_label
_atom_site_fract_x
_atom_site_fract_y
_atom_site_fract_z
Si Si1 0.046198 0.593949 0.303448
Si Si2 0.667728 0.086521 0.708934
Si Si3 0.534062 0.652666 0.293447
Si Si4 0.135285 0.987474 0.794861
Si Si5 0.993118 0.737784 0.500000
Si Si6 0.755976 0.884501 0.222398
Si Si7 0.762145 0.224401 0.718851
O O1 0.060176 0.560940 0.500000
O O2 0.028565 0.677413 0.346686
O O3 0.150390 0.587843 0.211168
O O4 0.944183 0.566675 0.228521
O O5 0.693237 0.084144 0.500000
O O6 0.755027 0.044766 0.799795
O O7 0.679475 0.168239 0.770878
O O8 0.496774 0.650600 0.500000
O O9 0.563803 0.573568 0.224806
O O10 0.476757 0.702083 0.157883
O O11 0.639741 0.691415 0.295572
O O12 0.157442 0.064545 0.715881
O O13 0.105018 0.997257 0.000000
O O14 0.759828 0.803188 0.276585
O O15 0.755076 0.885592 0.000000
O O16 0.775261 0.225516 0.500000
#
# Coordination Sequence:
#
# PCOD9440806 Si02
#       7
#     8   8   8   8   4   8   8
#     4   9  18  32  50  69  94 139 171 201 257 297
#     4  10  20  31  48  71 104 138 170 212 253 315
#     4  10  17  29  51  78  96 128 172 215 259 300
#     4   9  19  30  49  74 102 131 170 209 255 315
#     4  10  18  34  54  71 103 135 170 229 246 300
#     4   9  15  31  51  72  96 133 175 210 253 312
#     4   9  15  31  52  70  97 135 172 215 263 293
#
# _framework density 26.909557
#
# number of rings (size 3 to 8) (size 9 to 14) (size 15 to 20)
#    0.462    2.154    2.308    0.462    1.077    1.846 
#    0.000    4.615    0.000    0.000    0.000    2.154 
#    0.000    6.154    0.000    0.000    0.000    0.000 
#
# Total GULP energy -289670.148057 kJ/mol
# GULP energy per Si atom -5570.579770 kJ/mol
# Density = 2.684831 g / cm^3
# Si number density = 26.909557 Si / 1000 Ang^3
#
#
#
# Elastic Constant Matrix: (Units=GPa)
#
#
# Indices 1 2 3 4 5 6 
#
# 1 160.6678 28.8155 10.3661 0.0000 0.0000 0.0000
# 2 28.8155 158.4410 9.4917 0.0000 0.0000 0.0000
# 3 10.3661 9.4917 89.8661 0.0000 0.0000 0.0000
# 4 0.0000 0.0000 0.0000 26.7698 0.0000 0.0000
# 5 0.0000 0.0000 0.0000 0.0000 164.8092 0.0000
# 6 0.0000 0.0000 0.0000 0.0000 0.0000 29.6966
#
#
#
# Elastic Compliance Matrix: (Units=1/GPa)
#
#
# Indices 1 2 3 4 5 6 
#
# 1 0.006469 -0.001139 -0.000626 0.000000 0.000000 0.000000
# 2 -0.001139 0.006552 -0.000561 0.000000 0.000000 0.000000
# 3 -0.000626 -0.000561 0.011259 0.000000 0.000000 0.000000
# 4 0.000000 0.000000 0.000000 0.037355 0.000000 0.000000
# 5 0.000000 0.000000 0.000000 0.000000 0.006068 0.000000
# 6 0.000000 0.000000 0.000000 0.000000 0.000000 0.033674
#
#
# Mechanical properties :
#
#
# Convention : Reuss Voigt Hill
#
# Bulk Modulus (GPa) = 50.94506 56.25795 53.60150
# Shear Modulus (GPa) = 44.41641 68.27521 56.34581
#
# Velocity S-wave (km/s) = 4.06714 5.04254 4.58087
# Velocity P-wave (km/s) = 6.40536 7.40639 6.92399
#
# Compressibility (1/GPa) = 0.01962899
#
# Stress axis : x y z
#
# Youngs Moduli (GPa) = 154.59121 152.61987 88.81721
#
# Poissons Ratio (x) = 0.17383 0.05559
# Poissons Ratio (y) = 0.17607 0.04980
# Poissons Ratio (z) = 0.09675 0.08557
#
# Static dielectric constant tensor:
#      x y z
#    x 2.170850 0.000000 0.000000 
#    y 0.000000 2.164780 0.000000 
#    z 0.000000 0.000000 1.807490 
# 
# From -- ./inp_files/7972.got.cif
#   From: 2010.05.17/outbox.cif.g08.bks.cpg/sg58_4_cif.got.tgz:7972.got - 2010.06.03 14:20:14.
