data_PCOD9440040
_publ_section_title
;
Structure prediction by ZEFSAII (Michael W. Deem and Ramdas Pophale) SiO2 
 PCOD9440040
Probable space group: P B C M
;
_chemical_formula_sum "Si O2"
_cell_formula_units_Z 48
_cell_length_a 9.966718
_cell_length_b 28.250255
_cell_length_c 8.826403
_cell_angle_alpha 90.000000
_cell_angle_beta 90.000000
_cell_angle_gamma 90.000000
_cell_volume 2485.182550
_symmetry_space_group_name_H-M "P B C M"
_symmetry_group_IT_number 57
_symmetry_cell_setting 'orthorhombic'
loop_
_space_group_symop_operation_xyz
x,y,z
-x,-y,1/2+z
x,1/2-y,-z
-x,1/2+y,1/2-z
-x,-y,-z
x,y,1/2-z
-x,1/2+y,z
x,1/2-y,1/2+z
loop_
_atom_site_type_symbol
_atom_site_label
_atom_site_fract_x
_atom_site_fract_y
_atom_site_fract_z
Si Si1 0.287351 0.606691 0.073715
Si Si2 0.787836 0.891929 0.428507
Si Si3 0.368237 0.799226 0.069437
Si Si4 0.052620 0.951263 0.070865
Si Si5 0.443061 0.452426 0.573156
Si Si6 0.332650 0.200549 0.068884
O O1 0.257701 0.615497 0.250000
O O2 0.437482 0.585856 0.063635
O O3 0.283493 0.655375 0.981081
O O4 0.186125 0.567937 0.007922
O O5 0.765656 0.883628 0.250000
O O6 0.936612 0.912009 0.450616
O O7 0.684560 0.931897 0.486141
O O8 0.754975 0.844143 0.518460
O O9 0.377344 0.795963 0.250000
O O10 0.316076 0.750000 0.000000
O O11 0.517799 0.805574 0.000114
O O12 0.074664 0.957686 0.250000
O O13 0.000000 0.000000 0.000000
O O14 0.500000 0.500000 0.500000
O O15 0.410643 0.459942 0.750000
O O16 0.342339 0.203314 0.250000
O O17 0.280840 0.250000 0.000000
#
# Coordination Sequence:
#
# PCOD9440040 Si02
#       6
#     8   8   8   8   8   8
#     4  11  23  40  61  89 122 159 205 252 302 362
#     4  11  23  40  61  88 121 158 203 252 302 362
#     4  11  21  36  61  91 125 161 199 248 303 360
#     4  11  25  43  63  88 121 164 209 251 307 368
#     4  11  23  37  58  87 119 153 199 253 305 362
#     4  11  21  36  60  91 124 159 199 246 303 362
#
# _framework density 19.314477
#
# number of rings (size 3 to 8) (size 9 to 14) (size 15 to 20)
#    0.000    1.000    1.667    7.000    0.000    8.667 
#    0.000    0.833    0.000    4.000    0.000    0.000 
#    0.000    0.000    0.000    0.000    0.000    0.000 
#
# Total GULP energy -268526.357149 kJ/mol
# GULP energy per Si atom -5594.299107 kJ/mol
# Density = 1.927052 g / cm^3
# Si number density = 19.314477 Si / 1000 Ang^3
#
#
#
# Elastic Constant Matrix: (Units=GPa)
#
#
# Indices 1 2 3 4 5 6 
#
# 1 24.2025 -23.3986 15.1516 0.0000 0.0000 0.0000
# 2 -23.3986 90.3670 30.2875 0.0000 0.0000 0.0000
# 3 15.1516 30.2875 137.7743 0.0000 0.0000 0.0000
# 4 0.0000 0.0000 0.0000 39.6674 0.0000 0.0000
# 5 0.0000 0.0000 0.0000 0.0000 26.1767 0.0000
# 6 0.0000 0.0000 0.0000 0.0000 0.0000 27.0431
#
#
#
# Elastic Compliance Matrix: (Units=1/GPa)
#
#
# Indices 1 2 3 4 5 6 
#
# 1 0.071423 0.022806 -0.012868 0.000000 0.000000 0.000000
# 2 0.022806 0.019229 -0.006735 0.000000 0.000000 0.000000
# 3 -0.012868 -0.006735 0.010154 0.000000 0.000000 0.000000
# 4 0.000000 0.000000 0.000000 0.025210 0.000000 0.000000
# 5 0.000000 0.000000 0.000000 0.000000 0.038202 0.000000
# 6 0.000000 0.000000 0.000000 0.000000 0.000000 0.036978
#
#
# Mechanical properties :
#
#
# Convention : Reuss Voigt Hill
#
# Bulk Modulus (GPa) = 9.32738 32.93611 21.13175
# Shear Modulus (GPa) = 21.68948 33.93100 27.81024
#
# Velocity S-wave (km/s) = 3.35470 4.19593 3.79867
# Velocity P-wave (km/s) = 4.45478 6.36898 5.49586
#
# Compressibility (1/GPa) = 0.10721123
#
# Stress axis : x y z
#
# Youngs Moduli (GPa) = 14.00111 52.00589 98.48273
#
# Poissons Ratio (x) = -1.18607 1.26731
# Poissons Ratio (y) = -0.31931 0.66330
# Poissons Ratio (z) = 0.18017 0.35027
#
# Static dielectric constant tensor:
#      x y z
#    x 1.649210 0.000000 0.000000 
#    y 0.000000 1.733840 0.000000 
#    z 0.000000 0.000000 1.647240 
# 
# From -- ./inp_files/2136.got.cif
#   From: 2010.05.17/outbox.cif.g08.bks.cpg/sg57_2_cif.got.tgz:2136.got - 2010.06.03 13:58:18.
