data_PCOD9440292
_publ_section_title
;
Structure prediction by ZEFSAII (Michael W. Deem and Ramdas Pophale) SiO2 
 PCOD9440292
Probable space group: P B C M
;
_chemical_formula_sum "Si O2"
_cell_formula_units_Z 20
_cell_length_a 11.955202
_cell_length_b 5.091924
_cell_length_c 14.372507
_cell_angle_alpha 90.000000
_cell_angle_beta 90.000000
_cell_angle_gamma 90.000000
_cell_volume 874.926076
_symmetry_space_group_name_H-M "P B C M"
_symmetry_group_IT_number 57
_symmetry_cell_setting 'orthorhombic'
loop_
_space_group_symop_operation_xyz
x,y,z
-x,-y,1/2+z
x,1/2-y,-z
-x,1/2+y,1/2-z
-x,-y,-z
x,y,1/2-z
-x,1/2+y,z
x,1/2-y,1/2+z
loop_
_atom_site_type_symbol
_atom_site_label
_atom_site_fract_x
_atom_site_fract_y
_atom_site_fract_z
Si Si1 0.764928 0.888385 0.900638
Si Si2 0.423954 0.401608 0.750000
Si Si3 0.076659 0.143601 0.750000
Si Si4 0.082747 0.750000 0.500000
O O1 0.654738 0.933940 0.840254
O O2 0.846892 0.708541 0.838699
O O3 0.831552 0.158290 0.919715
O O4 0.744379 0.750000 0.000000
O O5 0.521312 0.615494 0.750000
O O6 0.977736 0.359038 0.750000
O O7 0.000000 0.500000 0.500000
#
# Coordination Sequence:
#
# PCOD9440292 Si02
#       4
#     8   4   4   4
#     4  11  27  46  75 107 148 191 253 300 366 442
#     4  11  30  53  76 104 146 191 254 323 376 418
#     4  11  26  41  64 104 152 193 230 285 358 440
#     4  12  24  40  70 108 148 186 230 284 358 446
#
# _framework density 22.859074
#
# number of rings (size 3 to 8) (size 9 to 14) (size 15 to 20)
#    0.000    0.800    2.000    2.400   11.200    4.800 
#    0.000    0.000    0.000    0.000    0.000    0.000 
#    0.000    0.000    0.000    0.000    0.000    0.000 
#
# Total GULP energy -111995.062446 kJ/mol
# GULP energy per Si atom -5599.753122 kJ/mol
# Density = 2.280705 g / cm^3
# Si number density = 22.859074 Si / 1000 Ang^3
#
#
#
# Elastic Constant Matrix: (Units=GPa)
#
#
# Indices 1 2 3 4 5 6 
#
# 1 81.9564 -0.1170 55.1692 0.0000 0.0000 0.0000
# 2 -0.1170 110.7478 28.0903 0.0000 0.0000 0.0000
# 3 55.1692 28.0903 174.5971 0.0000 0.0000 0.0000
# 4 0.0000 0.0000 0.0000 33.0104 0.0000 0.0000
# 5 0.0000 0.0000 0.0000 0.0000 59.1569 0.0000
# 6 0.0000 0.0000 0.0000 0.0000 0.0000 40.4589
#
#
#
# Elastic Compliance Matrix: (Units=1/GPa)
#
#
# Indices 1 2 3 4 5 6 
#
# 1 0.015683 0.001328 -0.005169 0.000000 0.000000 0.000000
# 2 0.001328 0.009526 -0.001952 0.000000 0.000000 0.000000
# 3 -0.005169 -0.001952 0.007675 0.000000 0.000000 0.000000
# 4 0.000000 0.000000 0.000000 0.030293 0.000000 0.000000
# 5 0.000000 0.000000 0.000000 0.000000 0.016904 0.000000
# 6 0.000000 0.000000 0.000000 0.000000 0.000000 0.024716
#
#
# Mechanical properties :
#
#
# Convention : Reuss Voigt Hill
#
# Bulk Modulus (GPa) = 46.95524 59.28738 53.12131
# Shear Modulus (GPa) = 40.49093 45.46915 42.98004
#
# Velocity S-wave (km/s) = 4.21328 4.46478 4.34085
# Velocity P-wave (km/s) = 6.65242 7.25061 6.95795
#
# Compressibility (1/GPa) = 0.02129688
#
# Stress axis : x y z
#
# Youngs Moduli (GPa) = 63.76274 104.97503 130.29487
#
# Poissons Ratio (x) = -0.13937 0.67352
# Poissons Ratio (y) = -0.08466 0.25435
# Poissons Ratio (z) = 0.32960 0.20493
#
# Static dielectric constant tensor:
#      x y z
#    x 1.807420 0.000000 0.000000 
#    y 0.000000 1.863530 0.000000 
#    z 0.000000 0.000000 1.956740 
# 
# From -- ./inp_files/17088.got.cif
#   From: 2010.05.17/outbox.cif.g08.bks.cpg/sg57_9_cif.got.tgz:17088.got - 2010.06.03 13:58:18.
