data_PCOD9440051
_publ_section_title
;
Structure prediction by ZEFSAII (Michael W. Deem and Ramdas Pophale) SiO2 
 PCOD9440051
Probable space group: P B C M
;
_chemical_formula_sum "Si O2"
_cell_formula_units_Z 32
_cell_length_a 7.428442
_cell_length_b 11.153394
_cell_length_c 15.244597
_cell_angle_alpha 90.000000
_cell_angle_beta 90.000000
_cell_angle_gamma 90.000000
_cell_volume 1263.050540
_symmetry_space_group_name_H-M "P B C M"
_symmetry_group_IT_number 57
_symmetry_cell_setting 'orthorhombic'
loop_
_space_group_symop_operation_xyz
x,y,z
-x,-y,1/2+z
x,1/2-y,-z
-x,1/2+y,1/2-z
-x,-y,-z
x,y,1/2-z
-x,1/2+y,z
x,1/2-y,1/2+z
loop_
_atom_site_type_symbol
_atom_site_label
_atom_site_fract_x
_atom_site_fract_y
_atom_site_fract_z
Si Si1 0.568123 0.643499 0.097851
Si Si2 0.071586 0.468433 0.096263
Si Si3 0.055238 0.283251 0.849042
Si Si4 0.511636 0.607157 0.602485
O O1 0.774148 0.686002 0.089435
O O2 0.580575 0.511840 0.139281
O O3 0.478124 0.760636 0.140864
O O4 0.477997 0.623222 0.002440
O O5 0.970866 0.345016 0.125009
O O6 0.278207 0.428906 0.106789
O O7 0.056990 0.594497 0.146707
O O8 0.000000 0.500000 0.000000
O O9 0.124285 0.268728 0.750000
#
# Coordination Sequence:
#
# PCOD9440051 Si02
#       4
#     8   8   8   8
#     4   9  18  35  55  83 116 148 192 247 291 351
#     4  11  21  39  62  89 117 158 208 251 297 368
#     4  11  23  39  58  87 126 160 194 252 317 362
#     4   9  18  34  58  85 111 147 201 246 288 340
#
# _framework density 25.335484999999998
#
# number of rings (size 3 to 8) (size 9 to 14) (size 15 to 20)
#    0.000    2.000    2.500    1.500    0.000    2.000 
#    9.000    6.250    0.000    0.000    0.000    0.000 
#    0.000    0.000    0.000    0.000    0.000    0.000 
#
# Total GULP energy -178353.025320 kJ/mol
# GULP energy per Si atom -5573.532041 kJ/mol
# Density = 2.527782 g / cm^3
# Si number density = 25.335485 Si / 1000 Ang^3
#
#
#
# Elastic Constant Matrix: (Units=GPa)
#
#
# Indices 1 2 3 4 5 6 
#
# 1 22.6652 37.3362 -8.1092 0.0000 0.0000 0.0000
# 2 37.3362 355.7915 32.3343 0.0000 0.0000 0.0000
# 3 -8.1092 32.3343 92.0865 0.0000 0.0000 0.0000
# 4 0.0000 0.0000 0.0000 3.4940 0.0000 0.0000
# 5 0.0000 0.0000 0.0000 0.0000 0.9174 0.0000
# 6 0.0000 0.0000 0.0000 0.0000 0.0000 41.7805
#
#
#
# Elastic Compliance Matrix: (Units=1/GPa)
#
#
# Indices 1 2 3 4 5 6 
#
# 1 0.057927 -0.006758 0.007474 0.000000 0.000000 0.000000
# 2 -0.006758 0.003692 -0.001891 0.000000 0.000000 0.000000
# 3 0.007474 -0.001891 0.012182 0.000000 0.000000 0.000000
# 4 0.000000 0.000000 0.000000 0.286201 0.000000 0.000000
# 5 0.000000 0.000000 0.000000 0.000000 1.090094 0.000000
# 6 0.000000 0.000000 0.000000 0.000000 0.000000 0.023935
#
#
# Mechanical properties :
#
#
# Convention : Reuss Voigt Hill
#
# Bulk Modulus (GPa) = 13.99587 65.96287 39.97937
# Shear Modulus (GPa) = 3.33289 36.50385 19.91837
#
# Velocity S-wave (km/s) = 1.14820 3.79993 2.80694
# Velocity P-wave (km/s) = 2.70074 6.73386 5.13025
#
# Compressibility (1/GPa) = 0.07144967
#
# Stress axis : x y z
#
# Youngs Moduli (GPa) = 17.26309 270.87815 82.09077
#
# Poissons Ratio (x) = 1.83060 -0.61355
# Poissons Ratio (y) = 0.11666 0.15526
# Poissons Ratio (z) = -0.12902 0.51233
#
# Static dielectric constant tensor:
#      x y z
#    x 2.093520 0.000000 0.000000 
#    y 0.000000 2.206870 0.000000 
#    z 0.000000 0.000000 2.021410 
# 
# From -- ./inp_files/20464.got.cif
#   From: 2010.05.17/outbox.cif.g08.bks.cpg/sg57_11_cif.got.tgz:20464.got - 2010.06.03 13:58:18.
