data_PCOD9440552
_publ_section_title
;
Structure prediction by ZEFSAII (Michael W. Deem and Ramdas Pophale) SiO2 
 PCOD9440552
Probable space group: P B C M
;
_chemical_formula_sum "Si O2"
_cell_formula_units_Z 56
_cell_length_a 15.000000
_cell_length_b 21.000000
_cell_length_c 9.000000
_cell_angle_alpha 90.000000
_cell_angle_beta 90.000000
_cell_angle_gamma 90.000000
_cell_volume 2835.000000
_symmetry_space_group_name_H-M "P B C M"
_symmetry_group_IT_number 57
_symmetry_cell_setting 'orthorhombic'
loop_
_space_group_symop_operation_xyz
x,y,z
-x,-y,1/2+z
x,1/2-y,-z
-x,1/2+y,1/2-z
-x,-y,-z
x,y,1/2-z
-x,1/2+y,z
x,1/2-y,1/2+z
loop_
_atom_site_type_symbol
_atom_site_label
_atom_site_fract_x
_atom_site_fract_y
_atom_site_fract_z
Si Si1 0.790539 0.578152 0.426054
Si Si2 0.099116 0.313601 0.421390
Si Si3 0.611263 0.932979 0.075445
Si Si4 0.298719 0.687675 0.578524
Si Si5 0.907664 0.021012 0.423057
Si Si6 0.410128 0.569805 0.927502
Si Si7 0.899329 0.147045 0.916567
O O1 0.791703 0.573841 0.250000
O O2 0.862517 0.627865 0.486846
O O3 0.692970 0.596313 0.485051
O O4 0.824030 0.512417 0.498193
O O5 0.131078 0.250000 0.500000
O O6 0.127498 0.317930 0.250000
O O7 0.991705 0.315571 0.423185
O O8 0.631681 0.930933 0.250000
O O9 0.511714 0.906129 0.052548
O O10 0.603329 0.005467 0.018233
O O11 0.333174 0.750000 0.500000
O O12 0.324612 0.690337 0.750000
O O13 0.340542 0.622533 0.520618
O O14 0.191802 0.685209 0.570858
O O15 0.909765 0.004544 0.250000
O O16 0.900459 0.095361 0.454590
O O17 0.000000 0.000000 0.500000
O O18 0.398243 0.556249 0.750000
O O19 0.897594 0.116092 0.750000
#
# Coordination Sequence:
#
# PCOD9440552 Si02
#       7
#     8   8   8   8   8   8   8
#     4  12  24  39  59  84 116 154 195 242 292 345
#     4  11  23  39  58  80 112 153 198 241 285 341
#     4  10  20  36  61  90 117 149 191 242 297 355
#     4  10  21  37  57  84 117 155 194 236 286 343
#     4  12  23  36  57  86 118 152 191 237 290 345
#     4   9  19  37  60  87 120 153 188 236 295 354
#     4  10  21  37  58  84 118 156 193 236 287 344
#
# _framework density 19.753086
#
# number of rings (size 3 to 8) (size 9 to 14) (size 15 to 20)
#    0.000    1.429    1.429    4.714    0.000    3.429 
#    0.000    0.714    0.000    1.714    0.000    0.000 
#    0.000    0.000    0.000    0.000    0.000    0.000 
#
# Total GULP energy -312612.643169 kJ/mol
# GULP energy per Si atom -5582.368628 kJ/mol
# Density = 1.970813 g / cm^3
# Si number density = 19.753086 Si / 1000 Ang^3
#
#
#
# Elastic Constant Matrix: (Units=GPa)
#
#
# Indices 1 2 3 4 5 6 
#
# 1 65.6742 -3.0804 36.5851 0.0000 0.0000 0.0000
# 2 -3.0804 33.8414 18.6840 0.0000 0.0000 0.0000
# 3 36.5851 18.6840 115.2974 0.0000 0.0000 0.0000
# 4 0.0000 0.0000 0.0000 26.6069 0.0000 0.0000
# 5 0.0000 0.0000 0.0000 0.0000 22.1503 0.0000
# 6 0.0000 0.0000 0.0000 0.0000 0.0000 -7.0994
#
#
#
# Elastic Compliance Matrix: (Units=1/GPa)
#
#
# Indices 1 2 3 4 5 6 
#
# 1 0.019443 0.005685 -0.007091 0.000000 0.000000 0.000000
# 2 0.005685 0.034115 -0.007332 0.000000 0.000000 0.000000
# 3 -0.007091 -0.007332 0.012111 0.000000 0.000000 0.000000
# 4 0.000000 0.000000 0.000000 0.037584 0.000000 0.000000
# 5 0.000000 0.000000 0.000000 0.000000 0.045146 0.000000
# 6 0.000000 0.000000 0.000000 0.000000 0.000000 -0.140858
#
#
# Mechanical properties :
#
#
# Convention : Reuss Voigt Hill
#
# Bulk Modulus (GPa) = 20.74977 35.46560 28.10768
# Shear Modulus (GPa) = 121.70381 19.17319 70.43850
#
# Velocity S-wave (km/s) = 7.85788 3.11889 5.97804
# Velocity P-wave (km/s) = 9.63617 5.56448 7.86827
#
# Compressibility (1/GPa) = 0.04819331
#
# Stress axis : x y z
#
# Youngs Moduli (GPa) = 51.43137 29.31247 82.56684
#
# Poissons Ratio (x) = -0.16663 0.58546
# Poissons Ratio (y) = -0.29237 0.60540
# Poissons Ratio (z) = 0.36469 0.21492
#
# Static dielectric constant tensor:
#      x y z
#    x 1.716990 0.000000 0.000000 
#    y 0.000000 1.650950 0.000000 
#    z 0.000000 0.000000 1.686760 
# 
# From -- ./inp_files/5279.got.cif
#   From: 2010.05.17/outbox.ucp.g08.bks.cvg/sg57_3_cif.got.tgz:5279.got - 2010.06.11 16:39:23.
