data_PCOD9440276
_publ_section_title
;
Structure prediction by ZEFSAII (Michael W. Deem and Ramdas Pophale) SiO2 
 PCOD9440276
Probable space group: P B C M
;
_chemical_formula_sum "Si O2"
_cell_formula_units_Z 40
_cell_length_a 5.145661
_cell_length_b 13.564152
_cell_length_c 25.442491
_cell_angle_alpha 90.000000
_cell_angle_beta 90.000000
_cell_angle_gamma 90.000000
_cell_volume 1775.797534
_symmetry_space_group_name_H-M "P B C M"
_symmetry_group_IT_number 57
_symmetry_cell_setting 'orthorhombic'
loop_
_space_group_symop_operation_xyz
x,y,z
-x,-y,1/2+z
x,1/2-y,-z
-x,1/2+y,1/2-z
-x,-y,-z
x,y,1/2-z
-x,1/2+y,z
x,1/2-y,1/2+z
loop_
_atom_site_type_symbol
_atom_site_label
_atom_site_fract_x
_atom_site_fract_y
_atom_site_fract_z
Si Si1 0.238946 0.683497 0.118241
Si Si2 0.998937 0.157648 0.551567
Si Si3 0.440419 0.638298 0.688628
Si Si4 0.946816 0.975193 0.351664
Si Si5 0.504407 0.885335 0.986753
O O1 0.383117 0.763622 0.154623
O O2 0.117800 0.590665 0.148664
O O3 0.428064 0.639656 0.072921
O O4 0.014133 0.747982 0.089663
O O5 0.026153 0.061272 0.588080
O O6 0.221728 0.348494 0.491466
O O7 0.721239 0.156591 0.523936
O O8 0.442246 0.662188 0.750000
O O9 0.708077 0.586698 0.672076
O O10 0.209930 0.560413 0.676137
O O11 0.500000 0.000000 0.000000
#
# Coordination Sequence:
#
# PCOD9440276 Si02
#       5
#     8   8   8   8   8
#     4  11  27  44  76 104 145 193 241 290 363 432
#     4  11  25  45  66 107 148 189 232 284 338 428
#     4  11  27  49  71 102 136 178 246 312 369 429
#     4  11  25  47  72 101 142 185 235 300 359 427
#     4  12  25  44  70 103 156 194 232 281 350 424
#
# _framework density 22.525092000000001
#
# number of rings (size 3 to 8) (size 9 to 14) (size 15 to 20)
#    0.000    0.800    2.000    4.200    0.000   14.400 
#    0.000    0.000    0.000    0.000    0.000    0.000 
#    0.000    0.000    0.000    0.000    0.000    0.000 
#
# Total GULP energy -224115.689597 kJ/mol
# GULP energy per Si atom -5602.892240 kJ/mol
# Density = 2.247382 g / cm^3
# Si number density = 22.525092 Si / 1000 Ang^3
#
#
#
# Elastic Constant Matrix: (Units=GPa)
#
#
# Indices 1 2 3 4 5 6 
#
# 1 57.0882 -13.3531 -5.6899 0.0000 0.0000 0.0000
# 2 -13.3531 138.2455 14.6488 0.0000 0.0000 0.0000
# 3 -5.6899 14.6488 89.0791 0.0000 0.0000 0.0000
# 4 0.0000 0.0000 0.0000 16.5797 0.0000 0.0000
# 5 0.0000 0.0000 0.0000 0.0000 15.6727 0.0000
# 6 0.0000 0.0000 0.0000 0.0000 0.0000 27.1018
#
#
#
# Elastic Compliance Matrix: (Units=1/GPa)
#
#
# Indices 1 2 3 4 5 6 
#
# 1 0.017989 0.001644 0.000879 0.000000 0.000000 0.000000
# 2 0.001644 0.007512 -0.001130 0.000000 0.000000 0.000000
# 3 0.000879 -0.001130 0.011468 0.000000 0.000000 0.000000
# 4 0.000000 0.000000 0.000000 0.060315 0.000000 0.000000
# 5 0.000000 0.000000 0.000000 0.000000 0.063805 0.000000
# 6 0.000000 0.000000 0.000000 0.000000 0.000000 0.036898
#
#
# Mechanical properties :
#
#
# Convention : Reuss Voigt Hill
#
# Bulk Modulus (GPa) = 25.15434 30.62492 27.88963
# Shear Modulus (GPa) = 23.98621 31.12463 27.55542
#
# Velocity S-wave (km/s) = 3.26677 3.72126 3.50140
# Velocity P-wave (km/s) = 5.04188 5.66472 5.36235
#
# Compressibility (1/GPa) = 0.03975458
#
# Stress axis : x y z
#
# Youngs Moduli (GPa) = 55.58964 133.11827 87.19940
#
# Poissons Ratio (x) = -0.21891 -0.07661
# Poissons Ratio (y) = -0.09141 0.09856
# Poissons Ratio (z) = -0.04884 0.15046
#
# Static dielectric constant tensor:
#      x y z
#    x 1.817080 0.000000 0.000000 
#    y 0.000000 -7.700260 0.000000 
#    z 0.000000 0.000000 1.841410 
# 
# From -- ./inp_files/29064.got.cif
#   From: 2010.05.17/outbox.cif.g08.bks.cpg/sg57_15_cif.got.tgz:29064.got - 2010.06.03 13:58:18.
