data_PCOD9440277
_publ_section_title
;
Structure prediction by ZEFSAII (Michael W. Deem and Ramdas Pophale) SiO2 
 PCOD9440277
Probable space group: P B C M
;
_chemical_formula_sum "Si O2"
_cell_formula_units_Z 56
_cell_length_a 8.136055
_cell_length_b 13.733970
_cell_length_c 21.860838
_cell_angle_alpha 90.000000
_cell_angle_beta 90.000000
_cell_angle_gamma 90.000000
_cell_volume 2442.737368
_symmetry_space_group_name_H-M "P B C M"
_symmetry_group_IT_number 57
_symmetry_cell_setting 'orthorhombic'
loop_
_space_group_symop_operation_xyz
x,y,z
-x,-y,1/2+z
x,1/2-y,-z
-x,1/2+y,1/2-z
-x,-y,-z
x,y,1/2-z
-x,1/2+y,z
x,1/2-y,1/2+z
loop_
_atom_site_type_symbol
_atom_site_label
_atom_site_fract_x
_atom_site_fract_y
_atom_site_fract_z
Si Si1 0.972091 0.287610 0.067920
Si Si2 0.224776 0.561410 0.938126
Si Si3 0.485384 0.177116 0.945286
Si Si4 0.869321 0.879217 0.647017
Si Si5 0.232420 0.943948 0.816430
Si Si6 0.469413 0.209613 0.317366
Si Si7 0.797862 0.547407 0.941142
O O1 0.025444 0.401585 0.068861
O O2 0.790180 0.322550 0.085108
O O3 0.972765 0.250000 0.000000
O O4 0.070209 0.283876 0.890022
O O5 0.424173 0.572683 0.941266
O O6 0.182260 0.467817 0.897142
O O7 0.189434 0.537931 0.010167
O O8 0.463599 0.226802 0.878976
O O9 0.303766 0.138914 0.965403
O O10 0.539357 0.250000 0.000000
O O11 0.702988 0.850479 0.681799
O O12 0.040992 0.909078 0.679782
O O13 0.254778 0.991940 0.750000
O O14 0.368735 0.859075 0.820809
O O15 0.255950 0.011209 0.875174
O O16 0.477985 0.259379 0.250000
#
# Coordination Sequence:
#
# PCOD9440277 Si02
#       7
#     8   8   8   8   8   8   8
#     4  12  22  39  65 100 137 174 223 281 347 415
#     4  12  24  40  69 104 136 178 229 288 350 414
#     4  12  24  43  68 104 140 182 234 291 347 417
#     4  12  23  45  72 100 138 183 232 282 350 420
#     4  11  25  45  67  96 134 182 235 288 345 414
#     4  11  25  46  70  99 140 186 232 288 351 414
#     4  12  22  42  64  96 137 175 226 288 345 412
#
# _framework density 22.925101000000002
#
# number of rings (size 3 to 8) (size 9 to 14) (size 15 to 20)
#    0.000    0.286    4.286    6.429    0.000    0.571 
#    0.000    1.429    0.000    0.000    0.000    0.000 
#    0.000    0.000    0.000    0.000    0.000    0.000 
#
# Total GULP energy -312066.976746 kJ/mol
# GULP energy per Si atom -5572.624585 kJ/mol
# Density = 2.287292 g / cm^3
# Si number density = 22.925101 Si / 1000 Ang^3
#
#
#
# Elastic Constant Matrix: (Units=GPa)
#
#
# Indices 1 2 3 4 5 6 
#
# 1 42.8252 32.0262 51.3875 0.0000 0.0000 0.0000
# 2 32.0262 98.5572 66.8376 0.0000 0.0000 0.0000
# 3 51.3875 66.8376 126.7633 0.0000 0.0000 0.0000
# 4 0.0000 0.0000 0.0000 24.5961 0.0000 0.0000
# 5 0.0000 0.0000 0.0000 0.0000 24.5390 0.0000
# 6 0.0000 0.0000 0.0000 0.0000 0.0000 51.1960
#
#
#
# Elastic Compliance Matrix: (Units=1/GPa)
#
#
# Indices 1 2 3 4 5 6 
#
# 1 0.046276 -0.003604 -0.016859 0.000000 0.000000 0.000000
# 2 -0.003604 0.016074 -0.007014 0.000000 0.000000 0.000000
# 3 -0.016859 -0.007014 0.018421 0.000000 0.000000 0.000000
# 4 0.000000 0.000000 0.000000 0.040657 0.000000 0.000000
# 5 0.000000 0.000000 0.000000 0.000000 0.040751 0.000000
# 6 0.000000 0.000000 0.000000 0.000000 0.000000 0.019533
#
#
# Mechanical properties :
#
#
# Convention : Reuss Voigt Hill
#
# Bulk Modulus (GPa) = 38.73484 63.18314 50.95899
# Shear Modulus (GPa) = 20.38540 27.92585 24.15562
#
# Velocity S-wave (km/s) = 2.98521 3.49396 3.24956
# Velocity P-wave (km/s) = 5.36795 6.62552 6.02961
#
# Compressibility (1/GPa) = 0.02581655
#
# Stress axis : x y z
#
# Youngs Moduli (GPa) = 21.60955 62.21053 54.28443
#
# Poissons Ratio (x) = 0.22422 0.91518
# Poissons Ratio (y) = 0.07789 0.38077
# Poissons Ratio (z) = 0.36432 0.43637
#
# Static dielectric constant tensor:
#      x y z
#    x 2.070300 0.000000 0.000000 
#    y 0.000000 1.844910 0.000000 
#    z 0.000000 0.000000 1.187370 
# 
# From -- ./inp_files/24432.got.cif
#   From: 2010.05.17/outbox.cif.g08.bks.cpg/sg57_13_cif.got.tgz:24432.got - 2010.06.03 13:58:18.
