data_PCOD9440175
_publ_section_title
;
Structure prediction by ZEFSAII (Michael W. Deem and Ramdas Pophale) SiO2 
 PCOD9440175
Probable space group: P B C M
;
_chemical_formula_sum "Si O2"
_cell_formula_units_Z 40
_cell_length_a 13.116017
_cell_length_b 7.824326
_cell_length_c 15.809410
_cell_angle_alpha 90.000000
_cell_angle_beta 90.000000
_cell_angle_gamma 90.000000
_cell_volume 1622.424778
_symmetry_space_group_name_H-M "P B C M"
_symmetry_group_IT_number 57
_symmetry_cell_setting 'orthorhombic'
loop_
_space_group_symop_operation_xyz
x,y,z
-x,-y,1/2+z
x,1/2-y,-z
-x,1/2+y,1/2-z
-x,-y,-z
x,y,1/2-z
-x,1/2+y,z
x,1/2-y,1/2+z
loop_
_atom_site_type_symbol
_atom_site_label
_atom_site_fract_x
_atom_site_fract_y
_atom_site_fract_z
Si Si1 0.235197 0.850668 0.913538
Si Si2 0.841383 0.608484 0.151184
Si Si3 0.665019 0.209148 0.750000
Si Si4 0.647892 0.788423 0.411159
Si Si5 0.958309 0.966345 0.150420
Si Si6 0.540793 0.643973 0.250000
O O1 0.268280 0.734177 0.833891
O O2 0.120071 0.916737 0.900369
O O3 0.304796 0.022389 0.909190
O O4 0.250140 0.750000 0.000000
O O5 0.812034 0.584347 0.250000
O O6 0.742884 0.655054 0.097281
O O7 0.924412 0.471459 0.121772
O O8 0.910403 0.779436 0.147889
O O9 0.580664 0.360010 0.750000
O O10 0.598109 0.037290 0.750000
O O11 0.595074 0.750000 0.500000
O O12 0.576802 0.746072 0.332797
O O13 0.957952 0.019380 0.250000
#
# Coordination Sequence:
#
# PCOD9440175 Si02
#       6
#     8   8   4   8   8   4
#     4  11  23  42  65  95 131 167 211 261 312 372
#     4   9  18  34  57  86 124 168 210 256 306 362
#     4  12  26  46  71  96 123 162 205 258 322 380
#     4  11  23  42  65  95 131 167 211 261 312 372
#     4   9  18  34  57  86 124 168 210 256 306 362
#     4  12  26  46  71  96 123 162 205 258 322 380
#
# _framework density 24.654456
#
# number of rings (size 3 to 8) (size 9 to 14) (size 15 to 20)
#    0.000    1.600    2.000    3.000    0.000    4.800 
#    0.000    8.000    0.000    0.000    0.000    0.000 
#    0.000    0.000    0.000    0.000    0.000    0.000 
#
# Total GULP energy -224237.633910 kJ/mol
# GULP energy per Si atom -5605.940848 kJ/mol
# Density = 2.459834 g / cm^3
# Si number density = 24.654456 Si / 1000 Ang^3
#
#
#
# Elastic Constant Matrix: (Units=GPa)
#
#
# Indices 1 2 3 4 5 6 
#
# 1 86.3652 -0.6243 32.4995 0.0000 0.0000 0.0000
# 2 -0.6243 94.4009 33.1808 0.0000 0.0000 0.0000
# 3 32.4995 33.1808 165.4155 0.0000 0.0000 0.0000
# 4 0.0000 0.0000 0.0000 33.8190 0.0000 0.0000
# 5 0.0000 0.0000 0.0000 0.0000 0.4190 0.0000
# 6 0.0000 0.0000 0.0000 0.0000 0.0000 37.4204
#
#
#
# Elastic Compliance Matrix: (Units=1/GPa)
#
#
# Indices 1 2 3 4 5 6 
#
# 1 0.012595 0.001025 -0.002680 0.000000 0.000000 0.000000
# 2 0.001025 0.011480 -0.002504 0.000000 0.000000 0.000000
# 3 -0.002680 -0.002504 0.007074 0.000000 0.000000 0.000000
# 4 0.000000 0.000000 0.000000 0.029569 0.000000 0.000000
# 5 0.000000 0.000000 0.000000 0.000000 2.386677 0.000000
# 6 0.000000 0.000000 0.000000 0.000000 0.000000 0.026723
#
#
# Mechanical properties :
#
#
# Convention : Reuss Voigt Hill
#
# Bulk Modulus (GPa) = 43.80020 52.92149 48.36084
# Shear Modulus (GPa) = 2.00799 33.07339 17.54069
#
# Velocity S-wave (km/s) = 0.90345 3.66659 2.67022
# Velocity P-wave (km/s) = 4.34655 6.27989 5.40044
#
# Compressibility (1/GPa) = 0.02283095
#
# Stress axis : x y z
#
# Youngs Moduli (GPa) = 79.39838 87.10714 141.35685
#
# Poissons Ratio (x) = -0.08932 0.37886
# Poissons Ratio (y) = -0.08141 0.35399
# Poissons Ratio (z) = 0.21280 0.21814
#
# Static dielectric constant tensor:
#      x y z
#    x 1.924320 0.000000 0.000000 
#    y 0.000000 2.042950 0.000000 
#    z 0.000000 0.000000 1.915120 
# 
# From -- ./inp_files/4289.got.cif
#   From: 2010.05.17/outbox.cif.g08.bks.cpg/sg57_3_cif.got.tgz:4289.got - 2010.06.03 13:58:18.
