data_PCOD9440174
_publ_section_title
;
Structure prediction by ZEFSAII (Michael W. Deem and Ramdas Pophale) SiO2 
 PCOD9440174
Probable space group: P B C M
;
_chemical_formula_sum "Si O2"
_cell_formula_units_Z 48
_cell_length_a 9.520046
_cell_length_b 8.905376
_cell_length_c 26.145201
_cell_angle_alpha 90.000000
_cell_angle_beta 90.000000
_cell_angle_gamma 90.000000
_cell_volume 2216.579399
_symmetry_space_group_name_H-M "P B C M"
_symmetry_group_IT_number 57
_symmetry_cell_setting 'orthorhombic'
loop_
_space_group_symop_operation_xyz
x,y,z
-x,-y,1/2+z
x,1/2-y,-z
-x,1/2+y,1/2-z
-x,-y,-z
x,y,1/2-z
-x,1/2+y,z
x,1/2-y,1/2+z
loop_
_atom_site_type_symbol
_atom_site_label
_atom_site_fract_x
_atom_site_fract_y
_atom_site_fract_z
Si Si1 0.106868 0.321708 0.750000
Si Si2 0.149084 0.491677 0.092914
Si Si3 0.186209 0.974967 0.750000
Si Si4 0.646258 0.164381 0.339916
Si Si5 0.406658 0.527578 0.874062
Si Si6 0.394364 0.100306 0.967782
Si Si7 0.140348 0.144767 0.130029
O O1 0.152073 0.376756 0.807569
O O2 0.943686 0.362423 0.750000
O O3 0.135169 0.144501 0.750000
O O4 0.258476 0.618788 0.112257
O O5 0.233177 0.453100 0.040590
O O6 0.144545 0.324782 0.119308
O O7 0.999660 0.568768 0.105836
O O8 0.280434 0.933663 0.797440
O O9 0.642707 0.341747 0.335984
O O10 0.491473 0.101949 0.345960
O O11 0.518303 0.603974 0.913612
O O12 0.270518 0.443490 0.895614
O O13 0.388243 0.250000 0.000000
O O14 0.500000 0.000000 0.000000
#
# Coordination Sequence:
#
# PCOD9440174 Si02
#       7
#     4   8   4   8   8   8   8
#     4  12  24  41  67 100 140 188 230 274 336 397
#     4  11  23  42  67 101 136 179 228 285 351 414
#     4  12  26  41  65  98 138 182 250 278 330 411
#     4  11  23  42  63  94 137 180 233 282 339 408
#     4  11  25  43  68  99 136 183 226 288 361 402
#     4  11  23  46  73  98 132 177 229 291 356 428
#     4  12  23  42  69 102 143 186 230 284 339 411
#
# _framework density 21.654987999999999
#
# number of rings (size 3 to 8) (size 9 to 14) (size 15 to 20)
#    0.000    0.667    3.333    6.000    2.333    1.333 
#    0.000    4.167    0.000    0.000    0.000    0.000 
#    0.000    0.000    0.000    0.000    0.000    0.000 
#
# Total GULP energy -267322.151509 kJ/mol
# GULP energy per Si atom -5569.211490 kJ/mol
# Density = 2.160570 g / cm^3
# Si number density = 21.654988 Si / 1000 Ang^3
#
#
#
# Elastic Constant Matrix: (Units=GPa)
#
#
# Indices 1 2 3 4 5 6 
#
# 1 130.5859 63.2518 9.1309 0.0000 0.0000 0.0000
# 2 63.2518 121.6067 14.3625 0.0000 0.0000 0.0000
# 3 9.1309 14.3625 54.2595 0.0000 0.0000 0.0000
# 4 0.0000 0.0000 0.0000 35.0347 0.0000 0.0000
# 5 0.0000 0.0000 0.0000 0.0000 144.1938 0.0000
# 6 0.0000 0.0000 0.0000 0.0000 0.0000 33.0811
#
#
#
# Elastic Compliance Matrix: (Units=1/GPa)
#
#
# Indices 1 2 3 4 5 6 
#
# 1 0.010242 -0.005289 -0.000324 0.000000 0.000000 0.000000
# 2 -0.005289 0.011220 -0.002080 0.000000 0.000000 0.000000
# 3 -0.000324 -0.002080 0.019035 0.000000 0.000000 0.000000
# 4 0.000000 0.000000 0.000000 0.028543 0.000000 0.000000
# 5 0.000000 0.000000 0.000000 0.000000 0.006935 0.000000
# 6 0.000000 0.000000 0.000000 0.000000 0.000000 0.030229
#
#
# Mechanical properties :
#
#
# Convention : Reuss Voigt Hill
#
# Bulk Modulus (GPa) = 39.82149 53.32696 46.57422
# Shear Modulus (GPa) = 38.47336 57.10905 47.79121
#
# Velocity S-wave (km/s) = 4.21961 5.14096 4.70290
# Velocity P-wave (km/s) = 6.49377 7.74070 7.14449
#
# Compressibility (1/GPa) = 0.02511207
#
# Stress axis : x y z
#
# Youngs Moduli (GPa) = 97.63403 89.12692 52.53496
#
# Poissons Ratio (x) = 0.47141 0.01700
# Poissons Ratio (y) = 0.51640 0.10926
# Poissons Ratio (z) = 0.03159 0.18537
#
# Static dielectric constant tensor:
#      x y z
#    x 1.772060 0.000000 0.000000 
#    y 0.000000 1.734830 0.000000 
#    z 0.000000 0.000000 1.947070 
# 
# From -- ./inp_files/29525.got.cif
#   From: 2010.05.17/outbox.cif.g08.bks.cpg/sg57_15_cif.got.tgz:29525.got - 2010.06.03 13:58:18.
