data_PCOD9440250
_publ_section_title
;
Structure prediction by ZEFSAII (Michael W. Deem and Ramdas Pophale) SiO2 
 PCOD9440250
Probable space group: P B C M
;
_chemical_formula_sum "Si O2"
_cell_formula_units_Z 40
_cell_length_a 5.888229
_cell_length_b 13.377552
_cell_length_c 21.666031
_cell_angle_alpha 90.000000
_cell_angle_beta 90.000000
_cell_angle_gamma 90.000000
_cell_volume 1706.635204
_symmetry_space_group_name_H-M "P B C M"
_symmetry_group_IT_number 57
_symmetry_cell_setting 'orthorhombic'
loop_
_space_group_symop_operation_xyz
x,y,z
-x,-y,1/2+z
x,1/2-y,-z
-x,1/2+y,1/2-z
-x,-y,-z
x,y,1/2-z
-x,1/2+y,z
x,1/2-y,1/2+z
loop_
_atom_site_type_symbol
_atom_site_label
_atom_site_fract_x
_atom_site_fract_y
_atom_site_fract_z
Si Si1 0.831432 0.547539 0.873031
Si Si2 0.813922 0.604975 0.417862
Si Si3 0.438102 0.869039 0.820875
Si Si4 0.492117 0.361800 0.025394
Si Si5 0.872576 0.213965 0.895879
O O1 0.706789 0.471587 0.827327
O O2 0.648807 0.603172 0.915522
O O3 0.987905 0.475597 0.914615
O O4 0.998719 0.635847 0.851379
O O5 0.679133 0.611371 0.353281
O O6 0.618612 0.579463 0.467655
O O7 0.946256 0.709514 0.424635
O O8 0.459908 0.840235 0.750000
O O9 0.309065 0.782924 0.860026
O O10 0.747376 0.349507 0.050677
O O11 0.450816 0.250000 0.000000
#
# Coordination Sequence:
#
# PCOD9440250 Si02
#       5
#     8   8   8   8   8
#     4  11  25  43  70 105 139 184 227 281 354 412
#     4  11  25  44  70 104 141 181 228 284 346 411
#     4  11  26  48  69  97 138 182 240 291 334 409
#     4  12  23  42  71 103 145 178 221 282 344 424
#     4  11  24  44  70 104 139 182 225 278 351 411
#
# _framework density 23.437933999999998
#
# number of rings (size 3 to 8) (size 9 to 14) (size 15 to 20)
#    0.000    0.800    4.000    1.800    2.800    7.200 
#    0.000    7.000    0.000    0.000    0.000    0.000 
#    0.000    0.000    0.000    0.000    0.000    0.000 
#
# Total GULP energy -223524.654263 kJ/mol
# GULP energy per Si atom -5588.116357 kJ/mol
# Density = 2.338459 g / cm^3
# Si number density = 23.437934 Si / 1000 Ang^3
#
#
#
# Elastic Constant Matrix: (Units=GPa)
#
#
# Indices 1 2 3 4 5 6 
#
# 1 117.3774 42.2681 29.4110 0.0000 0.0000 0.0000
# 2 42.2681 83.4734 -8.9979 0.0000 0.0000 0.0000
# 3 29.4110 -8.9979 89.6133 0.0000 0.0000 0.0000
# 4 0.0000 0.0000 0.0000 19.5927 0.0000 0.0000
# 5 0.0000 0.0000 0.0000 0.0000 4.7699 0.0000
# 6 0.0000 0.0000 0.0000 0.0000 0.0000 63.5923
#
#
#
# Elastic Compliance Matrix: (Units=1/GPa)
#
#
# Indices 1 2 3 4 5 6 
#
# 1 0.012054 -0.006602 -0.004619 0.000000 0.000000 0.000000
# 2 -0.006602 0.015727 0.003746 0.000000 0.000000 0.000000
# 3 -0.004619 0.003746 0.013051 0.000000 0.000000 0.000000
# 4 0.000000 0.000000 0.000000 0.051039 0.000000 0.000000
# 5 0.000000 0.000000 0.000000 0.000000 0.209649 0.000000
# 6 0.000000 0.000000 0.000000 0.000000 0.000000 0.015725
#
#
# Mechanical properties :
#
#
# Convention : Reuss Voigt Hill
#
# Bulk Modulus (GPa) = 38.63721 46.20296 42.42009
# Shear Modulus (GPa) = 14.67037 32.77649 23.72343
#
# Velocity S-wave (km/s) = 2.50456 3.74363 3.18493
# Velocity P-wave (km/s) = 4.98843 6.20016 5.62701
#
# Compressibility (1/GPa) = 0.02588179
#
# Stress axis : x y z
#
# Youngs Moduli (GPa) = 82.95837 63.58679 76.62168
#
# Poissons Ratio (x) = 0.41978 0.35392
# Poissons Ratio (y) = 0.54767 -0.28701
# Poissons Ratio (z) = 0.38319 -0.23818
#
# Static dielectric constant tensor:
#      x y z
#    x 1.871450 0.000000 0.000000 
#    y 0.000000 1.973930 0.000000 
#    z 0.000000 0.000000 1.857590 
# 
# From -- ./inp_files/26097.got.cif
#   From: 2010.05.17/outbox.cif.g08.bks.cpg/sg57_14_cif.got.tgz:26097.got - 2010.06.03 13:58:18.
