data_PCOD9440331
_publ_section_title
;
Structure prediction by ZEFSAII (Michael W. Deem and Ramdas Pophale) SiO2 
 PCOD9440331
Probable space group: P B C M
;
_chemical_formula_sum "Si O2"
_cell_formula_units_Z 40
_cell_length_a 13.476148
_cell_length_b 9.652602
_cell_length_c 14.990224
_cell_angle_alpha 90.000000
_cell_angle_beta 90.000000
_cell_angle_gamma 90.000000
_cell_volume 1949.926736
_symmetry_space_group_name_H-M "P B C M"
_symmetry_group_IT_number 57
_symmetry_cell_setting 'orthorhombic'
loop_
_space_group_symop_operation_xyz
x,y,z
-x,-y,1/2+z
x,1/2-y,-z
-x,1/2+y,1/2-z
-x,-y,-z
x,y,1/2-z
-x,1/2+y,z
x,1/2-y,1/2+z
loop_
_atom_site_type_symbol
_atom_site_label
_atom_site_fract_x
_atom_site_fract_y
_atom_site_fract_z
Si Si1 0.686345 0.853607 0.568540
Si Si2 0.112631 0.251434 0.650699
Si Si3 0.941598 0.050262 0.087263
Si Si4 0.580063 0.783800 0.750000
Si Si5 0.377304 0.550584 0.250000
Si Si6 0.718639 0.116193 0.054980
O O1 0.633969 0.750000 0.500000
O O2 0.797762 0.798978 0.588211
O O3 0.630725 0.847612 0.661871
O O4 0.694340 0.993430 0.513569
O O5 0.150376 0.272523 0.750000
O O6 0.015881 0.344820 0.635451
O O7 0.085204 0.091291 0.638032
O O8 0.837821 0.122598 0.065480
O O9 0.000000 0.000000 0.000000
O O10 0.593681 0.614862 0.750000
O O11 0.468887 0.842489 0.750000
O O12 0.321286 0.582833 0.344648
O O13 0.682466 0.250000 0.000000
#
# Coordination Sequence:
#
# PCOD9440331 Si02
#       6
#     8   8   8   4   4   8
#     4  12  23  47  76 101 141 191 238 294 361 427
#     4  12  24  40  66 102 139 190 240 289 357 428
#     4  12  23  42  65 100 144 187 239 288 347 430
#     4  12  28  50  77 110 140 185 242 299 365 435
#     4  12  30  52  77 108 148 183 242 307 365 441
#     4  12  28  48  74 108 149 192 238 301 364 424
#
# _framework density 20.513591999999999
#
# number of rings (size 3 to 8) (size 9 to 14) (size 15 to 20)
#    0.000    0.000    7.000    2.400    5.600    1.600 
#    0.000    0.000    0.000    0.000    0.000    0.000 
#    0.000    0.000    0.000    0.000    0.000    0.000 
#
# Total GULP energy -223490.796144 kJ/mol
# GULP energy per Si atom -5587.269904 kJ/mol
# Density = 2.046690 g / cm^3
# Si number density = 20.513592 Si / 1000 Ang^3
#
#
#
# Elastic Constant Matrix: (Units=GPa)
#
#
# Indices 1 2 3 4 5 6 
#
# 1 93.3607 15.7067 55.2390 0.0000 0.0000 0.0000
# 2 15.7067 76.3361 51.7096 0.0000 0.0000 0.0000
# 3 55.2390 51.7096 201.7839 0.0000 0.0000 0.0000
# 4 0.0000 0.0000 0.0000 36.3331 0.0000 0.0000
# 5 0.0000 0.0000 0.0000 0.0000 7.2899 0.0000
# 6 0.0000 0.0000 0.0000 0.0000 0.0000 9.2958
#
#
#
# Elastic Compliance Matrix: (Units=1/GPa)
#
#
# Indices 1 2 3 4 5 6 
#
# 1 0.012788 -0.000314 -0.003420 0.000000 0.000000 0.000000
# 2 -0.000314 0.015859 -0.003978 0.000000 0.000000 0.000000
# 3 -0.003420 -0.003978 0.006911 0.000000 0.000000 0.000000
# 4 0.000000 0.000000 0.000000 0.027523 0.000000 0.000000
# 5 0.000000 0.000000 0.000000 0.000000 0.137176 0.000000
# 6 0.000000 0.000000 0.000000 0.000000 0.000000 0.107575
#
#
# Mechanical properties :
#
#
# Convention : Reuss Voigt Hill
#
# Bulk Modulus (GPa) = 49.66887 68.53235 59.10061
# Shear Modulus (GPa) = 15.15293 27.17212 21.16252
#
# Velocity S-wave (km/s) = 2.72081 3.64344 3.21539
# Velocity P-wave (km/s) = 5.84257 7.15404 6.53131
#
# Compressibility (1/GPa) = 0.02013334
#
# Stress axis : x y z
#
# Youngs Moduli (GPa) = 78.20073 63.05411 144.68662
#
# Poissons Ratio (x) = 0.01982 0.49484
# Poissons Ratio (y) = 0.02459 0.57558
# Poissons Ratio (z) = 0.26745 0.25084
#
# Static dielectric constant tensor:
#      x y z
#    x -3.310930 0.000000 0.000000 
#    y 0.000000 1.768770 0.000000 
#    z 0.000000 0.000000 1.815380 
# 
# From -- ./inp_files/18255.got.cif
#   From: 2010.05.17/outbox.cif.g08.bks.cpg/sg57_10_cif.got.tgz:18255.got - 2010.06.03 13:58:18.
