data_PCOD9440119
_publ_section_title
;
Structure prediction by ZEFSAII (Michael W. Deem and Ramdas Pophale) SiO2 
 PCOD9440119
Probable space group: P B C M
;
_chemical_formula_sum "Si O2"
_cell_formula_units_Z 56
_cell_length_a 15.804952
_cell_length_b 8.081775
_cell_length_c 19.947713
_cell_angle_alpha 90.000000
_cell_angle_beta 90.000000
_cell_angle_gamma 90.000000
_cell_volume 2547.962592
_symmetry_space_group_name_H-M "P B C M"
_symmetry_group_IT_number 57
_symmetry_cell_setting 'orthorhombic'
loop_
_space_group_symop_operation_xyz
x,y,z
-x,-y,1/2+z
x,1/2-y,-z
-x,1/2+y,1/2-z
-x,-y,-z
x,y,1/2-z
-x,1/2+y,z
x,1/2-y,1/2+z
loop_
_atom_site_type_symbol
_atom_site_label
_atom_site_fract_x
_atom_site_fract_y
_atom_site_fract_z
Si Si1 0.264744 0.337819 0.428458
Si Si2 0.599337 0.262416 0.173782
Si Si3 0.413130 0.135221 0.826997
Si Si4 0.048006 0.508251 0.750000
Si Si5 0.233253 0.691293 0.383273
Si Si6 0.931109 0.135961 0.936206
Si Si7 0.134500 0.627469 0.250000
Si Si8 0.911772 0.805524 0.616078
O O1 0.275593 0.250000 0.500000
O O2 0.342704 0.301943 0.378375
O O3 0.254290 0.537877 0.431991
O O4 0.178197 0.274972 0.395034
O O5 0.610957 0.323933 0.250000
O O6 0.508440 0.324713 0.150116
O O7 0.682756 0.296741 0.131171
O O8 0.595796 0.062955 0.175490
O O9 0.403381 0.197947 0.750000
O O10 0.089398 0.690884 0.750000
O O11 0.079450 0.407849 0.815396
O O12 0.944862 0.498597 0.750000
O O13 0.157722 0.805710 0.406718
O O14 0.195809 0.614221 0.314080
O O15 0.011421 0.177168 0.889574
O O16 0.925058 0.940444 0.943338
O O17 0.940130 0.250000 0.000000
#
# Coordination Sequence:
#
# PCOD9440119 Si02
#       8
#     8   8   8   4   8   8   4   8
#     4  11  25  43  63  92 126 169 216 258 312 379
#     4   9  18  36  61  90 121 155 202 252 324 374
#     4   9  20  39  63  92 121 160 204 260 313 373
#     4  12  24  40  60  95 123 156 208 263 321 367
#     4  11  22  40  65  89 125 167 205 261 313 373
#     4  12  24  41  59  85 123 172 212 249 307 376
#     4  12  24  42  62  93 131 160 206 261 319 365
#     4  12  24  39  61  87 124 160 208 262 311 369
#
# _framework density 21.978345000000001
#
# number of rings (size 3 to 8) (size 9 to 14) (size 15 to 20)
#    0.000    1.143    3.571    2.571    4.000    1.143 
#    0.000    3.571    0.000    0.000    0.000    0.000 
#    0.000    0.000    0.000    0.000    0.000    0.000 
#
# Total GULP energy -313310.812059 kJ/mol
# GULP energy per Si atom -5594.835930 kJ/mol
# Density = 2.192832 g / cm^3
# Si number density = 21.978345 Si / 1000 Ang^3
#
#
#
# Elastic Constant Matrix: (Units=GPa)
#
#
# Indices 1 2 3 4 5 6 
#
# 1 349.9586 83.8715 0.3149 0.0000 0.0000 0.0000
# 2 83.8715 53.0141 -24.9526 0.0000 0.0000 0.0000
# 3 0.3149 -24.9526 67.9710 0.0000 0.0000 0.0000
# 4 0.0000 0.0000 0.0000 12.3043 0.0000 0.0000
# 5 0.0000 0.0000 0.0000 0.0000 -7.1145 0.0000
# 6 0.0000 0.0000 0.0000 0.0000 0.0000 31.8136
#
#
#
# Elastic Compliance Matrix: (Units=1/GPa)
#
#
# Indices 1 2 3 4 5 6 
#
# 1 0.005288 -0.010127 -0.003742 0.000000 0.000000 0.000000
# 2 -0.010127 0.042198 0.015538 0.000000 0.000000 0.000000
# 3 -0.003742 0.015538 0.020434 0.000000 0.000000 0.000000
# 4 0.000000 0.000000 0.000000 0.081273 0.000000 0.000000
# 5 0.000000 0.000000 0.000000 0.000000 -0.140558 0.000000
# 6 0.000000 0.000000 0.000000 0.000000 0.000000 0.031433
#
#
# Mechanical properties :
#
#
# Convention : Reuss Voigt Hill
#
# Bulk Modulus (GPa) = 14.03365 65.49014 39.76189
# Shear Modulus (GPa) = 82.66790 34.84799 58.75795
#
# Velocity S-wave (km/s) = 6.13963 3.98623 5.17615
# Velocity P-wave (km/s) = 7.52722 7.14486 7.33853
#
# Compressibility (1/GPa) = 0.07125732
#
# Stress axis : x y z
#
# Youngs Moduli (GPa) = 189.10853 23.69756 48.93884
#
# Poissons Ratio (x) = 0.23999 0.18314
# Poissons Ratio (y) = 1.91516 -0.76042
# Poissons Ratio (z) = 0.70770 -0.36822
#
# Static dielectric constant tensor:
#      x y z
#    x 1.773260 0.000000 0.000000 
#    y 0.000000 1.809570 0.000000 
#    z 0.000000 0.000000 1.881880 
# 
# From -- ./inp_files/25445.got.cif
#   From: 2010.05.17/outbox.cif.g08.bks.cpg/sg57_13_cif.got.tgz:25445.got - 2010.06.03 13:58:18.
