data_PCOD9440650
_publ_section_title
;
Structure prediction by ZEFSAII (Michael W. Deem and Ramdas Pophale) SiO2 
 PCOD9440650
Probable space group: P B C M
;
_chemical_formula_sum "Si O2"
_cell_formula_units_Z 48
_cell_length_a 12.000000
_cell_length_b 9.000000
_cell_length_c 24.000000
_cell_angle_alpha 90.000000
_cell_angle_beta 90.000000
_cell_angle_gamma 90.000000
_cell_volume 2592.000000
_symmetry_space_group_name_H-M "P B C M"
_symmetry_group_IT_number 57
_symmetry_cell_setting 'orthorhombic'
loop_
_space_group_symop_operation_xyz
x,y,z
-x,-y,1/2+z
x,1/2-y,-z
-x,1/2+y,1/2-z
-x,-y,-z
x,y,1/2-z
-x,1/2+y,z
x,1/2-y,1/2+z
loop_
_atom_site_type_symbol
_atom_site_label
_atom_site_fract_x
_atom_site_fract_y
_atom_site_fract_z
Si Si1 0.658783 0.796055 0.602589
Si Si2 0.132972 0.393191 0.973228
Si Si3 0.776458 0.359889 0.948022
Si Si4 0.858712 0.777177 0.316731
Si Si5 0.539756 0.009120 0.064944
Si Si6 0.967319 0.433895 0.875663
O O1 0.755310 0.839906 0.558470
O O2 0.736647 0.762422 0.656775
O O3 0.565420 0.926974 0.599995
O O4 0.588974 0.649726 0.584512
O O5 0.048806 0.465738 0.928856
O O6 0.074305 0.250000 0.000000
O O7 0.176248 0.490389 0.024071
O O8 0.648266 0.383504 0.930605
O O9 0.864931 0.331686 0.898738
O O10 0.779111 0.250000 0.000000
O O11 0.852440 0.794717 0.250000
O O12 0.949180 0.650782 0.333649
O O13 0.908037 0.924421 0.347379
O O14 0.500000 0.000000 0.000000
#
# Coordination Sequence:
#
# PCOD9440650 Si02
#       6
#     8   8   8   8   8   8
#     4  11  23  40  59  89 122 164 206 246 291 360
#     4  11  19  36  56  90 137 162 190 236 304 381
#     4  12  21  32  55  96 131 164 193 238 300 374
#     4  11  24  46  66  84 116 159 211 268 311 346
#     4  12  21  37  60  90 130 166 196 233 295 371
#     4  11  22  38  63  92 121 156 205 251 310 369
#
# _framework density 18.518519000000001
#
# number of rings (size 3 to 8) (size 9 to 14) (size 15 to 20)
#    0.000    0.667    5.000    5.000    0.000    0.000 
#    0.000    0.833    0.000    0.000    0.000    0.000 
#    0.000    0.000    0.000    0.000    0.000    0.000 
#
# Total GULP energy -268036.911725 kJ/mol
# GULP energy per Si atom -5584.102328 kJ/mol
# Density = 1.847637 g / cm^3
# Si number density = 18.518519 Si / 1000 Ang^3
#
#
#
# Elastic Constant Matrix: (Units=GPa)
#
#
# Indices 1 2 3 4 5 6 
#
# 1 162.4095 36.4095 52.6424 0.0000 0.0000 0.0000
# 2 36.4095 60.0488 18.0446 0.0000 0.0000 0.0000
# 3 52.6424 18.0446 99.7913 0.0000 0.0000 0.0000
# 4 0.0000 0.0000 0.0000 24.7808 0.0000 0.0000
# 5 0.0000 0.0000 0.0000 0.0000 28.4109 0.0000
# 6 0.0000 0.0000 0.0000 0.0000 0.0000 39.9027
#
#
#
# Elastic Compliance Matrix: (Units=1/GPa)
#
#
# Indices 1 2 3 4 5 6 
#
# 1 0.008203 -0.003884 -0.003625 0.000000 0.000000 0.000000
# 2 -0.003884 0.019449 -0.001468 0.000000 0.000000 0.000000
# 3 -0.003625 -0.001468 0.012199 0.000000 0.000000 0.000000
# 4 0.000000 0.000000 0.000000 0.040354 0.000000 0.000000
# 5 0.000000 0.000000 0.000000 0.000000 0.035198 0.000000
# 6 0.000000 0.000000 0.000000 0.000000 0.000000 0.025061
#
#
# Mechanical properties :
#
#
# Convention : Reuss Voigt Hill
#
# Bulk Modulus (GPa) = 45.66885 59.60474 52.63679
# Shear Modulus (GPa) = 30.17194 32.96242 31.56718
#
# Velocity S-wave (km/s) = 4.04082 4.22355 4.13319
# Velocity P-wave (km/s) = 6.81804 7.48605 7.15984
#
# Compressibility (1/GPa) = 0.02189676
#
# Stress axis : x y z
#
# Youngs Moduli (GPa) = 121.90552 51.41533 81.97691
#
# Poissons Ratio (x) = 0.19972 0.29716
# Poissons Ratio (y) = 0.47354 0.12032
# Poissons Ratio (z) = 0.44190 0.07546
#
# Static dielectric constant tensor:
#      x y z
#    x 1.640840 0.000000 0.000000 
#    y 0.000000 1.880340 0.000000 
#    z 0.000000 0.000000 1.631260 
# 
# From -- ./inp_files/27110.got.cif
#   From: 2010.05.17/outbox.ucp.g08.bks.cvg/sg57_14_cif.got.tgz:27110.got - 2010.06.11 16:39:23.
