data_PCOD9440781
_publ_section_title
;
Structure prediction by ZEFSAII (Michael W. Deem and Ramdas Pophale) SiO2 
 PCOD9440781
Probable space group: P N N M
;
_chemical_formula_sum "Si O2"
_cell_formula_units_Z 40
_cell_length_a 21.620684
_cell_length_b 12.990048
_cell_length_c 7.754149
_cell_angle_alpha 90.000000
_cell_angle_beta 90.000000
_cell_angle_gamma 90.000000
_cell_volume 2177.781615
_symmetry_space_group_name_H-M "P N N M"
_symmetry_group_IT_number 58
_symmetry_cell_setting 'orthorhombic'
loop_
_space_group_symop_operation_xyz
x,y,z
-x,-y,z
1/2+x,1/2-y,1/2-z
1/2-x,1/2+y,1/2-z
-x,-y,-z
x,y,-z
1/2-x,1/2+y,1/2+z
1/2+x,1/2-y,1/2+z
loop_
_atom_site_type_symbol
_atom_site_label
_atom_site_fract_x
_atom_site_fract_y
_atom_site_fract_z
Si Si1 0.699028 0.402951 0.710695
Si Si2 0.837917 0.351172 0.299657
Si Si3 0.333732 0.819704 0.290286
Si Si4 0.692899 0.628109 0.297060
Si Si5 0.432312 0.983018 0.700558
O O1 0.700155 0.404839 0.500000
O O2 0.770280 0.385936 0.767373
O O3 0.662342 0.300223 0.761363
O O4 0.676002 0.514405 0.769265
O O5 0.840989 0.379848 0.500000
O O6 0.838697 0.227898 0.284650
O O7 0.892318 0.412818 0.209172
O O8 0.331994 0.823771 0.500000
O O9 0.266838 0.859652 0.229254
O O10 0.388541 0.892837 0.226230
O O11 0.679848 0.632691 0.500000
O O12 0.441838 0.954679 0.500000
O O13 0.500000 0.000000 0.778993
#
# Coordination Sequence:
#
# PCOD9440781 Si02
#       5
#     8   8   8   8   8
#     4   8  15  27  45  68  95 122 150 193 241 291
#     4  10  19  32  47  69  98 128 163 198 243 292
#     4   9  17  30  46  68  98 128 158 195 244 291
#     4  10  17  28  47  71  97 122 153 196 245 294
#     4  10  20  33  50  72  99 131 168 206 241 286
#
# _framework density 18.367315000000001
#
# number of rings (size 3 to 8) (size 9 to 14) (size 15 to 20)
#    0.000    2.600    2.000    2.400    0.000    0.400 
#    0.000    1.000    0.000    1.200    0.000    8.400 
#    0.000    0.000    0.000    0.000    0.000    0.000 
#
# Total GULP energy -222943.317266 kJ/mol
# GULP energy per Si atom -5573.582932 kJ/mol
# Density = 1.832551 g / cm^3
# Si number density = 18.367315 Si / 1000 Ang^3
#
#
#
# Elastic Constant Matrix: (Units=GPa)
#
#
# Indices 1 2 3 4 5 6 
#
# 1 79.4747 43.3321 -4.7098 0.0000 0.0000 0.0000
# 2 43.3321 148.6566 -11.4003 0.0000 0.0000 0.0000
# 3 -4.7098 -11.4003 29.6762 0.0000 0.0000 0.0000
# 4 0.0000 0.0000 0.0000 16.6318 0.0000 0.0000
# 5 0.0000 0.0000 0.0000 0.0000 9.8729 0.0000
# 6 0.0000 0.0000 0.0000 0.0000 0.0000 15.7850
#
#
#
# Elastic Compliance Matrix: (Units=1/GPa)
#
#
# Indices 1 2 3 4 5 6 
#
# 1 0.014975 -0.004310 0.000721 0.000000 0.000000 0.000000
# 2 -0.004310 0.008171 0.002455 0.000000 0.000000 0.000000
# 3 0.000721 0.002455 0.034755 0.000000 0.000000 0.000000
# 4 0.000000 0.000000 0.000000 0.060126 0.000000 0.000000
# 5 0.000000 0.000000 0.000000 0.000000 0.101287 0.000000
# 6 0.000000 0.000000 0.000000 0.000000 0.000000 0.063351
#
#
# Mechanical properties :
#
#
# Convention : Reuss Voigt Hill
#
# Bulk Modulus (GPa) = 17.97465 34.69461 26.33463
# Shear Modulus (GPa) = 16.47570 23.83032 20.15301
#
# Velocity S-wave (km/s) = 2.99826 3.60589 3.31603
# Velocity P-wave (km/s) = 4.66836 6.02221 5.38797
#
# Compressibility (1/GPa) = 0.05563391
#
# Stress axis : x y z
#
# Youngs Moduli (GPa) = 66.77703 122.37686 28.77313
#
# Poissons Ratio (x) = 0.52743 -0.02075
# Poissons Ratio (y) = 0.28780 -0.07064
# Poissons Ratio (z) = -0.04815 -0.30045
#
# Static dielectric constant tensor:
#      x y z
#    x 1.604650 0.000000 0.000000 
#    y 0.000000 1.674020 0.000000 
#    z 0.000000 0.000000 1.657910 
# 
# From -- ./inp_files/3814.got.cif
#   From: 2010.05.17/outbox.cif.g08.bks.cpg/sg58_2_cif.got.tgz:3814.got - 2010.06.03 14:20:14.
