data_PCOD9440098
_publ_section_title
;
Structure prediction by ZEFSAII (Michael W. Deem and Ramdas Pophale) SiO2 
 PCOD9440098
Probable space group: P B C M
;
_chemical_formula_sum "Si O2"
_cell_formula_units_Z 48
_cell_length_a 31.594877
_cell_length_b 9.194954
_cell_length_c 8.651986
_cell_angle_alpha 90.000000
_cell_angle_beta 90.000000
_cell_angle_gamma 90.000000
_cell_volume 2513.518221
_symmetry_space_group_name_H-M "P B C M"
_symmetry_group_IT_number 57
_symmetry_cell_setting 'orthorhombic'
loop_
_space_group_symop_operation_xyz
x,y,z
-x,-y,1/2+z
x,1/2-y,-z
-x,1/2+y,1/2-z
-x,-y,-z
x,y,1/2-z
-x,1/2+y,z
x,1/2-y,1/2+z
loop_
_atom_site_type_symbol
_atom_site_label
_atom_site_fract_x
_atom_site_fract_y
_atom_site_fract_z
Si Si1 0.459809 0.586818 0.935574
Si Si2 0.960114 0.086657 0.435286
Si Si3 0.790704 0.587656 0.564226
Si Si4 0.129561 0.913906 0.064893
Si Si5 0.625238 0.587032 0.064602
Si Si6 0.705370 0.412887 0.935128
O O1 0.462161 0.591693 0.750000
O O2 0.416960 0.501726 0.979895
O O3 0.459155 0.750000 0.000000
O O4 0.500000 0.500000 0.000000
O O5 0.963148 0.250000 0.500000
O O6 0.959926 0.086988 0.250000
O O7 0.915113 0.029248 0.498130
O O8 0.000000 0.000000 0.500000
O O9 0.786013 0.750000 0.500000
O O10 0.794720 0.591055 0.750000
O O11 0.831774 0.511753 0.491751
O O12 0.749154 0.493620 0.524234
O O13 0.127630 0.908281 0.250000
O O14 0.135307 0.750000 0.000000
O O15 0.627318 0.592600 0.250000
O O16 0.623521 0.750000 0.000000
O O17 0.666147 0.503555 0.001367
O O18 0.702083 0.407891 0.750000
O O19 0.705053 0.250000 0.000000
#
# Coordination Sequence:
#
# PCOD9440098 Si02
#       6
#     8   8   8   8   8   8
#     4  11  24  41  63  91 123 161 203 251 302 359
#     4  11  22  39  61  88 120 156 198 245 296 353
#     4  11  24  41  61  89 121 156 197 245 297 352
#     4  11  22  39  62  88 118 156 198 243 295 353
#     4  11  24  41  63  91 124 160 201 248 301 356
#     4  11  24  41  64  91 122 159 201 246 297 355
#
# _framework density 19.09674
#
# number of rings (size 3 to 8) (size 9 to 14) (size 15 to 20)
#    0.000    1.000    0.000    8.000    0.000   11.333 
#    0.000    3.333    0.000    0.000    0.000    0.000 
#    0.000    0.000    0.000    0.000    0.000    0.000 
#
# Total GULP energy -268631.259036 kJ/mol
# GULP energy per Si atom -5596.484563 kJ/mol
# Density = 1.905327 g / cm^3
# Si number density = 19.096740 Si / 1000 Ang^3
#
#
#
# Elastic Constant Matrix: (Units=GPa)
#
#
# Indices 1 2 3 4 5 6 
#
# 1 220.2879 120.8599 92.2415 0.0000 0.0000 0.0000
# 2 120.8599 172.4978 67.0573 0.0000 0.0000 0.0000
# 3 92.2415 67.0573 125.8813 0.0000 0.0000 0.0000
# 4 0.0000 0.0000 0.0000 40.4223 0.0000 0.0000
# 5 0.0000 0.0000 0.0000 0.0000 33.8168 0.0000
# 6 0.0000 0.0000 0.0000 0.0000 0.0000 45.4693
#
#
#
# Elastic Compliance Matrix: (Units=1/GPa)
#
#
# Indices 1 2 3 4 5 6 
#
# 1 0.008689 -0.004556 -0.003940 0.000000 0.000000 0.000000
# 2 -0.004556 0.009700 -0.001829 0.000000 0.000000 0.000000
# 3 -0.003940 -0.001829 0.011805 0.000000 0.000000 0.000000
# 4 0.000000 0.000000 0.000000 0.024739 0.000000 0.000000
# 5 0.000000 0.000000 0.000000 0.000000 0.029571 0.000000
# 6 0.000000 0.000000 0.000000 0.000000 0.000000 0.021993
#
#
# Mechanical properties :
#
#
# Convention : Reuss Voigt Hill
#
# Bulk Modulus (GPa) = 104.76910 119.88714 112.32812
# Shear Modulus (GPa) = 38.36441 39.84222 39.10332
#
# Velocity S-wave (km/s) = 4.48699 4.57260 4.53000
# Velocity P-wave (km/s) = 9.04575 9.52855 9.29029
#
# Compressibility (1/GPa) = 0.00954480
#
# Stress axis : x y z
#
# Youngs Moduli (GPa) = 115.08669 103.08762 84.70877
#
# Poissons Ratio (x) = 0.46971 0.33374
# Poissons Ratio (y) = 0.52438 0.15491
# Poissons Ratio (z) = 0.45343 0.18852
#
# Static dielectric constant tensor:
#      x y z
#    x 1.647780 0.000000 0.000000 
#    y 0.000000 1.612320 0.000000 
#    z 0.000000 0.000000 1.639190 
# 
# From -- ./inp_files/9999.got.cif
#   From: 2010.05.17/outbox.cif.g08.bks.cpg/sg57_5_cif.got.tgz:9999.got - 2010.06.03 13:58:18.
