data_PCOD9440141
_publ_section_title
;
Structure prediction by ZEFSAII (Michael W. Deem and Ramdas Pophale) SiO2 
 PCOD9440141
Probable space group: P B C M
;
_chemical_formula_sum "Si O2"
_cell_formula_units_Z 32
_cell_length_a 6.688206
_cell_length_b 13.416036
_cell_length_c 11.820602
_cell_angle_alpha 90.000000
_cell_angle_beta 90.000000
_cell_angle_gamma 90.000000
_cell_volume 1060.653308
_symmetry_space_group_name_H-M "P B C M"
_symmetry_group_IT_number 57
_symmetry_cell_setting 'orthorhombic'
loop_
_space_group_symop_operation_xyz
x,y,z
-x,-y,1/2+z
x,1/2-y,-z
-x,1/2+y,1/2-z
-x,-y,-z
x,y,1/2-z
-x,1/2+y,z
x,1/2-y,1/2+z
loop_
_atom_site_type_symbol
_atom_site_label
_atom_site_fract_x
_atom_site_fract_y
_atom_site_fract_z
Si Si1 0.313227 0.207941 0.750000
Si Si2 0.366815 0.378716 0.565342
Si Si3 0.289632 0.750000 0.500000
Si Si4 0.435768 0.953979 0.250000
Si Si5 0.000000 0.000000 0.500000
Si Si6 0.823396 0.295974 0.250000
Si Si7 0.930551 0.957876 0.250000
O O1 0.318824 0.282754 0.641388
O O2 0.564065 0.178573 0.750000
O O3 0.070790 0.174813 0.750000
O O4 0.567469 0.346950 0.498932
O O5 0.427265 0.471911 0.641830
O O6 0.173152 0.412003 0.497048
O O7 0.180503 0.749919 0.620879
O O8 0.682819 0.926515 0.250000
O O9 0.185158 0.923610 0.250000
O O10 0.952977 0.020929 0.365749
#
# Coordination Sequence:
#
# PCOD9440141 Si02
#       7
#     4   8   4   4   4   4   4
#     4  11  24  50  82 115 165 216 263 342 410 487
#     4  11  24  46  79 120 162 211 276 334 412 492
#     4  12  26  48  82 116 160 218 270 346 408 490
#     4  11  22  49  80 112 158 213 275 335 401 494
#     4  12  26  46  78 112 164 208 264 342 402 488
#     4  12  26  49  76 117 157 205 272 337 404 492
#     4  12  28  50  74 114 158 208 264 328 415 483
#
# _framework density 30.170083000000002
#
# number of rings (size 3 to 8) (size 9 to 14) (size 15 to 20)
#    0.000    0.500    5.000    3.000    0.000    5.000 
#    0.000    3.750    0.000    0.000    0.000    0.000 
#    0.000    0.000    0.000    0.000    0.000    0.000 
#
# Total GULP energy -178432.906576 kJ/mol
# GULP energy per Si atom -5576.028331 kJ/mol
# Density = 3.010141 g / cm^3
# Si number density = 30.170083 Si / 1000 Ang^3
#
#
#
# Elastic Constant Matrix: (Units=GPa)
#
#
# Indices 1 2 3 4 5 6 
#
# 1 247.9849 105.0353 36.2630 0.0000 0.0000 0.0000
# 2 105.0353 190.7736 73.9853 0.0000 0.0000 0.0000
# 3 36.2630 73.9853 226.9437 0.0000 0.0000 0.0000
# 4 0.0000 0.0000 0.0000 30.6057 0.0000 0.0000
# 5 0.0000 0.0000 0.0000 0.0000 59.5462 0.0000
# 6 0.0000 0.0000 0.0000 0.0000 0.0000 86.2176
#
#
#
# Elastic Compliance Matrix: (Units=1/GPa)
#
#
# Indices 1 2 3 4 5 6 
#
# 1 0.005262 -0.002943 0.000119 0.000000 0.000000 0.000000
# 2 -0.002943 0.007647 -0.002023 0.000000 0.000000 0.000000
# 3 0.000119 -0.002023 0.005047 0.000000 0.000000 0.000000
# 4 0.000000 0.000000 0.000000 0.032674 0.000000 0.000000
# 5 0.000000 0.000000 0.000000 0.000000 0.016794 0.000000
# 6 0.000000 0.000000 0.000000 0.000000 0.000000 0.011599
#
#
# Mechanical properties :
#
#
# Convention : Reuss Voigt Hill
#
# Bulk Modulus (GPa) = 121.04703 121.80772 121.42738
# Shear Modulus (GPa) = 54.66373 65.30181 59.98277
#
# Velocity S-wave (km/s) = 4.26120 4.65742 4.46371
# Velocity P-wave (km/s) = 8.02615 8.32967 8.17932
#
# Compressibility (1/GPa) = 0.00826125
#
# Stress axis : x y z
#
# Youngs Moduli (GPa) = 190.05415 130.77828 198.14574
#
# Poissons Ratio (x) = 0.38488 -0.02352
# Poissons Ratio (y) = 0.55932 0.40076
# Poissons Ratio (z) = -0.02255 0.26451
#
# Static dielectric constant tensor:
#      x y z
#    x 2.426700 0.000000 0.000000 
#    y 0.000000 2.276380 0.000000 
#    z 0.000000 0.000000 2.133810 
# 
# From -- ./inp_files/14807.got.cif
#   From: 2010.05.17/outbox.cif.g08.bks.cpg/sg57_8_cif.got.tgz:14807.got - 2010.06.03 13:58:18.
