data_PCOD9440028
_publ_section_title
;
Structure prediction by ZEFSAII (Michael W. Deem and Ramdas Pophale) SiO2 
 PCOD9440028
Probable space group: P B C M
;
_chemical_formula_sum "Si O2"
_cell_formula_units_Z 48
_cell_length_a 10.290450
_cell_length_b 28.770078
_cell_length_c 8.338131
_cell_angle_alpha 90.000000
_cell_angle_beta 90.000000
_cell_angle_gamma 90.000000
_cell_volume 2468.562459
_symmetry_space_group_name_H-M "P B C M"
_symmetry_group_IT_number 57
_symmetry_cell_setting 'orthorhombic'
loop_
_space_group_symop_operation_xyz
x,y,z
-x,-y,1/2+z
x,1/2-y,-z
-x,1/2+y,1/2-z
-x,-y,-z
x,y,1/2-z
-x,1/2+y,z
x,1/2-y,1/2+z
loop_
_atom_site_type_symbol
_atom_site_label
_atom_site_fract_x
_atom_site_fract_y
_atom_site_fract_z
Si Si1 0.691570 0.630416 0.945615
Si Si2 0.196462 0.837614 0.941442
Si Si3 0.530651 0.198746 0.940806
Si Si4 0.922365 0.800587 0.441884
Si Si5 0.175475 0.459711 0.443592
Si Si6 0.884232 0.061022 0.055844
O O1 0.686549 0.629478 0.750000
O O2 0.565290 0.658243 0.003158
O O3 0.817334 0.660911 0.991194
O O4 0.718569 0.577739 0.000363
O O5 0.208681 0.837396 0.750000
O O6 0.181649 0.891158 0.998029
O O7 0.322277 0.812977 0.012212
O O8 0.063368 0.812223 0.988351
O O9 0.520141 0.199279 0.750000
O O10 0.493551 0.250000 0.000000
O O11 0.879690 0.750000 0.500000
O O12 0.930688 0.800959 0.250000
O O13 0.178160 0.459956 0.250000
O O14 0.185460 0.513261 0.497553
O O15 0.032444 0.442270 0.495304
O O16 0.887760 0.061495 0.250000
#
# Coordination Sequence:
#
# PCOD9440028 Si02
#       6
#     8   8   8   8   8   8
#     4   9  19  35  57  82 108 140 181 222 272 327
#     4  11  22  37  54  80 112 145 182 223 270 322
#     4  11  23  40  58  78 106 146 187 226 274 327
#     4  11  21  35  55  81 107 138 178 228 277 324
#     4   9  16  32  56  82 111 142 176 219 269 325
#     4   9  18  31  53  83 113 142 176 220 270 317
#
# _framework density 19.444514999999999
#
# number of rings (size 3 to 8) (size 9 to 14) (size 15 to 20)
#    0.000    2.000    1.667    2.500    0.000    0.667 
#    0.000    5.000    0.000    0.000    0.000    0.000 
#    0.000    0.000    0.000    0.000    0.000    0.000 
#
# Total GULP energy -267956.000544 kJ/mol
# GULP energy per Si atom -5582.416678 kJ/mol
# Density = 1.940026 g / cm^3
# Si number density = 19.444515 Si / 1000 Ang^3
#
#
#
# Elastic Constant Matrix: (Units=GPa)
#
#
# Indices 1 2 3 4 5 6 
#
# 1 33.9911 -20.3021 -0.3498 0.0000 0.0000 0.0000
# 2 -20.3021 73.8453 7.8559 0.0000 0.0000 0.0000
# 3 -0.3498 7.8559 20.4561 0.0000 0.0000 0.0000
# 4 0.0000 0.0000 0.0000 17.6989 0.0000 0.0000
# 5 0.0000 0.0000 0.0000 0.0000 4.2376 0.0000
# 6 0.0000 0.0000 0.0000 0.0000 0.0000 29.0778
#
#
#
# Elastic Compliance Matrix: (Units=1/GPa)
#
#
# Indices 1 2 3 4 5 6 
#
# 1 0.035408 0.010082 -0.003266 0.000000 0.000000 0.000000
# 2 0.010082 0.016989 -0.006352 0.000000 0.000000 0.000000
# 3 -0.003266 -0.006352 0.051269 0.000000 0.000000 0.000000
# 4 0.000000 0.000000 0.000000 0.056501 0.000000 0.000000
# 5 0.000000 0.000000 0.000000 0.000000 0.235983 0.000000
# 6 0.000000 0.000000 0.000000 0.000000 0.000000 0.034390
#
#
# Mechanical properties :
#
#
# Convention : Reuss Voigt Hill
#
# Bulk Modulus (GPa) = 9.56092 11.41119 10.48605
# Shear Modulus (GPa) = 10.76480 19.60876 15.18678
#
# Velocity S-wave (km/s) = 2.35546 3.17905 2.79773
# Velocity P-wave (km/s) = 3.51074 4.39960 3.98006
#
# Compressibility (1/GPa) = 0.10459249
#
# Stress axis : x y z
#
# Youngs Moduli (GPa) = 28.24256 58.86025 19.50508
#
# Poissons Ratio (x) = -0.59343 0.06371
# Poissons Ratio (y) = -0.28474 0.12390
# Poissons Ratio (z) = 0.09225 0.37389
#
# Static dielectric constant tensor:
#      x y z
#    x 1.648820 0.000000 0.000000 
#    y 0.000000 1.721360 0.000000 
#    z 0.000000 0.000000 1.661450 
# 
# From -- ./inp_files/2100.got.cif
#   From: 2010.05.17/outbox.cif.g08.bks.cpg/sg57_2_cif.got.tgz:2100.got - 2010.06.03 13:58:18.
