data_PCOD9440171
_publ_section_title
;
Structure prediction by ZEFSAII (Michael W. Deem and Ramdas Pophale) SiO2 
 PCOD9440171
Probable space group: P B C M
;
_chemical_formula_sum "Si O2"
_cell_formula_units_Z 40
_cell_length_a 15.303169
_cell_length_b 7.527270
_cell_length_c 16.700894
_cell_angle_alpha 90.000000
_cell_angle_beta 90.000000
_cell_angle_gamma 90.000000
_cell_volume 1923.794099
_symmetry_space_group_name_H-M "P B C M"
_symmetry_group_IT_number 57
_symmetry_cell_setting 'orthorhombic'
loop_
_space_group_symop_operation_xyz
x,y,z
-x,-y,1/2+z
x,1/2-y,-z
-x,1/2+y,1/2-z
-x,-y,-z
x,y,1/2-z
-x,1/2+y,z
x,1/2-y,1/2+z
loop_
_atom_site_type_symbol
_atom_site_label
_atom_site_fract_x
_atom_site_fract_y
_atom_site_fract_z
Si Si1 0.700011 0.203243 0.093314
Si Si2 0.437690 0.524851 0.659329
Si Si3 0.888543 0.187309 0.345037
Si Si4 0.951015 0.873402 0.436751
Si Si5 0.610166 0.661447 0.912915
O O1 0.797180 0.255870 0.120570
O O2 0.680172 0.993485 0.103330
O O3 0.688311 0.250000 0.000000
O O4 0.631756 0.179874 0.856753
O O5 0.471203 0.534614 0.750000
O O6 0.394896 0.332524 0.644664
O O7 0.517623 0.559909 0.598831
O O8 0.892075 0.203457 0.250000
O O9 0.972416 0.279883 0.385768
O O10 0.894466 0.984776 0.375500
O O11 0.899789 0.750000 0.500000
O O12 0.000000 0.000000 0.500000
O O13 0.620103 0.750000 0.000000
#
# Coordination Sequence:
#
# PCOD9440171 Si02
#       5
#     8   8   8   8   8
#     4  12  25  44  67  95 133 178 226 271 324 396
#     4  12  25  41  66  97 133 172 222 281 334 385
#     4  11  23  41  67  98 132 165 212 272 329 385
#     4   9  19  40  67  92 124 167 209 251 319 399
#     4  12  24  43  68  95 129 180 226 268 328 401
#
# _framework density 20.792247
#
# number of rings (size 3 to 8) (size 9 to 14) (size 15 to 20)
#    0.000    0.800    4.000    4.800    0.000    3.200 
#    7.200    0.000    0.000    0.000    0.000    0.000 
#    0.000    0.000    0.000    0.000    0.000    0.000 
#
# Total GULP energy -223378.153937 kJ/mol
# GULP energy per Si atom -5584.453848 kJ/mol
# Density = 2.074492 g / cm^3
# Si number density = 20.792247 Si / 1000 Ang^3
#
#
#
# Elastic Constant Matrix: (Units=GPa)
#
#
# Indices 1 2 3 4 5 6 
#
# 1 56.1689 -0.9543 -5.6540 0.0000 0.0000 0.0000
# 2 -0.9543 92.6979 19.8838 0.0000 0.0000 0.0000
# 3 -5.6540 19.8838 90.1185 0.0000 0.0000 0.0000
# 4 0.0000 0.0000 0.0000 28.9464 0.0000 0.0000
# 5 0.0000 0.0000 0.0000 0.0000 25.4481 0.0000
# 6 0.0000 0.0000 0.0000 0.0000 0.0000 30.2271
#
#
#
# Elastic Compliance Matrix: (Units=1/GPa)
#
#
# Indices 1 2 3 4 5 6 
#
# 1 0.017917 -0.000059 0.001137 0.000000 0.000000 0.000000
# 2 -0.000059 0.011324 -0.002502 0.000000 0.000000 0.000000
# 3 0.001137 -0.002502 0.011720 0.000000 0.000000 0.000000
# 4 0.000000 0.000000 0.000000 0.034547 0.000000 0.000000
# 5 0.000000 0.000000 0.000000 0.000000 0.039296 0.000000
# 6 0.000000 0.000000 0.000000 0.000000 0.000000 0.033083
#
#
# Mechanical properties :
#
#
# Convention : Reuss Voigt Hill
#
# Bulk Modulus (GPa) = 26.23865 29.50404 27.87134
# Shear Modulus (GPa) = 30.59248 31.97162 31.28205
#
# Velocity S-wave (km/s) = 3.83997 3.92557 3.88300
# Velocity P-wave (km/s) = 5.68395 5.89640 5.79115
#
# Compressibility (1/GPa) = 0.03811172
#
# Stress axis : x y z
#
# Youngs Moduli (GPa) = 55.81317 88.30916 85.32459
#
# Poissons Ratio (x) = 0.00525 -0.09703
# Poissons Ratio (y) = 0.00332 0.21350
# Poissons Ratio (z) = -0.06347 0.22097
#
# Static dielectric constant tensor:
#      x y z
#    x 1.735280 0.000000 0.000000 
#    y 0.000000 1.824880 0.000000 
#    z 0.000000 0.000000 1.740900 
# 
# From -- ./inp_files/18221.got.cif
#   From: 2010.05.17/outbox.cif.g08.bks.cpg/sg57_10_cif.got.tgz:18221.got - 2010.06.03 13:58:18.
