data_PCOD9440351
_publ_section_title
;
Structure prediction by ZEFSAII (Michael W. Deem and Ramdas Pophale) SiO2 
 PCOD9440351
Probable space group: P B C M
;
_chemical_formula_sum "Si O2"
_cell_formula_units_Z 32
_cell_length_a 18.793311
_cell_length_b 8.611593
_cell_length_c 9.261468
_cell_angle_alpha 90.000000
_cell_angle_beta 90.000000
_cell_angle_gamma 90.000000
_cell_volume 1498.879181
_symmetry_space_group_name_H-M "P B C M"
_symmetry_group_IT_number 57
_symmetry_cell_setting 'orthorhombic'
loop_
_space_group_symop_operation_xyz
x,y,z
-x,-y,1/2+z
x,1/2-y,-z
-x,1/2+y,1/2-z
-x,-y,-z
x,y,1/2-z
-x,1/2+y,z
x,1/2-y,1/2+z
loop_
_atom_site_type_symbol
_atom_site_label
_atom_site_fract_x
_atom_site_fract_y
_atom_site_fract_z
Si Si1 0.431608 0.919057 0.573119
Si Si2 0.948728 0.564344 0.250000
Si Si3 0.303167 0.407791 0.583935
Si Si4 0.899303 0.579375 0.750000
Si Si5 0.158492 0.566579 0.974374
O O1 0.427694 0.750000 0.500000
O O2 0.434884 0.915018 0.750000
O O3 0.500000 0.000000 0.500000
O O4 0.363064 0.010757 0.513664
O O5 0.927814 0.745261 0.250000
O O6 0.910412 0.480684 0.382842
O O7 0.032190 0.533830 0.250000
O O8 0.285048 0.250000 0.500000
O O9 0.327639 0.379876 0.750000
O O10 0.233000 0.514080 0.592039
O O11 0.851273 0.536269 0.615679
O O12 0.158441 0.750000 0.000000
#
# Coordination Sequence:
#
# PCOD9440351 Si02
#       5
#     8   4   8   4   8
#     4  12  26  47  75 108 149 193 244 298 361 428
#     4  12  24  48  64 104 131 186 231 296 360 434
#     4  12  26  46  72 104 144 187 241 296 364 436
#     4  12  26  42  74  94 141 178 237 292 362 434
#     4  12  26  44  69 100 139 182 236 294 360 432
#
# _framework density 21.349284999999998
#
# number of rings (size 3 to 8) (size 9 to 14) (size 15 to 20)
#    0.000    0.000    1.250    9.750    3.500    0.000 
#    0.000    0.000    0.000    0.000    0.000    0.000 
#    0.000    0.000    0.000    0.000    0.000    0.000 
#
# Total GULP energy -179045.848302 kJ/mol
# GULP energy per Si atom -5595.182759 kJ/mol
# Density = 2.130069 g / cm^3
# Si number density = 21.349285 Si / 1000 Ang^3
#
#
#
# Elastic Constant Matrix: (Units=GPa)
#
#
# Indices 1 2 3 4 5 6 
#
# 1 104.7583 26.8720 35.8122 0.0000 0.0000 0.0000
# 2 26.8720 170.9568 39.2675 0.0000 0.0000 0.0000
# 3 35.8122 39.2675 192.9280 0.0000 0.0000 0.0000
# 4 0.0000 0.0000 0.0000 14.4646 0.0000 0.0000
# 5 0.0000 0.0000 0.0000 0.0000 41.8028 0.0000
# 6 0.0000 0.0000 0.0000 0.0000 0.0000 34.5142
#
#
#
# Elastic Compliance Matrix: (Units=1/GPa)
#
#
# Indices 1 2 3 4 5 6 
#
# 1 0.010443 -0.001255 -0.001683 0.000000 0.000000 0.000000
# 2 -0.001255 0.006287 -0.001047 0.000000 0.000000 0.000000
# 3 -0.001683 -0.001047 0.005709 0.000000 0.000000 0.000000
# 4 0.000000 0.000000 0.000000 0.069134 0.000000 0.000000
# 5 0.000000 0.000000 0.000000 0.000000 0.023922 0.000000
# 6 0.000000 0.000000 0.000000 0.000000 0.000000 0.028974
#
#
# Mechanical properties :
#
#
# Convention : Reuss Voigt Hill
#
# Bulk Modulus (GPa) = 69.11075 74.72741 71.91908
# Shear Modulus (GPa) = 31.79423 42.60241 37.19832
#
# Velocity S-wave (km/s) = 3.86325 4.47194 4.17870
# Velocity P-wave (km/s) = 7.23473 7.85765 7.55262
#
# Compressibility (1/GPa) = 0.01446953
#
# Stress axis : x y z
#
# Youngs Moduli (GPa) = 95.75746 159.05574 175.17003
#
# Poissons Ratio (x) = 0.19960 0.29482
# Poissons Ratio (y) = 0.12017 0.18335
# Poissons Ratio (z) = 0.16117 0.16648
#
# Static dielectric constant tensor:
#      x y z
#    x 1.684620 0.000000 0.000000 
#    y 0.000000 1.757370 0.000000 
#    z 0.000000 0.000000 1.757760 
# 
# From -- ./inp_files/7561.got.cif
#   From: 2010.05.17/outbox.cif.g08.bks.cpg/sg57_4_cif.got.tgz:7561.got - 2010.06.03 13:58:18.
