data_PCOD9440502
_publ_section_title
;
Structure prediction by ZEFSAII (Michael W. Deem and Ramdas Pophale) SiO2 
 PCOD9440502
Probable space group: P B C M
;
_chemical_formula_sum "Si O2"
_cell_formula_units_Z 56
_cell_length_a 21.000000
_cell_length_b 15.000000
_cell_length_c 9.000000
_cell_angle_alpha 90.000000
_cell_angle_beta 90.000000
_cell_angle_gamma 90.000000
_cell_volume 2835.000000
_symmetry_space_group_name_H-M "P B C M"
_symmetry_group_IT_number 57
_symmetry_cell_setting 'orthorhombic'
loop_
_space_group_symop_operation_xyz
x,y,z
-x,-y,1/2+z
x,1/2-y,-z
-x,1/2+y,1/2-z
-x,-y,-z
x,y,1/2-z
-x,1/2+y,z
x,1/2-y,1/2+z
loop_
_atom_site_type_symbol
_atom_site_label
_atom_site_fract_x
_atom_site_fract_y
_atom_site_fract_z
Si Si1 0.971361 0.152162 0.072605
Si Si2 0.568291 0.506684 0.926845
Si Si3 0.222998 0.476832 0.422811
Si Si4 0.920217 0.540863 0.923024
Si Si5 0.333770 0.346068 0.071529
Si Si6 0.622008 0.336652 0.416678
Si Si7 0.774281 0.163989 0.585269
O O1 0.968789 0.163767 0.250000
O O2 0.927344 0.064771 0.034612
O O3 0.960484 0.250000 0.000000
O O4 0.038322 0.108839 0.019389
O O5 0.564701 0.499092 0.750000
O O6 0.602317 0.599588 0.963990
O O7 0.500000 0.500000 0.000000
O O8 0.609296 0.425100 0.990446
O O9 0.238113 0.495578 0.250000
O O10 0.153427 0.434457 0.431273
O O11 0.276277 0.409817 0.480943
O O12 0.219138 0.570671 0.504131
O O13 0.941369 0.546580 0.750000
O O14 0.328813 0.337891 0.250000
O O15 0.331671 0.250000 0.000000
O O16 0.595330 0.250000 0.500000
O O17 0.595671 0.345305 0.250000
O O18 0.697852 0.323768 0.404027
O O19 0.800497 0.250000 0.500000
O O20 0.801720 0.160564 0.750000
#
# Coordination Sequence:
#
# PCOD9440502 Si02
#       7
#     8   8   8   8   8   8   8
#     4  10  20  36  58  83 115 155 196 243 291 343
#     4  11  23  40  61  86 115 151 193 242 295 348
#     4  10  20  38  60  85 119 153 191 240 294 348
#     4   9  20  37  58  85 116 153 196 242 291 345
#     4  10  23  41  62  85 115 153 192 237 288 343
#     4  10  20  35  57  84 112 145 184 230 282 343
#     4  10  20  33  54  83 114 149 187 230 284 345
#
# _framework density 19.753086
#
# number of rings (size 3 to 8) (size 9 to 14) (size 15 to 20)
#    0.000    2.000    1.429    1.714    0.000    5.714 
#    0.000    4.286    0.000    0.000    0.000    0.000 
#    0.000    0.000    0.000    0.000    0.000    0.000 
#
# Total GULP energy -312409.194240 kJ/mol
# GULP energy per Si atom -5578.735611 kJ/mol
# Density = 1.970813 g / cm^3
# Si number density = 19.753086 Si / 1000 Ang^3
#
#
#
# Elastic Constant Matrix: (Units=GPa)
#
#
# Indices 1 2 3 4 5 6 
#
# 1 66.0904 38.5383 39.6048 0.0000 0.0000 0.0000
# 2 38.5383 134.7969 51.7847 0.0000 0.0000 0.0000
# 3 39.6048 51.7847 69.1000 0.0000 0.0000 0.0000
# 4 0.0000 0.0000 0.0000 40.4249 0.0000 0.0000
# 5 0.0000 0.0000 0.0000 0.0000 18.6538 0.0000
# 6 0.0000 0.0000 0.0000 0.0000 0.0000 -1.4221
#
#
#
# Elastic Compliance Matrix: (Units=1/GPa)
#
#
# Indices 1 2 3 4 5 6 
#
# 1 0.023489 -0.002168 -0.011838 0.000000 0.000000 0.000000
# 2 -0.002168 0.010618 -0.006715 0.000000 0.000000 0.000000
# 3 -0.011838 -0.006715 0.026289 0.000000 0.000000 0.000000
# 4 0.000000 0.000000 0.000000 0.024737 0.000000 0.000000
# 5 0.000000 0.000000 0.000000 0.000000 0.053609 0.000000
# 6 0.000000 0.000000 0.000000 0.000000 0.000000 -0.703179
#
#
# Mechanical properties :
#
#
# Convention : Reuss Voigt Hill
#
# Bulk Modulus (GPa) = 52.75800 58.87142 55.81471
# Shear Modulus (GPa) = -9.67722 20.86860 5.59569
#
# Velocity S-wave (km/s) = -2.21579 3.25387 1.68492
# Velocity P-wave (km/s) = 4.49671 6.63214 5.66594
#
# Compressibility (1/GPa) = 0.01895447
#
# Stress axis : x y z
#
# Youngs Moduli (GPa) = 42.57341 94.18037 38.03847
#
# Poissons Ratio (x) = 0.20414 0.45031
# Poissons Ratio (y) = 0.09228 0.25542
# Poissons Ratio (z) = 0.50400 0.63241
#
# Static dielectric constant tensor:
#      x y z
#    x 1.734230 0.000000 0.000000 
#    y 0.000000 1.658220 0.000000 
#    z 0.000000 0.000000 1.697690 
# 
# From -- ./inp_files/8179.got.cif
#   From: 2010.05.17/outbox.ucp.g08.bks.cvg/sg57_5_cif.got.tgz:8179.got - 2010.06.11 16:39:23.
