data_PCOD9440230
_publ_section_title
;
Structure prediction by ZEFSAII (Michael W. Deem and Ramdas Pophale) SiO2 
 PCOD9440230
Probable space group: P B C M
;
_chemical_formula_sum "Si O2"
_cell_formula_units_Z 40
_cell_length_a 12.685852
_cell_length_b 7.357796
_cell_length_c 18.516755
_cell_angle_alpha 90.000000
_cell_angle_beta 90.000000
_cell_angle_gamma 90.000000
_cell_volume 1728.352266
_symmetry_space_group_name_H-M "P B C M"
_symmetry_group_IT_number 57
_symmetry_cell_setting 'orthorhombic'
loop_
_space_group_symop_operation_xyz
x,y,z
-x,-y,1/2+z
x,1/2-y,-z
-x,1/2+y,1/2-z
-x,-y,-z
x,y,1/2-z
-x,1/2+y,z
x,1/2-y,1/2+z
loop_
_atom_site_type_symbol
_atom_site_label
_atom_site_fract_x
_atom_site_fract_y
_atom_site_fract_z
Si Si1 0.869625 0.989990 0.560216
Si Si2 0.700171 0.097293 0.328944
Si Si3 0.355549 0.985700 0.118732
Si Si4 0.092617 0.590180 0.404546
Si Si5 0.568683 0.667404 0.922540
O O1 0.752956 0.942912 0.584174
O O2 0.877755 0.206087 0.572706
O O3 0.887704 0.961683 0.474595
O O4 0.967101 0.911688 0.606041
O O5 0.666312 0.032908 0.250000
O O6 0.679766 0.315107 0.332612
O O7 0.823554 0.050543 0.342415
O O8 0.638388 0.998943 0.393866
O O9 0.447553 0.893415 0.071196
O O10 0.414289 0.174140 0.138006
O O11 0.598608 0.750000 0.000000
#
# Coordination Sequence:
#
# PCOD9440230 Si02
#       5
#     8   8   8   8   8
#     4   9  19  35  65  94 129 158 221 274 344 399
#     4  11  26  46  66  95 138 188 234 283 348 420
#     4  11  24  42  67  98 135 176 223 282 341 411
#     4   9  19  37  61  94 127 168 210 281 336 405
#     4  12  25  41  72 103 137 179 235 291 345 399
#
# _framework density 23.143429999999999
#
# number of rings (size 3 to 8) (size 9 to 14) (size 15 to 20)
#    0.000    1.600    2.000    1.800    8.400    1.600 
#    0.000    4.000    0.000    0.000    0.000    0.000 
#    0.000    0.000    0.000    0.000    0.000    0.000 
#
# Total GULP energy -222953.666071 kJ/mol
# GULP energy per Si atom -5573.841652 kJ/mol
# Density = 2.309075 g / cm^3
# Si number density = 23.143430 Si / 1000 Ang^3
#
#
#
# Elastic Constant Matrix: (Units=GPa)
#
#
# Indices 1 2 3 4 5 6 
#
# 1 159.7527 6.8801 32.2727 0.0000 0.0000 0.0000
# 2 6.8801 70.1695 4.5972 0.0000 0.0000 0.0000
# 3 32.2727 4.5972 71.8257 0.0000 0.0000 0.0000
# 4 0.0000 0.0000 0.0000 16.7198 0.0000 0.0000
# 5 0.0000 0.0000 0.0000 0.0000 7.1195 0.0000
# 6 0.0000 0.0000 0.0000 0.0000 0.0000 36.6732
#
#
#
# Elastic Compliance Matrix: (Units=1/GPa)
#
#
# Indices 1 2 3 4 5 6 
#
# 1 0.006900 -0.000475 -0.003070 0.000000 0.000000 0.000000
# 2 -0.000475 0.014344 -0.000704 0.000000 0.000000 0.000000
# 3 -0.003070 -0.000704 0.015347 0.000000 0.000000 0.000000
# 4 0.000000 0.000000 0.000000 0.059809 0.000000 0.000000
# 5 0.000000 0.000000 0.000000 0.000000 0.140460 0.000000
# 6 0.000000 0.000000 0.000000 0.000000 0.000000 0.027268
#
#
# Mechanical properties :
#
#
# Convention : Reuss Voigt Hill
#
# Bulk Modulus (GPa) = 35.59789 43.24977 39.42383
# Shear Modulus (GPa) = 17.73095 29.30233 23.51664
#
# Velocity S-wave (km/s) = 2.77091 3.56212 3.19113
# Velocity P-wave (km/s) = 5.06479 5.97047 5.53618
#
# Compressibility (1/GPa) = 0.02809156
#
# Stress axis : x y z
#
# Youngs Moduli (GPa) = 144.92020 69.71572 65.15881
#
# Poissons Ratio (x) = 0.03315 0.20004
# Poissons Ratio (y) = 0.06890 0.04590
# Poissons Ratio (z) = 0.44491 0.04911
#
# Static dielectric constant tensor:
#      x y z
#    x 1.905180 0.000000 0.000000 
#    y 0.000000 1.942970 0.000000 
#    z 0.000000 0.000000 1.890870 
# 
# From -- ./inp_files/21595.got.cif
#   From: 2010.05.17/outbox.cif.g08.bks.cpg/sg57_11_cif.got.tgz:21595.got - 2010.06.03 13:58:18.
