data_PCOD9440034
_publ_section_title
;
Structure prediction by ZEFSAII (Michael W. Deem and Ramdas Pophale) SiO2 
 PCOD9440034
Probable space group: P B C M
;
_chemical_formula_sum "Si O2"
_cell_formula_units_Z 64
_cell_length_a 19.980242
_cell_length_b 10.169044
_cell_length_c 15.626631
_cell_angle_alpha 90.000000
_cell_angle_beta 90.000000
_cell_angle_gamma 90.000000
_cell_volume 3175.018262
_symmetry_space_group_name_H-M "P B C M"
_symmetry_group_IT_number 57
_symmetry_cell_setting 'orthorhombic'
loop_
_space_group_symop_operation_xyz
x,y,z
-x,-y,1/2+z
x,1/2-y,-z
-x,1/2+y,1/2-z
-x,-y,-z
x,y,1/2-z
-x,1/2+y,z
x,1/2-y,1/2+z
loop_
_atom_site_type_symbol
_atom_site_label
_atom_site_fract_x
_atom_site_fract_y
_atom_site_fract_z
Si Si1 0.152108 0.029928 0.107162
Si Si2 0.924547 0.280203 0.347463
Si Si3 0.292531 0.391538 0.890635
Si Si4 0.707672 0.586432 0.598818
Si Si5 0.557785 0.896662 0.893660
Si Si6 0.156222 0.540214 0.091099
Si Si7 0.075551 0.210601 0.852064
Si Si8 0.442238 0.092625 0.897269
O O1 0.227609 0.033240 0.142863
O O2 0.122064 0.176130 0.109196
O O3 0.102703 0.928232 0.151603
O O4 0.156635 0.983604 0.009796
O O5 0.929281 0.233335 0.250000
O O6 0.999410 0.276466 0.384580
O O7 0.871857 0.184097 0.391523
O O8 0.282769 0.236868 0.871067
O O9 0.367091 0.432549 0.863982
O O10 0.291934 0.405098 0.994629
O O11 0.769332 0.494394 0.624677
O O12 0.632868 0.547695 0.626413
O O13 0.546937 0.743931 0.869962
O O14 0.499669 0.995094 0.865708
O O15 0.557161 0.903327 0.998175
O O16 0.105595 0.432032 0.128884
O O17 0.075458 0.229440 0.750000
#
# Coordination Sequence:
#
# PCOD9440034 Si02
#       8
#     8   8   8   8   8   8   8   8
#     4  11  21  36  58  82 107 139 180 223 267 316
#     4  11  25  41  53  75 112 143 172 220 277 323
#     4   8  14  27  46  69 100 134 169 213 259 302
#     4   8  14  27  46  69 100 134 169 213 259 302
#     4   8  13  22  37  60  94 134 168 198 244 305
#     4  11  21  36  58  82 107 139 180 223 267 316
#     4  11  23  39  59  79 104 141 178 218 269 323
#     4   8  13  22  37  60  94 134 168 198 244 305
#
# _framework density 20.157364999999999
#
# number of rings (size 3 to 8) (size 9 to 14) (size 15 to 20)
#    0.000    2.500    1.250    3.750    0.000    5.000 
#    2.250    0.000    0.000    0.000    0.000    0.000 
#    0.000    6.000    0.000    0.000    0.000    0.000 
#
# Total GULP energy -357106.372927 kJ/mol
# GULP energy per Si atom -5579.787077 kJ/mol
# Density = 2.011149 g / cm^3
# Si number density = 20.157365 Si / 1000 Ang^3
#
#
#
# Elastic Constant Matrix: (Units=GPa)
#
#
# Indices 1 2 3 4 5 6 
#
# 1 172.3027 41.2875 -0.6398 0.0000 0.0000 0.0000
# 2 41.2875 47.6187 -8.2323 0.0000 0.0000 0.0000
# 3 -0.6398 -8.2323 27.0024 0.0000 0.0000 0.0000
# 4 0.0000 0.0000 0.0000 13.5394 0.0000 0.0000
# 5 0.0000 0.0000 0.0000 0.0000 25.7429 0.0000
# 6 0.0000 0.0000 0.0000 0.0000 0.0000 37.8455
#
#
#
# Elastic Compliance Matrix: (Units=1/GPa)
#
#
# Indices 1 2 3 4 5 6 
#
# 1 0.007415 -0.006755 -0.001884 0.000000 0.000000 0.000000
# 2 -0.006755 0.028322 0.008475 0.000000 0.000000 0.000000
# 3 -0.001884 0.008475 0.039573 0.000000 0.000000 0.000000
# 4 0.000000 0.000000 0.000000 0.073858 0.000000 0.000000
# 5 0.000000 0.000000 0.000000 0.000000 0.038846 0.000000
# 6 0.000000 0.000000 0.000000 0.000000 0.000000 0.026423
#
#
# Mechanical properties :
#
#
# Convention : Reuss Voigt Hill
#
# Bulk Modulus (GPa) = 13.33653 34.63939 23.98796
# Shear Modulus (GPa) = 20.85417 29.72614 25.29015
#
# Velocity S-wave (km/s) = 3.21996 3.84435 3.54593
# Velocity P-wave (km/s) = 4.52269 6.07677 5.35640
#
# Compressibility (1/GPa) = 0.07498202
#
# Stress axis : x y z
#
# Youngs Moduli (GPa) = 134.85386 35.30788 25.26985
#
# Poissons Ratio (x) = 0.23851 0.04760
# Poissons Ratio (y) = 0.91096 -0.21415
# Poissons Ratio (z) = 0.25403 -0.29922
#
# Static dielectric constant tensor:
#      x y z
#    x 1.732450 0.000000 0.000000 
#    y 0.000000 1.678260 0.000000 
#    z 0.000000 0.000000 1.764000 
# 
# From -- ./inp_files/23011.got.cif
#   From: 2010.05.17/outbox.cif.g08.bks.cpg/sg57_12_cif.got.tgz:23011.got - 2010.06.03 13:58:18.
