data_PCOD9440680
_publ_section_title
;
Structure prediction by ZEFSAII (Michael W. Deem and Ramdas Pophale) SiO2 
 PCOD9440680
Probable space group: P N N M
;
_chemical_formula_sum "Si O2"
_cell_formula_units_Z 48
_cell_length_a 6.869053
_cell_length_b 31.862107
_cell_length_c 9.012018
_cell_angle_alpha 90.000000
_cell_angle_beta 90.000000
_cell_angle_gamma 90.000000
_cell_volume 1972.392805
_symmetry_space_group_name_H-M "P N N M"
_symmetry_group_IT_number 58
_symmetry_cell_setting 'orthorhombic'
loop_
_space_group_symop_operation_xyz
x,y,z
-x,-y,z
1/2+x,1/2-y,1/2-z
1/2-x,1/2+y,1/2-z
-x,-y,-z
x,y,-z
1/2-x,1/2+y,1/2+z
1/2+x,1/2-y,1/2+z
loop_
_atom_site_type_symbol
_atom_site_label
_atom_site_fract_x
_atom_site_fract_y
_atom_site_fract_z
Si Si1 0.959990 0.305077 0.165722
Si Si2 0.164051 0.950588 0.178966
Si Si3 0.988823 0.779324 0.663922
Si Si4 0.601577 0.642016 0.668673
Si Si5 0.358544 0.114776 0.169164
Si Si6 0.259443 0.032109 0.322705
O O1 0.027358 0.260789 0.230943
O O2 0.727098 0.297834 0.153371
O O3 0.975219 0.344916 0.272877
O O4 0.032368 0.313731 0.000000
O O5 0.208083 0.901663 0.206319
O O6 0.958605 0.957712 0.262469
O O7 0.298498 0.987190 0.245301
O O8 0.143180 0.955701 0.000000
O O9 0.053830 0.765903 0.500000
O O10 0.117716 0.817351 0.727957
O O11 0.648489 0.654416 0.500000
O O12 0.370871 0.628754 0.668909
O O13 0.373145 0.073451 0.269656
O O14 0.408473 0.103788 0.000000
O O15 0.265605 0.027825 0.500000
#
# Coordination Sequence:
#
# PCOD9440680 Si02
#       6
#     8   8   8   8   8   8
#     4  10  20  33  49  69  93 121 155 193 231 274
#     4   9  15  23  34  50  75 109 145 178 218 266
#     4  10  20  32  48  69  92 121 155 190 231 276
#     4   8  15  26  40  57  80 112 146 182 223 266
#     4   9  16  27  41  57  81 113 147 182 223 270
#     4  10  16  21  32  52  78 108 142 179 219 264
#
# _framework density 24.335922
#
# number of rings (size 3 to 8) (size 9 to 14) (size 15 to 20)
#    0.000    2.667    0.000    5.500    0.000    6.667 
#    0.000    0.000    0.000    0.000    0.000    0.000 
#    0.000    1.333    0.000   14.000    0.000   16.667 
#
# Total GULP energy -268489.653369 kJ/mol
# GULP energy per Si atom -5593.534445 kJ/mol
# Density = 2.428053 g / cm^3
# Si number density = 24.335922 Si / 1000 Ang^3
#
#
#
# Elastic Constant Matrix: (Units=GPa)
#
#
# Indices 1 2 3 4 5 6 
#
# 1 66.7212 14.2531 4.4408 0.0000 0.0000 0.0000
# 2 14.2531 164.5755 84.3907 0.0000 0.0000 0.0000
# 3 4.4408 84.3907 164.0733 0.0000 0.0000 0.0000
# 4 0.0000 0.0000 0.0000 45.4100 0.0000 0.0000
# 5 0.0000 0.0000 0.0000 0.0000 -43.4366 0.0000
# 6 0.0000 0.0000 0.0000 0.0000 0.0000 51.0853
#
#
#
# Elastic Compliance Matrix: (Units=1/GPa)
#
#
# Indices 1 2 3 4 5 6 
#
# 1 0.015286 -0.001510 0.000363 0.000000 0.000000 0.000000
# 2 -0.001510 0.008402 -0.004281 0.000000 0.000000 0.000000
# 3 0.000363 -0.004281 0.008287 0.000000 0.000000 0.000000
# 4 0.000000 0.000000 0.000000 0.022022 0.000000 0.000000
# 5 0.000000 0.000000 0.000000 0.000000 -0.023022 0.000000
# 6 0.000000 0.000000 0.000000 0.000000 0.000000 0.019575
#
#
# Mechanical properties :
#
#
# Convention : Reuss Voigt Hill
#
# Bulk Modulus (GPa) = 47.34961 66.83765 57.09363
# Shear Modulus (GPa) = 73.05141 30.09744 51.57442
#
# Velocity S-wave (km/s) = 5.48481 3.52056 4.60855
# Velocity P-wave (km/s) = 7.72073 6.63702 7.19930
#
# Compressibility (1/GPa) = 0.02111950
#
# Stress axis : x y z
#
# Youngs Moduli (GPa) = 65.41870 119.01839 120.67402
#
# Poissons Ratio (x) = 0.17971 -0.04379
# Poissons Ratio (y) = 0.09878 0.51657
# Poissons Ratio (z) = -0.02374 0.50948
#
# Static dielectric constant tensor:
#      x y z
#    x 2.089130 0.000000 0.000000 
#    y 0.000000 1.894790 0.000000 
#    z 0.000000 0.000000 1.800180 
# 
# From -- ./inp_files/4503.got.cif
#   From: 2010.05.17/outbox.cif.g08.bks.cpg/sg58_3_cif.got.tgz:4503.got - 2010.06.03 14:20:14.
