data_PCOD9440586
_publ_section_title
;
Structure prediction by ZEFSAII (Michael W. Deem and Ramdas Pophale) SiO2 
 PCOD9440586
Probable space group: P B C M
;
_chemical_formula_sum "Si O2"
_cell_formula_units_Z 48
_cell_length_a 30.000000
_cell_length_b 9.000000
_cell_length_c 9.000000
_cell_angle_alpha 90.000000
_cell_angle_beta 90.000000
_cell_angle_gamma 90.000000
_cell_volume 2430.000000
_symmetry_space_group_name_H-M "P B C M"
_symmetry_group_IT_number 57
_symmetry_cell_setting 'orthorhombic'
loop_
_space_group_symop_operation_xyz
x,y,z
-x,-y,1/2+z
x,1/2-y,-z
-x,1/2+y,1/2-z
-x,-y,-z
x,y,1/2-z
-x,1/2+y,z
x,1/2-y,1/2+z
loop_
_atom_site_type_symbol
_atom_site_label
_atom_site_fract_x
_atom_site_fract_y
_atom_site_fract_z
Si Si1 0.136031 0.408847 0.080845
Si Si2 0.627464 0.588131 0.574074
Si Si3 0.460672 0.908993 0.927029
Si Si4 0.711007 0.902754 0.916804
Si Si5 0.204373 0.892092 0.085504
Si Si6 0.035470 0.096129 0.582267
O O1 0.150633 0.386477 0.250000
O O2 0.085344 0.465110 0.080258
O O3 0.139054 0.250000 0.000000
O O4 0.165112 0.529435 0.000448
O O5 0.623490 0.750000 0.500000
O O6 0.630446 0.602169 0.750000
O O7 0.584950 0.492072 0.537656
O O8 0.672176 0.518095 0.507893
O O9 0.466160 0.900111 0.750000
O O10 0.460120 0.750000 0.000000
O O11 0.500000 0.000000 0.000000
O O12 0.695028 0.873233 0.750000
O O13 0.755525 0.993814 0.908971
O O14 0.720459 0.750000 0.000000
O O15 0.189671 0.850845 0.250000
O O16 0.220684 0.750000 0.000000
O O17 0.038529 0.250000 0.500000
O O18 0.978655 0.620210 0.750000
O O19 0.000000 0.000000 0.500000
#
# Coordination Sequence:
#
# PCOD9440586 Si02
#       6
#     8   8   8   8   8   8
#     4  10  21  38  60  84 111 146 188 231 277 333
#     4  10  21  37  59  86 114 147 187 231 279 332
#     4  11  24  40  60  86 116 152 192 235 284 337
#     4  10  21  37  59  85 112 147 188 229 277 334
#     4  11  24  39  57  83 114 149 188 233 284 334
#     4  10  21  37  58  84 113 147 186 229 278 332
#
# _framework density 19.753086
#
# number of rings (size 3 to 8) (size 9 to 14) (size 15 to 20)
#    0.000    1.667    0.000    5.000    0.000   11.333 
#    0.000    3.333    0.000    0.000    0.000    0.000 
#    0.000    0.000    0.000    0.000    0.000    0.000 
#
# Total GULP energy -267710.559154 kJ/mol
# GULP energy per Si atom -5577.303316 kJ/mol
# Density = 1.970813 g / cm^3
# Si number density = 19.753086 Si / 1000 Ang^3
#
#
#
# Elastic Constant Matrix: (Units=GPa)
#
#
# Indices 1 2 3 4 5 6 
#
# 1 49.6263 40.6567 58.4791 0.0000 0.0000 0.0000
# 2 40.6567 38.4604 40.9345 0.0000 0.0000 0.0000
# 3 58.4791 40.9345 91.5012 0.0000 0.0000 0.0000
# 4 0.0000 0.0000 0.0000 26.1836 0.0000 0.0000
# 5 0.0000 0.0000 0.0000 0.0000 31.8918 0.0000
# 6 0.0000 0.0000 0.0000 0.0000 0.0000 233.4610
#
#
#
# Elastic Compliance Matrix: (Units=1/GPa)
#
#
# Indices 1 2 3 4 5 6 
#
# 1 0.548427 -0.394564 -0.173989 0.000000 0.000000 0.000000
# 2 -0.394564 0.333501 0.102972 0.000000 0.000000 0.000000
# 3 -0.173989 0.102972 0.076061 0.000000 0.000000 0.000000
# 4 0.000000 0.000000 0.000000 0.038192 0.000000 0.000000
# 5 0.000000 0.000000 0.000000 0.000000 0.031356 0.000000
# 6 0.000000 0.000000 0.000000 0.000000 0.000000 0.004283
#
#
# Mechanical properties :
#
#
# Convention : Reuss Voigt Hill
#
# Bulk Modulus (GPa) = 37.27775 51.08095 44.17935
# Shear Modulus (GPa) = 2.53559 60.94177 31.73868
#
# Velocity S-wave (km/s) = 1.13421 5.56046 4.01280
# Velocity P-wave (km/s) = 4.54181 8.19395 6.62454
#
# Compressibility (1/GPa) = 0.02682565
#
# Stress axis : x y z
#
# Youngs Moduli (GPa) = 1.82340 2.99849 13.14741
#
# Poissons Ratio (x) = 1.18310 2.28751
# Poissons Ratio (y) = 0.71945 -1.35381
# Poissons Ratio (z) = 0.31725 -0.30876
#
# Static dielectric constant tensor:
#      x y z
#    x 1.634000 0.000000 0.000000 
#    y 0.000000 1.642160 0.000000 
#    z 0.000000 0.000000 1.645910 
# 
# From -- ./inp_files/10004.got.cif
#   From: 2010.05.17/outbox.ucp.g08.bks.cvg/sg57_6_cif.got.tgz:10004.got - 2010.06.11 16:39:23.
