data_PCOD9440333
_publ_section_title
;
Structure prediction by ZEFSAII (Michael W. Deem and Ramdas Pophale) SiO2 
 PCOD9440333
Probable space group: P B C M
;
_chemical_formula_sum "Si O2"
_cell_formula_units_Z 40
_cell_length_a 9.431215
_cell_length_b 8.316527
_cell_length_c 21.749697
_cell_angle_alpha 90.000000
_cell_angle_beta 90.000000
_cell_angle_gamma 90.000000
_cell_volume 1705.936488
_symmetry_space_group_name_H-M "P B C M"
_symmetry_group_IT_number 57
_symmetry_cell_setting 'orthorhombic'
loop_
_space_group_symop_operation_xyz
x,y,z
-x,-y,1/2+z
x,1/2-y,-z
-x,1/2+y,1/2-z
-x,-y,-z
x,y,1/2-z
-x,1/2+y,z
x,1/2-y,1/2+z
loop_
_atom_site_type_symbol
_atom_site_label
_atom_site_fract_x
_atom_site_fract_y
_atom_site_fract_z
Si Si1 0.204685 0.459303 0.867761
Si Si2 0.663574 0.943498 0.998465
Si Si3 0.038719 0.768759 0.820895
Si Si4 0.295810 0.950215 0.869441
Si Si5 0.543037 0.736778 0.179388
O O1 0.257070 0.493573 0.936437
O O2 0.120044 0.606727 0.838703
O O3 0.342587 0.405434 0.829775
O O4 0.094888 0.310298 0.863454
O O5 0.665016 0.750000 0.000000
O O6 0.500000 0.000000 0.000000
O O7 0.734344 0.015021 0.059547
O O8 0.992880 0.766026 0.750000
O O9 0.156425 0.906527 0.831891
O O10 0.408019 0.804678 0.862175
O O11 0.377642 0.103046 0.841798
O O12 0.498370 0.746523 0.250000
#
# Coordination Sequence:
#
# PCOD9440333 Si02
#       5
#     8   8   8   8   8
#     4  12  27  47  76 105 149 198 246 308 377 441
#     4  12  26  50  76 109 149 193 255 311 370 447
#     4  12  27  49  73 109 150 195 246 310 379 452
#     4  12  25  45  72 105 149 194 248 312 373 436
#     4  12  23  42  71 107 141 192 250 304 370 443
#
# _framework density 23.447531000000001
#
# number of rings (size 3 to 8) (size 9 to 14) (size 15 to 20)
#    0.000    0.000    4.000    6.000    2.800    0.800 
#    0.000    0.000    0.000    0.000    0.000    0.000 
#    0.000    0.000    0.000    0.000    0.000    0.000 
#
# Total GULP energy -224406.633056 kJ/mol
# GULP energy per Si atom -5610.165826 kJ/mol
# Density = 2.339416 g / cm^3
# Si number density = 23.447531 Si / 1000 Ang^3
#
#
#
# Elastic Constant Matrix: (Units=GPa)
#
#
# Indices 1 2 3 4 5 6 
#
# 1 104.2230 12.2145 11.4608 0.0000 0.0000 0.0000
# 2 12.2145 72.2025 20.0754 0.0000 0.0000 0.0000
# 3 11.4608 20.0754 118.3534 0.0000 0.0000 0.0000
# 4 0.0000 0.0000 0.0000 37.3193 0.0000 0.0000
# 5 0.0000 0.0000 0.0000 0.0000 35.0535 0.0000
# 6 0.0000 0.0000 0.0000 0.0000 0.0000 40.3907
#
#
#
# Elastic Compliance Matrix: (Units=1/GPa)
#
#
# Indices 1 2 3 4 5 6 
#
# 1 0.009844 -0.001470 -0.000704 0.000000 0.000000 0.000000
# 2 -0.001470 0.014755 -0.002360 0.000000 0.000000 0.000000
# 3 -0.000704 -0.002360 0.008918 0.000000 0.000000 0.000000
# 4 0.000000 0.000000 0.000000 0.026796 0.000000 0.000000
# 5 0.000000 0.000000 0.000000 0.000000 0.028528 0.000000
# 6 0.000000 0.000000 0.000000 0.000000 0.000000 0.024758
#
#
# Mechanical properties :
#
#
# Convention : Reuss Voigt Hill
#
# Bulk Modulus (GPa) = 40.90154 42.47559 41.68857
# Shear Modulus (GPa) = 38.22139 39.28791 38.75465
#
# Velocity S-wave (km/s) = 4.04181 4.09781 4.06990
# Velocity P-wave (km/s) = 6.26605 6.36741 6.31693
#
# Compressibility (1/GPa) = 0.02444896
#
# Stress axis : x y z
#
# Youngs Moduli (GPa) = 101.57994 67.77427 112.13495
#
# Poissons Ratio (x) = 0.09960 0.07894
# Poissons Ratio (y) = 0.14929 0.26469
# Poissons Ratio (z) = 0.07151 0.15998
#
# Static dielectric constant tensor:
#      x y z
#    x 1.854050 0.000000 0.000000 
#    y 0.000000 1.976160 0.000000 
#    z 0.000000 0.000000 1.820210 
# 
# From -- ./inp_files/26498.got.cif
#   From: 2010.05.17/outbox.cif.g08.bks.cpg/sg57_14_cif.got.tgz:26498.got - 2010.06.03 13:58:18.
