data_PCOD9440327
_publ_section_title
;
Structure prediction by ZEFSAII (Michael W. Deem and Ramdas Pophale) SiO2 
 PCOD9440327
Probable space group: P B C M
;
_chemical_formula_sum "Si O2"
_cell_formula_units_Z 48
_cell_length_a 9.802679
_cell_length_b 31.246702
_cell_length_c 8.902887
_cell_angle_alpha 90.000000
_cell_angle_beta 90.000000
_cell_angle_gamma 90.000000
_cell_volume 2726.966659
_symmetry_space_group_name_H-M "P B C M"
_symmetry_group_IT_number 57
_symmetry_cell_setting 'orthorhombic'
loop_
_space_group_symop_operation_xyz
x,y,z
-x,-y,1/2+z
x,1/2-y,-z
-x,1/2+y,1/2-z
-x,-y,-z
x,y,1/2-z
-x,1/2+y,z
x,1/2-y,1/2+z
loop_
_atom_site_type_symbol
_atom_site_label
_atom_site_fract_x
_atom_site_fract_y
_atom_site_fract_z
Si Si1 0.804398 0.796611 0.069201
Si Si2 0.699798 0.393008 0.571685
Si Si3 0.431010 0.139284 0.571244
Si Si4 0.784734 0.562725 0.572267
Si Si5 0.643612 0.485252 0.071260
Si Si6 0.982872 0.129856 0.930691
O O1 0.804800 0.793900 0.250000
O O2 0.664297 0.820894 0.026521
O O3 0.927661 0.828605 0.027415
O O4 0.816198 0.750000 0.000000
O O5 0.699820 0.397775 0.750000
O O6 0.569853 0.365561 0.518557
O O7 0.683013 0.439346 0.494580
O O8 0.840347 0.372892 0.513969
O O9 0.458870 0.141914 0.750000
O O10 0.337893 0.096887 0.548914
O O11 0.785940 0.552109 0.750000
O O12 0.753644 0.520933 0.476500
O O13 0.922864 0.588377 0.536027
O O14 0.630052 0.482682 0.250000
O O15 0.500000 0.500000 0.000000
O O16 0.962898 0.130533 0.750000
#
# Coordination Sequence:
#
# PCOD9440327 Si02
#       6
#     8   8   8   8   8   8
#     4   9  19  37  63  90 112 142 181 224 279 339
#     4  12  24  36  54  83 114 149 190 233 282 330
#     4   9  18  35  58  81 110 145 181 227 279 329
#     4   9  18  35  58  80 105 145 194 235 274 325
#     4  12  23  35  54  80 112 150 192 237 281 326
#     4   9  20  39  59  81 113 152 187 227 284 338
#
# _framework density 17.601976000000001
#
# number of rings (size 3 to 8) (size 9 to 14) (size 15 to 20)
#    0.000    2.000    1.667    5.000    0.000    2.667 
#    0.000    4.167    0.000    0.000    0.000    0.000 
#    0.000    0.000    0.000    0.000    0.000    0.000 
#
# Total GULP energy -268068.808490 kJ/mol
# GULP energy per Si atom -5584.766844 kJ/mol
# Density = 1.756191 g / cm^3
# Si number density = 17.601976 Si / 1000 Ang^3
#
#
#
# Elastic Constant Matrix: (Units=GPa)
#
#
# Indices 1 2 3 4 5 6 
#
# 1 137.2648 61.8467 72.5141 0.0000 0.0000 0.0000
# 2 61.8467 122.8702 55.7667 0.0000 0.0000 0.0000
# 3 72.5141 55.7667 89.2548 0.0000 0.0000 0.0000
# 4 0.0000 0.0000 0.0000 32.5652 0.0000 0.0000
# 5 0.0000 0.0000 0.0000 0.0000 24.8200 0.0000
# 6 0.0000 0.0000 0.0000 0.0000 0.0000 14.3217
#
#
#
# Elastic Compliance Matrix: (Units=1/GPa)
#
#
# Indices 1 2 3 4 5 6 
#
# 1 0.013290 -0.002497 -0.009237 0.000000 0.000000 0.000000
# 2 -0.002497 0.011829 -0.005362 0.000000 0.000000 0.000000
# 3 -0.009237 -0.005362 0.022059 0.000000 0.000000 0.000000
# 4 0.000000 0.000000 0.000000 0.030708 0.000000 0.000000
# 5 0.000000 0.000000 0.000000 0.000000 0.040290 0.000000
# 6 0.000000 0.000000 0.000000 0.000000 0.000000 0.069824
#
#
# Mechanical properties :
#
#
# Convention : Reuss Voigt Hill
#
# Bulk Modulus (GPa) = 77.01072 81.07164 79.04118
# Shear Modulus (GPa) = 22.07294 24.95887 23.51590
#
# Velocity S-wave (km/s) = 3.54503 3.76966 3.65907
# Velocity P-wave (km/s) = 7.78476 8.06879 7.92805
#
# Compressibility (1/GPa) = 0.01298520
#
# Stress axis : x y z
#
# Youngs Moduli (GPa) = 75.24386 84.53558 45.33317
#
# Poissons Ratio (x) = 0.21110 0.41875
# Poissons Ratio (y) = 0.18789 0.24309
# Poissons Ratio (z) = 0.69504 0.45330
#
# Static dielectric constant tensor:
#      x y z
#    x 1.597930 0.000000 0.000000 
#    y 0.000000 1.581200 0.000000 
#    z 0.000000 0.000000 1.582440 
# 
# From -- ./inp_files/1991.got.cif
#   From: 2010.05.17/outbox.cif.g08.bks.cpg/sg57_1_cif.got.tgz:1991.got - 2010.06.03 13:58:18.
