data_PCOD9440036
_publ_section_title
;
Structure prediction by ZEFSAII (Michael W. Deem and Ramdas Pophale) SiO2 
 PCOD9440036
Probable space group: P B C M
;
_chemical_formula_sum "Si O2"
_cell_formula_units_Z 32
_cell_length_a 10.405266
_cell_length_b 20.162386
_cell_length_c 8.669271
_cell_angle_alpha 90.000000
_cell_angle_beta 90.000000
_cell_angle_gamma 90.000000
_cell_volume 1818.769619
_symmetry_space_group_name_H-M "P B C M"
_symmetry_group_IT_number 57
_symmetry_cell_setting 'orthorhombic'
loop_
_space_group_symop_operation_xyz
x,y,z
-x,-y,1/2+z
x,1/2-y,-z
-x,1/2+y,1/2-z
-x,-y,-z
x,y,1/2-z
-x,1/2+y,z
x,1/2-y,1/2+z
loop_
_atom_site_type_symbol
_atom_site_label
_atom_site_fract_x
_atom_site_fract_y
_atom_site_fract_z
Si Si1 0.401893 0.091276 0.564527
Si Si2 0.042891 0.928529 0.935880
Si Si3 0.159685 0.323523 0.064403
Si Si4 0.333594 0.940957 0.935419
O O1 0.406995 0.091296 0.750000
O O2 0.297161 0.145220 0.515764
O O3 0.545369 0.098834 0.500960
O O4 0.352455 0.017985 0.515430
O O5 0.035678 0.929771 0.750000
O O6 0.191900 0.917687 0.981324
O O7 0.950119 0.872392 0.001976
O O8 0.000000 0.000000 0.000000
O O9 0.155119 0.323067 0.250000
O O10 0.144286 0.250000 0.000000
O O11 0.340257 0.939625 0.750000
#
# Coordination Sequence:
#
# PCOD9440036 Si02
#       4
#     8   8   8   8
#     4   9  18  34  54  80 112 144 182 230 279 334
#     4  11  21  36  58  86 117 152 192 239 287 339
#     4  11  23  40  58  83 116 152 194 236 287 349
#     4   9  18  33  54  83 113 140 182 232 279 332
#
# _framework density 17.594311000000001
#
# number of rings (size 3 to 8) (size 9 to 14) (size 15 to 20)
#    0.000    2.000    2.500    1.500    0.000    4.000 
#    0.000    1.250    0.000    3.000    0.000    0.000 
#    0.000    0.000    0.000    0.000    0.000    0.000 
#
# Total GULP energy -178594.846363 kJ/mol
# GULP energy per Si atom -5581.088949 kJ/mol
# Density = 1.755427 g / cm^3
# Si number density = 17.594311 Si / 1000 Ang^3
#
#
#
# Elastic Constant Matrix: (Units=GPa)
#
#
# Indices 1 2 3 4 5 6 
#
# 1 197.6854 93.3880 49.9940 0.0000 0.0000 0.0000
# 2 93.3880 126.7770 37.4487 0.0000 0.0000 0.0000
# 3 49.9940 37.4487 41.7865 0.0000 0.0000 0.0000
# 4 0.0000 0.0000 0.0000 25.8905 0.0000 0.0000
# 5 0.0000 0.0000 0.0000 0.0000 32.7826 0.0000
# 6 0.0000 0.0000 0.0000 0.0000 0.0000 26.6491
#
#
#
# Elastic Compliance Matrix: (Units=1/GPa)
#
#
# Indices 1 2 3 4 5 6 
#
# 1 0.008885 -0.004631 -0.006480 0.000000 0.000000 0.000000
# 2 -0.004631 0.013141 -0.006237 0.000000 0.000000 0.000000
# 3 -0.006480 -0.006237 0.037273 0.000000 0.000000 0.000000
# 4 0.000000 0.000000 0.000000 0.038624 0.000000 0.000000
# 5 0.000000 0.000000 0.000000 0.000000 0.030504 0.000000
# 6 0.000000 0.000000 0.000000 0.000000 0.000000 0.037525
#
#
# Mechanical properties :
#
#
# Convention : Reuss Voigt Hill
#
# Bulk Modulus (GPa) = 40.64320 80.87892 60.76106
# Shear Modulus (GPa) = 23.94073 29.42564 26.68318
#
# Velocity S-wave (km/s) = 3.69278 4.09400 3.89855
# Velocity P-wave (km/s) = 6.42904 8.27142 7.40773
#
# Compressibility (1/GPa) = 0.02460436
#
# Stress axis : x y z
#
# Youngs Moduli (GPa) = 112.55021 76.09557 26.82891
#
# Poissons Ratio (x) = 0.35238 0.17385
# Poissons Ratio (y) = 0.52120 0.16733
# Poissons Ratio (z) = 0.72932 0.47460
#
# Static dielectric constant tensor:
#      x y z
#    x 1.606480 0.000000 0.000000 
#    y 0.000000 1.567460 0.000000 
#    z 0.000000 0.000000 1.593900 
# 
# From -- ./inp_files/1245.got.cif
#   From: 2010.05.17/outbox.cif.g08.bks.cpg/sg57_1_cif.got.tgz:1245.got - 2010.06.03 13:58:18.
