data_PCOD9440663
_publ_section_title
;
Structure prediction by ZEFSAII (Michael W. Deem and Ramdas Pophale) SiO2 
 PCOD9440663
Probable space group: P B C M
;
_chemical_formula_sum "Si O2"
_cell_formula_units_Z 40
_cell_length_a 12.000000
_cell_length_b 18.000000
_cell_length_c 9.000000
_cell_angle_alpha 90.000000
_cell_angle_beta 90.000000
_cell_angle_gamma 90.000000
_cell_volume 1944.000000
_symmetry_space_group_name_H-M "P B C M"
_symmetry_group_IT_number 57
_symmetry_cell_setting 'orthorhombic'
loop_
_space_group_symop_operation_xyz
x,y,z
-x,-y,1/2+z
x,1/2-y,-z
-x,1/2+y,1/2-z
-x,-y,-z
x,y,1/2-z
-x,1/2+y,z
x,1/2-y,1/2+z
loop_
_atom_site_type_symbol
_atom_site_label
_atom_site_fract_x
_atom_site_fract_y
_atom_site_fract_z
Si Si1 0.084219 0.169822 0.250000
Si Si2 0.936134 0.180276 0.750000
Si Si3 0.261685 0.835747 0.487470
Si Si4 0.711690 0.664372 0.023303
Si Si5 0.134349 0.916380 0.750000
Si Si6 0.833415 0.590859 0.750000
Si Si7 0.479701 0.920132 0.925155
O O1 0.173906 0.169055 0.381428
O O2 0.001341 0.240808 0.250000
O O3 0.997431 0.102087 0.250000
O O4 0.845862 0.170251 0.879320
O O5 0.041000 0.124411 0.750000
O O6 0.296893 0.750000 0.500000
O O7 0.197969 0.877543 0.616920
O O8 0.380086 0.879934 0.480797
O O9 0.598654 0.623277 0.074142
O O10 0.679558 0.750000 0.000000
O O11 0.759474 0.620107 0.884757
O O12 0.153840 0.003320 0.750000
O O13 0.446308 0.926014 0.750000
O O14 0.500000 0.000000 0.000000
#
# Coordination Sequence:
#
# PCOD9440663 Si02
#       7
#     4   4   8   8   4   4   8
#     4  12  24  47  75 110 155 198 259 318 377 470
#     4  12  26  45  77 114 151 206 253 320 387 466
#     4  12  25  48  77 105 150 202 261 314 388 460
#     4  12  25  48  79 106 149 202 260 313 388 460
#     4  12  26  45  71 111 155 192 252 325 385 451
#     4  12  28  45  75 115 155 196 254 327 389 457
#     4  12  29  51  75 111 157 203 259 328 391 461
#
# _framework density 20.576132000000001
#
# number of rings (size 3 to 8) (size 9 to 14) (size 15 to 20)
#    0.000    0.000    6.000    3.000    2.800    4.800 
#    0.000    0.000    0.000    0.000    0.000    0.000 
#    0.000    0.000    0.000    0.000    0.000    0.000 
#
# Total GULP energy -222799.811768 kJ/mol
# GULP energy per Si atom -5569.995294 kJ/mol
# Density = 2.052930 g / cm^3
# Si number density = 20.576132 Si / 1000 Ang^3
#
#
#
# Elastic Constant Matrix: (Units=GPa)
#
#
# Indices 1 2 3 4 5 6 
#
# 1 172.7527 47.8655 43.7198 0.0000 0.0000 0.0000
# 2 47.8655 165.0691 52.1655 0.0000 0.0000 0.0000
# 3 43.7198 52.1655 91.2772 0.0000 0.0000 0.0000
# 4 0.0000 0.0000 0.0000 18.3553 0.0000 0.0000
# 5 0.0000 0.0000 0.0000 0.0000 31.6740 0.0000
# 6 0.0000 0.0000 0.0000 0.0000 0.0000 279.5133
#
#
#
# Elastic Compliance Matrix: (Units=1/GPa)
#
#
# Indices 1 2 3 4 5 6 
#
# 1 0.006759 -0.001143 -0.002584 0.000000 0.000000 0.000000
# 2 -0.001143 0.007587 -0.003788 0.000000 0.000000 0.000000
# 3 -0.002584 -0.003788 0.014358 0.000000 0.000000 0.000000
# 4 0.000000 0.000000 0.000000 0.054480 0.000000 0.000000
# 5 0.000000 0.000000 0.000000 0.000000 0.031572 0.000000
# 6 0.000000 0.000000 0.000000 0.000000 0.000000 0.003578
#
#
# Mechanical properties :
#
#
# Convention : Reuss Voigt Hill
#
# Bulk Modulus (GPa) = 73.13671 79.62229 76.37950
# Shear Modulus (GPa) = 36.25202 84.93173 60.59188
#
# Velocity S-wave (km/s) = 4.20199 6.43167 5.43246
# Velocity P-wave (km/s) = 7.69181 9.69204 8.74927
#
# Compressibility (1/GPa) = 0.01367302
#
# Stress axis : x y z
#
# Youngs Moduli (GPa) = 147.94173 131.80806 69.64572
#
# Poissons Ratio (x) = 0.15071 0.17998
# Poissons Ratio (y) = 0.16916 0.26383
# Poissons Ratio (z) = 0.38230 0.49932
#
# Static dielectric constant tensor:
#      x y z
#    x 1.666900 0.000000 0.000000 
#    y 0.000000 1.725380 0.000000 
#    z 0.000000 0.000000 1.606430 
# 
# From -- ./inp_files/2762.got.cif
#   From: 2010.05.17/outbox.ucp.g08.bks.cvg/sg57_2_cif.got.tgz:2762.got - 2010.06.11 16:39:23.
