data_PCOD9440503
_publ_section_title
;
Structure prediction by ZEFSAII (Michael W. Deem and Ramdas Pophale) SiO2 
 PCOD9440503
Probable space group: P B C M
;
_chemical_formula_sum "Si O2"
_cell_formula_units_Z 64
_cell_length_a 24.000000
_cell_length_b 15.000000
_cell_length_c 9.000000
_cell_angle_alpha 90.000000
_cell_angle_beta 90.000000
_cell_angle_gamma 90.000000
_cell_volume 3240.000000
_symmetry_space_group_name_H-M "P B C M"
_symmetry_group_IT_number 57
_symmetry_cell_setting 'orthorhombic'
loop_
_space_group_symop_operation_xyz
x,y,z
-x,-y,1/2+z
x,1/2-y,-z
-x,1/2+y,1/2-z
-x,-y,-z
x,y,1/2-z
-x,1/2+y,z
x,1/2-y,1/2+z
loop_
_atom_site_type_symbol
_atom_site_label
_atom_site_fract_x
_atom_site_fract_y
_atom_site_fract_z
Si Si1 0.740250 0.838093 0.583881
Si Si2 0.021498 0.909656 0.424199
Si Si3 0.606733 0.662185 0.417447
Si Si4 0.351953 0.653225 0.429104
Si Si5 0.250189 0.972495 0.572495
Si Si6 0.440096 0.991366 0.572726
Si Si7 0.126657 0.541650 0.072596
Si Si8 0.902405 0.659833 0.575593
O O1 0.760162 0.750000 0.500000
O O2 0.763449 0.842358 0.750000
O O3 0.673245 0.828805 0.594030
O O4 0.749548 0.930049 0.498987
O O5 0.029299 0.924047 0.250000
O O6 0.081002 0.894920 0.498712
O O7 0.969607 0.844076 0.442449
O O8 0.000000 0.000000 0.500000
O O9 0.584600 0.750000 0.500000
O O10 0.583936 0.654044 0.250000
O O11 0.594588 0.575037 0.512599
O O12 0.349751 0.750000 0.500000
O O13 0.349373 0.660721 0.250000
O O14 0.300367 0.590605 0.477936
O O15 0.407883 0.599101 0.468470
O O16 0.255686 0.984227 0.750000
O O17 0.189752 0.931008 0.542074
O O18 0.443643 0.995381 0.750000
O O19 0.500000 0.000000 0.500000
O O20 0.117001 0.540754 0.250000
O O21 0.119030 0.437554 0.021985
O O22 0.882341 0.750000 0.500000
O O23 0.889186 0.663807 0.750000
#
# Coordination Sequence:
#
# PCOD9440503 Si02
#       8
#     8   8   8   8   8   8   8   8
#     4  10  20  33  54  83 114 150 190 233 283 342
#     4   9  17  31  50  72 100 135 181 226 272 329
#     4  10  20  35  57  85 116 151 188 231 283 342
#     4  10  23  42  65  88 115 154 198 243 295 348
#     4  10  20  38  60  83 115 154 195 242 295 351
#     4  11  23  40  62  90 121 154 194 242 295 353
#     4   9  19  34  53  77 107 142 182 229 282 337
#     4   9  18  31  48  74 104 139 177 220 273 330
#
# _framework density 19.753086
#
# number of rings (size 3 to 8) (size 9 to 14) (size 15 to 20)
#    0.000    2.250    1.250    2.250    0.000    6.500 
#    0.000    3.125    0.000    3.000    0.000    0.000 
#    0.000    0.000    0.000    0.000    0.000    0.000 
#
# Total GULP energy -356980.648020 kJ/mol
# GULP energy per Si atom -5577.822625 kJ/mol
# Density = 1.970813 g / cm^3
# Si number density = 19.753086 Si / 1000 Ang^3
#
#
#
# Elastic Constant Matrix: (Units=GPa)
#
#
# Indices 1 2 3 4 5 6 
#
# 1 108.6367 40.5891 55.9327 0.0000 0.0000 0.0000
# 2 40.5891 86.4473 41.4572 0.0000 0.0000 0.0000
# 3 55.9327 41.4572 44.8298 0.0000 0.0000 0.0000
# 4 0.0000 0.0000 0.0000 31.7680 0.0000 0.0000
# 5 0.0000 0.0000 0.0000 0.0000 19.9824 0.0000
# 6 0.0000 0.0000 0.0000 0.0000 0.0000 -3.4759
#
#
#
# Elastic Compliance Matrix: (Units=1/GPa)
#
#
# Indices 1 2 3 4 5 6 
#
# 1 0.027568 0.006381 -0.040297 0.000000 0.000000 0.000000
# 2 0.006381 0.022263 -0.028550 0.000000 0.000000 0.000000
# 3 -0.040297 -0.028550 0.098986 0.000000 0.000000 0.000000
# 4 0.000000 0.000000 0.000000 0.031478 0.000000 0.000000
# 5 0.000000 0.000000 0.000000 0.000000 0.050044 0.000000
# 6 0.000000 0.000000 0.000000 0.000000 0.000000 -0.287693
#
#
# Mechanical properties :
#
#
# Convention : Reuss Voigt Hill
#
# Bulk Modulus (GPa) = 41.86583 57.31908 49.59246
# Shear Modulus (GPa) = 66.19015 16.45055 41.32035
#
# Velocity S-wave (km/s) = 5.79496 2.88897 4.57863
# Velocity P-wave (km/s) = 8.12502 6.34106 7.28783
#
# Compressibility (1/GPa) = 0.02388583
#
# Stress axis : x y z
#
# Youngs Moduli (GPa) = 36.27368 44.91730 10.10246
#
# Poissons Ratio (x) = -0.28662 0.40710
# Poissons Ratio (y) = -0.23147 0.28842
# Poissons Ratio (z) = 1.46172 1.28238
#
# Static dielectric constant tensor:
#      x y z
#    x 1.753860 0.000000 0.000000 
#    y 0.000000 1.662640 0.000000 
#    z 0.000000 0.000000 1.685040 
# 
# From -- ./inp_files/9513.got.cif
#   From: 2010.05.17/outbox.ucp.g08.bks.cvg/sg57_5_cif.got.tgz:9513.got - 2010.06.11 16:39:23.
