data_PCOD9440261
_publ_section_title
;
Structure prediction by ZEFSAII (Michael W. Deem and Ramdas Pophale) SiO2 
 PCOD9440261
Probable space group: P B C M
;
_chemical_formula_sum "Si O2"
_cell_formula_units_Z 32
_cell_length_a 5.124974
_cell_length_b 9.951159
_cell_length_c 25.670312
_cell_angle_alpha 90.000000
_cell_angle_beta 90.000000
_cell_angle_gamma 90.000000
_cell_volume 1309.171309
_symmetry_space_group_name_H-M "P B C M"
_symmetry_group_IT_number 57
_symmetry_cell_setting 'orthorhombic'
loop_
_space_group_symop_operation_xyz
x,y,z
-x,-y,1/2+z
x,1/2-y,-z
-x,1/2+y,1/2-z
-x,-y,-z
x,y,1/2-z
-x,1/2+y,z
x,1/2-y,1/2+z
loop_
_atom_site_type_symbol
_atom_site_label
_atom_site_fract_x
_atom_site_fract_y
_atom_site_fract_z
Si Si1 0.972766 0.585194 0.051930
Si Si2 0.119508 0.100406 0.856561
Si Si3 0.772877 0.337957 0.808509
Si Si4 0.515273 0.273143 0.591353
O O1 0.960828 0.479040 0.099268
O O2 0.212906 0.688155 0.063194
O O3 0.706691 0.666696 0.054782
O O4 0.000000 0.500000 0.000000
O O5 0.387066 0.134006 0.888233
O O6 0.979036 0.232398 0.833626
O O7 0.138171 0.992015 0.810733
O O8 0.703687 0.297766 0.750000
O O9 0.544572 0.339186 0.851249
#
# Coordination Sequence:
#
# PCOD9440261 Si02
#       4
#     8   8   8   8
#     4  11  26  49  76 107 150 202 246 306 380 441
#     4  11  24  49  72 110 150 189 252 311 365 461
#     4  11  26  46  77 106 149 199 247 309 380 443
#     4  11  24  48  70 109 148 185 249 304 359 450
#
# _framework density 24.442941999999999
#
# number of rings (size 3 to 8) (size 9 to 14) (size 15 to 20)
#    0.000    1.000    5.000    1.500    7.000    3.000 
#    4.500    0.000    0.000    0.000    0.000    0.000 
#    0.000    0.000    0.000    0.000    0.000    0.000 
#
# Total GULP energy -178577.610454 kJ/mol
# GULP energy per Si atom -5580.550327 kJ/mol
# Density = 2.438731 g / cm^3
# Si number density = 24.442942 Si / 1000 Ang^3
#
#
#
# Elastic Constant Matrix: (Units=GPa)
#
#
# Indices 1 2 3 4 5 6 
#
# 1 128.7493 31.1218 9.0959 0.0000 0.0000 0.0000
# 2 31.1218 109.1668 -13.4223 0.0000 0.0000 0.0000
# 3 9.0959 -13.4223 112.9202 0.0000 0.0000 0.0000
# 4 0.0000 0.0000 0.0000 23.2223 0.0000 0.0000
# 5 0.0000 0.0000 0.0000 0.0000 13.3295 0.0000
# 6 0.0000 0.0000 0.0000 0.0000 0.0000 18.2523
#
#
#
# Elastic Compliance Matrix: (Units=1/GPa)
#
#
# Indices 1 2 3 4 5 6 
#
# 1 0.008448 -0.002529 -0.000981 0.000000 0.000000 0.000000
# 2 -0.002529 0.010053 0.001399 0.000000 0.000000 0.000000
# 3 -0.000981 0.001399 0.009101 0.000000 0.000000 0.000000
# 4 0.000000 0.000000 0.000000 0.043062 0.000000 0.000000
# 5 0.000000 0.000000 0.000000 0.000000 0.075022 0.000000
# 6 0.000000 0.000000 0.000000 0.000000 0.000000 0.054788
#
#
# Mechanical properties :
#
#
# Convention : Reuss Voigt Hill
#
# Bulk Modulus (GPa) = 42.77277 44.93633 43.85455
# Shear Modulus (GPa) = 23.53063 32.56354 28.04708
#
# Velocity S-wave (km/s) = 3.10607 3.65393 3.39108
# Velocity P-wave (km/s) = 5.51367 6.01878 5.77175
#
# Compressibility (1/GPa) = 0.02337936
#
# Stress axis : x y z
#
# Youngs Moduli (GPa) = 118.37619 99.47057 109.87692
#
# Poissons Ratio (x) = 0.25155 0.10780
# Poissons Ratio (y) = 0.29936 -0.15368
# Poissons Ratio (z) = 0.11614 -0.13913
#
# Static dielectric constant tensor:
#      x y z
#    x 2.063500 0.000000 0.000000 
#    y 0.000000 2.127510 0.000000 
#    z 0.000000 0.000000 1.902980 
# 
# From -- ./inp_files/29012.got.cif
#   From: 2010.05.17/outbox.cif.g08.bks.cpg/sg57_15_cif.got.tgz:29012.got - 2010.06.03 13:58:18.
