data_PCOD9440342
_publ_section_title
;
Structure prediction by ZEFSAII (Michael W. Deem and Ramdas Pophale) SiO2 
 PCOD9440342
Probable space group: P B C M
;
_chemical_formula_sum "Si O2"
_cell_formula_units_Z 40
_cell_length_a 11.584822
_cell_length_b 8.990538
_cell_length_c 17.992936
_cell_angle_alpha 90.000000
_cell_angle_beta 90.000000
_cell_angle_gamma 90.000000
_cell_volume 1874.032341
_symmetry_space_group_name_H-M "P B C M"
_symmetry_group_IT_number 57
_symmetry_cell_setting 'orthorhombic'
loop_
_space_group_symop_operation_xyz
x,y,z
-x,-y,1/2+z
x,1/2-y,-z
-x,1/2+y,1/2-z
-x,-y,-z
x,y,1/2-z
-x,1/2+y,z
x,1/2-y,1/2+z
loop_
_atom_site_type_symbol
_atom_site_label
_atom_site_fract_x
_atom_site_fract_y
_atom_site_fract_z
Si Si1 0.388559 0.294246 0.750000
Si Si2 0.207212 0.718426 0.129846
Si Si3 0.943177 0.768369 0.168878
Si Si4 0.763955 0.557723 0.377367
Si Si5 0.360670 0.559597 0.250000
Si Si6 0.129371 0.030503 0.530229
O O1 0.326290 0.356074 0.825074
O O2 0.517794 0.355348 0.750000
O O3 0.380833 0.116418 0.750000
O O4 0.286450 0.615311 0.180298
O O5 0.183355 0.624677 0.056080
O O6 0.079114 0.747648 0.161636
O O7 0.260156 0.882524 0.125076
O O8 0.912832 0.830085 0.250000
O O9 0.885259 0.606006 0.160283
O O10 0.890555 0.866467 0.102332
O O11 0.789761 0.591747 0.464169
O O12 0.000000 0.000000 0.500000
#
# Coordination Sequence:
#
# PCOD9440342 Si02
#       6
#     4   8   8   8   4   8
#     4  12  28  53  76 105 140 195 261 311 375 436
#     4  12  24  41  71 108 148 194 243 298 370 431
#     4  12  24  40  67 110 152 200 242 293 363 445
#     4  12  25  43  71 104 151 197 240 299 365 436
#     4  12  28  51  78 105 142 189 257 323 365 438
#     4  12  25  42  68 110 161 197 237 292 363 444
#
# _framework density 21.344349000000001
#
# number of rings (size 3 to 8) (size 9 to 14) (size 15 to 20)
#    0.000    0.000    6.000    4.200    1.400    1.600 
#    0.000    1.000    0.000    2.400    0.000    0.000 
#    0.000    0.000    0.000    0.000    0.000    0.000 
#
# Total GULP energy -223664.198551 kJ/mol
# GULP energy per Si atom -5591.604964 kJ/mol
# Density = 2.129577 g / cm^3
# Si number density = 21.344349 Si / 1000 Ang^3
#
#
#
# Elastic Constant Matrix: (Units=GPa)
#
#
# Indices 1 2 3 4 5 6 
#
# 1 107.0916 61.4285 55.6526 0.0000 0.0000 0.0000
# 2 61.4285 192.4786 82.0975 0.0000 0.0000 0.0000
# 3 55.6526 82.0975 185.0527 0.0000 0.0000 0.0000
# 4 0.0000 0.0000 0.0000 45.5817 0.0000 0.0000
# 5 0.0000 0.0000 0.0000 0.0000 11.2875 0.0000
# 6 0.0000 0.0000 0.0000 0.0000 0.0000 34.0006
#
#
#
# Elastic Compliance Matrix: (Units=1/GPa)
#
#
# Indices 1 2 3 4 5 6 
#
# 1 0.012239 -0.002881 -0.002402 0.000000 0.000000 0.000000
# 2 -0.002881 0.007086 -0.002277 0.000000 0.000000 0.000000
# 3 -0.002402 -0.002277 0.007137 0.000000 0.000000 0.000000
# 4 0.000000 0.000000 0.000000 0.021939 0.000000 0.000000
# 5 0.000000 0.000000 0.000000 0.000000 0.088593 0.000000
# 6 0.000000 0.000000 0.000000 0.000000 0.000000 0.029411
#
#
# Mechanical properties :
#
#
# Convention : Reuss Voigt Hill
#
# Bulk Modulus (GPa) = 88.18426 98.10890 93.14658
# Shear Modulus (GPa) = 26.98224 37.20359 32.09292
#
# Velocity S-wave (km/s) = 3.55933 4.17948 3.88181
# Velocity P-wave (km/s) = 7.63522 8.32798 7.98911
#
# Compressibility (1/GPa) = 0.01133989
#
# Stress axis : x y z
#
# Youngs Moduli (GPa) = 81.70571 141.11853 140.12118
#
# Poissons Ratio (x) = 0.40660 0.33664
# Poissons Ratio (y) = 0.23542 0.31909
# Poissons Ratio (z) = 0.19630 0.32136
#
# Static dielectric constant tensor:
#      x y z
#    x 1.729300 0.000000 0.000000 
#    y 0.000000 1.838020 0.000000 
#    z 0.000000 0.000000 1.825100 
# 
# From -- ./inp_files/21667.got.cif
#   From: 2010.05.17/outbox.cif.g08.bks.cpg/sg57_11_cif.got.tgz:21667.got - 2010.06.03 13:58:18.
