data_PCOD9440900
_publ_section_title
;
Structure prediction by ZEFSAII (Michael W. Deem and Ramdas Pophale) SiO2 
 PCOD9440900
Probable space group: P N N M
;
_chemical_formula_sum "Si O2"
_cell_formula_units_Z 64
_cell_length_a 27.154419
_cell_length_b 19.078840
_cell_length_c 8.667409
_cell_angle_alpha 90.000000
_cell_angle_beta 90.000000
_cell_angle_gamma 90.000000
_cell_volume 4490.366318
_symmetry_space_group_name_H-M "P N N M"
_symmetry_group_IT_number 58
_symmetry_cell_setting 'orthorhombic'
loop_
_space_group_symop_operation_xyz
x,y,z
-x,-y,z
1/2+x,1/2-y,1/2-z
1/2-x,1/2+y,1/2-z
-x,-y,-z
x,y,-z
1/2-x,1/2+y,1/2+z
1/2+x,1/2-y,1/2+z
loop_
_atom_site_type_symbol
_atom_site_label
_atom_site_fract_x
_atom_site_fract_y
_atom_site_fract_z
Si Si1 0.195997 0.201715 0.821439
Si Si2 0.300452 0.284618 0.821721
Si Si3 0.253876 0.073085 0.814326
Si Si4 0.255278 0.917869 0.686598
Si Si5 0.447214 0.077139 0.314633
Si Si6 0.144433 0.336637 0.187662
Si Si7 0.652238 0.845824 0.683367
Si Si8 0.553742 0.078433 0.184103
O O1 0.247716 0.244330 0.821716
O O2 0.157195 0.257628 0.756515
O O3 0.211122 0.126356 0.754876
O O4 0.181891 0.190239 0.000000
O O5 0.286497 0.361962 0.763374
O O6 0.336885 0.234317 0.729837
O O7 0.316486 0.288775 0.000000
O O8 0.248785 0.994824 0.753133
O O9 0.305855 0.106174 0.761536
O O10 0.252723 0.073860 0.000000
O O11 0.253947 0.919977 0.500000
O O12 0.308766 0.885822 0.729145
O O13 0.452113 0.075751 0.500000
O O14 0.401660 0.126789 0.272075
O O15 0.499141 0.098764 0.240967
O O16 0.436373 0.998387 0.256357
O O17 0.095200 0.368734 0.256448
O O18 0.141861 0.335828 0.000000
O O19 0.657364 0.853761 0.500000
O O20 0.554497 0.073117 0.000000
#
# Coordination Sequence:
#
# PCOD9440900 Si02
#       8
#     8   8   8   8   8   8   8   8
#     4   7  13  26  41  56  75 105 140 166 193 235
#     4   8  15  28  43  58  80 108 136 167 203 241
#     4  10  18  27  41  61  85 112 140 170 204 239
#     4   9  17  28  42  61  84 112 142 168 199 242
#     4  10  20  33  45  57  78 110 141 166 200 244
#     4   9  16  29  45  56  76 111 143 167 197 242
#     4  10  19  29  43  61  80 106 141 174 203 241
#     4  11  21  30  42  62  83 102 133 176 211 236
#
# _framework density 14.252734999999999
#
# number of rings (size 3 to 8) (size 9 to 14) (size 15 to 20)
#    0.000    2.750    0.000    6.000    0.000    6.000 
#    0.000    5.625    0.000    0.000    0.000    0.000 
#    0.000    1.000    0.000   11.250    0.000    5.625 
#
# Total GULP energy -356386.795271 kJ/mol
# GULP energy per Si atom -5568.543676 kJ/mol
# Density = 1.422030 g / cm^3
# Si number density = 14.252735 Si / 1000 Ang^3
#
#
#
# Elastic Constant Matrix: (Units=GPa)
#
#
# Indices 1 2 3 4 5 6 
#
# 1 84.6179 59.7497 23.4984 0.0000 0.0000 0.0000
# 2 59.7497 121.8876 24.9421 0.0000 0.0000 0.0000
# 3 23.4984 24.9421 29.4691 0.0000 0.0000 0.0000
# 4 0.0000 0.0000 0.0000 29.3529 0.0000 0.0000
# 5 0.0000 0.0000 0.0000 0.0000 4.1593 0.0000
# 6 0.0000 0.0000 0.0000 0.0000 0.0000 27.3552
#
#
#
# Elastic Compliance Matrix: (Units=1/GPa)
#
#
# Indices 1 2 3 4 5 6 
#
# 1 0.019955 -0.007893 -0.009231 0.000000 0.000000 0.000000
# 2 -0.007893 0.013045 -0.004747 0.000000 0.000000 0.000000
# 3 -0.009231 -0.004747 0.045313 0.000000 0.000000 0.000000
# 4 0.000000 0.000000 0.000000 0.034068 0.000000 0.000000
# 5 0.000000 0.000000 0.000000 0.000000 0.240425 0.000000
# 6 0.000000 0.000000 0.000000 0.000000 0.000000 0.036556
#
#
# Mechanical properties :
#
#
# Convention : Reuss Voigt Hill
#
# Bulk Modulus (GPa) = 28.92718 50.26166 39.59442
# Shear Modulus (GPa) = 11.24538 20.69243 15.96891
#
# Velocity S-wave (km/s) = 2.81196 3.81441 3.35088
# Velocity P-wave (km/s) = 5.55723 7.39870 6.54307
#
# Compressibility (1/GPa) = 0.03456956
#
# Stress axis : x y z
#
# Youngs Moduli (GPa) = 50.11392 76.65903 22.06880
#
# Poissons Ratio (x) = 0.60505 0.20372
# Poissons Ratio (y) = 0.39554 0.10477
# Poissons Ratio (z) = 0.46262 0.36392
#
# Static dielectric constant tensor:
#      x y z
#    x 1.455350 0.000000 0.000000 
#    y 0.000000 1.486720 0.000000 
#    z 0.000000 0.000000 1.483770 
# 
# From -- ./inp_files/10544.got.cif
#   From: 2010.05.17/outbox.cif.g08.bks.cpg/sg58_6_cif.got.tgz:10544.got - 2010.06.03 14:20:14.
