data_PCOD9440007
_publ_section_title
;
Structure prediction by ZEFSAII (Michael W. Deem and Ramdas Pophale) SiO2 
 PCOD9440007
Probable space group: P B C M
;
_chemical_formula_sum "Si O2"
_cell_formula_units_Z 40
_cell_length_a 14.150063
_cell_length_b 18.843789
_cell_length_c 8.500455
_cell_angle_alpha 90.000000
_cell_angle_beta 90.000000
_cell_angle_gamma 90.000000
_cell_volume 2266.568134
_symmetry_space_group_name_H-M "P B C M"
_symmetry_group_IT_number 57
_symmetry_cell_setting 'orthorhombic'
loop_
_space_group_symop_operation_xyz
x,y,z
-x,-y,1/2+z
x,1/2-y,-z
-x,1/2+y,1/2-z
-x,-y,-z
x,y,1/2-z
-x,1/2+y,z
x,1/2-y,1/2+z
loop_
_atom_site_type_symbol
_atom_site_label
_atom_site_fract_x
_atom_site_fract_y
_atom_site_fract_z
Si Si1 0.186855 0.673645 0.939046
Si Si2 0.702626 0.962165 0.941576
Si Si3 0.584275 0.829147 0.561961
Si Si4 0.387269 0.610055 0.940133
Si Si5 0.900268 0.472996 0.440014
O O1 0.185916 0.674289 0.750000
O O2 0.294591 0.655146 0.986937
O O3 0.122629 0.607608 0.991225
O O4 0.157648 0.750000 0.000000
O O5 0.702953 0.962042 0.750000
O O6 0.660051 0.887668 0.995600
O O7 0.809514 0.980279 0.991521
O O8 0.636044 0.028790 0.987465
O O9 0.599644 0.750000 0.500000
O O10 0.588252 0.827130 0.750000
O O11 0.481628 0.857985 0.511532
O O12 0.394446 0.611925 0.750000
O O13 0.900916 0.473891 0.250000
O O14 0.000000 0.500000 0.500000
#
# Coordination Sequence:
#
# PCOD9440007 Si02
#       5
#     8   8   8   8   8
#     4   9  18  31  49  73 101 127 155 194 244 292
#     4   8  17  34  53  70  95 129 162 197 243 290
#     4  11  21  32  47  70 100 135 167 197 234 280
#     4   9  17  32  52  73  97 127 161 200 240 284
#     4   9  18  35  55  74  95 124 161 202 245 290
#
# _framework density 17.647825999999998
#
# number of rings (size 3 to 8) (size 9 to 14) (size 15 to 20)
#    0.000    2.800    0.000    4.200    0.000    3.200 
#    0.000    7.000    0.000    4.800    0.000    0.000 
#    0.000    0.000    0.000    0.000    0.000    0.000 
#
# Total GULP energy -223045.940690 kJ/mol
# GULP energy per Si atom -5576.148517 kJ/mol
# Density = 1.760766 g / cm^3
# Si number density = 17.647826 Si / 1000 Ang^3
#
#
#
# Elastic Constant Matrix: (Units=GPa)
#
#
# Indices 1 2 3 4 5 6 
#
# 1 118.5292 107.3780 20.5405 0.0000 0.0000 0.0000
# 2 107.3780 183.2190 27.0767 0.0000 0.0000 0.0000
# 3 20.5405 27.0767 13.7653 0.0000 0.0000 0.0000
# 4 0.0000 0.0000 0.0000 21.4824 0.0000 0.0000
# 5 0.0000 0.0000 0.0000 0.0000 23.8945 0.0000
# 6 0.0000 0.0000 0.0000 0.0000 0.0000 17.2861
#
#
#
# Elastic Compliance Matrix: (Units=1/GPa)
#
#
# Indices 1 2 3 4 5 6 
#
# 1 0.018739 -0.009657 -0.008966 0.000000 0.000000 0.000000
# 2 -0.009657 0.012672 -0.010515 0.000000 0.000000 0.000000
# 3 -0.008966 -0.010515 0.106710 0.000000 0.000000 0.000000
# 4 0.000000 0.000000 0.000000 0.046550 0.000000 0.000000
# 5 0.000000 0.000000 0.000000 0.000000 0.041851 0.000000
# 6 0.000000 0.000000 0.000000 0.000000 0.000000 0.057850
#
#
# Mechanical properties :
#
#
# Convention : Reuss Voigt Hill
#
# Bulk Modulus (GPa) = 12.52456 69.50042 41.01249
# Shear Modulus (GPa) = 13.54048 23.23383 18.38716
#
# Velocity S-wave (km/s) = 2.77295 3.63233 3.23134
# Velocity P-wave (km/s) = 4.16710 7.55375 6.10016
#
# Compressibility (1/GPa) = 0.07984315
#
# Stress axis : x y z
#
# Youngs Moduli (GPa) = 53.36347 78.91579 9.37122
#
# Poissons Ratio (x) = 0.76212 0.08403
# Poissons Ratio (y) = 0.51535 0.09854
# Poissons Ratio (z) = 0.47848 0.82980
#
# Static dielectric constant tensor:
#      x y z
#    x 1.578630 0.000000 0.000000 
#    y 0.000000 1.610890 0.000000 
#    z 0.000000 0.000000 1.612650 
# 
# From -- ./inp_files/2674.got.cif
#   From: 2010.05.17/outbox.cif.g08.bks.cpg/sg57_2_cif.got.tgz:2674.got - 2010.06.03 13:58:18.
