data_PCOD9440529
_publ_section_title
;
Structure prediction by ZEFSAII (Michael W. Deem and Ramdas Pophale) SiO2 
 PCOD9440529
Probable space group: P B C M
;
_chemical_formula_sum "Si O2"
_cell_formula_units_Z 64
_cell_length_a 24.000000
_cell_length_b 15.000000
_cell_length_c 9.000000
_cell_angle_alpha 90.000000
_cell_angle_beta 90.000000
_cell_angle_gamma 90.000000
_cell_volume 3240.000000
_symmetry_space_group_name_H-M "P B C M"
_symmetry_group_IT_number 57
_symmetry_cell_setting 'orthorhombic'
loop_
_space_group_symop_operation_xyz
x,y,z
-x,-y,1/2+z
x,1/2-y,-z
-x,1/2+y,1/2-z
-x,-y,-z
x,y,1/2-z
-x,1/2+y,z
x,1/2-y,1/2+z
loop_
_atom_site_type_symbol
_atom_site_label
_atom_site_fract_x
_atom_site_fract_y
_atom_site_fract_z
Si Si1 0.989991 0.402865 0.070998
Si Si2 0.363497 0.846896 0.072109
Si Si3 0.818830 0.526104 0.576785
Si Si4 0.875290 0.338771 0.924370
Si Si5 0.898930 0.663055 0.427150
Si Si6 0.598925 0.847868 0.572745
Si Si7 0.511846 0.151183 0.571840
Si Si8 0.702174 0.520822 0.427874
O O1 0.990195 0.406587 0.250000
O O2 0.932248 0.364329 0.009279
O O3 0.000000 0.500000 0.000000
O O4 0.041808 0.347317 0.008450
O O5 0.361041 0.835768 0.250000
O O6 0.426052 0.883138 0.038893
O O7 0.319640 0.922442 0.029136
O O8 0.355578 0.750000 0.000000
O O9 0.826333 0.551517 0.750000
O O10 0.833778 0.421866 0.563965
O O11 0.862242 0.578878 0.474607
O O12 0.757070 0.543811 0.519020
O O13 0.887605 0.324098 0.750000
O O14 0.852328 0.250000 0.000000
O O15 0.871261 0.750000 0.500000
O O16 0.904903 0.669628 0.250000
O O17 0.606712 0.750000 0.500000
O O18 0.591326 0.838419 0.750000
O O19 0.542771 0.890331 0.502793
O O20 0.652325 0.909505 0.545797
O O21 0.512852 0.250000 0.500000
O O22 0.504939 0.154952 0.750000
O O23 0.713789 0.520894 0.250000
#
# Coordination Sequence:
#
# PCOD9440529 Si02
#       8
#     8   8   8   8   8   8   8   8
#     4  12  23  39  65  97 132 167 203 246 302 361
#     4   9  19  36  57  83 115 151 191 238 293 354
#     4  11  25  44  64  88 120 157 206 258 302 356
#     4  11  24  42  65  93 126 162 204 251 303 362
#     4  12  25  43  68  95 127 165 203 249 304 361
#     4  10  20  35  56  82 113 150 189 236 291 351
#     4   9  16  29  52  81 113 147 185 233 290 352
#     4  10  23  41  59  81 114 155 198 243 298 357
#
# _framework density 19.753086
#
# number of rings (size 3 to 8) (size 9 to 14) (size 15 to 20)
#    0.000    1.500    1.250    4.875    0.000    5.000 
#    0.000    3.750    0.000    0.000    0.000    0.000 
#    0.000    0.000    0.000    0.000    0.000    0.000 
#
# Total GULP energy -357583.172585 kJ/mol
# GULP energy per Si atom -5587.237072 kJ/mol
# Density = 1.970813 g / cm^3
# Si number density = 19.753086 Si / 1000 Ang^3
#
#
#
# Elastic Constant Matrix: (Units=GPa)
#
#
# Indices 1 2 3 4 5 6 
#
# 1 45.0762 -17.4467 14.0202 0.0000 0.0000 0.0000
# 2 -17.4467 61.8616 17.7080 0.0000 0.0000 0.0000
# 3 14.0202 17.7080 117.2210 0.0000 0.0000 0.0000
# 4 0.0000 0.0000 0.0000 27.8533 0.0000 0.0000
# 5 0.0000 0.0000 0.0000 0.0000 125.1847 0.0000
# 6 0.0000 0.0000 0.0000 0.0000 0.0000 -34.2132
#
#
#
# Elastic Compliance Matrix: (Units=1/GPa)
#
#
# Indices 1 2 3 4 5 6 
#
# 1 0.027077 0.008950 -0.004591 0.000000 0.000000 0.000000
# 2 0.008950 0.019854 -0.004070 0.000000 0.000000 0.000000
# 3 -0.004591 -0.004070 0.009695 0.000000 0.000000 0.000000
# 4 0.000000 0.000000 0.000000 0.035902 0.000000 0.000000
# 5 0.000000 0.000000 0.000000 0.000000 0.007988 0.000000
# 6 0.000000 0.000000 0.000000 0.000000 0.000000 -0.029228
#
#
# Mechanical properties :
#
#
# Convention : Reuss Voigt Hill
#
# Bulk Modulus (GPa) = 17.48070 28.08020 22.78045
# Shear Modulus (GPa) = 55.69376 37.75676 46.72526
#
# Velocity S-wave (km/s) = 5.31565 4.37674 4.86888
# Velocity P-wave (km/s) = 6.82230 6.30774 6.57006
#
# Compressibility (1/GPa) = 0.05720596
#
# Stress axis : x y z
#
# Youngs Moduli (GPa) = 36.93206 50.36670 103.14848
#
# Poissons Ratio (x) = -0.45081 0.47351
# Poissons Ratio (y) = -0.33056 0.41980
# Poissons Ratio (z) = 0.16954 0.20498
#
# Static dielectric constant tensor:
#      x y z
#    x 1.709860 0.000000 0.000000 
#    y 0.000000 1.758500 0.000000 
#    z 0.000000 0.000000 1.655880 
# 
# From -- ./inp_files/9348.got.cif
#   From: 2010.05.17/outbox.ucp.g08.bks.cvg/sg57_5_cif.got.tgz:9348.got - 2010.06.11 16:39:23.
