data_PCOD9440807
_publ_section_title
;
Structure prediction by ZEFSAII (Michael W. Deem and Ramdas Pophale) SiO2 
 PCOD9440807
Probable space group: P N N M
;
_chemical_formula_sum "Si O2"
_cell_formula_units_Z 48
_cell_length_a 16.813756
_cell_length_b 5.434029
_cell_length_c 24.775505
_cell_angle_alpha 90.000000
_cell_angle_beta 90.000000
_cell_angle_gamma 90.000000
_cell_volume 2263.649634
_symmetry_space_group_name_H-M "P N N M"
_symmetry_group_IT_number 58
_symmetry_cell_setting 'orthorhombic'
loop_
_space_group_symop_operation_xyz
x,y,z
-x,-y,z
1/2+x,1/2-y,1/2-z
1/2-x,1/2+y,1/2-z
-x,-y,-z
x,y,-z
1/2-x,1/2+y,1/2+z
1/2+x,1/2-y,1/2+z
loop_
_atom_site_type_symbol
_atom_site_label
_atom_site_fract_x
_atom_site_fract_y
_atom_site_fract_z
Si Si1 0.603004 0.848017 0.385542
Si Si2 0.949922 0.251902 0.236165
Si Si3 0.776382 0.346467 0.403258
Si Si4 0.779965 0.294505 0.721831
Si Si5 0.904652 0.847580 0.061008
Si Si6 0.722314 0.346724 0.936516
O O1 0.585797 0.778107 0.324332
O O2 0.571383 0.622875 0.422037
O O3 0.696796 0.853246 0.400518
O O4 0.573926 0.122568 0.399562
O O5 0.873997 0.246896 0.274876
O O6 0.000000 0.500000 0.245920
O O7 0.000000 0.000000 0.239309
O O8 0.755986 0.334320 0.340118
O O9 0.692344 0.353759 0.435471
O O10 0.819799 0.597364 0.418669
O O11 0.819903 0.100151 0.421730
O O12 0.760330 0.548118 0.753669
O O13 0.927027 0.787447 0.000000
O O14 0.741796 0.341400 0.000000
#
# Coordination Sequence:
#
# PCOD9440807 Si02
#       6
#     8   8   8   8   8   8
#     4  10  18  32  51  72 100 150 196 226 278 345
#     4  12  26  43  61  84 122 166 204 248 307 365
#     4  10  18  29  49  80 112 145 184 235 302 352
#     4  12  23  40  64  92 120 153 210 268 308 356
#     4  10  17  29  52  81 113 143 183 247 299 335
#     4  10  18  31  53  83 119 149 185 248 304 345
#
# _framework density 21.204695999999998
#
# number of rings (size 3 to 8) (size 9 to 14) (size 15 to 20)
#    0.000    1.333    0.000   12.000    0.000    0.000 
#    0.000    0.000    0.000   17.000    0.000    0.000 
#    0.000   22.667    0.000    0.000    0.000    0.000 
#
# Total GULP energy -268336.294714 kJ/mol
# GULP energy per Si atom -5590.339473 kJ/mol
# Density = 2.115643 g / cm^3
# Si number density = 21.204696 Si / 1000 Ang^3
#
#
#
# Elastic Constant Matrix: (Units=GPa)
#
#
# Indices 1 2 3 4 5 6 
#
# 1 36.1965 13.1566 15.3502 0.0000 0.0000 0.0000
# 2 13.1566 210.9343 31.7371 0.0000 0.0000 0.0000
# 3 15.3502 31.7371 80.0985 0.0000 0.0000 0.0000
# 4 0.0000 0.0000 0.0000 29.7208 0.0000 0.0000
# 5 0.0000 0.0000 0.0000 0.0000 15.8252 0.0000
# 6 0.0000 0.0000 0.0000 0.0000 0.0000 19.4728
#
#
#
# Elastic Compliance Matrix: (Units=1/GPa)
#
#
# Indices 1 2 3 4 5 6 
#
# 1 0.030301 -0.001081 -0.005379 0.000000 0.000000 0.000000
# 2 -0.001081 0.005080 -0.001806 0.000000 0.000000 0.000000
# 3 -0.005379 -0.001806 0.014231 0.000000 0.000000 0.000000
# 4 0.000000 0.000000 0.000000 0.033646 0.000000 0.000000
# 5 0.000000 0.000000 0.000000 0.000000 0.063190 0.000000
# 6 0.000000 0.000000 0.000000 0.000000 0.000000 0.051354
#
#
# Mechanical properties :
#
#
# Convention : Reuss Voigt Hill
#
# Bulk Modulus (GPa) = 30.22841 49.74634 39.98738
# Shear Modulus (GPa) = 22.18680 30.80278 26.49479
#
# Velocity S-wave (km/s) = 3.23819 3.81549 3.53863
# Velocity P-wave (km/s) = 5.31673 6.55146 5.96612
#
# Compressibility (1/GPa) = 0.03308146
#
# Stress axis : x y z
#
# Youngs Moduli (GPa) = 33.00244 196.85424 70.26980
#
# Poissons Ratio (x) = 0.21274 0.37796
# Poissons Ratio (y) = 0.03567 0.12689
# Poissons Ratio (z) = 0.17751 0.35546
#
# Static dielectric constant tensor:
#      x y z
#    x 1.803860 0.000000 0.000000 
#    y 0.000000 1.892620 0.000000 
#    z 0.000000 0.000000 1.723480 
# 
# From -- ./inp_files/32305.got.cif
#   From: 2010.05.17/outbox.cif.g08.bks.cpg/sg58_17_cif.got.tgz:32305.got - 2010.06.03 14:20:14.
