data_PCOD9440474
_publ_section_title
;
Structure prediction by ZEFSAII (Michael W. Deem and Ramdas Pophale) SiO2 
 PCOD9440474
Probable space group: P B C M
;
_chemical_formula_sum "Si O2"
_cell_formula_units_Z 56
_cell_length_a 9.000000
_cell_length_b 21.000000
_cell_length_c 15.000000
_cell_angle_alpha 90.000000
_cell_angle_beta 90.000000
_cell_angle_gamma 90.000000
_cell_volume 2835.000000
_symmetry_space_group_name_H-M "P B C M"
_symmetry_group_IT_number 57
_symmetry_cell_setting 'orthorhombic'
loop_
_space_group_symop_operation_xyz
x,y,z
-x,-y,1/2+z
x,1/2-y,-z
-x,1/2+y,1/2-z
-x,-y,-z
x,y,1/2-z
-x,1/2+y,z
x,1/2-y,1/2+z
loop_
_atom_site_type_symbol
_atom_site_label
_atom_site_fract_x
_atom_site_fract_y
_atom_site_fract_z
Si Si1 0.407792 0.624211 0.481727
Si Si2 0.110372 0.679743 0.540076
Si Si3 0.906923 0.917280 0.576605
Si Si4 0.337229 0.176823 0.353978
Si Si5 0.204012 0.954416 0.847176
Si Si6 0.827825 0.808479 0.146342
Si Si7 0.684183 0.931175 0.432721
O O1 0.283133 0.658192 0.543652
O O2 0.524844 0.665472 0.421734
O O3 0.303545 0.586880 0.413199
O O4 0.516110 0.576418 0.535203
O O5 0.112547 0.750000 0.500000
O O6 0.013053 0.632630 0.476744
O O7 0.003244 0.685506 0.625760
O O8 0.029606 0.958232 0.627906
O O9 0.785883 0.878851 0.634284
O O10 0.799597 0.955180 0.508970
O O11 0.385158 0.179322 0.250000
O O12 0.244648 0.240513 0.376269
O O13 0.212309 0.924982 0.750000
O O14 0.281783 0.022891 0.851643
O O15 0.802024 0.819709 0.250000
O O16 0.740712 0.860823 0.089844
#
# Coordination Sequence:
#
# PCOD9440474 Si02
#       7
#     8   8   8   8   8   8   8
#     4  10  23  35  57  83 113 150 190 228 280 347
#     4  10  19  35  56  81 112 147 181 223 281 334
#     4   9  19  34  58  83 106 146 195 231 273 330
#     4  10  19  35  56  85 117 143 183 234 284 330
#     4  11  21  37  56  82 114 146 191 241 285 325
#     4  10  21  37  58  85 114 147 188 235 281 330
#     4  10  21  37  59  79 114 154 193 226 279 340
#
# _framework density 19.753086
#
# number of rings (size 3 to 8) (size 9 to 14) (size 15 to 20)
#    0.000    2.000    1.429    2.143    2.000    0.000 
#    0.000    2.143    0.000    0.000    0.000    0.000 
#    0.000    0.000    0.000    0.000    0.000    0.000 
#
# Total GULP energy -311973.039146 kJ/mol
# GULP energy per Si atom -5570.947128 kJ/mol
# Density = 1.970813 g / cm^3
# Si number density = 19.753086 Si / 1000 Ang^3
#
#
#
# Elastic Constant Matrix: (Units=GPa)
#
#
# Indices 1 2 3 4 5 6 
#
# 1 135.9784 3.5144 26.7429 0.0000 0.0000 0.0000
# 2 3.5144 19.4042 7.4760 0.0000 0.0000 0.0000
# 3 26.7429 7.4760 46.8654 0.0000 0.0000 0.0000
# 4 0.0000 0.0000 0.0000 19.5428 0.0000 0.0000
# 5 0.0000 0.0000 0.0000 0.0000 -2.2836 0.0000
# 6 0.0000 0.0000 0.0000 0.0000 0.0000 22.3020
#
#
#
# Elastic Compliance Matrix: (Units=1/GPa)
#
#
# Indices 1 2 3 4 5 6 
#
# 1 0.008286 0.000342 -0.004783 0.000000 0.000000 0.000000
# 2 0.000342 0.054924 -0.008957 0.000000 0.000000 0.000000
# 3 -0.004783 -0.008957 0.025496 0.000000 0.000000 0.000000
# 4 0.000000 0.000000 0.000000 0.051170 0.000000 0.000000
# 5 0.000000 0.000000 0.000000 0.000000 -0.437906 0.000000
# 6 0.000000 0.000000 0.000000 0.000000 0.000000 0.044839
#
#
# Mechanical properties :
#
#
# Convention : Reuss Voigt Hill
#
# Bulk Modulus (GPa) = 16.15228 30.85719 23.50473
# Shear Modulus (GPa) = -24.30020 18.87988 -2.71016
#
# Velocity S-wave (km/s) = -3.51122 3.09495 -1.17260
# Velocity P-wave (km/s) = 2.87113 5.33169 3.17676
#
# Compressibility (1/GPa) = 0.06191078
#
# Stress axis : x y z
#
# Youngs Moduli (GPa) = 120.68696 18.20691 39.22230
#
# Poissons Ratio (x) = -0.00623 0.18759
# Poissons Ratio (y) = -0.04127 0.35130
# Poissons Ratio (z) = 0.57722 0.16307
#
# Static dielectric constant tensor:
#      x y z
#    x 1.659160 0.000000 0.000000 
#    y 0.000000 1.744020 0.000000 
#    z 0.000000 0.000000 1.761970 
# 
# From -- ./inp_files/16685.got.cif
#   From: 2010.05.17/outbox.ucp.g08.bks.cvg/sg57_9_cif.got.tgz:16685.got - 2010.06.11 16:39:23.
