data_PCOD9440861
_publ_section_title
;
Structure prediction by ZEFSAII (Michael W. Deem and Ramdas Pophale) SiO2 
 PCOD9440861
Probable space group: P N N M
;
_chemical_formula_sum "Si O2"
_cell_formula_units_Z 64
_cell_length_a 9.441555
_cell_length_b 19.000645
_cell_length_c 19.158856
_cell_angle_alpha 90.000000
_cell_angle_beta 90.000000
_cell_angle_gamma 90.000000
_cell_volume 3437.015134
_symmetry_space_group_name_H-M "P N N M"
_symmetry_group_IT_number 58
_symmetry_cell_setting 'orthorhombic'
loop_
_space_group_symop_operation_xyz
x,y,z
-x,-y,z
1/2+x,1/2-y,1/2-z
1/2-x,1/2+y,1/2-z
-x,-y,-z
x,y,-z
1/2-x,1/2+y,1/2+z
1/2+x,1/2-y,1/2+z
loop_
_atom_site_type_symbol
_atom_site_label
_atom_site_fract_x
_atom_site_fract_y
_atom_site_fract_z
Si Si1 0.986283 0.745934 0.921982
Si Si2 0.169979 0.861418 0.877366
Si Si3 0.834071 0.988444 0.079165
Si Si4 0.671382 0.688921 0.077974
Si Si5 0.452393 0.814022 0.919964
Si Si6 0.553032 0.815241 0.720789
Si Si7 0.401435 0.069359 0.823032
Si Si8 0.714764 0.675782 0.770634
O O1 0.025767 0.826424 0.903718
O O2 0.056385 0.698377 0.862027
O O3 0.818142 0.733311 0.920116
O O4 0.035995 0.730234 0.000000
O O5 0.216833 0.930776 0.917125
O O6 0.291830 0.805000 0.894828
O O7 0.167802 0.872310 0.794398
O O8 0.744254 0.948607 0.137411
O O9 0.817117 0.960593 0.000000
O O10 0.000000 0.000000 0.094611
O O11 0.541840 0.742806 0.083835
O O12 0.679121 0.648040 0.151731
O O13 0.666495 0.655293 0.000000
O O14 0.520747 0.873747 0.872078
O O15 0.455327 0.837013 0.000000
O O16 0.612575 0.888434 0.750398
O O17 0.634509 0.750127 0.757318
O O18 0.383924 0.813486 0.736032
O O19 0.500000 0.000000 0.816422
#
# Coordination Sequence:
#
# PCOD9440861 Si02
#       8
#     8   8   8   8   8   8   8   8
#     4   9  19  33  53  76 104 133 165 216 267 312
#     4  11  20  33  51  72 101 134 170 209 249 303
#     4  11  25  38  50  71 103 142 180 211 247 300
#     4   9  18  30  48  74 101 130 163 203 254 304
#     4  11  20  31  48  71  99 134 173 206 246 297
#     4  10  20  32  53  76 100 135 172 217 265 314
#     4  12  22  36  51  74 104 141 182 215 255 303
#     4  10  17  33  50  73  99 127 170 210 260 306
#
# _framework density 18.620808
#
# number of rings (size 3 to 8) (size 9 to 14) (size 15 to 20)
#    0.000    1.625    3.750    1.500    1.750    1.500 
#    0.000    0.000    0.000    0.375    0.000    0.875 
#    0.000    1.000    0.000    0.000    0.000    0.000 
#
# Total GULP energy -356709.969663 kJ/mol
# GULP energy per Si atom -5573.593276 kJ/mol
# Density = 1.857843 g / cm^3
# Si number density = 18.620808 Si / 1000 Ang^3
#
#
#
# Elastic Constant Matrix: (Units=GPa)
#
#
# Indices 1 2 3 4 5 6 
#
# 1 61.5252 5.8105 21.2717 0.0000 0.0000 0.0000
# 2 5.8105 14.5075 2.3872 0.0000 0.0000 0.0000
# 3 21.2717 2.3872 118.4655 0.0000 0.0000 0.0000
# 4 0.0000 0.0000 0.0000 23.9996 0.0000 0.0000
# 5 0.0000 0.0000 0.0000 0.0000 23.1769 0.0000
# 6 0.0000 0.0000 0.0000 0.0000 0.0000 12.1912
#
#
#
# Elastic Compliance Matrix: (Units=1/GPa)
#
#
# Indices 1 2 3 4 5 6 
#
# 1 0.017953 -0.006682 -0.003089 0.000000 0.000000 0.000000
# 2 -0.006682 0.071646 -0.000244 0.000000 0.000000 0.000000
# 3 -0.003089 -0.000244 0.009001 0.000000 0.000000 0.000000
# 4 0.000000 0.000000 0.000000 0.041667 0.000000 0.000000
# 5 0.000000 0.000000 0.000000 0.000000 0.043146 0.000000
# 6 0.000000 0.000000 0.000000 0.000000 0.000000 0.082026
#
#
# Mechanical properties :
#
#
# Convention : Reuss Voigt Hill
#
# Bulk Modulus (GPa) = 12.72754 28.15968 20.44361
# Shear Modulus (GPa) = 16.04319 22.87548 19.45934
#
# Velocity S-wave (km/s) = 2.93844 3.50879 3.23620
# Velocity P-wave (km/s) = 4.28515 5.61880 4.99667
#
# Compressibility (1/GPa) = 0.07856977
#
# Stress axis : x y z
#
# Youngs Moduli (GPa) = 55.70253 13.95750 111.10083
#
# Poissons Ratio (x) = 0.09326 0.34318
# Poissons Ratio (y) = 0.37220 0.02710
# Poissons Ratio (z) = 0.17206 0.00340
#
# Static dielectric constant tensor:
#      x y z
#    x 1.687150 0.000000 0.000000 
#    y 0.000000 1.660660 0.000000 
#    z 0.000000 0.000000 1.721350 
# 
# From -- ./inp_files/29136.got.cif
#   From: 2010.05.17/outbox.cif.g08.bks.cpg/sg58_15_cif.got.tgz:29136.got - 2010.06.03 14:20:14.
