data_PCOD9440968
_publ_section_title
;
Structure prediction by ZEFSAII (Michael W. Deem and Ramdas Pophale) SiO2 
 PCOD9440968
Probable space group: P N N M
;
_chemical_formula_sum "Si O2"
_cell_formula_units_Z 56
_cell_length_a 9.050976
_cell_length_b 18.088241
_cell_length_c 18.666220
_cell_angle_alpha 90.000000
_cell_angle_beta 90.000000
_cell_angle_gamma 90.000000
_cell_volume 3055.963263
_symmetry_space_group_name_H-M "P N N M"
_symmetry_group_IT_number 58
_symmetry_cell_setting 'orthorhombic'
loop_
_space_group_symop_operation_xyz
x,y,z
-x,-y,z
1/2+x,1/2-y,1/2-z
1/2-x,1/2+y,1/2-z
-x,-y,-z
x,y,-z
1/2-x,1/2+y,1/2+z
1/2+x,1/2-y,1/2+z
loop_
_atom_site_type_symbol
_atom_site_label
_atom_site_fract_x
_atom_site_fract_y
_atom_site_fract_z
Si Si1 0.451612 0.717858 0.414664
Si Si2 0.088348 0.888633 0.706921
Si Si3 0.890078 0.934776 0.167834
Si Si4 0.477387 0.815275 0.815648
Si Si5 0.359643 0.288209 0.916210
Si Si6 0.323776 0.243749 0.296751
Si Si7 0.349735 0.967865 0.777140
O O1 0.472464 0.710654 0.500000
O O2 0.408511 0.638809 0.379109
O O3 0.314284 0.773441 0.401346
O O4 0.595521 0.747602 0.372796
O O5 0.080914 0.859618 0.626431
O O6 0.133474 0.815415 0.750439
O O7 0.225585 0.943403 0.720385
O O8 0.947836 0.917156 0.751235
O O9 0.729360 0.971189 0.172981
O O10 0.000000 0.000000 0.141425
O O11 0.560168 0.784642 0.884894
O O12 0.596508 0.818840 0.750662
O O13 0.351959 0.752232 0.800301
O O14 0.394727 0.893318 0.820062
O O15 0.381890 0.294853 0.000000
O O16 0.500000 0.000000 0.745819
#
# Coordination Sequence:
#
# PCOD9440968 Si02
#       7
#     8   8   8   8   8   8   8
#     4  10  19  31  48  71 100 132 164 198 241 292
#     4   8  17  33  50  69  93 126 166 203 243 293
#     4   9  18  33  49  69  98 134 168 196 236 295
#     4  10  19  32  51  76 101 125 160 204 247 294
#     4  10  20  34  52  73 100 132 164 207 259 298
#     4   9  17  31  51  72  96 124 161 206 247 285
#     4  10  18  28  49  75  97 122 160 206 245 285
#
# _framework density 18.324829000000001
#
# number of rings (size 3 to 8) (size 9 to 14) (size 15 to 20)
#    0.000    2.571    0.000    4.286    0.000    3.143 
#    0.000    0.714    0.000    6.857    0.000    0.000 
#    0.000    0.000    0.000    0.000    0.000    0.000 
#
# Total GULP energy -311886.311089 kJ/mol
# GULP energy per Si atom -5569.398412 kJ/mol
# Density = 1.828312 g / cm^3
# Si number density = 18.324829 Si / 1000 Ang^3
#
#
#
# Elastic Constant Matrix: (Units=GPa)
#
#
# Indices 1 2 3 4 5 6 
#
# 1 83.9475 5.0601 26.2929 0.0000 0.0000 0.0000
# 2 5.0601 30.7109 10.0524 0.0000 0.0000 0.0000
# 3 26.2929 10.0524 92.6050 0.0000 0.0000 0.0000
# 4 0.0000 0.0000 0.0000 13.2556 0.0000 0.0000
# 5 0.0000 0.0000 0.0000 0.0000 16.2529 0.0000
# 6 0.0000 0.0000 0.0000 0.0000 0.0000 31.5679
#
#
#
# Elastic Compliance Matrix: (Units=1/GPa)
#
#
# Indices 1 2 3 4 5 6 
#
# 1 0.013103 -0.000976 -0.003614 0.000000 0.000000 0.000000
# 2 -0.000976 0.033834 -0.003396 0.000000 0.000000 0.000000
# 3 -0.003614 -0.003396 0.012193 0.000000 0.000000 0.000000
# 4 0.000000 0.000000 0.000000 0.075440 0.000000 0.000000
# 5 0.000000 0.000000 0.000000 0.000000 0.061527 0.000000
# 6 0.000000 0.000000 0.000000 0.000000 0.000000 0.031678
#
#
# Mechanical properties :
#
#
# Convention : Reuss Voigt Hill
#
# Bulk Modulus (GPa) = 23.17030 32.23045 27.70038
# Shear Modulus (GPa) = 19.36985 23.27250 21.32118
#
# Velocity S-wave (km/s) = 3.25472 3.56757 3.41473
# Velocity P-wave (km/s) = 5.17648 5.88189 5.54042
#
# Compressibility (1/GPa) = 0.04315869
#
# Stress axis : x y z
#
# Youngs Moduli (GPa) = 76.31796 29.55606 82.01182
#
# Poissons Ratio (x) = 0.02884 0.29642
# Poissons Ratio (y) = 0.07448 0.27848
# Poissons Ratio (z) = 0.27584 0.10036
#
# Static dielectric constant tensor:
#      x y z
#    x 1.685470 0.000000 0.000000 
#    y 0.000000 1.711680 0.000000 
#    z 0.000000 0.000000 1.619110 
# 
# From -- ./inp_files/25622.got.cif
#   From: 2010.05.17/outbox.cif.g08.bks.cpg/sg58_13_cif.got.tgz:25622.got - 2010.06.03 14:20:14.
