data_PCOD9440471
_publ_section_title
;
Structure prediction by ZEFSAII (Michael W. Deem and Ramdas Pophale) SiO2 
 PCOD9440471
Probable space group: P B C M
;
_chemical_formula_sum "Si O2"
_cell_formula_units_Z 56
_cell_length_a 21.000000
_cell_length_b 15.000000
_cell_length_c 9.000000
_cell_angle_alpha 90.000000
_cell_angle_beta 90.000000
_cell_angle_gamma 90.000000
_cell_volume 2835.000000
_symmetry_space_group_name_H-M "P B C M"
_symmetry_group_IT_number 57
_symmetry_cell_setting 'orthorhombic'
loop_
_space_group_symop_operation_xyz
x,y,z
-x,-y,1/2+z
x,1/2-y,-z
-x,1/2+y,1/2-z
-x,-y,-z
x,y,1/2-z
-x,1/2+y,z
x,1/2-y,1/2+z
loop_
_atom_site_type_symbol
_atom_site_label
_atom_site_fract_x
_atom_site_fract_y
_atom_site_fract_z
Si Si1 0.724714 0.519271 0.576873
Si Si2 0.808268 0.838435 0.577299
Si Si3 0.075271 0.600115 0.924702
Si Si4 0.796053 0.163388 0.421985
Si Si5 0.592272 0.510736 0.426490
Si Si6 0.950415 0.608085 0.421006
Si Si7 0.480783 0.650912 0.428349
O O1 0.713473 0.538831 0.750000
O O2 0.780932 0.579138 0.512542
O O3 0.748252 0.418352 0.562286
O O4 0.661968 0.534980 0.482188
O O5 0.783034 0.750000 0.500000
O O6 0.790506 0.844125 0.750000
O O7 0.884698 0.839801 0.569089
O O8 0.084052 0.610993 0.750000
O O9 0.068232 0.494420 0.957891
O O10 0.136059 0.638914 0.006857
O O11 0.007893 0.639526 0.976730
O O12 0.769157 0.250000 0.500000
O O13 0.806645 0.181608 0.250000
O O14 0.589728 0.496214 0.250000
O O15 0.545200 0.593780 0.460780
O O16 0.571117 0.419013 0.507448
O O17 0.972941 0.608641 0.250000
O O18 0.479806 0.750000 0.500000
O O19 0.474046 0.659157 0.250000
#
# Coordination Sequence:
#
# PCOD9440471 Si02
#       7
#     8   8   8   8   8   8   8
#     4  11  24  42  63  88 122 162 204 251 298 354
#     4  11  23  40  61  86 117 155 201 250 305 364
#     4  10  19  34  58  84 112 149 192 245 304 363
#     4  11  24  40  60  85 115 153 199 249 303 362
#     4  10  22  40  64  93 127 167 205 247 296 350
#     4   9  19  35  56  82 113 151 193 243 303 365
#     4  10  21  39  65  97 130 164 203 247 295 346
#
# _framework density 19.753086
#
# number of rings (size 3 to 8) (size 9 to 14) (size 15 to 20)
#    0.000    1.714    1.429    2.571    0.000    6.857 
#    0.000    4.286    0.000    0.000    0.000    0.000 
#    0.000    0.000    0.000    0.000    0.000    0.000 
#
# Total GULP energy -312745.161313 kJ/mol
# GULP energy per Si atom -5584.735023 kJ/mol
# Density = 1.970813 g / cm^3
# Si number density = 19.753086 Si / 1000 Ang^3
#
#
#
# Elastic Constant Matrix: (Units=GPa)
#
#
# Indices 1 2 3 4 5 6 
#
# 1 29.0432 -27.3395 -0.3290 0.0000 0.0000 0.0000
# 2 -27.3395 67.9162 33.8454 0.0000 0.0000 0.0000
# 3 -0.3290 33.8454 22.6930 0.0000 0.0000 0.0000
# 4 0.0000 0.0000 0.0000 30.0115 0.0000 0.0000
# 5 0.0000 0.0000 0.0000 0.0000 36.8628 0.0000
# 6 0.0000 0.0000 0.0000 0.0000 0.0000 -38.2081
#
#
#
# Elastic Compliance Matrix: (Units=1/GPa)
#
#
# Indices 1 2 3 4 5 6 
#
# 1 -0.081297 -0.125173 0.185510 0.000000 0.000000 0.000000
# 2 -0.125173 -0.135382 0.200099 0.000000 0.000000 0.000000
# 3 0.185510 0.200099 -0.251681 0.000000 0.000000 0.000000
# 4 0.000000 0.000000 0.000000 0.033321 0.000000 0.000000
# 5 0.000000 0.000000 0.000000 0.000000 0.027128 0.000000
# 6 0.000000 0.000000 0.000000 0.000000 0.000000 -0.026172
#
#
# Mechanical properties :
#
#
# Convention : Reuss Voigt Hill
#
# Bulk Modulus (GPa) = 19.04300 14.66734 16.85517
# Shear Modulus (GPa) = -5.33360 13.29827 3.98234
#
# Velocity S-wave (km/s) = -1.64499 2.59747 1.42142
# Velocity P-wave (km/s) = 2.46038 4.05429 3.35341
#
# Compressibility (1/GPa) = 0.05251275
#
# Stress axis : x y z
#
# Youngs Moduli (GPa) = -12.30055 -7.38652 -3.97328
#
# Poissons Ratio (x) = -0.92459 0.73708
# Poissons Ratio (y) = -1.53970 0.79505
# Poissons Ratio (z) = 2.28188 1.47804
#
# Static dielectric constant tensor:
#      x y z
#    x 1.682900 0.000000 0.000000 
#    y 0.000000 1.683230 0.000000 
#    z 0.000000 0.000000 1.694980 
# 
# From -- ./inp_files/8059.got.cif
#   From: 2010.05.17/outbox.ucp.g08.bks.cvg/sg57_5_cif.got.tgz:8059.got - 2010.06.11 16:39:23.
