data_PCOD9440646
_publ_section_title
;
Structure prediction by ZEFSAII (Michael W. Deem and Ramdas Pophale) SiO2 
 PCOD9440646
Probable space group: P B C M
;
_chemical_formula_sum "Si O2"
_cell_formula_units_Z 40
_cell_length_a 12.000000
_cell_length_b 18.000000
_cell_length_c 9.000000
_cell_angle_alpha 90.000000
_cell_angle_beta 90.000000
_cell_angle_gamma 90.000000
_cell_volume 1944.000000
_symmetry_space_group_name_H-M "P B C M"
_symmetry_group_IT_number 57
_symmetry_cell_setting 'orthorhombic'
loop_
_space_group_symop_operation_xyz
x,y,z
-x,-y,1/2+z
x,1/2-y,-z
-x,1/2+y,1/2-z
-x,-y,-z
x,y,1/2-z
-x,1/2+y,z
x,1/2-y,1/2+z
loop_
_atom_site_type_symbol
_atom_site_label
_atom_site_fract_x
_atom_site_fract_y
_atom_site_fract_z
Si Si1 0.273262 0.597357 0.927634
Si Si2 0.337905 0.056273 0.573007
Si Si3 0.514815 0.323643 0.073241
Si Si4 0.044479 0.574319 0.079619
Si Si5 0.826868 0.829293 0.577929
O O1 0.267597 0.594288 0.750000
O O2 0.358056 0.662174 0.971773
O O3 0.322405 0.520018 0.987540
O O4 0.152377 0.603789 0.996556
O O5 0.333516 0.044463 0.750000
O O6 0.448888 0.101756 0.534447
O O7 0.242689 0.112035 0.517688
O O8 0.507770 0.315099 0.250000
O O9 0.467049 0.250000 0.000000
O O10 0.072009 0.555148 0.250000
O O11 0.950460 0.636993 0.079559
O O12 0.000000 0.500000 0.000000
O O13 0.822126 0.750000 0.500000
O O14 0.787569 0.825798 0.750000
#
# Coordination Sequence:
#
# PCOD9440646 Si02
#       5
#     8   8   8   8   8
#     4  11  23  40  63  91 124 161 206 255 307 367
#     4  11  22  39  64  92 122 160 207 255 309 367
#     4  10  24  42  61  89 124 163 205 255 309 365
#     4  11  23  40  63  90 122 161 205 251 304 362
#     4  11  24  40  61  91 125 161 202 253 310 365
#
# _framework density 20.576132000000001
#
# number of rings (size 3 to 8) (size 9 to 14) (size 15 to 20)
#    0.000    1.200    2.000    3.600    0.000    8.000 
#    0.000    4.000    0.000    0.000    0.000    0.000 
#    0.000    0.000    0.000    0.000    0.000    0.000 
#
# Total GULP energy -223552.721605 kJ/mol
# GULP energy per Si atom -5588.818040 kJ/mol
# Density = 2.052930 g / cm^3
# Si number density = 20.576132 Si / 1000 Ang^3
#
#
#
# Elastic Constant Matrix: (Units=GPa)
#
#
# Indices 1 2 3 4 5 6 
#
# 1 93.4977 4.6726 24.8458 0.0000 0.0000 0.0000
# 2 4.6726 60.5973 1.7785 0.0000 0.0000 0.0000
# 3 24.8458 1.7785 54.9952 0.0000 0.0000 0.0000
# 4 0.0000 0.0000 0.0000 23.9371 0.0000 0.0000
# 5 0.0000 0.0000 0.0000 0.0000 26.7021 0.0000
# 6 0.0000 0.0000 0.0000 0.0000 0.0000 13.1886
#
#
#
# Elastic Compliance Matrix: (Units=1/GPa)
#
#
# Indices 1 2 3 4 5 6 
#
# 1 0.012191 -0.000779 -0.005483 0.000000 0.000000 0.000000
# 2 -0.000779 0.016568 -0.000184 0.000000 0.000000 0.000000
# 3 -0.005483 -0.000184 0.020666 0.000000 0.000000 0.000000
# 4 0.000000 0.000000 0.000000 0.041776 0.000000 0.000000
# 5 0.000000 0.000000 0.000000 0.000000 0.037450 0.000000
# 6 0.000000 0.000000 0.000000 0.000000 0.000000 0.075823
#
#
# Mechanical properties :
#
#
# Convention : Reuss Voigt Hill
#
# Bulk Modulus (GPa) = 27.37148 30.18710 28.77929
# Shear Modulus (GPa) = 21.78229 24.61845 23.20037
#
# Velocity S-wave (km/s) = 3.25717 3.46274 3.36153
# Velocity P-wave (km/s) = 5.24185 5.53987 5.39292
#
# Compressibility (1/GPa) = 0.03653437
#
# Stress axis : x y z
#
# Youngs Moduli (GPa) = 82.02557 60.35788 48.38799
#
# Poissons Ratio (x) = 0.04703 0.26529
# Poissons Ratio (y) = 0.06391 0.00889
# Poissons Ratio (z) = 0.44971 0.01109
#
# Static dielectric constant tensor:
#      x y z
#    x 1.800550 0.000000 0.000000 
#    y 0.000000 1.729870 0.000000 
#    z 0.000000 0.000000 1.693990 
# 
# From -- ./inp_files/2625.got.cif
#   From: 2010.05.17/outbox.ucp.g08.bks.cvg/sg57_2_cif.got.tgz:2625.got - 2010.06.11 16:39:23.
