data_PCOD9440824
_publ_section_title
;
Structure prediction by ZEFSAII (Michael W. Deem and Ramdas Pophale) SiO2 
 PCOD9440824
Probable space group: P N N M
;
_chemical_formula_sum "Si O2"
_cell_formula_units_Z 64
_cell_length_a 16.751301
_cell_length_b 19.901402
_cell_length_c 7.352538
_cell_angle_alpha 90.000000
_cell_angle_beta 90.000000
_cell_angle_gamma 90.000000
_cell_volume 2451.147762
_symmetry_space_group_name_H-M "P N N M"
_symmetry_group_IT_number 58
_symmetry_cell_setting 'orthorhombic'
loop_
_space_group_symop_operation_xyz
x,y,z
-x,-y,z
1/2+x,1/2-y,1/2-z
1/2-x,1/2+y,1/2-z
-x,-y,-z
x,y,-z
1/2-x,1/2+y,1/2+z
1/2+x,1/2-y,1/2+z
loop_
_atom_site_type_symbol
_atom_site_label
_atom_site_fract_x
_atom_site_fract_y
_atom_site_fract_z
Si Si1 0.338383 0.950013 0.217482
Si Si2 0.683324 0.199725 0.793352
Si Si3 0.906199 0.413362 0.214683
Si Si4 0.427999 0.333061 0.278993
Si Si5 0.247697 0.163440 0.720421
Si Si6 0.336199 0.456854 0.278443
Si Si7 0.991516 0.703202 0.219988
Si Si8 0.082565 0.085794 0.213667
O O1 0.333788 0.873863 0.289381
O O2 0.252065 0.978602 0.276148
O O3 0.402161 0.006789 0.263857
O O4 0.341383 0.945052 0.000000
O O5 0.737577 0.259173 0.715325
O O6 0.592662 0.227081 0.796581
O O7 0.712662 0.188365 0.000000
O O8 0.825122 0.377648 0.285477
O O9 0.981759 0.370751 0.283082
O O10 0.906463 0.401104 0.000000
O O11 0.425574 0.332002 0.500000
O O12 0.355881 0.380944 0.220989
O O13 0.439743 0.256089 0.226729
O O14 0.507728 0.372416 0.216766
O O15 0.251305 0.166460 0.500000
O O16 0.165978 0.125208 0.768921
O O17 0.337578 0.457898 0.500000
O O18 0.400102 0.511245 0.213941
O O19 0.983033 0.705321 0.000000
O O20 0.064961 0.077725 0.000000
#
# Coordination Sequence:
#
# PCOD9440824 Si02
#       8
#     8   8   8   8   8   8   8   8
#     4  10  21  37  58  82 106 141 185 226 268 317
#     4  10  22  38  57  81 110 143 179 222 272 321
#     4  10  22  38  57  81 110 143 179 222 272 321
#     4   9  17  29  50  81 112 137 173 223 268 312
#     4  10  20  35  55  79 112 145 173 214 272 328
#     4   9  17  29  50  81 112 137 173 223 268 312
#     4  10  21  37  58  82 106 141 185 226 268 317
#     4  10  17  30  54  82 108 140 179 221 265 316
#
# _framework density 26.110216999999999
#
# number of rings (size 3 to 8) (size 9 to 14) (size 15 to 20)
#    0.000    2.250    2.500    0.375    1.750    3.000 
#    0.000    2.500    0.000    3.750    0.000    0.000 
#    0.000    0.000    0.000    0.000    0.000    0.000 
#
# Total GULP energy -357697.319578 kJ/mol
# GULP energy per Si atom -5589.020618 kJ/mol
# Density = 2.605079 g / cm^3
# Si number density = 26.110217 Si / 1000 Ang^3
#
#
#
# Elastic Constant Matrix: (Units=GPa)
#
#
# Indices 1 2 3 4 5 6 
#
# 1 61.5479 5.9845 -7.1754 0.0000 0.0000 0.0000
# 2 5.9845 149.0582 -4.8910 0.0000 0.0000 0.0000
# 3 -7.1754 -4.8910 97.5450 0.0000 0.0000 0.0000
# 4 0.0000 0.0000 0.0000 13.4042 0.0000 0.0000
# 5 0.0000 0.0000 0.0000 0.0000 7.7554 0.0000
# 6 0.0000 0.0000 0.0000 0.0000 0.0000 47.0767
#
#
#
# Elastic Compliance Matrix: (Units=1/GPa)
#
#
# Indices 1 2 3 4 5 6 
#
# 1 0.016445 -0.000622 0.001179 0.000000 0.000000 0.000000
# 2 -0.000622 0.006743 0.000292 0.000000 0.000000 0.000000
# 3 0.001179 0.000292 0.010353 0.000000 0.000000 0.000000
# 4 0.000000 0.000000 0.000000 0.074604 0.000000 0.000000
# 5 0.000000 0.000000 0.000000 0.000000 0.128942 0.000000
# 6 0.000000 0.000000 0.000000 0.000000 0.000000 0.021242
#
#
# Mechanical properties :
#
#
# Convention : Reuss Voigt Hill
#
# Bulk Modulus (GPa) = 28.37650 32.88747 30.63199
# Shear Modulus (GPa) = 18.63046 34.59611 26.61329
#
# Velocity S-wave (km/s) = 2.67410 3.64401 3.19606
# Velocity P-wave (km/s) = 4.51951 5.50709 5.03756
#
# Compressibility (1/GPa) = 0.03524043
#
# Stress axis : x y z
#
# Youngs Moduli (GPa) = 60.80744 148.29446 96.59007
#
# Poissons Ratio (x) = 0.09218 -0.11384
# Poissons Ratio (y) = 0.03780 -0.02824
# Poissons Ratio (z) = -0.07166 -0.04336
#
# Static dielectric constant tensor:
#      x y z
#    x 2.016350 0.000000 0.000000 
#    y 0.000000 2.078760 0.000000 
#    z 0.000000 0.000000 2.061550 
# 
# From -- ./inp_files/8351.got.cif
#   From: 2010.05.17/outbox.cif.g08.bks.cpg/sg58_5_cif.got.tgz:8351.got - 2010.06.03 14:20:14.
