data_PCOD9440575
_publ_section_title
;
Structure prediction by ZEFSAII (Michael W. Deem and Ramdas Pophale) SiO2 
 PCOD9440575
Probable space group: P B C M
;
_chemical_formula_sum "Si O2"
_cell_formula_units_Z 64
_cell_length_a 21.000000
_cell_length_b 18.000000
_cell_length_c 9.000000
_cell_angle_alpha 90.000000
_cell_angle_beta 90.000000
_cell_angle_gamma 90.000000
_cell_volume 3402.000000
_symmetry_space_group_name_H-M "P B C M"
_symmetry_group_IT_number 57
_symmetry_cell_setting 'orthorhombic'
loop_
_space_group_symop_operation_xyz
x,y,z
-x,-y,1/2+z
x,1/2-y,-z
-x,1/2+y,1/2-z
-x,-y,-z
x,y,1/2-z
-x,1/2+y,z
x,1/2-y,1/2+z
loop_
_atom_site_type_symbol
_atom_site_label
_atom_site_fract_x
_atom_site_fract_y
_atom_site_fract_z
Si Si1 0.377262 0.395313 0.927771
Si Si2 0.016236 0.170063 0.071114
Si Si3 0.132215 0.438997 0.571273
Si Si4 0.748694 0.328170 0.572769
Si Si5 0.243670 0.172242 0.429032
Si Si6 0.118438 0.600186 0.070991
Si Si7 0.496146 0.918314 0.427286
Si Si8 0.355027 0.570123 0.926762
O O1 0.385861 0.389672 0.750000
O O2 0.315924 0.347866 0.972766
O O3 0.361140 0.482119 0.959521
O O4 0.443410 0.375323 0.007237
O O5 0.016072 0.177532 0.250000
O O6 0.071844 0.112292 0.031924
O O7 0.947769 0.137723 0.023586
O O8 0.027643 0.250000 0.000000
O O9 0.133101 0.448345 0.750000
O O10 0.195809 0.393959 0.528266
O O11 0.126471 0.518662 0.496445
O O12 0.731414 0.250000 0.500000
O O13 0.745879 0.322502 0.750000
O O14 0.820422 0.350927 0.528434
O O15 0.700591 0.391008 0.516205
O O16 0.223831 0.250000 0.500000
O O17 0.241428 0.178077 0.250000
O O18 0.117389 0.594367 0.250000
O O19 0.501967 0.924803 0.250000
O O20 0.424024 0.892994 0.459679
O O21 0.500000 0.000000 0.500000
O O22 0.343073 0.576794 0.750000
#
# Coordination Sequence:
#
# PCOD9440575 Si02
#       8
#     8   8   8   8   8   8   8   8
#     4   9  18  33  53  77 106 139 175 217 263 314
#     4  10  21  37  57  83 114 146 180 218 263 315
#     4  10  21  37  58  82 108 142 182 222 265 313
#     4  11  23  37  54  77 106 140 177 219 267 319
#     4  10  21  36  53  77 108 141 179 220 265 317
#     4  10  22  38  56  82 111 139 179 225 265 312
#     4   9  17  30  51  78 106 136 172 215 263 314
#     4   9  18  34  55  78 105 137 174 218 265 314
#
# _framework density 18.812463000000001
#
# number of rings (size 3 to 8) (size 9 to 14) (size 15 to 20)
#    0.000    2.250    0.000    3.375    0.000    6.500 
#    0.000    0.625    0.000    1.500    0.000    0.000 
#    0.000    0.000    0.000    0.000    0.000    0.000 
#
# Total GULP energy -357263.491626 kJ/mol
# GULP energy per Si atom -5582.242057 kJ/mol
# Density = 1.876965 g / cm^3
# Si number density = 18.812463 Si / 1000 Ang^3
#
#
#
# Elastic Constant Matrix: (Units=GPa)
#
#
# Indices 1 2 3 4 5 6 
#
# 1 64.0118 -17.1886 15.2985 0.0000 0.0000 0.0000
# 2 -17.1886 38.7854 6.4357 0.0000 0.0000 0.0000
# 3 15.2985 6.4357 11.4016 0.0000 0.0000 0.0000
# 4 0.0000 0.0000 0.0000 27.4209 0.0000 0.0000
# 5 0.0000 0.0000 0.0000 0.0000 20.8550 0.0000
# 6 0.0000 0.0000 0.0000 0.0000 0.0000 4.1271
#
#
#
# Elastic Compliance Matrix: (Units=1/GPa)
#
#
# Indices 1 2 3 4 5 6 
#
# 1 0.040793 0.029967 -0.071650 0.000000 0.000000 0.000000
# 2 0.029967 0.050462 -0.068692 0.000000 0.000000 0.000000
# 3 -0.071650 -0.068692 0.222619 0.000000 0.000000 0.000000
# 4 0.000000 0.000000 0.000000 0.036469 0.000000 0.000000
# 5 0.000000 0.000000 0.000000 0.000000 0.047950 0.000000
# 6 0.000000 0.000000 0.000000 0.000000 0.000000 0.242301
#
#
# Mechanical properties :
#
#
# Convention : Reuss Voigt Hill
#
# Bulk Modulus (GPa) = 10.73853 13.69890 12.21871
# Shear Modulus (GPa) = 5.60296 17.79080 11.69688
#
# Velocity S-wave (km/s) = 1.72765 3.07855 2.49622
# Velocity P-wave (km/s) = 3.11453 4.46478 3.84932
#
# Compressibility (1/GPa) = 0.09312265
#
# Stress axis : x y z
#
# Youngs Moduli (GPa) = 24.51401 19.81707 4.49198
#
# Poissons Ratio (x) = -0.59386 0.32185
# Poissons Ratio (y) = -0.73462 0.30856
# Poissons Ratio (z) = 1.75643 1.36128
#
# Static dielectric constant tensor:
#      x y z
#    x 1.677930 0.000000 0.000000 
#    y 0.000000 1.619850 0.000000 
#    z 0.000000 0.000000 1.627220 
# 
# From -- ./inp_files/8500.got.cif
#   From: 2010.05.17/outbox.ucp.g08.bks.cvg/sg57_5_cif.got.tgz:8500.got - 2010.06.11 16:39:23.
