data_PCOD9440784
_publ_section_title
;
Structure prediction by ZEFSAII (Michael W. Deem and Ramdas Pophale) SiO2 
 PCOD9440784
Probable space group: P N N M
;
_chemical_formula_sum "Si O2"
_cell_formula_units_Z 64
_cell_length_a 21.849444
_cell_length_b 17.252520
_cell_length_c 7.473002
_cell_angle_alpha 90.000000
_cell_angle_beta 90.000000
_cell_angle_gamma 90.000000
_cell_volume 2817.007661
_symmetry_space_group_name_H-M "P N N M"
_symmetry_group_IT_number 58
_symmetry_cell_setting 'orthorhombic'
loop_
_space_group_symop_operation_xyz
x,y,z
-x,-y,z
1/2+x,1/2-y,1/2-z
1/2-x,1/2+y,1/2-z
-x,-y,-z
x,y,-z
1/2-x,1/2+y,1/2+z
1/2+x,1/2-y,1/2+z
loop_
_atom_site_type_symbol
_atom_site_label
_atom_site_fract_x
_atom_site_fract_y
_atom_site_fract_z
Si Si1 0.386719 0.865599 0.797250
Si Si2 0.057612 0.103253 0.282802
Si Si3 0.748047 0.923058 0.719166
Si Si4 0.070418 0.824865 0.283387
Si Si5 0.331361 0.714776 0.218123
Si Si6 0.857069 0.034657 0.718042
Si Si7 0.480332 0.161523 0.707497
Si Si8 0.113743 0.541053 0.206744
O O1 0.340092 0.802495 0.717920
O O2 0.454179 0.827346 0.798942
O O3 0.392801 0.949004 0.709522
O O4 0.367544 0.881548 0.000000
O O5 0.055332 0.101194 0.500000
O O6 0.108316 0.166360 0.230071
O O7 0.991192 0.130205 0.223385
O O8 0.086143 0.020999 0.228459
O O9 0.748275 0.925019 0.500000
O O10 0.775172 0.839542 0.772751
O O11 0.679696 0.937165 0.783868
O O12 0.795420 0.990718 0.775926
O O13 0.070479 0.822737 0.500000
O O14 0.127520 0.877959 0.225172
O O15 0.062525 0.736910 0.221955
O O16 0.331086 0.717857 0.000000
O O17 0.855734 0.034592 0.500000
O O18 0.495900 0.148447 0.500000
O O19 0.443486 0.088011 0.783616
O O20 0.115239 0.566772 0.000000
#
# Coordination Sequence:
#
# PCOD9440784 Si02
#       8
#     8   8   8   8   8   8   8   8
#     4  11  21  36  60  87 106 129 175 233 280 310
#     4   8  12  22  43  75 108 130 162 211 262 310
#     4   8  15  32  54  76 105 139 178 214 251 311
#     4  10  17  28  49  79 110 135 169 220 270 311
#     4   8  14  27  51  81 105 130 169 216 259 307
#     4   8  14  24  47  80 105 133 173 218 261 309
#     4  11  23  37  52  75 108 147 182 215 266 330
#     4  10  22  39  56  75 105 145 182 215 260 323
#
# _framework density 22.719142000000002
#
# number of rings (size 3 to 8) (size 9 to 14) (size 15 to 20)
#    0.000    2.750    1.250    3.000    0.000    4.000 
#    2.250    0.000    0.000    3.000    0.000    0.000 
#    0.000    0.000    0.000    0.000    0.000    0.000 
#
# Total GULP energy -357184.457325 kJ/mol
# GULP energy per Si atom -5581.007146 kJ/mol
# Density = 2.266743 g / cm^3
# Si number density = 22.719142 Si / 1000 Ang^3
#
#
#
# Elastic Constant Matrix: (Units=GPa)
#
#
# Indices 1 2 3 4 5 6 
#
# 1 40.1744 26.9350 3.4005 0.0000 0.0000 0.0000
# 2 26.9350 113.1436 -5.6778 0.0000 0.0000 0.0000
# 3 3.4005 -5.6778 65.7049 0.0000 0.0000 0.0000
# 4 0.0000 0.0000 0.0000 75.3781 0.0000 0.0000
# 5 0.0000 0.0000 0.0000 0.0000 1.7947 0.0000
# 6 0.0000 0.0000 0.0000 0.0000 0.0000 9.2415
#
#
#
# Elastic Compliance Matrix: (Units=1/GPa)
#
#
# Indices 1 2 3 4 5 6 
#
# 1 0.029925 -0.007233 -0.002174 0.000000 0.000000 0.000000
# 2 -0.007233 0.010625 0.001292 0.000000 0.000000 0.000000
# 3 -0.002174 0.001292 0.015444 0.000000 0.000000 0.000000
# 4 0.000000 0.000000 0.000000 0.013266 0.000000 0.000000
# 5 0.000000 0.000000 0.000000 0.000000 0.557192 0.000000
# 6 0.000000 0.000000 0.000000 0.000000 0.000000 0.108207
#
#
# Mechanical properties :
#
#
# Convention : Reuss Voigt Hill
#
# Bulk Modulus (GPa) = 25.14764 29.81536 27.48150
# Shear Modulus (GPa) = 6.54328 30.24054 18.39191
#
# Velocity S-wave (km/s) = 1.69892 3.65233 2.84832
# Velocity P-wave (km/s) = 3.86541 5.56219 4.78954
#
# Compressibility (1/GPa) = 0.03976516
#
# Stress axis : x y z
#
# Youngs Moduli (GPa) = 33.41701 94.11695 64.75111
#
# Poissons Ratio (x) = 0.68075 0.14075
# Poissons Ratio (y) = 0.24171 -0.08369
# Poissons Ratio (z) = 0.07264 -0.12164
#
# Static dielectric constant tensor:
#      x y z
#    x 1.820460 0.000000 0.000000 
#    y 0.000000 1.849520 0.000000 
#    z 0.000000 0.000000 1.862790 
# 
# From -- ./inp_files/9262.got.cif
#   From: 2010.05.17/outbox.cif.g08.bks.cpg/sg58_5_cif.got.tgz:9262.got - 2010.06.03 14:20:14.
