data_PCOD9440792
_publ_section_title
;
Structure prediction by ZEFSAII (Michael W. Deem and Ramdas Pophale) SiO2 
 PCOD9440792
Probable space group: P N N M
;
_chemical_formula_sum "Si O2"
_cell_formula_units_Z 56
_cell_length_a 5.435313
_cell_length_b 35.234005
_cell_length_c 18.574784
_cell_angle_alpha 90.000000
_cell_angle_beta 90.000000
_cell_angle_gamma 90.000000
_cell_volume 3557.216863
_symmetry_space_group_name_H-M "P N N M"
_symmetry_group_IT_number 58
_symmetry_cell_setting 'orthorhombic'
loop_
_space_group_symop_operation_xyz
x,y,z
-x,-y,z
1/2+x,1/2-y,1/2-z
1/2-x,1/2+y,1/2-z
-x,-y,-z
x,y,-z
1/2-x,1/2+y,1/2+z
1/2+x,1/2-y,1/2+z
loop_
_atom_site_type_symbol
_atom_site_label
_atom_site_fract_x
_atom_site_fract_y
_atom_site_fract_z
Si Si1 0.750000 0.022951 0.413527
Si Si2 0.249993 0.234477 0.419546
Si Si3 0.249992 0.338612 0.734733
Si Si4 0.250009 0.648543 0.887811
Si Si5 0.749993 0.239457 0.670678
Si Si6 0.250008 0.891466 0.631940
Si Si7 0.749992 0.320753 0.723345
O O1 0.750002 0.029515 0.500000
O O2 0.749997 0.063595 0.375199
O O3 0.500000 0.000000 0.396354
O O4 0.000000 0.000000 0.396353
O O5 0.249992 0.250896 0.500000
O O6 0.249994 0.188808 0.425410
O O7 0.502702 0.243220 0.376926
O O8 0.997285 0.243220 0.376926
O O9 0.249992 0.301193 0.788313
O O10 0.249991 0.375069 0.786450
O O11 0.497323 0.334809 0.689799
O O12 0.002660 0.334809 0.689799
O O13 0.499219 0.625397 0.901940
O O14 0.250009 0.660885 0.803114
O O15 0.000801 0.625396 0.901939
O O16 0.749993 0.275186 0.724609
#
# Coordination Sequence:
#
# PCOD9440792 Si02
#       7
#     8   8   8   8   8   8   8
#     4  10  21  35  48  63  78 104 146 178 209 259
#     4  12  23  32  40  57  87 115 145 173 206 268
#     4  10  17  29  44  70  82  98 131 170 226 268
#     4  10  19  32  44  69  82 105 136 171 230 269
#     4  12  19  33  45  61  84 112 140 175 218 261
#     4  10  18  31  47  61  85  99 124 174 225 264
#     4  10  18  28  49  65  83 103 136 177 214 273
#
# _framework density 15.742644
#
# number of rings (size 3 to 8) (size 9 to 14) (size 15 to 20)
#    0.000    1.429    5.714    3.000    0.000    1.143 
#    0.000    0.000    0.000    0.000    0.000    0.000 
#    0.000    0.000    0.000    0.000    0.000    0.000 
#
# Total GULP energy -312262.113510 kJ/mol
# GULP energy per Si atom -5576.109170 kJ/mol
# Density = 1.570681 g / cm^3
# Si number density = 15.742644 Si / 1000 Ang^3
#
#
#
# Elastic Constant Matrix: (Units=GPa)
#
#
# Indices 1 2 3 4 5 6 
#
# 1 180.2441 46.1216 27.3816 0.0000 0.0000 0.0000
# 2 46.1216 106.1589 17.5615 0.0000 0.0000 0.0000
# 3 27.3816 17.5615 26.6802 0.0000 0.0000 0.0000
# 4 0.0000 0.0000 0.0000 12.5721 0.0000 0.0000
# 5 0.0000 0.0000 0.0000 0.0000 6.5031 0.0000
# 6 0.0000 0.0000 0.0000 0.0000 0.0000 20.0403
#
#
#
# Elastic Compliance Matrix: (Units=1/GPa)
#
#
# Indices 1 2 3 4 5 6 
#
# 1 0.006954 -0.002066 -0.005777 0.000000 0.000000 0.000000
# 2 -0.002066 0.011184 -0.005242 0.000000 0.000000 0.000000
# 3 -0.005777 -0.005242 0.046861 0.000000 0.000000 0.000000
# 4 0.000000 0.000000 0.000000 0.079541 0.000000 0.000000
# 5 0.000000 0.000000 0.000000 0.000000 0.153774 0.000000
# 6 0.000000 0.000000 0.000000 0.000000 0.000000 0.049899
#
#
# Mechanical properties :
#
#
# Convention : Reuss Voigt Hill
#
# Bulk Modulus (GPa) = 25.75367 55.02361 40.38864
# Shear Modulus (GPa) = 12.90900 22.62433 17.76667
#
# Velocity S-wave (km/s) = 2.86667 3.79507 3.36306
# Velocity P-wave (km/s) = 5.22989 7.36419 6.38682
#
# Compressibility (1/GPa) = 0.03882941
#
# Stress axis : x y z
#
# Youngs Moduli (GPa) = 143.79676 89.41022 21.33985
#
# Poissons Ratio (x) = 0.18469 0.12329
# Poissons Ratio (y) = 0.29703 0.11186
# Poissons Ratio (z) = 0.83078 0.46868
#
# Static dielectric constant tensor:
#      x y z
#    x 1.652240 0.000000 0.000000 
#    y 0.000000 1.499400 0.000000 
#    z 0.000000 0.000000 1.527140 
# 
# From -- ./inp_files/28309.got.cif
#   From: 2010.05.17/outbox.cif.g08.bks.cpg/sg58_15_cif.got.tgz:28309.got - 2010.06.03 14:20:14.
