data_PCOD9440422
_publ_section_title
;
Structure prediction by ZEFSAII (Michael W. Deem and Ramdas Pophale) SiO2 
 PCOD9440422
Probable space group: P B C M
;
_chemical_formula_sum "Si O2"
_cell_formula_units_Z 56
_cell_length_a 18.000000
_cell_length_b 21.000000
_cell_length_c 9.000000
_cell_angle_alpha 90.000000
_cell_angle_beta 90.000000
_cell_angle_gamma 90.000000
_cell_volume 3402.000000
_symmetry_space_group_name_H-M "P B C M"
_symmetry_group_IT_number 57
_symmetry_cell_setting 'orthorhombic'
loop_
_space_group_symop_operation_xyz
x,y,z
-x,-y,1/2+z
x,1/2-y,-z
-x,1/2+y,1/2-z
-x,-y,-z
x,y,1/2-z
-x,1/2+y,z
x,1/2-y,1/2+z
loop_
_atom_site_type_symbol
_atom_site_label
_atom_site_fract_x
_atom_site_fract_y
_atom_site_fract_z
Si Si1 0.119867 0.471565 0.571429
Si Si2 0.142767 0.681972 0.571988
Si Si3 0.033867 0.590805 0.073326
Si Si4 0.708483 0.973151 0.929980
Si Si5 0.547462 0.180773 0.930825
Si Si6 0.542308 0.937713 0.568571
Si Si7 0.297114 0.881580 0.070265
O O1 0.121452 0.484958 0.750000
O O2 0.084099 0.532440 0.489083
O O3 0.205518 0.456298 0.525949
O O4 0.054166 0.420075 0.545965
O O5 0.151295 0.750000 0.500000
O O6 0.140937 0.684129 0.750000
O O7 0.068338 0.650537 0.509728
O O8 0.216461 0.643195 0.524975
O O9 0.044103 0.595037 0.250000
O O10 0.709934 0.971296 0.750000
O O11 0.631043 0.938209 0.970840
O O12 0.695160 0.045843 0.980378
O O13 0.541252 0.181606 0.750000
O O14 0.632519 0.161218 0.972226
O O15 0.530787 0.250000 0.000000
O O16 0.496235 0.125088 0.000118
O O17 0.535994 0.939504 0.750000
O O18 0.500000 0.000000 0.500000
O O19 0.297412 0.882976 0.250000
#
# Coordination Sequence:
#
# PCOD9440422 Si02
#       7
#     8   8   8   8   8   8   8
#     4   9  17  32  53  73  99 134 168 206 251 299
#     4  11  21  34  51  71 103 141 175 209 251 303
#     4  10  19  30  48  76 103 130 168 208 249 299
#     4   9  16  31  54  78 104 138 175 212 259 311
#     4  11  22  38  56  78 108 143 183 224 267 322
#     4  11  21  35  56  81 109 142 180 223 269 318
#     4   9  17  31  52  76 105 141 175 209 254 313
#
# _framework density 16.460905
#
# number of rings (size 3 to 8) (size 9 to 14) (size 15 to 20)
#    0.000    2.000    2.857    2.143    0.000    0.571 
#    0.000    5.000    0.000    0.857    0.000    0.000 
#    0.000    0.000    0.000    0.000    0.000    0.000 
#
# Total GULP energy -311941.627769 kJ/mol
# GULP energy per Si atom -5570.386210 kJ/mol
# Density = 1.642344 g / cm^3
# Si number density = 16.460905 Si / 1000 Ang^3
#
#
#
# Elastic Constant Matrix: (Units=GPa)
#
#
# Indices 1 2 3 4 5 6 
#
# 1 143.0731 47.8246 33.6930 0.0000 0.0000 0.0000
# 2 47.8246 85.6399 28.5096 0.0000 0.0000 0.0000
# 3 33.6930 28.5096 48.6323 0.0000 0.0000 0.0000
# 4 0.0000 0.0000 0.0000 26.1332 0.0000 0.0000
# 5 0.0000 0.0000 0.0000 0.0000 23.2606 0.0000
# 6 0.0000 0.0000 0.0000 0.0000 0.0000 28.1230
#
#
#
# Elastic Compliance Matrix: (Units=1/GPa)
#
#
# Indices 1 2 3 4 5 6 
#
# 1 0.009234 -0.003761 -0.004193 0.000000 0.000000 0.000000
# 2 -0.003761 0.016040 -0.006797 0.000000 0.000000 0.000000
# 3 -0.004193 -0.006797 0.027452 0.000000 0.000000 0.000000
# 4 0.000000 0.000000 0.000000 0.038265 0.000000 0.000000
# 5 0.000000 0.000000 0.000000 0.000000 0.042991 0.000000
# 6 0.000000 0.000000 0.000000 0.000000 0.000000 0.035558
#
#
# Mechanical properties :
#
#
# Convention : Reuss Voigt Hill
#
# Bulk Modulus (GPa) = 43.05905 55.26662 49.16284
# Shear Modulus (GPa) = 24.17987 26.65792 25.41889
#
# Velocity S-wave (km/s) = 3.83682 4.02863 3.93389
# Velocity P-wave (km/s) = 6.77077 7.43553 7.11093
#
# Compressibility (1/GPa) = 0.02322392
#
# Stress axis : x y z
#
# Youngs Moduli (GPa) = 108.29660 62.34466 36.42719
#
# Poissons Ratio (x) = 0.23447 0.15273
# Poissons Ratio (y) = 0.40728 0.24761
# Poissons Ratio (z) = 0.45405 0.42379
#
# Static dielectric constant tensor:
#      x y z
#    x 1.594430 0.000000 0.000000 
#    y 0.000000 1.334230 0.000000 
#    z 0.000000 0.000000 1.549350 
# 
# From -- ./inp_files/6987.got.cif
#   From: 2010.05.17/outbox.ucp.g08.bks.cvg/sg57_4_cif.got.tgz:6987.got - 2010.06.11 16:39:23.
