data_PCOD9440728
_publ_section_title
;
Structure prediction by ZEFSAII (Michael W. Deem and Ramdas Pophale) SiO2 
 PCOD9440728
Probable space group: P N N M
;
_chemical_formula_sum "Si O2"
_cell_formula_units_Z 48
_cell_length_a 17.287798
_cell_length_b 17.515308
_cell_length_c 7.982407
_cell_angle_alpha 90.000000
_cell_angle_beta 90.000000
_cell_angle_gamma 90.000000
_cell_volume 2417.081673
_symmetry_space_group_name_H-M "P N N M"
_symmetry_group_IT_number 58
_symmetry_cell_setting 'orthorhombic'
loop_
_space_group_symop_operation_xyz
x,y,z
-x,-y,z
1/2+x,1/2-y,1/2-z
1/2-x,1/2+y,1/2-z
-x,-y,-z
x,y,-z
1/2-x,1/2+y,1/2+z
1/2+x,1/2-y,1/2+z
loop_
_atom_site_type_symbol
_atom_site_label
_atom_site_fract_x
_atom_site_fract_y
_atom_site_fract_z
Si Si1 0.875589 0.013114 0.308048
Si Si2 0.926727 0.599246 0.704589
Si Si3 0.112578 0.236717 0.702373
Si Si4 0.101126 0.570550 0.298320
Si Si5 0.005183 0.111850 0.193663
Si Si6 0.234600 0.111378 0.299037
O O1 0.861308 0.034131 0.500000
O O2 0.801276 0.969248 0.234266
O O3 0.939697 0.945031 0.298899
O O4 0.917462 0.084634 0.222143
O O5 0.925008 0.598618 0.500000
O O6 0.885173 0.676236 0.761829
O O7 0.893431 0.517786 0.760176
O O8 0.017147 0.600836 0.754888
O O9 0.114730 0.237359 0.500000
O O10 0.181891 0.181662 0.762801
O O11 0.032545 0.195775 0.755914
O O12 0.100723 0.570046 0.500000
O O13 0.175695 0.616462 0.241081
O O14 0.024093 0.098647 0.000000
O O15 0.225201 0.108844 0.500000
#
# Coordination Sequence:
#
# PCOD9440728 Si02
#       6
#     8   8   8   8   8   8
#     4   9  16  28  44  62  91 133 169 189 224 291
#     4   8  16  33  55  74  91 123 168 201 235 291
#     4   9  17  32  51  68  95 133 165 193 235 299
#     4   9  17  32  55  76  93 119 161 208 246 284
#     4  10  17  25  41  68  97 122 158 204 241 274
#     4   9  18  30  47  72  99 128 159 193 239 293
#
# _framework density 19.85866
#
# number of rings (size 3 to 8) (size 9 to 14) (size 15 to 20)
#    0.000    3.000    0.000    5.000    0.000    3.333 
#    0.000    5.000    0.000    4.000    0.000    0.000 
#    0.000    0.000    0.000    0.000    0.000    0.000 
#
# Total GULP energy -267311.309295 kJ/mol
# GULP energy per Si atom -5568.985610 kJ/mol
# Density = 1.981346 g / cm^3
# Si number density = 19.858660 Si / 1000 Ang^3
#
#
#
# Elastic Constant Matrix: (Units=GPa)
#
#
# Indices 1 2 3 4 5 6 
#
# 1 74.3803 32.8052 3.8854 0.0000 0.0000 0.0000
# 2 32.8052 85.7893 5.3247 0.0000 0.0000 0.0000
# 3 3.8854 5.3247 23.9885 0.0000 0.0000 0.0000
# 4 0.0000 0.0000 0.0000 -3.0707 0.0000 0.0000
# 5 0.0000 0.0000 0.0000 0.0000 19.3928 0.0000
# 6 0.0000 0.0000 0.0000 0.0000 0.0000 12.1534
#
#
#
# Elastic Compliance Matrix: (Units=1/GPa)
#
#
# Indices 1 2 3 4 5 6 
#
# 1 0.016210 -0.006120 -0.001267 0.000000 0.000000 0.000000
# 2 -0.006120 0.014130 -0.002145 0.000000 0.000000 0.000000
# 3 -0.001267 -0.002145 0.042368 0.000000 0.000000 0.000000
# 4 0.000000 0.000000 0.000000 -0.325657 0.000000 0.000000
# 5 0.000000 0.000000 0.000000 0.000000 0.051565 0.000000
# 6 0.000000 0.000000 0.000000 0.000000 0.000000 0.082281
#
#
# Mechanical properties :
#
#
# Convention : Reuss Voigt Hill
#
# Bulk Modulus (GPa) = 18.64163 29.79875 24.22019
# Shear Modulus (GPa) = -60.85898 15.17130 -22.84384
#
# Velocity S-wave (km/s) = -5.54189 2.76699 -3.39532
# Velocity P-wave (km/s) = 5.61628 5.02457 1.77430
#
# Compressibility (1/GPa) = 0.05364337
#
# Stress axis : x y z
#
# Youngs Moduli (GPa) = 61.69132 70.77253 23.60275
#
# Poissons Ratio (x) = 0.43312 0.02991
# Poissons Ratio (y) = 0.37754 0.05063
# Poissons Ratio (z) = 0.07817 0.15182
#
# Static dielectric constant tensor:
#      x y z
#    x 1.725830 0.000000 0.000000 
#    y 0.000000 1.726580 0.000000 
#    z 0.000000 0.000000 1.706720 
# 
# From -- ./inp_files/7877.got.cif
#   From: 2010.05.17/outbox.cif.g08.bks.cpg/sg58_4_cif.got.tgz:7877.got - 2010.06.03 14:20:14.
