data_PCOD9440485
_publ_section_title
;
Structure prediction by ZEFSAII (Michael W. Deem and Ramdas Pophale) SiO2 
 PCOD9440485
Probable space group: P B C M
;
_chemical_formula_sum "Si O2"
_cell_formula_units_Z 64
_cell_length_a 24.000000
_cell_length_b 15.000000
_cell_length_c 9.000000
_cell_angle_alpha 90.000000
_cell_angle_beta 90.000000
_cell_angle_gamma 90.000000
_cell_volume 3240.000000
_symmetry_space_group_name_H-M "P B C M"
_symmetry_group_IT_number 57
_symmetry_cell_setting 'orthorhombic'
loop_
_space_group_symop_operation_xyz
x,y,z
-x,-y,1/2+z
x,1/2-y,-z
-x,1/2+y,1/2-z
-x,-y,-z
x,y,1/2-z
-x,1/2+y,z
x,1/2-y,1/2+z
loop_
_atom_site_type_symbol
_atom_site_label
_atom_site_fract_x
_atom_site_fract_y
_atom_site_fract_z
Si Si1 0.489524 0.159432 0.927511
Si Si2 0.077892 0.533410 0.426846
Si Si3 0.626715 0.879847 0.921295
Si Si4 0.399470 0.585271 0.922562
Si Si5 0.193574 0.521820 0.927489
Si Si6 0.711139 0.337827 0.072020
Si Si7 0.981582 0.651284 0.928760
Si Si8 0.751077 0.838359 0.571589
O O1 0.485368 0.162883 0.750000
O O2 0.537271 0.089739 0.978316
O O3 0.511596 0.250000 0.000000
O O4 0.427739 0.147276 0.989418
O O5 0.071142 0.543726 0.250000
O O6 0.140187 0.550365 0.480927
O O7 0.062366 0.429405 0.463197
O O8 0.037544 0.603768 0.508860
O O9 0.620716 0.849267 0.750000
O O10 0.686811 0.850584 0.979650
O O11 0.624698 0.986497 0.922318
O O12 0.404286 0.612993 0.750000
O O13 0.350836 0.644525 0.991918
O O14 0.181983 0.526151 0.750000
O O15 0.247561 0.581413 0.957616
O O16 0.211694 0.422273 0.967485
O O17 0.707372 0.329050 0.250000
O O18 0.735051 0.250000 0.000000
O O19 0.984075 0.661291 0.750000
O O20 0.972506 0.750000 0.000000
O O21 0.774397 0.750000 0.500000
O O22 0.748857 0.833009 0.750000
#
# Coordination Sequence:
#
# PCOD9440485 Si02
#       8
#     8   8   8   8   8   8   8   8
#     4  11  22  34  50  76 106 137 177 228 285 348
#     4  10  22  39  61  91 126 161 200 246 293 340
#     4  10  19  36  58  77 103 140 182 231 288 348
#     4   9  18  35  57  77 103 140 182 228 284 350
#     4  10  21  39  60  82 115 158 199 237 287 347
#     4  10  20  37  59  82 109 147 192 235 286 344
#     4  10  21  39  64  93 126 164 202 243 289 341
#     4  10  21  37  58  81 108 148 193 238 291 348
#
# _framework density 19.753086
#
# number of rings (size 3 to 8) (size 9 to 14) (size 15 to 20)
#    0.000    2.000    1.250    2.250    0.000    5.000 
#    0.000    5.625    0.000    0.000    0.000    0.000 
#    0.000    0.000    0.000    0.000    0.000    0.000 
#
# Total GULP energy -356744.317035 kJ/mol
# GULP energy per Si atom -5574.129954 kJ/mol
# Density = 1.970813 g / cm^3
# Si number density = 19.753086 Si / 1000 Ang^3
#
#
#
# Elastic Constant Matrix: (Units=GPa)
#
#
# Indices 1 2 3 4 5 6 
#
# 1 48.9083 -5.8292 15.2690 0.0000 0.0000 0.0000
# 2 -5.8292 56.0054 12.7715 0.0000 0.0000 0.0000
# 3 15.2690 12.7715 24.5512 0.0000 0.0000 0.0000
# 4 0.0000 0.0000 0.0000 29.2712 0.0000 0.0000
# 5 0.0000 0.0000 0.0000 0.0000 7.5941 0.0000
# 6 0.0000 0.0000 0.0000 0.0000 0.0000 -70.3570
#
#
#
# Elastic Compliance Matrix: (Units=1/GPa)
#
#
# Indices 1 2 3 4 5 6 
#
# 1 0.028114 0.007844 -0.021565 0.000000 0.000000 0.000000
# 2 0.007844 0.022447 -0.016555 0.000000 0.000000 0.000000
# 3 -0.021565 -0.016555 0.062755 0.000000 0.000000 0.000000
# 4 0.000000 0.000000 0.000000 0.034163 0.000000 0.000000
# 5 0.000000 0.000000 0.000000 0.000000 0.131681 0.000000
# 6 0.000000 0.000000 0.000000 0.000000 0.000000 -0.014213
#
#
# Mechanical properties :
#
#
# Convention : Reuss Voigt Hill
#
# Bulk Modulus (GPa) = 18.95263 19.32084 19.13673
# Shear Modulus (GPa) = 14.57354 0.45190 7.51272
#
# Velocity S-wave (km/s) = 2.71917 0.47882 1.95232
# Velocity P-wave (km/s) = 4.41295 3.17932 3.84592
#
# Compressibility (1/GPa) = 0.05276312
#
# Stress axis : x y z
#
# Youngs Moduli (GPa) = 35.56960 44.54923 15.93495
#
# Poissons Ratio (x) = -0.34944 0.34364
# Poissons Ratio (y) = -0.27900 0.26381
# Poissons Ratio (z) = 0.76706 0.73752
#
# Static dielectric constant tensor:
#      x y z
#    x 1.700130 0.000000 0.000000 
#    y 0.000000 1.726660 0.000000 
#    z 0.000000 0.000000 1.672960 
# 
# From -- ./inp_files/9362.got.cif
#   From: 2010.05.17/outbox.ucp.g08.bks.cvg/sg57_5_cif.got.tgz:9362.got - 2010.06.11 16:39:23.
