data_PCOD9440271
_publ_section_title
;
Structure prediction by ZEFSAII (Michael W. Deem and Ramdas Pophale) SiO2 
 PCOD9440271
Probable space group: P B C M
;
_chemical_formula_sum "Si O2"
_cell_formula_units_Z 24
_cell_length_a 7.958680
_cell_length_b 7.507381
_cell_length_c 17.098544
_cell_angle_alpha 90.000000
_cell_angle_beta 90.000000
_cell_angle_gamma 90.000000
_cell_volume 1021.618221
_symmetry_space_group_name_H-M "P B C M"
_symmetry_group_IT_number 57
_symmetry_cell_setting 'orthorhombic'
loop_
_space_group_symop_operation_xyz
x,y,z
-x,-y,1/2+z
x,1/2-y,-z
-x,1/2+y,1/2-z
-x,-y,-z
x,y,1/2-z
-x,1/2+y,z
x,1/2-y,1/2+z
loop_
_atom_site_type_symbol
_atom_site_label
_atom_site_fract_x
_atom_site_fract_y
_atom_site_fract_z
Si Si1 0.818594 0.240780 0.338819
Si Si2 0.668879 0.522418 0.450850
Si Si3 0.184508 0.359518 0.395252
O O1 0.802504 0.305080 0.250000
O O2 0.707370 0.353402 0.398528
O O3 0.009811 0.274236 0.367709
O O4 0.778584 0.031754 0.343437
O O5 0.500000 0.500000 0.500000
O O6 0.319339 0.199907 0.398087
O O7 0.811163 0.558986 0.516833
#
# Coordination Sequence:
#
# PCOD9440271 Si02
#       3
#     8   8   8
#     4  12  25  45  75 113 153 194 249 321 389 450
#     4  11  27  46  75 108 150 204 258 312 373 461
#     4  11  25  43  77 107 143 199 258 310 371 455
#
# _framework density 23.492139999999999
#
# number of rings (size 3 to 8) (size 9 to 14) (size 15 to 20)
#    0.000    0.667    3.333    3.000   14.000    1.333 
#    0.000    3.333    0.000    0.000    0.000    0.000 
#    0.000    0.000    0.000    0.000    0.000    0.000 
#
# Total GULP energy -134349.050684 kJ/mol
# GULP energy per Si atom -5597.877112 kJ/mol
# Density = 2.343867 g / cm^3
# Si number density = 23.492140 Si / 1000 Ang^3
#
#
#
# Elastic Constant Matrix: (Units=GPa)
#
#
# Indices 1 2 3 4 5 6 
#
# 1 120.4118 68.1542 45.9894 0.0000 0.0000 0.0000
# 2 68.1542 166.5594 36.2873 0.0000 0.0000 0.0000
# 3 45.9894 36.2873 110.5599 0.0000 0.0000 0.0000
# 4 0.0000 0.0000 0.0000 33.7026 0.0000 0.0000
# 5 0.0000 0.0000 0.0000 0.0000 -9.9267 0.0000
# 6 0.0000 0.0000 0.0000 0.0000 0.0000 25.8191
#
#
#
# Elastic Compliance Matrix: (Units=1/GPa)
#
#
# Indices 1 2 3 4 5 6 
#
# 1 0.012037 -0.004130 -0.003652 0.000000 0.000000 0.000000
# 2 -0.004130 0.007883 -0.000869 0.000000 0.000000 0.000000
# 3 -0.003652 -0.000869 0.010849 0.000000 0.000000 0.000000
# 4 0.000000 0.000000 0.000000 0.029671 0.000000 0.000000
# 5 0.000000 0.000000 0.000000 0.000000 -0.100739 0.000000
# 6 0.000000 0.000000 0.000000 0.000000 0.000000 0.038731
#
#
# Mechanical properties :
#
#
# Convention : Reuss Voigt Hill
#
# Bulk Modulus (GPa) = 74.25220 77.59918 75.92569
# Shear Modulus (GPa) = 247.22974 26.39234 136.81104
#
# Velocity S-wave (km/s) = 10.26975 3.35543 7.63959
# Velocity P-wave (km/s) = 13.12629 6.93654 10.49798
#
# Compressibility (1/GPa) = 0.01346761
#
# Stress axis : x y z
#
# Youngs Moduli (GPa) = 83.07697 126.85226 92.17294
#
# Poissons Ratio (x) = 0.52388 0.33657
# Poissons Ratio (y) = 0.34310 0.08014
# Poissons Ratio (z) = 0.30336 0.11029
#
# Static dielectric constant tensor:
#      x y z
#    x 1.907710 0.000000 0.000000 
#    y 0.000000 1.939840 0.000000 
#    z 0.000000 0.000000 1.884480 
# 
# From -- ./inp_files/15365.got.cif
#   From: 2010.05.17/outbox.cif.g08.bks.cpg/sg57_8_cif.got.tgz:15365.got - 2010.06.03 13:58:18.
