data_PCOD9440490
_publ_section_title
;
Structure prediction by ZEFSAII (Michael W. Deem and Ramdas Pophale) SiO2 
 PCOD9440490
Probable space group: P B C M
;
_chemical_formula_sum "Si O2"
_cell_formula_units_Z 44
_cell_length_a 9.000000
_cell_length_b 18.000000
_cell_length_c 15.000000
_cell_angle_alpha 90.000000
_cell_angle_beta 90.000000
_cell_angle_gamma 90.000000
_cell_volume 2430.000000
_symmetry_space_group_name_H-M "P B C M"
_symmetry_group_IT_number 57
_symmetry_cell_setting 'orthorhombic'
loop_
_space_group_symop_operation_xyz
x,y,z
-x,-y,1/2+z
x,1/2-y,-z
-x,1/2+y,1/2-z
-x,-y,-z
x,y,1/2-z
-x,1/2+y,z
x,1/2-y,1/2+z
loop_
_atom_site_type_symbol
_atom_site_label
_atom_site_fract_x
_atom_site_fract_y
_atom_site_fract_z
Si Si1 0.473847 0.788237 0.402678
Si Si2 0.415477 0.534020 0.584210
Si Si3 0.935129 0.003447 0.600809
Si Si4 0.249689 0.746353 0.250000
Si Si5 0.985226 0.373266 0.250000
Si Si6 0.385218 0.007826 0.750000
Si Si7 0.300003 0.181512 0.750000
Si Si8 0.086757 0.591074 0.250000
O O1 0.488385 0.750000 0.500000
O O2 0.429775 0.875686 0.414164
O O3 0.351501 0.748313 0.339200
O O4 0.620885 0.787482 0.339326
O O5 0.500000 0.500000 0.500000
O O6 0.243229 0.510356 0.591692
O O7 0.508251 0.500460 0.665886
O O8 0.986467 0.074063 0.661998
O O9 0.000000 0.000000 0.500000
O O10 0.993788 0.934932 0.662296
O O11 0.138772 0.676413 0.250000
O O12 0.162562 0.824317 0.250000
O O13 0.123081 0.316592 0.250000
O O14 0.330915 0.093022 0.750000
O O15 0.241919 0.955426 0.750000
#
# Coordination Sequence:
#
# PCOD9440490 Si02
#       8
#     8   8   8   4   4   4   4   4
#     4  10  23  42  65  92 130 167 217 259 322 393
#     4  11  23  39  67  93 124 168 217 260 319 380
#     4  11  23  40  64  97 128 166 216 275 317 383
#     4  11  24  42  65  90 129 179 205 255 338 397
#     4  11  21  45  66  87 134 172 206 257 335 397
#     4  10  19  38  64  90 122 160 206 263 309 374
#     4   9  20  41  66  88 122 173 204 263 321 376
#     4  11  24  40  65  97 129 160 221 272 321 392
#
# _framework density 18.106995999999999
#
# number of rings (size 3 to 8) (size 9 to 14) (size 15 to 20)
#    0.000    1.455    3.636    2.727    7.636    0.000 
#    3.273    0.909    0.000    0.000    0.000    0.000 
#    0.000    0.000    0.000    0.000    0.000    0.000 
#
# Total GULP energy -245535.331201 kJ/mol
# GULP energy per Si atom -5580.348436 kJ/mol
# Density = 1.806578 g / cm^3
# Si number density = 18.106996 Si / 1000 Ang^3
#
#
#
# Elastic Constant Matrix: (Units=GPa)
#
#
# Indices 1 2 3 4 5 6 
#
# 1 122.8917 17.8538 59.4399 0.0000 0.0000 0.0000
# 2 17.8538 72.1580 39.5300 0.0000 0.0000 0.0000
# 3 59.4399 39.5300 188.6945 0.0000 0.0000 0.0000
# 4 0.0000 0.0000 0.0000 29.8007 0.0000 0.0000
# 5 0.0000 0.0000 0.0000 0.0000 33.9794 0.0000
# 6 0.0000 0.0000 0.0000 0.0000 0.0000 36.4666
#
#
#
# Elastic Compliance Matrix: (Units=1/GPa)
#
#
# Indices 1 2 3 4 5 6 
#
# 1 0.009642 -0.000815 -0.002867 0.000000 0.000000 0.000000
# 2 -0.000815 0.015724 -0.003037 0.000000 0.000000 0.000000
# 3 -0.002867 -0.003037 0.006839 0.000000 0.000000 0.000000
# 4 0.000000 0.000000 0.000000 0.033556 0.000000 0.000000
# 5 0.000000 0.000000 0.000000 0.000000 0.029430 0.000000
# 6 0.000000 0.000000 0.000000 0.000000 0.000000 0.027422
#
#
# Mechanical properties :
#
#
# Convention : Reuss Voigt Hill
#
# Bulk Modulus (GPa) = 53.28549 68.59907 60.94228
# Shear Modulus (GPa) = 35.13527 37.84404 36.48965
#
# Velocity S-wave (km/s) = 4.40980 4.57664 4.49399
# Velocity P-wave (km/s) = 7.44450 8.11758 7.78831
#
# Compressibility (1/GPa) = 0.01876684
#
# Stress axis : x y z
#
# Youngs Moduli (GPa) = 103.71104 63.59672 146.22400
#
# Poissons Ratio (x) = 0.05185 0.41916
# Poissons Ratio (y) = 0.08456 0.44412
# Poissons Ratio (z) = 0.29729 0.19316
#
# Static dielectric constant tensor:
#      x y z
#    x 1.633570 0.000000 0.000000 
#    y 0.000000 1.614570 0.000000 
#    z 0.000000 0.000000 1.584680 
# 
# From -- ./inp_files/16265.got.cif
#   From: 2010.05.17/outbox.ucp.g08.bks.cvg/sg57_9_cif.got.tgz:16265.got - 2010.06.11 16:39:23.
