data_PCOD9440092
_publ_section_title
;
Structure prediction by ZEFSAII (Michael W. Deem and Ramdas Pophale) SiO2 
 PCOD9440092
Probable space group: P B C M
;
_chemical_formula_sum "Si O2"
_cell_formula_units_Z 40
_cell_length_a 9.360033
_cell_length_b 8.113879
_cell_length_c 23.673009
_cell_angle_alpha 90.000000
_cell_angle_beta 90.000000
_cell_angle_gamma 90.000000
_cell_volume 1797.874489
_symmetry_space_group_name_H-M "P B C M"
_symmetry_group_IT_number 57
_symmetry_cell_setting 'orthorhombic'
loop_
_space_group_symop_operation_xyz
x,y,z
-x,-y,1/2+z
x,1/2-y,-z
-x,1/2+y,1/2-z
-x,-y,-z
x,y,1/2-z
-x,1/2+y,z
x,1/2-y,1/2+z
loop_
_atom_site_type_symbol
_atom_site_label
_atom_site_fract_x
_atom_site_fract_y
_atom_site_fract_z
Si Si1 0.376189 0.598545 0.534684
Si Si2 0.203409 0.083822 0.372367
Si Si3 0.307565 0.590338 0.188757
Si Si4 0.534719 0.707206 0.855948
Si Si5 0.970128 0.285625 0.182883
O O1 0.307568 0.750000 0.500000
O O2 0.500000 0.500000 0.500000
O O3 0.257634 0.483206 0.566164
O O4 0.461022 0.696254 0.583547
O O5 0.353171 0.145871 0.347046
O O6 0.097182 0.237799 0.359989
O O7 0.121707 0.939688 0.339233
O O8 0.323104 0.512545 0.250000
O O9 0.403540 0.754641 0.185216
O O10 0.376007 0.459537 0.147636
O O11 0.144898 0.636932 0.179834
O O12 0.010186 0.301928 0.250000
#
# Coordination Sequence:
#
# PCOD9440092 Si02
#       5
#     8   8   8   8   8
#     4  12  24  46  77 104 138 188 248 315 378 402
#     4  12  25  45  75 103 146 194 248 300 365 446
#     4  11  22  38  65 104 146 186 235 292 361 440
#     4  12  22  42  70 104 141 189 246 304 360 434
#     4  11  25  45  69 103 153 198 230 286 372 455
#
# _framework density 22.248494999999998
#
# number of rings (size 3 to 8) (size 9 to 14) (size 15 to 20)
#    0.000    0.400    6.000    2.400    0.000    6.400 
#    0.000    1.000    0.000    0.000    0.000    0.000 
#    0.000    0.000    0.000    0.000    0.000    0.000 
#
# Total GULP energy -223027.425303 kJ/mol
# GULP energy per Si atom -5575.685633 kJ/mol
# Density = 2.219786 g / cm^3
# Si number density = 22.248495 Si / 1000 Ang^3
#
#
#
# Elastic Constant Matrix: (Units=GPa)
#
#
# Indices 1 2 3 4 5 6 
#
# 1 128.8296 33.2341 43.6343 0.0000 0.0000 0.0000
# 2 33.2341 77.6869 21.8650 0.0000 0.0000 0.0000
# 3 43.6343 21.8650 78.6150 0.0000 0.0000 0.0000
# 4 0.0000 0.0000 0.0000 34.1375 0.0000 0.0000
# 5 0.0000 0.0000 0.0000 0.0000 30.7268 0.0000
# 6 0.0000 0.0000 0.0000 0.0000 0.0000 46.9496
#
#
#
# Elastic Compliance Matrix: (Units=1/GPa)
#
#
# Indices 1 2 3 4 5 6 
#
# 1 0.010163 -0.002995 -0.004808 0.000000 0.000000 0.000000
# 2 -0.002995 0.014848 -0.002467 0.000000 0.000000 0.000000
# 3 -0.004808 -0.002467 0.016075 0.000000 0.000000 0.000000
# 4 0.000000 0.000000 0.000000 0.029293 0.000000 0.000000
# 5 0.000000 0.000000 0.000000 0.000000 0.032545 0.000000
# 6 0.000000 0.000000 0.000000 0.000000 0.000000 0.021299
#
#
# Mechanical properties :
#
#
# Convention : Reuss Voigt Hill
#
# Bulk Modulus (GPa) = 48.67161 53.62204 51.14682
# Shear Modulus (GPa) = 32.97883 34.78933 33.88408
#
# Velocity S-wave (km/s) = 3.85424 3.95862 3.90678
# Velocity P-wave (km/s) = 6.45993 6.71178 6.58706
#
# Compressibility (1/GPa) = 0.02054586
#
# Stress axis : x y z
#
# Youngs Moduli (GPa) = 98.39450 67.35045 62.20781
#
# Poissons Ratio (x) = 0.20168 0.29910
# Poissons Ratio (y) = 0.29465 0.15350
# Poissons Ratio (z) = 0.47309 0.16619
#
# Static dielectric constant tensor:
#      x y z
#    x 1.807190 0.000000 0.000000 
#    y 0.000000 1.953530 0.000000 
#    z 0.000000 0.000000 1.868040 
# 
# From -- ./inp_files/26490.got.cif
#   From: 2010.05.17/outbox.cif.g08.bks.cpg/sg57_14_cif.got.tgz:26490.got - 2010.06.03 13:58:18.
