data_PCOD9440019
_publ_section_title
;
Structure prediction by ZEFSAII (Michael W. Deem and Ramdas Pophale) SiO2 
 PCOD9440019
Probable space group: P B C M
;
_chemical_formula_sum "Si O2"
_cell_formula_units_Z 48
_cell_length_a 4.865811
_cell_length_b 13.219128
_cell_length_c 28.486984
_cell_angle_alpha 90.000000
_cell_angle_beta 90.000000
_cell_angle_gamma 90.000000
_cell_volume 1832.333473
_symmetry_space_group_name_H-M "P B C M"
_symmetry_group_IT_number 57
_symmetry_cell_setting 'orthorhombic'
loop_
_space_group_symop_operation_xyz
x,y,z
-x,-y,1/2+z
x,1/2-y,-z
-x,1/2+y,1/2-z
-x,-y,-z
x,y,1/2-z
-x,1/2+y,z
x,1/2-y,1/2+z
loop_
_atom_site_type_symbol
_atom_site_label
_atom_site_fract_x
_atom_site_fract_y
_atom_site_fract_z
Si Si1 0.040546 0.197797 0.541779
Si Si2 0.828656 0.543499 0.098346
Si Si3 0.038501 0.014190 0.198041
Si Si4 0.655823 0.420054 0.533850
Si Si5 0.456581 0.139026 0.800982
Si Si6 0.426131 0.817040 0.102274
O O1 0.212471 0.250000 0.500000
O O2 0.286496 0.168741 0.576024
O O3 0.406021 0.105739 0.429424
O O4 0.810263 0.247318 0.575935
O O5 0.902376 0.578496 0.151167
O O6 0.712575 0.429135 0.102977
O O7 0.098177 0.537757 0.066225
O O8 0.994714 0.062398 0.250000
O O9 0.787283 0.938685 0.187393
O O10 0.288605 0.936540 0.203036
O O11 0.500000 0.500000 0.500000
O O12 0.831019 0.360503 0.493708
O O13 0.404873 0.187021 0.750000
O O14 0.514793 0.212502 0.844228
#
# Coordination Sequence:
#
# PCOD9440019 Si02
#       6
#     8   8   8   8   8   8
#     4  12  26  40  53  78 114 157 193 233 288 345
#     4  11  21  34  56  85 109 142 187 234 281 331
#     4   9  17  29  47  77 115 142 166 219 290 345
#     4  12  24  35  56  83 109 148 194 236 275 331
#     4   9  17  29  49  79 110 138 174 222 283 341
#     4  11  21  36  58  80 112 149 182 232 288 334
#
# _framework density 26.196104999999999
#
# number of rings (size 3 to 8) (size 9 to 14) (size 15 to 20)
#    0.000    1.333    1.667    7.000    0.000    0.000 
#    0.000    0.000    0.000    0.000    0.000    7.000 
#    0.000    0.000    0.000    0.000    0.000    0.167 
#
# Total GULP energy -267950.337042 kJ/mol
# GULP energy per Si atom -5582.298688 kJ/mol
# Density = 2.613648 g / cm^3
# Si number density = 26.196105 Si / 1000 Ang^3
#
#
#
# Elastic Constant Matrix: (Units=GPa)
#
#
# Indices 1 2 3 4 5 6 
#
# 1 201.8678 3.5756 68.3284 0.0000 0.0000 0.0000
# 2 3.5756 14.1178 16.9988 0.0000 0.0000 0.0000
# 3 68.3284 16.9988 299.9623 0.0000 0.0000 0.0000
# 4 0.0000 0.0000 0.0000 25.9258 0.0000 0.0000
# 5 0.0000 0.0000 0.0000 0.0000 43.5297 0.0000
# 6 0.0000 0.0000 0.0000 0.0000 0.0000 24.7117
#
#
#
# Elastic Compliance Matrix: (Units=1/GPa)
#
#
# Indices 1 2 3 4 5 6 
#
# 1 0.005368 0.000121 -0.001230 0.000000 0.000000 0.000000
# 2 0.000121 0.076022 -0.004336 0.000000 0.000000 0.000000
# 3 -0.001230 -0.004336 0.003860 0.000000 0.000000 0.000000
# 4 0.000000 0.000000 0.000000 0.038572 0.000000 0.000000
# 5 0.000000 0.000000 0.000000 0.000000 0.022973 0.000000
# 6 0.000000 0.000000 0.000000 0.000000 0.000000 0.040467
#
#
# Mechanical properties :
#
#
# Convention : Reuss Voigt Hill
#
# Bulk Modulus (GPa) = 13.44791 77.08373 45.26582
# Shear Modulus (GPa) = 22.42792 47.30311 34.86551
#
# Velocity S-wave (km/s) = 2.92919 4.25400 3.65217
# Velocity P-wave (km/s) = 4.07245 7.32245 5.92466
#
# Compressibility (1/GPa) = 0.07436101
#
# Stress axis : x y z
#
# Youngs Moduli (GPa) = 186.29657 13.15404 259.09798
#
# Poissons Ratio (x) = -0.00159 0.31858
# Poissons Ratio (y) = -0.02254 1.12338
# Poissons Ratio (z) = 0.22907 0.05703
#
# Static dielectric constant tensor:
#      x y z
#    x 1.960500 0.000000 0.000000 
#    y 0.000000 2.600730 0.000000 
#    z 0.000000 0.000000 2.179530 
# 
# From -- ./inp_files/26226.got.cif
#   From: 2010.05.17/outbox.cif.g08.bks.cpg/sg57_14_cif.got.tgz:26226.got - 2010.06.03 13:58:18.
