data_PCOD9440923
_publ_section_title
;
Structure prediction by ZEFSAII (Michael W. Deem and Ramdas Pophale) SiO2 
 PCOD9440923
Probable space group: P N N M
;
_chemical_formula_sum "Si O2"
_cell_formula_units_Z 64
_cell_length_a 20.262561
_cell_length_b 9.543322
_cell_length_c 16.102213
_cell_angle_alpha 90.000000
_cell_angle_beta 90.000000
_cell_angle_gamma 90.000000
_cell_volume 3113.719454
_symmetry_space_group_name_H-M "P N N M"
_symmetry_group_IT_number 58
_symmetry_cell_setting 'orthorhombic'
loop_
_space_group_symop_operation_xyz
x,y,z
-x,-y,z
1/2+x,1/2-y,1/2-z
1/2-x,1/2+y,1/2-z
-x,-y,-z
x,y,-z
1/2-x,1/2+y,1/2+z
1/2+x,1/2-y,1/2+z
loop_
_atom_site_type_symbol
_atom_site_label
_atom_site_fract_x
_atom_site_fract_y
_atom_site_fract_z
Si Si1 0.749047 0.853187 0.407689
Si Si2 0.658164 0.447250 0.635688
Si Si3 0.201139 0.668283 0.409897
Si Si4 0.878994 0.664307 0.778361
Si Si5 0.776785 0.095828 0.713599
Si Si6 0.039949 0.876995 0.092667
Si Si7 0.862240 0.630414 0.405947
Si Si8 0.404390 0.089305 0.400060
O O1 0.756447 0.912278 0.500000
O O2 0.792011 0.712953 0.404562
O O3 0.670783 0.852241 0.392617
O O4 0.780159 0.959741 0.343667
O O5 0.722625 0.382356 0.592620
O O6 0.619762 0.315122 0.676685
O O7 0.686360 0.550878 0.705025
O O8 0.610337 0.546577 0.584861
O O9 0.189391 0.735126 0.500000
O O10 0.192832 0.772618 0.333710
O O11 0.155302 0.533285 0.401667
O O12 0.800532 0.627265 0.773734
O O13 0.899561 0.667168 0.680672
O O14 0.909216 0.544833 0.839339
O O15 0.049604 0.720342 0.125637
O O16 0.010698 0.857739 0.000000
O O17 0.000000 0.000000 0.138598
O O18 0.890086 0.658903 0.500000
O O19 0.414402 0.058331 0.500000
#
# Coordination Sequence:
#
# PCOD9440923 Si02
#       8
#     8   8   8   8   8   8   8   8
#     4   9  16  28  45  67 101 139 170 195 236 303
#     4  11  20  31  51  73 101 139 176 211 260 305
#     4  10  20  30  44  69 104 140 174 204 243 300
#     4  10  20  31  48  75 109 138 173 210 252 311
#     4  10  19  28  45  70 105 135 171 204 250 294
#     4  10  22  39  56  74  97 130 177 229 273 312
#     4  10  18  28  42  66 104 141 169 199 233 287
#     4   9  19  33  53  74  99 138 175 212 262 308
#
# _framework density 20.554196999999998
#
# number of rings (size 3 to 8) (size 9 to 14) (size 15 to 20)
#    0.000    2.125    2.500    1.500    1.750    5.500 
#    0.000    0.625    0.000    2.250    0.000    0.000 
#    0.000    9.000    0.000    0.000    0.000    0.000 
#
# Total GULP energy -356765.699881 kJ/mol
# GULP energy per Si atom -5574.464061 kJ/mol
# Density = 2.050741 g / cm^3
# Si number density = 20.554197 Si / 1000 Ang^3
#
#
#
# Elastic Constant Matrix: (Units=GPa)
#
#
# Indices 1 2 3 4 5 6 
#
# 1 17.4142 11.4525 3.0522 0.0000 0.0000 0.0000
# 2 11.4525 91.0472 41.6322 0.0000 0.0000 0.0000
# 3 3.0522 41.6322 115.2136 0.0000 0.0000 0.0000
# 4 0.0000 0.0000 0.0000 6.3522 0.0000 0.0000
# 5 0.0000 0.0000 0.0000 0.0000 2.6052 0.0000
# 6 0.0000 0.0000 0.0000 0.0000 0.0000 25.5153
#
#
#
# Elastic Compliance Matrix: (Units=1/GPa)
#
#
# Indices 1 2 3 4 5 6 
#
# 1 0.062798 -0.008551 0.001426 0.000000 0.000000 0.000000
# 2 -0.008551 0.014322 -0.004949 0.000000 0.000000 0.000000
# 3 0.001426 -0.004949 0.010430 0.000000 0.000000 0.000000
# 4 0.000000 0.000000 0.000000 0.157425 0.000000 0.000000
# 5 0.000000 0.000000 0.000000 0.000000 0.383854 0.000000
# 6 0.000000 0.000000 0.000000 0.000000 0.000000 0.039192
#
#
# Mechanical properties :
#
#
# Convention : Reuss Voigt Hill
#
# Bulk Modulus (GPa) = 15.77219 37.32765 26.54992
# Shear Modulus (GPa) = 7.00965 18.06375 12.53670
#
# Velocity S-wave (km/s) = 1.84871 2.96773 2.47236
# Velocity P-wave (km/s) = 3.49959 5.47204 4.59295
#
# Compressibility (1/GPa) = 0.06340272
#
# Stress axis : x y z
#
# Youngs Moduli (GPa) = 15.92402 69.82388 95.87812
#
# Poissons Ratio (x) = 0.59709 -0.13676
# Poissons Ratio (y) = 0.13617 0.47446
# Poissons Ratio (z) = -0.02271 0.34553
#
# Static dielectric constant tensor:
#      x y z
#    x 1.738220 0.000000 0.000000 
#    y 0.000000 1.739920 0.000000 
#    z 0.000000 0.000000 1.797680 
# 
# From -- ./inp_files/25704.got.cif
#   From: 2010.05.17/outbox.cif.g08.bks.cpg/sg58_13_cif.got.tgz:25704.got - 2010.06.03 14:20:14.
