data_PCOD9440407
_publ_section_title
;
Structure prediction by ZEFSAII (Michael W. Deem and Ramdas Pophale) SiO2 
 PCOD9440407
Probable space group: P B C M
;
_chemical_formula_sum "Si O2"
_cell_formula_units_Z 64
_cell_length_a 15.000000
_cell_length_b 12.000000
_cell_length_c 18.000000
_cell_angle_alpha 90.000000
_cell_angle_beta 90.000000
_cell_angle_gamma 90.000000
_cell_volume 3240.000000
_symmetry_space_group_name_H-M "P B C M"
_symmetry_group_IT_number 57
_symmetry_cell_setting 'orthorhombic'
loop_
_space_group_symop_operation_xyz
x,y,z
-x,-y,1/2+z
x,1/2-y,-z
-x,1/2+y,1/2-z
-x,-y,-z
x,y,1/2-z
-x,1/2+y,z
x,1/2-y,1/2+z
loop_
_atom_site_type_symbol
_atom_site_label
_atom_site_fract_x
_atom_site_fract_y
_atom_site_fract_z
Si Si1 0.337464 0.652922 0.662787
Si Si2 0.652837 0.939346 0.088348
Si Si3 0.016642 0.175297 0.836649
Si Si4 0.777053 0.760854 0.165050
Si Si5 0.252363 0.870395 0.838593
Si Si6 0.506975 0.763901 0.413465
Si Si7 0.950189 0.422714 0.659949
Si Si8 0.333698 0.086068 0.414178
O O1 0.336145 0.629537 0.750000
O O2 0.257024 0.738385 0.644753
O O3 0.424190 0.724946 0.640718
O O4 0.338911 0.536254 0.620342
O O5 0.715682 0.860861 0.137345
O O6 0.556201 0.883661 0.094852
O O7 0.672713 0.062354 0.116379
O O8 0.675376 0.925588 0.002187
O O9 0.986733 0.170839 0.750000
O O10 0.122130 0.198927 0.839325
O O11 0.979987 0.296787 0.866255
O O12 0.007737 0.044320 0.864986
O O13 0.756049 0.733488 0.250000
O O14 0.750572 0.653862 0.117045
O O15 0.268113 0.882573 0.750000
O O16 0.155817 0.922264 0.855357
O O17 0.479599 0.750000 0.500000
O O18 0.579501 0.665613 0.398768
O O19 0.962571 0.422190 0.750000
#
# Coordination Sequence:
#
# PCOD9440407 Si02
#       8
#     8   8   8   8   8   8   8   8
#     4  11  25  38  55  85 116 150 190 242 298 343
#     4  10  20  37  61  84 108 153 198 232 284 349
#     4   9  17  29  53  84 114 151 191 240 299 354
#     4  10  18  34  59  86 113 144 190 242 290 342
#     4  10  21  36  56  85 117 149 192 244 294 346
#     4   9  22  39  58  80 109 148 194 239 288 348
#     4   9  17  32  52  83 119 149 191 243 298 358
#     4  10  23  39  56  84 115 150 194 237 288 352
#
# _framework density 19.753086
#
# number of rings (size 3 to 8) (size 9 to 14) (size 15 to 20)
#    0.000    2.250    1.250    1.875    3.500    5.000 
#    0.000    3.750    0.000    0.750    3.250    0.000 
#    0.000    0.000    0.000    0.000    0.000    0.000 
#
# Total GULP energy -356492.482776 kJ/mol
# GULP energy per Si atom -5570.195043 kJ/mol
# Density = 1.970813 g / cm^3
# Si number density = 19.753086 Si / 1000 Ang^3
#
#
#
# Elastic Constant Matrix: (Units=GPa)
#
#
# Indices 1 2 3 4 5 6 
#
# 1 -0.1225 -21.4790 -5.8629 0.0000 0.0000 0.0000
# 2 -21.4790 63.5743 -22.9863 0.0000 0.0000 0.0000
# 3 -5.8629 -22.9863 -6.9475 0.0000 0.0000 0.0000
# 4 0.0000 0.0000 0.0000 -174.7628 0.0000 0.0000
# 5 0.0000 0.0000 0.0000 0.0000 -219.3223 0.0000
# 6 0.0000 0.0000 0.0000 0.0000 0.0000 17.5281
#
#
#
# Elastic Compliance Matrix: (Units=1/GPa)
#
#
# Indices 1 2 3 4 5 6 
#
# 1 0.208589 0.003109 -0.186312 0.000000 0.000000 0.000000
# 2 0.003109 0.007208 -0.026473 0.000000 0.000000 0.000000
# 3 -0.186312 -0.026473 0.100877 0.000000 0.000000 0.000000
# 4 0.000000 0.000000 0.000000 -0.005722 0.000000 0.000000
# 5 0.000000 0.000000 0.000000 0.000000 -0.004559 0.000000
# 6 0.000000 0.000000 0.000000 0.000000 0.000000 0.057051
#
#
# Mechanical properties :
#
#
# Convention : Reuss Voigt Hill
#
# Bulk Modulus (GPa) = -9.73925 -4.90578 -7.32251
# Shear Modulus (GPa) = 6.67941 -68.18925 -30.75492
#
# Velocity S-wave (km/s) = 1.84087 -5.88182 -3.95012
# Velocity P-wave (km/s) = 0.65024 6.97256 4.95174
#
# Compressibility (1/GPa) = -0.10267730
#
# Stress axis : x y z
#
# Youngs Moduli (GPa) = 4.79412 138.72808 9.91307
#
# Poissons Ratio (x) = -0.43131 1.84692
# Poissons Ratio (y) = -0.01491 0.26243
# Poissons Ratio (z) = 0.89320 3.67254
#
# Static dielectric constant tensor:
#      x y z
#    x 1.714300 0.000000 0.000000 
#    y 0.000000 1.747940 0.000000 
#    z 0.000000 0.000000 1.653110 
# 
# From -- ./inp_files/22685.got.cif
#   From: 2010.05.17/outbox.ucp.g08.bks.cvg/sg57_12_cif.got.tgz:22685.got - 2010.06.11 16:39:23.
