data_PCOD9440069
_publ_section_title
;
Structure prediction by ZEFSAII (Michael W. Deem and Ramdas Pophale) SiO2 
 PCOD9440069
Probable space group: P B C M
;
_chemical_formula_sum "Si O2"
_cell_formula_units_Z 40
_cell_length_a 9.329556
_cell_length_b 27.140882
_cell_length_c 9.129116
_cell_angle_alpha 90.000000
_cell_angle_beta 90.000000
_cell_angle_gamma 90.000000
_cell_volume 2311.605176
_symmetry_space_group_name_H-M "P B C M"
_symmetry_group_IT_number 57
_symmetry_cell_setting 'orthorhombic'
loop_
_space_group_symop_operation_xyz
x,y,z
-x,-y,1/2+z
x,1/2-y,-z
-x,1/2+y,1/2-z
-x,-y,-z
x,y,1/2-z
-x,1/2+y,z
x,1/2-y,1/2+z
loop_
_atom_site_type_symbol
_atom_site_label
_atom_site_fract_x
_atom_site_fract_y
_atom_site_fract_z
Si Si1 0.838019 0.406742 0.072438
Si Si2 0.827360 0.591213 0.571760
Si Si3 0.825525 0.798938 0.081309
Si Si4 0.174861 0.799143 0.419343
Si Si5 0.655020 0.502578 0.072983
O O1 0.836902 0.403374 0.250000
O O2 0.784952 0.353036 0.019095
O O3 0.742587 0.453144 0.031173
O O4 0.004421 0.414362 0.032275
O O5 0.815552 0.587541 0.750000
O O6 0.781449 0.646793 0.527971
O O7 0.737398 0.549593 0.491930
O O8 0.783152 0.795183 0.250000
O O9 0.000157 0.799247 0.076619
O O10 0.775525 0.750000 0.000000
O O11 0.224789 0.750000 0.500000
O O12 0.218333 0.796147 0.250000
O O13 0.646766 0.504924 0.250000
O O14 0.500000 0.500000 0.000000
#
# Coordination Sequence:
#
# PCOD9440069 Si02
#       5
#     8   8   8   8   8
#     4   8  16  31  51  72  97 127 158 192 237 287
#     4   9  17  32  52  74  98 125 157 197 240 283
#     4   8  14  24  42  68  98 125 149 182 229 279
#     4   8  13  24  42  67  96 123 149 183 228 279
#     4  11  22  35  50  69  94 128 165 202 243 290
#
# _framework density 17.303992999999998
#
# number of rings (size 3 to 8) (size 9 to 14) (size 15 to 20)
#    0.000    3.200    0.000    3.600    0.000    0.800 
#    0.000    6.000    0.000    1.200    0.000    2.800 
#    0.000    0.000    0.000    0.000    0.000    0.000 
#
# Total GULP energy -222679.001076 kJ/mol
# GULP energy per Si atom -5566.975027 kJ/mol
# Density = 1.726461 g / cm^3
# Si number density = 17.303993 Si / 1000 Ang^3
#
#
#
# Elastic Constant Matrix: (Units=GPa)
#
#
# Indices 1 2 3 4 5 6 
#
# 1 58.1193 75.4633 28.3118 0.0000 0.0000 0.0000
# 2 75.4633 229.4212 69.3030 0.0000 0.0000 0.0000
# 3 28.3118 69.3030 42.7443 0.0000 0.0000 0.0000
# 4 0.0000 0.0000 0.0000 34.5902 0.0000 0.0000
# 5 0.0000 0.0000 0.0000 0.0000 16.8212 0.0000
# 6 0.0000 0.0000 0.0000 0.0000 0.0000 -4.9999
#
#
#
# Elastic Compliance Matrix: (Units=1/GPa)
#
#
# Indices 1 2 3 4 5 6 
#
# 1 0.031346 -0.007916 -0.007928 0.000000 0.000000 0.000000
# 2 -0.007916 0.010542 -0.011849 0.000000 0.000000 0.000000
# 3 -0.007928 -0.011849 0.047857 0.000000 0.000000 0.000000
# 4 0.000000 0.000000 0.000000 0.028910 0.000000 0.000000
# 5 0.000000 0.000000 0.000000 0.000000 0.059449 0.000000
# 6 0.000000 0.000000 0.000000 0.000000 0.000000 -0.200003
#
#
# Mechanical properties :
#
#
# Convention : Reuss Voigt Hill
#
# Bulk Modulus (GPa) = 29.10391 75.16012 52.13201
# Shear Modulus (GPa) = 111.26522 19.76276 65.51399
#
# Velocity S-wave (km/s) = 8.02745 3.38315 6.15977
# Velocity P-wave (km/s) = 10.13783 7.66749 8.98794
#
# Compressibility (1/GPa) = 0.03435964
#
# Stress axis : x y z
#
# Youngs Moduli (GPa) = 31.90211 94.86090 20.89567
#
# Poissons Ratio (x) = 0.75089 0.16566
# Poissons Ratio (y) = 0.25253 0.24759
# Poissons Ratio (z) = 0.25292 1.12398
#
# Static dielectric constant tensor:
#      x y z
#    x 1.565160 0.000000 0.000000 
#    y 0.000000 1.619430 0.000000 
#    z 0.000000 0.000000 1.572640 
# 
# From -- ./inp_files/1547.got.cif
#   From: 2010.05.17/outbox.cif.g08.bks.cpg/sg57_1_cif.got.tgz:1547.got - 2010.06.03 13:58:18.
