data_PCOD9440580
_publ_section_title
;
Structure prediction by ZEFSAII (Michael W. Deem and Ramdas Pophale) SiO2 
 PCOD9440580
Probable space group: P B C M
;
_chemical_formula_sum "Si O2"
_cell_formula_units_Z 64
_cell_length_a 24.000000
_cell_length_b 9.000000
_cell_length_c 15.000000
_cell_angle_alpha 90.000000
_cell_angle_beta 90.000000
_cell_angle_gamma 90.000000
_cell_volume 3240.000000
_symmetry_space_group_name_H-M "P B C M"
_symmetry_group_IT_number 57
_symmetry_cell_setting 'orthorhombic'
loop_
_space_group_symop_operation_xyz
x,y,z
-x,-y,1/2+z
x,1/2-y,-z
-x,1/2+y,1/2-z
-x,-y,-z
x,y,1/2-z
-x,1/2+y,z
x,1/2-y,1/2+z
loop_
_atom_site_type_symbol
_atom_site_label
_atom_site_fract_x
_atom_site_fract_y
_atom_site_fract_z
Si Si1 0.944487 0.925659 0.850561
Si Si2 0.444501 0.420936 0.392174
Si Si3 0.055521 0.074303 0.850561
Si Si4 0.555497 0.579072 0.107828
Si Si5 0.855180 0.576541 0.000003
Si Si6 0.324483 0.077957 0.149483
Si Si7 0.324479 0.077952 0.850519
Si Si8 0.742800 0.079453 0.500003
O O1 0.935036 0.981103 0.750000
O O2 0.954316 0.749979 0.847107
O O3 0.892722 0.948277 0.913761
O O4 0.000006 0.999973 0.886829
O O5 0.442117 0.427340 0.500001
O O6 0.447571 0.250004 0.364608
O O7 0.499998 0.500006 0.361995
O O8 0.386852 0.485060 0.357149
O O9 0.064973 0.018861 0.750000
O O10 0.107288 0.051702 0.913759
O O11 0.613144 0.514948 0.142858
O O12 0.835789 0.750000 0.000000
O O13 0.806547 0.460751 0.000015
O O14 0.304791 0.074358 0.250000
O O15 0.328152 0.250002 0.120128
O O16 0.284339 0.993567 0.085574
O O17 0.304792 0.074353 0.750000
O O18 0.284329 0.993571 0.914423
O O19 0.730704 0.250000 0.500000
#
# Coordination Sequence:
#
# PCOD9440580 Si02
#       8
#     8   8   8   8   8   8   8   8
#     4   9  18  33  55  84 115 146 181 224 274 327
#     4   9  17  31  53  82 114 144 179 225 280 342
#     4   9  18  33  55  84 115 146 181 224 274 327
#     4   9  17  31  53  82 114 144 179 225 280 342
#     4  10  21  37  57  79 109 150 195 232 270 332
#     4  10  21  40  64  84 108 149 196 237 283 345
#     4  10  21  40  64  84 108 149 196 237 283 345
#     4  12  26  41  58  83 117 150 190 246 299 340
#
# _framework density 19.753086
#
# number of rings (size 3 to 8) (size 9 to 14) (size 15 to 20)
#    0.000    2.250    1.250    1.500    0.000    4.000 
#    0.000    2.500    0.000    0.000    0.000    0.000 
#    0.000    0.000    0.000    0.000    0.000    0.000 
#
# Total GULP energy -356854.529590 kJ/mol
# GULP energy per Si atom -5575.852025 kJ/mol
# Density = 1.970813 g / cm^3
# Si number density = 19.753086 Si / 1000 Ang^3
#
#
#
# Elastic Constant Matrix: (Units=GPa)
#
#
# Indices 1 2 3 4 5 6 
#
# 1 23.6066 39.5122 17.7862 0.0000 0.0000 0.0000
# 2 39.5122 28.6894 33.7054 0.0000 0.0000 0.0000
# 3 17.7862 33.7054 49.2991 0.0000 0.0000 0.0000
# 4 0.0000 0.0000 0.0000 -54.4139 0.0000 0.0000
# 5 0.0000 0.0000 0.0000 0.0000 274.1873 0.0000
# 6 0.0000 0.0000 0.0000 0.0000 0.0000 26.1996
#
#
#
# Elastic Compliance Matrix: (Units=1/GPa)
#
#
# Indices 1 2 3 4 5 6 
#
# 1 -0.008671 0.042010 -0.025594 0.000000 0.000000 0.000000
# 2 0.042010 -0.026402 0.002894 0.000000 0.000000 0.000000
# 3 -0.025594 0.002894 0.027539 0.000000 0.000000 0.000000
# 4 0.000000 0.000000 0.000000 -0.018378 0.000000 0.000000
# 5 0.000000 0.000000 0.000000 0.000000 0.003647 0.000000
# 6 0.000000 0.000000 0.000000 0.000000 0.000000 0.038169
#
#
# Mechanical properties :
#
#
# Convention : Reuss Voigt Hill
#
# Bulk Modulus (GPa) = 32.16685 31.51143 31.83914
# Shear Modulus (GPa) = -404.76045 49.90068 -177.42989
#
# Velocity S-wave (km/s) = -14.33021 5.03161 -9.48783
# Velocity P-wave (km/s) = 16.04639 7.05290 10.19174
#
# Compressibility (1/GPa) = 0.03108790
#
# Stress axis : x y z
#
# Youngs Moduli (GPa) = -115.33346 -37.87649 36.31185
#
# Poissons Ratio (x) = 1.59118 0.92935
# Poissons Ratio (y) = 4.84512 -0.10510
# Poissons Ratio (z) = -2.95179 0.10962
#
# Static dielectric constant tensor:
#      x y z
#    x 1.675780 0.000000 0.000000 
#    y 0.000000 1.672880 0.000000 
#    z 0.000000 0.000000 1.911730 
# 
# From -- ./inp_files/19477.got.cif
#   From: 2010.05.17/outbox.ucp.g08.bks.cvg/sg57_10_cif.got.tgz:19477.got - 2010.06.11 16:39:23.
