data_PCOD9440467
_publ_section_title
;
Structure prediction by ZEFSAII (Michael W. Deem and Ramdas Pophale) SiO2 
 PCOD9440467
Probable space group: P B C M
;
_chemical_formula_sum "Si O2"
_cell_formula_units_Z 40
_cell_length_a 12.000000
_cell_length_b 18.000000
_cell_length_c 9.000000
_cell_angle_alpha 90.000000
_cell_angle_beta 90.000000
_cell_angle_gamma 90.000000
_cell_volume 1944.000000
_symmetry_space_group_name_H-M "P B C M"
_symmetry_group_IT_number 57
_symmetry_cell_setting 'orthorhombic'
loop_
_space_group_symop_operation_xyz
x,y,z
-x,-y,1/2+z
x,1/2-y,-z
-x,1/2+y,1/2-z
-x,-y,-z
x,y,1/2-z
-x,1/2+y,z
x,1/2-y,1/2+z
loop_
_atom_site_type_symbol
_atom_site_label
_atom_site_fract_x
_atom_site_fract_y
_atom_site_fract_z
Si Si1 0.905949 0.551355 0.072183
Si Si2 0.652949 0.941592 0.915307
Si Si3 0.456905 0.897880 0.086697
Si Si4 0.958769 0.169338 0.927722
Si Si5 0.259367 0.830125 0.924676
O O1 0.919572 0.549684 0.250000
O O2 0.777222 0.537053 0.037897
O O3 0.936430 0.629761 0.999992
O O4 0.000000 0.500000 0.000000
O O5 0.659188 0.906982 0.750000
O O6 0.582926 0.017142 0.899724
O O7 0.583736 0.894015 0.032953
O O8 0.439136 0.862968 0.250000
O O9 0.376267 0.867320 0.960089
O O10 0.959711 0.169433 0.750000
O O11 0.955895 0.250000 0.000000
O O12 0.843766 0.132531 0.987638
O O13 0.234953 0.826415 0.750000
O O14 0.269720 0.750000 0.000000
#
# Coordination Sequence:
#
# PCOD9440467 Si02
#       5
#     8   8   8   8   8
#     4  11  22  37  58  85 116 150 190 233 278 331
#     4   9  20  36  54  78 109 144 180 221 269 322
#     4  10  19  34  56  81 109 140 177 222 272 323
#     4  11  22  38  58  82 113 148 188 232 282 336
#     4  11  21  35  56  81 109 141 180 223 270 323
#
# _framework density 20.576132000000001
#
# number of rings (size 3 to 8) (size 9 to 14) (size 15 to 20)
#    0.000    1.600    0.000    7.200    0.000    4.000 
#    0.000    1.000    0.000    4.800    0.000    0.000 
#    0.000    0.000    0.000    0.000    0.000    0.000 
#
# Total GULP energy -222894.174179 kJ/mol
# GULP energy per Si atom -5572.354354 kJ/mol
# Density = 2.052930 g / cm^3
# Si number density = 20.576132 Si / 1000 Ang^3
#
#
#
# Elastic Constant Matrix: (Units=GPa)
#
#
# Indices 1 2 3 4 5 6 
#
# 1 139.0408 22.3468 69.2279 0.0000 0.0000 0.0000
# 2 22.3468 25.0842 6.0563 0.0000 0.0000 0.0000
# 3 69.2279 6.0563 100.0108 0.0000 0.0000 0.0000
# 4 0.0000 0.0000 0.0000 23.1321 0.0000 0.0000
# 5 0.0000 0.0000 0.0000 0.0000 32.0377 0.0000
# 6 0.0000 0.0000 0.0000 0.0000 0.0000 4.0575
#
#
#
# Elastic Compliance Matrix: (Units=1/GPa)
#
#
# Indices 1 2 3 4 5 6 
#
# 1 0.012856 -0.009442 -0.008327 0.000000 0.000000 0.000000
# 2 -0.009442 0.047393 0.003666 0.000000 0.000000 0.000000
# 3 -0.008327 0.003666 0.015541 0.000000 0.000000 0.000000
# 4 0.000000 0.000000 0.000000 0.043230 0.000000 0.000000
# 5 0.000000 0.000000 0.000000 0.000000 0.031213 0.000000
# 6 0.000000 0.000000 0.000000 0.000000 0.000000 0.246456
#
#
# Mechanical properties :
#
#
# Convention : Reuss Voigt Hill
#
# Bulk Modulus (GPa) = 21.01604 51.04421 36.03013
# Shear Modulus (GPa) = 11.34415 22.94579 17.14497
#
# Velocity S-wave (km/s) = 2.35058 3.34303 2.88973
# Velocity P-wave (km/s) = 4.19559 6.30575 5.35562
#
# Compressibility (1/GPa) = 0.04758271
#
# Stress axis : x y z
#
# Youngs Moduli (GPa) = 77.78665 21.10036 64.34644
#
# Poissons Ratio (x) = 0.19924 0.53581
# Poissons Ratio (y) = 0.73449 -0.23590
# Poissons Ratio (z) = 0.64773 -0.07736
#
# Static dielectric constant tensor:
#      x y z
#    x 1.852150 0.000000 0.000000 
#    y 0.000000 1.771990 0.000000 
#    z 0.000000 0.000000 1.746700 
# 
# From -- ./inp_files/2659.got.cif
#   From: 2010.05.17/outbox.ucp.g08.bks.cvg/sg57_2_cif.got.tgz:2659.got - 2010.06.11 16:39:23.
