data_PCOD9440073
_publ_section_title
;
Structure prediction by ZEFSAII (Michael W. Deem and Ramdas Pophale) SiO2 
 PCOD9440073
Probable space group: P B C M
;
_chemical_formula_sum "Si O2"
_cell_formula_units_Z 56
_cell_length_a 24.625110
_cell_length_b 7.830091
_cell_length_c 14.928000
_cell_angle_alpha 90.000000
_cell_angle_beta 90.000000
_cell_angle_gamma 90.000000
_cell_volume 2878.369969
_symmetry_space_group_name_H-M "P B C M"
_symmetry_group_IT_number 57
_symmetry_cell_setting 'orthorhombic'
loop_
_space_group_symop_operation_xyz
x,y,z
-x,-y,1/2+z
x,1/2-y,-z
-x,1/2+y,1/2-z
-x,-y,-z
x,y,1/2-z
-x,1/2+y,z
x,1/2-y,1/2+z
loop_
_atom_site_type_symbol
_atom_site_label
_atom_site_fract_x
_atom_site_fract_y
_atom_site_fract_z
Si Si1 0.560061 0.544531 0.148404
Si Si2 0.852174 0.546050 0.351421
Si Si3 0.768097 0.540414 0.500000
Si Si4 0.937142 0.451679 0.000000
Si Si5 0.560061 0.544530 0.851596
Si Si6 0.643618 0.959392 1.000000
Si Si7 0.852174 0.953949 0.351421
O O1 0.564158 0.478532 0.250000
O O2 0.563164 0.750000 0.151226
O O3 0.500000 0.500000 0.113720
O O4 0.608630 0.484373 0.085633
O O5 0.854830 0.477482 0.250000
O O6 0.801918 0.483327 0.412499
O O7 0.905471 0.516127 0.411802
O O8 0.845662 0.750000 0.344706
O O9 0.768635 0.750000 0.500000
O O10 0.705849 0.484685 0.500000
O O11 0.801918 0.483327 0.587501
O O12 0.905471 0.516128 0.911802
O O13 0.932260 0.250000 0.000000
O O14 0.000000 0.500000 0.000000
O O15 0.564158 0.478532 0.750000
O O16 0.608630 0.484373 0.914367
O O17 0.644285 0.750000 0.000000
O O18 0.854830 0.022518 0.250000
#
# Coordination Sequence:
#
# PCOD9440073 Si02
#       7
#     8   8   8   8   8   8   8
#     4   9  17  28  42  61  86 117 153 193 237 285
#     4   9  18  34  55  77 103 135 168 203 246 295
#     4   8  15  28  47  73  99 123 158 202 244 288
#     4  11  22  36  55  79 108 137 168 207 245 287
#     4   9  17  28  42  61  86 117 153 193 237 285
#     4   9  16  26  43  68  94 118 150 193 238 285
#     4   9  18  34  55  77 103 135 168 203 246 295
#
# _framework density 19.455456999999999
#
# number of rings (size 3 to 8) (size 9 to 14) (size 15 to 20)
#    0.000    2.857    0.000    2.571    0.000    2.286 
#    0.000    5.714    0.000    6.857    0.000    8.000 
#    0.000    0.000    0.000    0.000    0.000    0.000 
#
# Total GULP energy -312281.564805 kJ/mol
# GULP energy per Si atom -5576.456514 kJ/mol
# Density = 1.941118 g / cm^3
# Si number density = 19.455457 Si / 1000 Ang^3
#
#
#
# Elastic Constant Matrix: (Units=GPa)
#
#
# Indices 1 2 3 4 5 6 
#
# 1 209.6787 -3.8334 114.3749 0.0000 0.0000 0.0000
# 2 -3.8334 22.9904 8.6479 0.0000 0.0000 0.0000
# 3 114.3749 8.6479 184.8422 0.0000 0.0000 0.0000
# 4 0.0000 0.0000 0.0000 6.8575 0.0000 0.0000
# 5 0.0000 0.0000 0.0000 0.0000 39.1912 0.0000
# 6 0.0000 0.0000 0.0000 0.0000 0.0000 20.0517
#
#
#
# Elastic Compliance Matrix: (Units=1/GPa)
#
#
# Indices 1 2 3 4 5 6 
#
# 1 0.007398 0.003008 -0.004718 0.000000 0.000000 0.000000
# 2 0.003008 0.045499 -0.003990 0.000000 0.000000 0.000000
# 3 -0.004718 -0.003990 0.008516 0.000000 0.000000 0.000000
# 4 0.000000 0.000000 0.000000 0.145826 0.000000 0.000000
# 5 0.000000 0.000000 0.000000 0.000000 0.025516 0.000000
# 6 0.000000 0.000000 0.000000 0.000000 0.000000 0.049871
#
#
# Mechanical properties :
#
#
# Convention : Reuss Voigt Hill
#
# Bulk Modulus (GPa) = 19.99489 72.87669 46.43579
# Shear Modulus (GPa) = 16.09284 33.10820 24.60052
#
# Velocity S-wave (km/s) = 2.87916 4.12969 3.55977
# Velocity P-wave (km/s) = 4.62086 7.76394 6.38870
#
# Compressibility (1/GPa) = 0.05001278
#
# Stress axis : x y z
#
# Youngs Moduli (GPa) = 135.17198 21.97855 117.42174
#
# Poissons Ratio (x) = -0.06612 0.55404
# Poissons Ratio (y) = -0.40665 0.46853
# Poissons Ratio (z) = 0.63780 0.08770
#
# Static dielectric constant tensor:
#      x y z
#    x 1.617700 0.000000 0.000000 
#    y 0.000000 1.711880 0.000000 
#    z 0.000000 0.000000 1.679530 
# 
# From -- ./inp_files/19379.got.cif
#   From: 2010.05.17/outbox.cif.g08.bks.cpg/sg57_10_cif.got.tgz:19379.got - 2010.06.03 13:58:18.
