data_PCOD9440796
_publ_section_title
;
Structure prediction by ZEFSAII (Michael W. Deem and Ramdas Pophale) SiO2 
 PCOD9440796
Probable space group: P N N M
;
_chemical_formula_sum "Si O2"
_cell_formula_units_Z 64
_cell_length_a 15.872923
_cell_length_b 9.493609
_cell_length_c 26.302516
_cell_angle_alpha 90.000000
_cell_angle_beta 90.000000
_cell_angle_gamma 90.000000
_cell_volume 3963.560978
_symmetry_space_group_name_H-M "P N N M"
_symmetry_group_IT_number 58
_symmetry_cell_setting 'orthorhombic'
loop_
_space_group_symop_operation_xyz
x,y,z
-x,-y,z
1/2+x,1/2-y,1/2-z
1/2-x,1/2+y,1/2-z
-x,-y,-z
x,y,-z
1/2-x,1/2+y,1/2+z
1/2+x,1/2-y,1/2+z
loop_
_atom_site_type_symbol
_atom_site_label
_atom_site_fract_x
_atom_site_fract_y
_atom_site_fract_z
Si Si1 0.411949 0.419489 0.102387
Si Si2 0.423131 0.316486 0.787742
Si Si3 0.606338 0.212537 0.764940
Si Si4 0.332374 0.073210 0.264946
Si Si5 0.323414 0.679773 0.059482
Si Si6 0.501209 0.841393 0.939692
Si Si7 0.840880 0.983621 0.785387
Si Si8 0.735396 0.717858 0.656735
O O1 0.500000 0.500000 0.092923
O O2 0.400060 0.404443 0.162466
O O3 0.343834 0.518297 0.075511
O O4 0.428009 0.261491 0.082912
O O5 0.517828 0.257831 0.789457
O O6 0.360121 0.187279 0.777354
O O7 0.411608 0.419736 0.740220
O O8 0.630109 0.323534 0.720458
O O9 0.678443 0.217525 0.808884
O O10 0.605501 0.058097 0.740280
O O11 0.322277 0.162205 0.316474
O O12 0.241001 0.011001 0.251413
O O13 0.410246 0.768250 0.067118
O O14 0.258032 0.743229 0.099564
O O15 0.301300 0.687830 0.000000
O O16 0.500000 0.000000 0.918498
O O17 0.516622 0.849322 0.000000
O O18 0.808861 0.065972 0.835070
#
# Coordination Sequence:
#
# PCOD9440796 Si02
#       8
#     8   8   8   8   8   8   8   8
#     4  10  18  28  43  63  88 121 156 192 233 270
#     4  11  19  28  45  68  93 121 154 187 216 266
#     4  10  17  29  47  69  92 119 157 187 218 278
#     4   9  19  31  44  65  94 124 151 186 233 281
#     4  10  19  31  47  63  83 120 169 205 230 279
#     4   9  18  30  41  58  86 115 149 199 245 269
#     4   9  18  30  43  60  90 124 146 175 229 280
#     4   9  18  32  45  62  92 123 150 189 241 279
#
# _framework density 16.147096000000001
#
# number of rings (size 3 to 8) (size 9 to 14) (size 15 to 20)
#    0.000    2.375    0.000    5.625    0.000    4.500 
#    0.000    0.000    0.000    0.000    0.000    0.000 
#    0.000   16.000    0.000    0.000    0.000    0.000 
#
# Total GULP energy -356436.035291 kJ/mol
# GULP energy per Si atom -5569.313051 kJ/mol
# Density = 1.611034 g / cm^3
# Si number density = 16.147096 Si / 1000 Ang^3
#
#
#
# Elastic Constant Matrix: (Units=GPa)
#
#
# Indices 1 2 3 4 5 6 
#
# 1 24.2584 5.2908 8.0869 0.0000 0.0000 0.0000
# 2 5.2908 82.6042 20.9604 0.0000 0.0000 0.0000
# 3 8.0869 20.9604 64.3908 0.0000 0.0000 0.0000
# 4 0.0000 0.0000 0.0000 19.8251 0.0000 0.0000
# 5 0.0000 0.0000 0.0000 0.0000 17.8658 0.0000
# 6 0.0000 0.0000 0.0000 0.0000 0.0000 10.5238
#
#
#
# Elastic Compliance Matrix: (Units=1/GPa)
#
#
# Indices 1 2 3 4 5 6 
#
# 1 0.043198 -0.001515 -0.004932 0.000000 0.000000 0.000000
# 2 -0.001515 0.013249 -0.004123 0.000000 0.000000 0.000000
# 3 -0.004932 -0.004123 0.017492 0.000000 0.000000 0.000000
# 4 0.000000 0.000000 0.000000 0.050441 0.000000 0.000000
# 5 0.000000 0.000000 0.000000 0.000000 0.055973 0.000000
# 6 0.000000 0.000000 0.000000 0.000000 0.000000 0.095023
#
#
# Mechanical properties :
#
#
# Convention : Reuss Voigt Hill
#
# Bulk Modulus (GPa) = 18.93992 26.65884 22.79938
# Shear Modulus (GPa) = 15.91779 18.77062 17.34420
#
# Velocity S-wave (km/s) = 3.14315 3.41321 3.28096
# Velocity P-wave (km/s) = 4.99275 5.66385 5.33886
#
# Compressibility (1/GPa) = 0.05279853
#
# Stress axis : x y z
#
# Youngs Moduli (GPa) = 23.14948 75.47708 57.17049
#
# Poissons Ratio (x) = 0.11437 0.28196
# Poissons Ratio (y) = 0.03508 0.23569
# Poissons Ratio (z) = 0.11417 0.31116
#
# Static dielectric constant tensor:
#      x y z
#    x 1.551470 0.000000 0.000000 
#    y 0.000000 1.597680 0.000000 
#    z 0.000000 0.000000 1.532610 
# 
# From -- ./inp_files/33423.got.cif
#   From: 2010.05.17/outbox.cif.g08.bks.cpg/sg58_17_cif.got.tgz:33423.got - 2010.06.03 14:20:14.
