data_PCOD9440223
_publ_section_title
;
Structure prediction by ZEFSAII (Michael W. Deem and Ramdas Pophale) SiO2 
 PCOD9440223
Probable space group: P B C M
;
_chemical_formula_sum "Si O2"
_cell_formula_units_Z 64
_cell_length_a 17.621903
_cell_length_b 11.312252
_cell_length_c 15.217845
_cell_angle_alpha 90.000000
_cell_angle_beta 90.000000
_cell_angle_gamma 90.000000
_cell_volume 3033.577076
_symmetry_space_group_name_H-M "P B C M"
_symmetry_group_IT_number 57
_symmetry_cell_setting 'orthorhombic'
loop_
_space_group_symop_operation_xyz
x,y,z
-x,-y,1/2+z
x,1/2-y,-z
-x,1/2+y,1/2-z
-x,-y,-z
x,y,1/2-z
-x,1/2+y,z
x,1/2-y,1/2+z
loop_
_atom_site_type_symbol
_atom_site_label
_atom_site_fract_x
_atom_site_fract_y
_atom_site_fract_z
Si Si1 0.035128 0.093963 0.857769
Si Si2 0.451805 0.036470 0.844973
Si Si3 0.794582 0.859551 0.351336
Si Si4 0.940754 0.324516 0.642803
Si Si5 0.642976 0.745717 0.399610
Si Si6 0.631167 0.368251 0.523202
Si Si7 0.232707 0.638471 0.350790
Si Si8 0.629780 0.478437 0.346303
O O1 0.034096 0.091244 0.750000
O O2 0.119611 0.135200 0.885287
O O3 0.979816 0.201281 0.886048
O O4 0.025718 0.954715 0.884879
O O5 0.436722 0.977319 0.750000
O O6 0.405082 0.156802 0.848767
O O7 0.421330 0.957790 0.924133
O O8 0.541241 0.057158 0.850883
O O9 0.797477 0.818955 0.250000
O O10 0.731246 0.782911 0.398195
O O11 0.767412 0.995411 0.351331
O O12 0.944637 0.325898 0.750000
O O13 0.851470 0.323822 0.620022
O O14 0.616569 0.750000 0.500000
O O15 0.633247 0.618987 0.356588
O O16 0.586148 0.250000 0.500000
O O17 0.699215 0.327676 0.586326
O O18 0.664450 0.427254 0.435414
O O19 0.243945 0.676983 0.250000
O O20 0.659905 0.443588 0.250000
#
# Coordination Sequence:
#
# PCOD9440223 Si02
#       8
#     8   8   8   8   8   8   8   8
#     4   8  14  25  46  79 116 153 195 248 297 354
#     4  11  24  42  65  88 116 159 204 246 308 378
#     4   9  16  30  55  85 114 151 205 250 290 357
#     4   8  14  26  49  81 118 155 200 251 302 363
#     4  12  22  38  66  89 120 157 199 257 308 361
#     4  12  25  40  61  86 123 163 202 253 302 367
#     4   9  17  34  58  86 117 160 214 254 292 362
#     4  11  26  42  60  92 125 154 197 259 317 365
#
# _framework density 21.097206
#
# number of rings (size 3 to 8) (size 9 to 14) (size 15 to 20)
#    0.000    2.000    2.500    3.375    1.750    1.000 
#    0.000    1.250    0.000    3.750    0.000    4.375 
#    0.000    0.000    0.000    5.500    0.000    0.500 
#
# Total GULP energy -357178.383331 kJ/mol
# GULP energy per Si atom -5580.912240 kJ/mol
# Density = 2.104919 g / cm^3
# Si number density = 21.097206 Si / 1000 Ang^3
#
#
#
# Elastic Constant Matrix: (Units=GPa)
#
#
# Indices 1 2 3 4 5 6 
#
# 1 52.2622 17.8310 8.7490 0.0000 0.0000 0.0000
# 2 17.8310 80.7711 13.3239 0.0000 0.0000 0.0000
# 3 8.7490 13.3239 83.1673 0.0000 0.0000 0.0000
# 4 0.0000 0.0000 0.0000 6.4666 0.0000 0.0000
# 5 0.0000 0.0000 0.0000 0.0000 -5.2772 0.0000
# 6 0.0000 0.0000 0.0000 0.0000 0.0000 -23.6619
#
#
#
# Elastic Compliance Matrix: (Units=1/GPa)
#
#
# Indices 1 2 3 4 5 6 
#
# 1 0.020873 -0.004361 -0.001497 0.000000 0.000000 0.000000
# 2 -0.004361 0.013628 -0.001725 0.000000 0.000000 0.000000
# 3 -0.001497 -0.001725 0.012458 0.000000 0.000000 0.000000
# 4 0.000000 0.000000 0.000000 0.154640 0.000000 0.000000
# 5 0.000000 0.000000 0.000000 0.000000 -0.189493 0.000000
# 6 0.000000 0.000000 0.000000 0.000000 0.000000 -0.042262
#
#
# Mechanical properties :
#
#
# Convention : Reuss Voigt Hill
#
# Bulk Modulus (GPa) = 31.45319 32.88984 32.17151
# Shear Modulus (GPa) = -1137.83349 7.25861 -565.28744
#
# Velocity S-wave (km/s) = -23.24865 1.85689 -16.38676
# Velocity P-wave (km/s) = 26.56549 4.49676 18.51357
#
# Compressibility (1/GPa) = 0.03179328
#
# Stress axis : x y z
#
# Youngs Moduli (GPa) = 47.90928 73.37912 80.27144
#
# Poissons Ratio (x) = 0.32000 0.12018
# Poissons Ratio (y) = 0.20893 0.13843
# Poissons Ratio (z) = 0.07173 0.12654
#
# Static dielectric constant tensor:
#      x y z
#    x 1.752710 0.000000 0.000000 
#    y 0.000000 1.753910 0.000000 
#    z 0.000000 0.000000 1.779510 
# 
# From -- ./inp_files/19145.got.cif
#   From: 2010.05.17/outbox.cif.g08.bks.cpg/sg57_10_cif.got.tgz:19145.got - 2010.06.03 13:58:18.
