data_PCOD9440819
_publ_section_title
;
Structure prediction by ZEFSAII (Michael W. Deem and Ramdas Pophale) SiO2 
 PCOD9440819
Probable space group: P N N M
;
_chemical_formula_sum "Si O2"
_cell_formula_units_Z 64
_cell_length_a 11.738695
_cell_length_b 17.286697
_cell_length_c 19.004057
_cell_angle_alpha 90.000000
_cell_angle_beta 90.000000
_cell_angle_gamma 90.000000
_cell_volume 3856.365269
_symmetry_space_group_name_H-M "P N N M"
_symmetry_group_IT_number 58
_symmetry_cell_setting 'orthorhombic'
loop_
_space_group_symop_operation_xyz
x,y,z
-x,-y,z
1/2+x,1/2-y,1/2-z
1/2-x,1/2+y,1/2-z
-x,-y,-z
x,y,-z
1/2-x,1/2+y,1/2+z
1/2+x,1/2-y,1/2+z
loop_
_atom_site_type_symbol
_atom_site_label
_atom_site_fract_x
_atom_site_fract_y
_atom_site_fract_z
Si Si1 0.927073 0.922335 0.800938
Si Si2 0.227161 0.143704 0.081851
Si Si3 0.869854 0.528085 0.922313
Si Si4 0.571589 0.855929 0.810680
Si Si5 0.090037 0.775680 0.802116
Si Si6 0.182135 0.354766 0.283513
Si Si7 0.788162 0.474557 0.774732
Si Si8 0.890748 0.700561 0.128976
O O1 0.860742 0.909781 0.874547
O O2 0.826562 0.928594 0.743710
O O3 0.007791 0.848890 0.788436
O O4 0.000000 0.000000 0.800660
O O5 0.347762 0.138346 0.121841
O O6 0.177862 0.230083 0.093401
O O7 0.233886 0.125104 0.000000
O O8 0.805196 0.489968 0.856890
O O9 0.873677 0.620222 0.910372
O O10 0.000000 0.500000 0.918537
O O11 0.824255 0.509918 0.000000
O O12 0.598537 0.778162 0.766708
O O13 0.437141 0.857491 0.824557
O O14 0.607527 0.925781 0.758191
O O15 0.214308 0.809124 0.819051
O O16 0.022766 0.725847 0.860865
O O17 0.217335 0.442291 0.263856
O O18 0.153144 0.313320 0.208932
#
# Coordination Sequence:
#
# PCOD9440819 Si02
#       8
#     8   8   8   8   8   8   8   8
#     4  10  20  34  53  79 102 132 177 224 267 307
#     4  10  20  34  52  73 104 143 176 215 264 319
#     4  10  19  32  51  78 109 143 176 211 264 329
#     4  10  20  32  52  79 106 132 179 220 266 312
#     4  10  18  31  51  81 103 130 171 226 267 305
#     4  10  17  30  53  77 103 131 169 225 264 308
#     4  10  19  33  53  78 107 134 173 225 267 307
#     4   9  18  31  49  77 106 132 177 217 265 307
#
# _framework density 16.595939000000001
#
# number of rings (size 3 to 8) (size 9 to 14) (size 15 to 20)
#    0.000    2.125    2.500    3.000    1.750    0.250 
#    0.000    0.000    0.000   10.875    0.000    0.000 
#    0.000    0.000    0.000    0.000    0.000    0.000 
#
# Total GULP energy -356856.052598 kJ/mol
# GULP energy per Si atom -5575.875822 kJ/mol
# Density = 1.655817 g / cm^3
# Si number density = 16.595939 Si / 1000 Ang^3
#
#
#
# Elastic Constant Matrix: (Units=GPa)
#
#
# Indices 1 2 3 4 5 6 
#
# 1 99.9162 17.5992 30.1365 0.0000 0.0000 0.0000
# 2 17.5992 53.2964 24.3805 0.0000 0.0000 0.0000
# 3 30.1365 24.3805 94.4480 0.0000 0.0000 0.0000
# 4 0.0000 0.0000 0.0000 13.0098 0.0000 0.0000
# 5 0.0000 0.0000 0.0000 0.0000 11.4102 0.0000
# 6 0.0000 0.0000 0.0000 0.0000 0.0000 25.7794
#
#
#
# Elastic Compliance Matrix: (Units=1/GPa)
#
#
# Indices 1 2 3 4 5 6 
#
# 1 0.011332 -0.002367 -0.003005 0.000000 0.000000 0.000000
# 2 -0.002367 0.021770 -0.004864 0.000000 0.000000 0.000000
# 3 -0.003005 -0.004864 0.012802 0.000000 0.000000 0.000000
# 4 0.000000 0.000000 0.000000 0.076865 0.000000 0.000000
# 5 0.000000 0.000000 0.000000 0.000000 0.087641 0.000000
# 6 0.000000 0.000000 0.000000 0.000000 0.000000 0.038791
#
#
# Mechanical properties :
#
#
# Convention : Reuss Voigt Hill
#
# Bulk Modulus (GPa) = 39.32165 43.54365 41.43265
# Shear Modulus (GPa) = 17.97595 21.74286 19.85941
#
# Velocity S-wave (km/s) = 3.29470 3.62350 3.46300
# Velocity P-wave (km/s) = 6.18210 6.61822 6.40387
#
# Compressibility (1/GPa) = 0.02543128
#
# Stress axis : x y z
#
# Youngs Moduli (GPa) = 88.24872 45.93502 78.11180
#
# Poissons Ratio (x) = 0.10875 0.23469
# Poissons Ratio (y) = 0.20892 0.37995
# Poissons Ratio (z) = 0.26515 0.22344
#
# Static dielectric constant tensor:
#      x y z
#    x 1.571390 0.000000 0.000000 
#    y 0.000000 1.576550 0.000000 
#    z 0.000000 0.000000 1.533670 
# 
# From -- ./inp_files/26478.got.cif
#   From: 2010.05.17/outbox.cif.g08.bks.cpg/sg58_14_cif.got.tgz:26478.got - 2010.06.03 14:20:14.
