data_PCOD9440567
_publ_section_title
;
Structure prediction by ZEFSAII (Michael W. Deem and Ramdas Pophale) SiO2 
 PCOD9440567
Probable space group: P B C M
;
_chemical_formula_sum "Si O2"
_cell_formula_units_Z 64
_cell_length_a 12.000000
_cell_length_b 15.000000
_cell_length_c 18.000000
_cell_angle_alpha 90.000000
_cell_angle_beta 90.000000
_cell_angle_gamma 90.000000
_cell_volume 3240.000000
_symmetry_space_group_name_H-M "P B C M"
_symmetry_group_IT_number 57
_symmetry_cell_setting 'orthorhombic'
loop_
_space_group_symop_operation_xyz
x,y,z
-x,-y,1/2+z
x,1/2-y,-z
-x,1/2+y,1/2-z
-x,-y,-z
x,y,1/2-z
-x,1/2+y,z
x,1/2-y,1/2+z
loop_
_atom_site_type_symbol
_atom_site_label
_atom_site_fract_x
_atom_site_fract_y
_atom_site_fract_z
Si Si1 0.345264 0.190268 0.340287
Si Si2 0.548506 0.503915 0.087993
Si Si3 0.158838 0.494220 0.062133
Si Si4 0.149814 0.709033 0.083151
Si Si5 0.651396 0.600699 0.839305
Si Si6 0.917316 0.814899 0.835920
Si Si7 0.274834 0.635053 0.661604
Si Si8 0.908758 0.490799 0.105602
O O1 0.355176 0.172742 0.250000
O O2 0.384842 0.294357 0.353859
O O3 0.212301 0.201328 0.358109
O O4 0.401839 0.103554 0.384768
O O5 0.444969 0.469938 0.138302
O O6 0.639752 0.426236 0.111496
O O7 0.500000 0.500000 0.000000
O O8 0.172292 0.601296 0.079830
O O9 0.245989 0.433353 0.108134
O O10 0.033851 0.463731 0.083732
O O11 0.157266 0.487620 0.971887
O O12 0.242346 0.766505 0.129331
O O13 0.024331 0.719813 0.117508
O O14 0.150073 0.750000 0.000000
O O15 0.676218 0.596040 0.750000
O O16 0.930082 0.787383 0.750000
O O17 0.922395 0.921394 0.845336
O O18 0.306278 0.637546 0.750000
O O19 0.159173 0.581977 0.650667
#
# Coordination Sequence:
#
# PCOD9440567 Si02
#       8
#     8   8   8   8   8   8   8   8
#     4  10  23  45  71 102 139 181 237 298 356 430
#     4  12  27  49  73 100 137 186 242 304 357 429
#     4  10  23  42  64 100 146 185 237 291 353 423
#     4  11  24  41  66 104 153 193 234 287 352 436
#     4  11  26  45  70 101 138 183 235 294 362 427
#     4  10  21  39  66 102 143 185 232 285 351 424
#     4  12  24  42  71 102 137 187 241 293 361 432
#     4  10  20  38  66  98 138 185 231 288 356 419
#
# _framework density 19.753086
#
# number of rings (size 3 to 8) (size 9 to 14) (size 15 to 20)
#    0.000    1.250    2.500    2.625    1.750    4.500 
#    0.000    0.000    0.000    0.000    0.000    0.000 
#    0.000    0.000    0.000    0.000    0.000    0.000 
#
# Total GULP energy -356795.606953 kJ/mol
# GULP energy per Si atom -5574.931359 kJ/mol
# Density = 1.970813 g / cm^3
# Si number density = 19.753086 Si / 1000 Ang^3
#
#
#
# Elastic Constant Matrix: (Units=GPa)
#
#
# Indices 1 2 3 4 5 6 
#
# 1 87.1103 30.6525 35.9563 0.0000 0.0000 0.0000
# 2 30.6525 117.5140 38.7353 0.0000 0.0000 0.0000
# 3 35.9563 38.7353 121.5518 0.0000 0.0000 0.0000
# 4 0.0000 0.0000 0.0000 35.4316 0.0000 0.0000
# 5 0.0000 0.0000 0.0000 0.0000 41.7824 0.0000
# 6 0.0000 0.0000 0.0000 0.0000 0.0000 41.1971
#
#
#
# Elastic Compliance Matrix: (Units=1/GPa)
#
#
# Indices 1 2 3 4 5 6 
#
# 1 0.013704 -0.002501 -0.003257 0.000000 0.000000 0.000000
# 2 -0.002501 0.009965 -0.002436 0.000000 0.000000 0.000000
# 3 -0.003257 -0.002436 0.009967 0.000000 0.000000 0.000000
# 4 0.000000 0.000000 0.000000 0.028223 0.000000 0.000000
# 5 0.000000 0.000000 0.000000 0.000000 0.023934 0.000000
# 6 0.000000 0.000000 0.000000 0.000000 0.000000 0.024274
#
#
# Mechanical properties :
#
#
# Convention : Reuss Voigt Hill
#
# Bulk Modulus (GPa) = 57.97652 59.65159 58.81406
# Shear Modulus (GPa) = 37.82076 38.40434 38.11255
#
# Velocity S-wave (km/s) = 4.38045 4.41411 4.39731
# Velocity P-wave (km/s) = 7.41612 7.49956 7.45795
#
# Compressibility (1/GPa) = 0.01724836
#
# Stress axis : x y z
#
# Youngs Moduli (GPa) = 72.97099 100.35251 100.33587
#
# Poissons Ratio (x) = 0.25099 0.32677
# Poissons Ratio (y) = 0.18251 0.24439
# Poissons Ratio (z) = 0.23765 0.24443
#
# Static dielectric constant tensor:
#      x y z
#    x 1.754000 0.000000 0.000000 
#    y 0.000000 1.715930 0.000000 
#    z 0.000000 0.000000 1.711360 
# 
# From -- ./inp_files/22015.got.cif
#   From: 2010.05.17/outbox.ucp.g08.bks.cvg/sg57_12_cif.got.tgz:22015.got - 2010.06.11 16:39:23.
