data_PCOD9440353
_publ_section_title
;
Structure prediction by ZEFSAII (Michael W. Deem and Ramdas Pophale) SiO2 
 PCOD9440353
Probable space group: P B C M
;
_chemical_formula_sum "Si O2"
_cell_formula_units_Z 32
_cell_length_a 4.883262
_cell_length_b 20.611147
_cell_length_c 13.786835
_cell_angle_alpha 90.000000
_cell_angle_beta 90.000000
_cell_angle_gamma 90.000000
_cell_volume 1387.639854
_symmetry_space_group_name_H-M "P B C M"
_symmetry_group_IT_number 57
_symmetry_cell_setting 'orthorhombic'
loop_
_space_group_symop_operation_xyz
x,y,z
-x,-y,1/2+z
x,1/2-y,-z
-x,1/2+y,1/2-z
-x,-y,-z
x,y,1/2-z
-x,1/2+y,z
x,1/2-y,1/2+z
loop_
_atom_site_type_symbol
_atom_site_label
_atom_site_fract_x
_atom_site_fract_y
_atom_site_fract_z
Si Si1 0.719247 0.602856 0.250000
Si Si2 0.589434 0.362251 0.141240
Si Si3 0.197068 0.808139 0.750000
Si Si4 0.947497 0.787229 0.410592
Si Si5 0.741991 0.501548 0.425094
O O1 0.512321 0.665944 0.250000
O O2 0.701963 0.560222 0.348583
O O3 0.031195 0.625601 0.250000
O O4 0.664230 0.339467 0.250000
O O5 0.782700 0.327875 0.062684
O O6 0.683292 0.436172 0.135446
O O7 0.277997 0.338357 0.128025
O O8 0.076737 0.767150 0.659788
O O9 0.818233 0.750000 0.500000
O O10 0.500000 0.500000 0.500000
O O11 0.000000 0.500000 0.500000
#
# Coordination Sequence:
#
# PCOD9440353 Si02
#       5
#     4   8   4   8   8
#     4  12  28  48  72 108 154 192 238 309 374 443
#     4  12  24  50  73 100 143 192 250 305 360 440
#     4  12  26  46  72 106 152 188 238 301 376 443
#     4  12  27  45  74 105 142 190 244 304 370 441
#     4  12  28  48  75 109 146 197 250 305 378 447
#
# _framework density 23.060739000000002
#
# number of rings (size 3 to 8) (size 9 to 14) (size 15 to 20)
#    0.000    0.000    3.750    5.250   10.500    0.000 
#    0.000    0.000    0.000    0.000    0.000    0.000 
#    0.000    0.000    0.000    0.000    0.000    0.000 
#
# Total GULP energy -178343.563587 kJ/mol
# GULP energy per Si atom -5573.236362 kJ/mol
# Density = 2.300825 g / cm^3
# Si number density = 23.060739 Si / 1000 Ang^3
#
#
#
# Elastic Constant Matrix: (Units=GPa)
#
#
# Indices 1 2 3 4 5 6 
#
# 1 147.3511 17.1036 22.5257 0.0000 0.0000 0.0000
# 2 17.1036 65.6065 17.9774 0.0000 0.0000 0.0000
# 3 22.5257 17.9774 87.6053 0.0000 0.0000 0.0000
# 4 0.0000 0.0000 0.0000 28.1155 0.0000 0.0000
# 5 0.0000 0.0000 0.0000 0.0000 14.7364 0.0000
# 6 0.0000 0.0000 0.0000 0.0000 0.0000 39.7118
#
#
#
# Elastic Compliance Matrix: (Units=1/GPa)
#
#
# Indices 1 2 3 4 5 6 
#
# 1 0.007192 -0.001450 -0.001552 0.000000 0.000000 0.000000
# 2 -0.001450 0.016443 -0.003001 0.000000 0.000000 0.000000
# 3 -0.001552 -0.003001 0.012430 0.000000 0.000000 0.000000
# 4 0.000000 0.000000 0.000000 0.035568 0.000000 0.000000
# 5 0.000000 0.000000 0.000000 0.000000 0.067859 0.000000
# 6 0.000000 0.000000 0.000000 0.000000 0.000000 0.025181
#
#
# Mechanical properties :
#
#
# Convention : Reuss Voigt Hill
#
# Bulk Modulus (GPa) = 41.56506 46.19736 43.88121
# Shear Modulus (GPa) = 27.07118 32.70981 29.89049
#
# Velocity S-wave (km/s) = 3.42995 3.77028 3.60413
# Velocity P-wave (km/s) = 5.80942 6.24738 6.03237
#
# Compressibility (1/GPa) = 0.02405867
#
# Stress axis : x y z
#
# Youngs Moduli (GPa) = 139.04319 60.81693 80.45205
#
# Poissons Ratio (x) = 0.08817 0.12484
# Poissons Ratio (y) = 0.20158 0.24147
# Poissons Ratio (z) = 0.21576 0.18254
#
# Static dielectric constant tensor:
#      x y z
#    x 1.766810 0.000000 0.000000 
#    y 0.000000 1.782020 0.000000 
#    z 0.000000 0.000000 1.835100 
# 
# From -- ./inp_files/14799.got.cif
#   From: 2010.05.17/outbox.cif.g08.bks.cpg/sg57_8_cif.got.tgz:14799.got - 2010.06.03 13:58:18.
