data_PCOD9440498
_publ_section_title
;
Structure prediction by ZEFSAII (Michael W. Deem and Ramdas Pophale) SiO2 
 PCOD9440498
Probable space group: P B C M
;
_chemical_formula_sum "Si O2"
_cell_formula_units_Z 64
_cell_length_a 15.000000
_cell_length_b 24.000000
_cell_length_c 9.000000
_cell_angle_alpha 90.000000
_cell_angle_beta 90.000000
_cell_angle_gamma 90.000000
_cell_volume 3240.000000
_symmetry_space_group_name_H-M "P B C M"
_symmetry_group_IT_number 57
_symmetry_cell_setting 'orthorhombic'
loop_
_space_group_symop_operation_xyz
x,y,z
-x,-y,1/2+z
x,1/2-y,-z
-x,1/2+y,1/2-z
-x,-y,-z
x,y,1/2-z
-x,1/2+y,z
x,1/2-y,1/2+z
loop_
_atom_site_type_symbol
_atom_site_label
_atom_site_fract_x
_atom_site_fract_y
_atom_site_fract_z
Si Si1 0.209069 0.994814 0.928714
Si Si2 0.132100 0.390443 0.074817
Si Si3 0.405822 0.991312 0.579438
Si Si4 0.272373 0.310985 0.574324
Si Si5 0.618412 0.383554 0.084090
Si Si6 0.974811 0.193158 0.574833
Si Si7 0.552849 0.807648 0.420043
Si Si8 0.814040 0.125237 0.576104
O O1 0.211959 0.987503 0.750000
O O2 0.309780 0.014628 0.974756
O O3 0.141574 0.044760 0.965149
O O4 0.185037 0.935732 0.001343
O O5 0.156431 0.386060 0.250000
O O6 0.038210 0.360210 0.055668
O O7 0.198558 0.353400 0.979604
O O8 0.416224 0.007707 0.750000
O O9 0.388695 0.926229 0.550559
O O10 0.500000 0.000000 0.500000
O O11 0.259812 0.250000 0.500000
O O12 0.272783 0.305058 0.750000
O O13 0.366381 0.333248 0.512415
O O14 0.620611 0.411693 0.250000
O O15 0.533574 0.345052 0.081559
O O16 0.712705 0.353727 0.069600
O O17 0.006957 0.250000 0.500000
O O18 0.969261 0.205169 0.750000
O O19 0.880535 0.171407 0.514157
O O20 0.531860 0.750000 0.500000
O O21 0.581988 0.798214 0.250000
O O22 0.837521 0.117142 0.750000
#
# Coordination Sequence:
#
# PCOD9440498 Si02
#       8
#     8   8   8   8   8   8   8   8
#     4   9  20  37  56  81 113 151 190 229 283 340
#     4  10  21  38  58  82 115 150 186 232 283 339
#     4  10  20  33  51  77 108 144 186 230 274 325
#     4  11  22  36  54  78 108 145 187 232 284 338
#     4   9  19  35  54  75 105 144 180 222 274 326
#     4  10  22  39  61  87 114 147 187 233 286 340
#     4  10  20  34  52  75 105 142 183 225 276 333
#     4   9  19  38  59  82 114 147 185 233 282 334
#
# _framework density 19.753086
#
# number of rings (size 3 to 8) (size 9 to 14) (size 15 to 20)
#    0.000    2.250    0.000    3.000    1.750    5.000 
#    0.000    0.000    0.000    0.000    0.000    0.000 
#    0.000    0.000    0.000    0.000    0.000    0.000 
#
# Total GULP energy -356576.589801 kJ/mol
# GULP energy per Si atom -5571.509216 kJ/mol
# Density = 1.970813 g / cm^3
# Si number density = 19.753086 Si / 1000 Ang^3
#
#
#
# Elastic Constant Matrix: (Units=GPa)
#
#
# Indices 1 2 3 4 5 6 
#
# 1 29.9399 -2.9677 9.0532 0.0000 0.0000 0.0000
# 2 -2.9677 -3.3935 -15.9153 0.0000 0.0000 0.0000
# 3 9.0532 -15.9153 13.2824 0.0000 0.0000 0.0000
# 4 0.0000 0.0000 0.0000 19.2155 0.0000 0.0000
# 5 0.0000 0.0000 0.0000 0.0000 21.1553 0.0000
# 6 0.0000 0.0000 0.0000 0.0000 0.0000 30.5715
#
#
#
# Elastic Compliance Matrix: (Units=1/GPa)
#
#
# Indices 1 2 3 4 5 6 
#
# 1 0.037688 0.013221 -0.009847 0.000000 0.000000 0.000000
# 2 0.013221 -0.039879 -0.056795 0.000000 0.000000 0.000000
# 3 -0.009847 -0.056795 0.013946 0.000000 0.000000 0.000000
# 4 0.000000 0.000000 0.000000 0.052041 0.000000 0.000000
# 5 0.000000 0.000000 0.000000 0.000000 0.047269 0.000000
# 6 0.000000 0.000000 0.000000 0.000000 0.000000 0.032710
#
#
# Mechanical properties :
#
#
# Convention : Reuss Voigt Hill
#
# Bulk Modulus (GPa) = -10.51669 2.24103 -4.13783
# Shear Modulus (GPa) = 22.83917 17.49904 20.16911
#
# Velocity S-wave (km/s) = 3.40403 2.97962 3.19887
# Velocity P-wave (km/s) = 3.18029 3.60201 3.39770
#
# Compressibility (1/GPa) = -0.09508699
#
# Stress axis : x y z
#
# Youngs Moduli (GPa) = 26.53360 -25.07575 71.70509
#
# Poissons Ratio (x) = 0.33152 0.70605
# Poissons Ratio (y) = -0.35079 4.07248
# Poissons Ratio (z) = 0.26127 -1.42417
#
# Static dielectric constant tensor:
#      x y z
#    x 1.770000 0.000000 0.000000 
#    y 0.000000 1.671530 0.000000 
#    z 0.000000 0.000000 1.697360 
# 
# From -- ./inp_files/5691.got.cif
#   From: 2010.05.17/outbox.ucp.g08.bks.cvg/sg57_3_cif.got.tgz:5691.got - 2010.06.11 16:39:23.
