data_PCOD9440813
_publ_section_title
;
Structure prediction by ZEFSAII (Michael W. Deem and Ramdas Pophale) SiO2 
 PCOD9440813
Probable space group: P N N M
;
_chemical_formula_sum "Si O2"
_cell_formula_units_Z 56
_cell_length_a 9.413980
_cell_length_b 16.971719
_cell_length_c 20.245556
_cell_angle_alpha 90.000000
_cell_angle_beta 90.000000
_cell_angle_gamma 90.000000
_cell_volume 3234.661296
_symmetry_space_group_name_H-M "P N N M"
_symmetry_group_IT_number 58
_symmetry_cell_setting 'orthorhombic'
loop_
_space_group_symop_operation_xyz
x,y,z
-x,-y,z
1/2+x,1/2-y,1/2-z
1/2-x,1/2+y,1/2-z
-x,-y,-z
x,y,-z
1/2-x,1/2+y,1/2+z
1/2+x,1/2-y,1/2+z
loop_
_atom_site_type_symbol
_atom_site_label
_atom_site_fract_x
_atom_site_fract_y
_atom_site_fract_z
Si Si1 0.275100 0.228694 0.336302
Si Si2 0.152581 0.365992 0.425462
Si Si3 0.960266 0.220057 0.719091
Si Si4 0.894169 0.386261 0.670813
Si Si5 0.120921 0.557794 0.177748
Si Si6 0.860235 0.051772 0.723164
Si Si7 0.332596 0.489925 0.633129
O O1 0.223035 0.287495 0.393654
O O2 0.402810 0.266617 0.293390
O O3 0.331552 0.140978 0.354052
O O4 0.130955 0.220373 0.291051
O O5 0.104269 0.351036 0.500000
O O6 0.266755 0.435949 0.422915
O O7 0.025003 0.397568 0.378899
O O8 0.891091 0.292221 0.679343
O O9 0.898998 0.136755 0.696463
O O10 0.919358 0.418447 0.745741
O O11 0.753707 0.428945 0.643796
O O12 0.254098 0.500051 0.181566
O O13 0.000000 0.500000 0.150049
O O14 0.803420 0.057395 0.798128
O O15 0.000000 0.000000 0.729887
O O16 0.500000 0.500000 0.624877
#
# Coordination Sequence:
#
# PCOD9440813 Si02
#       7
#     8   8   8   8   8   8   8
#     4  10  21  34  50  80 108 134 175 213 270 313
#     4  11  22  37  55  71 101 147 184 211 244 306
#     4  10  19  31  50  76 109 137 166 217 270 316
#     4   9  20  34  51  77 107 141 175 215 258 313
#     4  10  19  31  51  79 109 133 166 216 271 323
#     4  10  17  30  49  75 109 139 160 207 270 323
#     4  10  20  33  50  74 106 135 177 216 257 300
#
# _framework density 17.312477000000001
#
# number of rings (size 3 to 8) (size 9 to 14) (size 15 to 20)
#    0.000    2.000    2.857    2.143    6.000    1.429 
#    0.000    0.000    0.000    0.429    0.000    8.000 
#    0.000    0.000    0.000    0.000    0.000    0.000 
#
# Total GULP energy -311853.882070 kJ/mol
# GULP energy per Si atom -5568.819323 kJ/mol
# Density = 1.727307 g / cm^3
# Si number density = 17.312477 Si / 1000 Ang^3
#
#
#
# Elastic Constant Matrix: (Units=GPa)
#
#
# Indices 1 2 3 4 5 6 
#
# 1 74.5997 31.3819 17.8825 0.0000 0.0000 0.0000
# 2 31.3819 123.4391 6.9449 0.0000 0.0000 0.0000
# 3 17.8825 6.9449 31.2750 0.0000 0.0000 0.0000
# 4 0.0000 0.0000 0.0000 10.4114 0.0000 0.0000
# 5 0.0000 0.0000 0.0000 0.0000 6.7692 0.0000
# 6 0.0000 0.0000 0.0000 0.0000 0.0000 35.6373
#
#
#
# Elastic Compliance Matrix: (Units=1/GPa)
#
#
# Indices 1 2 3 4 5 6 
#
# 1 0.017179 -0.003863 -0.008965 0.000000 0.000000 0.000000
# 2 -0.003863 0.009072 0.000194 0.000000 0.000000 0.000000
# 3 -0.008965 0.000194 0.037057 0.000000 0.000000 0.000000
# 4 0.000000 0.000000 0.000000 0.096049 0.000000 0.000000
# 5 0.000000 0.000000 0.000000 0.000000 0.147728 0.000000
# 6 0.000000 0.000000 0.000000 0.000000 0.000000 0.028060
#
#
# Mechanical properties :
#
#
# Convention : Reuss Voigt Hill
#
# Bulk Modulus (GPa) = 26.28723 37.97026 32.12875
# Shear Modulus (GPa) = 13.40150 22.10389 17.75269
#
# Velocity S-wave (km/s) = 2.78527 3.57705 3.20570
# Velocity P-wave (km/s) = 5.05575 6.24823 5.68335
#
# Compressibility (1/GPa) = 0.03804128
#
# Stress axis : x y z
#
# Youngs Moduli (GPa) = 58.21100 110.22535 26.98529
#
# Poissons Ratio (x) = 0.42580 0.24192
# Poissons Ratio (y) = 0.22487 -0.00524
# Poissons Ratio (z) = 0.52185 -0.02141
#
# Static dielectric constant tensor:
#      x y z
#    x 1.600300 0.000000 0.000000 
#    y 0.000000 1.611030 0.000000 
#    z 0.000000 0.000000 1.588520 
# 
# From -- ./inp_files/29046.got.cif
#   From: 2010.05.17/outbox.cif.g08.bks.cpg/sg58_15_cif.got.tgz:29046.got - 2010.06.03 14:20:14.
