data_PCOD9440393
_publ_section_title
;
Structure prediction by ZEFSAII (Michael W. Deem and Ramdas Pophale) SiO2 
 PCOD9440393
Probable space group: P B C M
;
_chemical_formula_sum "Si O2"
_cell_formula_units_Z 64
_cell_length_a 15.000000
_cell_length_b 24.000000
_cell_length_c 9.000000
_cell_angle_alpha 90.000000
_cell_angle_beta 90.000000
_cell_angle_gamma 90.000000
_cell_volume 3240.000000
_symmetry_space_group_name_H-M "P B C M"
_symmetry_group_IT_number 57
_symmetry_cell_setting 'orthorhombic'
loop_
_space_group_symop_operation_xyz
x,y,z
-x,-y,1/2+z
x,1/2-y,-z
-x,1/2+y,1/2-z
-x,-y,-z
x,y,1/2-z
-x,1/2+y,z
x,1/2-y,1/2+z
loop_
_atom_site_type_symbol
_atom_site_label
_atom_site_fract_x
_atom_site_fract_y
_atom_site_fract_z
Si Si1 0.750928 0.308627 0.927273
Si Si2 0.082367 0.860987 0.423696
Si Si3 0.338512 0.006176 0.571064
Si Si4 0.552883 0.806856 0.573036
Si Si5 0.850143 0.012839 0.923860
Si Si6 0.900140 0.902779 0.427193
Si Si7 0.595180 0.392822 0.930544
Si Si8 0.696421 0.871629 0.072884
O O1 0.746792 0.303765 0.750000
O O2 0.683516 0.358150 0.973721
O O3 0.724996 0.250000 0.000000
O O4 0.849405 0.325550 0.980262
O O5 0.092895 0.845507 0.250000
O O6 0.107007 0.926479 0.437961
O O7 0.978628 0.860143 0.466412
O O8 0.340638 0.007561 0.750000
O O9 0.240100 0.988403 0.519210
O O10 0.401836 0.956567 0.516246
O O11 0.348125 0.069766 0.521339
O O12 0.521690 0.750000 0.500000
O O13 0.550054 0.802724 0.750000
O O14 0.488044 0.856338 0.521366
O O15 0.650533 0.822330 0.515262
O O16 0.830212 0.003628 0.750000
O O17 0.906655 0.960863 0.984923
O O18 0.908278 0.914615 0.250000
O O19 0.801603 0.878792 0.453160
O O20 0.594160 0.394507 0.750000
O O21 0.682569 0.864891 0.250000
#
# Coordination Sequence:
#
# PCOD9440393 Si02
#       8
#     8   8   8   8   8   8   8   8
#     4  11  22  37  57  79 110 149 188 230 278 334
#     4  10  20  34  52  79 111 145 187 229 271 322
#     4   9  17  34  57  81 115 153 185 215 272 344
#     4  11  23  40  61  83 109 141 185 235 280 332
#     4  10  18  28  48  82 117 144 181 228 268 316
#     4   9  19  35  55  77 110 151 185 222 272 330
#     4   9  19  36  59  85 111 145 183 222 274 337
#     4   9  19  36  58  83 112 147 185 227 275 330
#
# _framework density 19.753086
#
# number of rings (size 3 to 8) (size 9 to 14) (size 15 to 20)
#    0.000    2.250    1.250    2.625    0.000    3.500 
#    0.000    3.750    0.000    0.000    0.000    0.000 
#    0.000    0.000    0.000    0.000    0.000    0.000 
#
# Total GULP energy -357049.168089 kJ/mol
# GULP energy per Si atom -5578.893251 kJ/mol
# Density = 1.970813 g / cm^3
# Si number density = 19.753086 Si / 1000 Ang^3
#
#
#
# Elastic Constant Matrix: (Units=GPa)
#
#
# Indices 1 2 3 4 5 6 
#
# 1 59.1978 33.2026 9.3985 0.0000 0.0000 0.0000
# 2 33.2026 39.2947 10.3534 0.0000 0.0000 0.0000
# 3 9.3985 10.3534 11.1870 0.0000 0.0000 0.0000
# 4 0.0000 0.0000 0.0000 29.4320 0.0000 0.0000
# 5 0.0000 0.0000 0.0000 0.0000 11.6667 0.0000
# 6 0.0000 0.0000 0.0000 0.0000 0.0000 16.8174
#
#
#
# Elastic Compliance Matrix: (Units=1/GPa)
#
#
# Indices 1 2 3 4 5 6 
#
# 1 0.032162 -0.026524 -0.002472 0.000000 0.000000 0.000000
# 2 -0.026524 0.055530 -0.029109 0.000000 0.000000 0.000000
# 3 -0.002472 -0.029109 0.118407 0.000000 0.000000 0.000000
# 4 0.000000 0.000000 0.000000 0.033977 0.000000 0.000000
# 5 0.000000 0.000000 0.000000 0.000000 0.085714 0.000000
# 6 0.000000 0.000000 0.000000 0.000000 0.000000 0.059462
#
#
# Mechanical properties :
#
#
# Convention : Reuss Voigt Hill
#
# Bulk Modulus (GPa) = 11.12493 23.95427 17.53960
# Shear Modulus (GPa) = 9.40865 15.36488 12.38677
#
# Velocity S-wave (km/s) = 2.18483 2.79202 2.50687
# Velocity P-wave (km/s) = 3.46538 4.74837 4.15667
#
# Compressibility (1/GPa) = 0.08988822
#
# Stress axis : x y z
#
# Youngs Moduli (GPa) = 31.09279 18.00814 8.44544
#
# Poissons Ratio (x) = 0.47765 0.02088
# Poissons Ratio (y) = 0.82471 0.24584
# Poissons Ratio (z) = 0.07686 0.52420
#
# Static dielectric constant tensor:
#      x y z
#    x 1.731160 0.000000 0.000000 
#    y 0.000000 1.697900 0.000000 
#    z 0.000000 0.000000 1.654200 
# 
# From -- ./inp_files/5547.got.cif
#   From: 2010.05.17/outbox.ucp.g08.bks.cvg/sg57_3_cif.got.tgz:5547.got - 2010.06.11 16:39:23.
