data_PCOD9440885
_publ_section_title
;
Structure prediction by ZEFSAII (Michael W. Deem and Ramdas Pophale) SiO2 
 PCOD9440885
Probable space group: P N N M
;
_chemical_formula_sum "Si O2"
_cell_formula_units_Z 48
_cell_length_a 24.003582
_cell_length_b 6.845531
_cell_length_c 10.916231
_cell_angle_alpha 90.000000
_cell_angle_beta 90.000000
_cell_angle_gamma 90.000000
_cell_volume 1793.725219
_symmetry_space_group_name_H-M "P N N M"
_symmetry_group_IT_number 58
_symmetry_cell_setting 'orthorhombic'
loop_
_space_group_symop_operation_xyz
x,y,z
-x,-y,z
1/2+x,1/2-y,1/2-z
1/2-x,1/2+y,1/2-z
-x,-y,-z
x,y,-z
1/2-x,1/2+y,1/2+z
1/2+x,1/2-y,1/2+z
loop_
_atom_site_type_symbol
_atom_site_label
_atom_site_fract_x
_atom_site_fract_y
_atom_site_fract_z
Si Si1 0.707534 0.943769 0.000000
Si Si2 0.494342 0.235862 0.637607
Si Si3 0.847449 0.038068 0.500000
Si Si4 0.118749 0.928889 0.234422
Si Si5 0.782703 0.428879 0.000000
Si Si6 0.325340 0.529706 0.500000
Si Si7 0.947332 0.650401 0.641882
Si Si8 0.666545 0.978208 0.755001
O O1 0.702210 0.051023 0.870503
O O2 0.660184 0.775585 0.000000
O O3 0.768163 0.854808 0.000000
O O4 0.508868 0.300496 0.500000
O O5 0.433729 0.312268 0.676646
O O6 0.532883 0.299933 0.751733
O O7 0.500000 0.000000 0.630722
O O8 0.879907 0.987804 0.373236
O O9 0.784690 0.951290 0.500000
O O10 0.140523 0.062707 0.124256
O O11 0.164767 0.757334 0.253016
O O12 0.809439 0.520990 0.877353
O O13 0.804997 0.200675 0.000000
O O14 0.937677 0.700837 0.500000
O O15 0.894450 0.549332 0.704696
O O16 0.000000 0.500000 0.633532
#
# Coordination Sequence:
#
# PCOD9440885 Si02
#       8
#     4   8   4   8   4   4   8   8
#     4  10  20  34  52  68  98 138 176 214 256 302
#     4  10  18  25  42  68 103 134 159 193 261 327
#     4  10  22  34  50  72 102 136 176 218 254 296
#     4  10  18  30  46  70 100 138 161 207 258 309
#     4  10  22  34  50  72 102 136 176 218 254 296
#     4  10  20  34  52  68  98 138 176 214 256 302
#     4  10  18  25  42  68 103 134 159 193 261 327
#     4  10  18  30  46  70 100 138 161 207 258 309
#
# _framework density 26.759951999999998
#
# number of rings (size 3 to 8) (size 9 to 14) (size 15 to 20)
#    0.000    2.000    5.000    1.000    2.333    0.000 
#    0.000    0.000    0.000    0.000    0.000    0.000 
#    0.000    8.000    0.000    0.000    0.000    0.000 
#
# Total GULP energy -268157.664970 kJ/mol
# GULP energy per Si atom -5586.618020 kJ/mol
# Density = 2.669905 g / cm^3
# Si number density = 26.759952 Si / 1000 Ang^3
#
#
#
# Elastic Constant Matrix: (Units=GPa)
#
#
# Indices 1 2 3 4 5 6 
#
# 1 111.1866 4.8253 96.3814 0.0000 0.0000 0.0000
# 2 4.8253 98.4742 26.2099 0.0000 0.0000 0.0000
# 3 96.3814 26.2099 352.0054 0.0000 0.0000 0.0000
# 4 0.0000 0.0000 0.0000 16.6939 0.0000 0.0000
# 5 0.0000 0.0000 0.0000 0.0000 45.6008 0.0000
# 6 0.0000 0.0000 0.0000 0.0000 0.0000 29.6198
#
#
#
# Elastic Compliance Matrix: (Units=1/GPa)
#
#
# Indices 1 2 3 4 5 6 
#
# 1 0.011801 0.000287 -0.003253 0.000000 0.000000 0.000000
# 2 0.000287 0.010367 -0.000851 0.000000 0.000000 0.000000
# 3 -0.003253 -0.000851 0.003795 0.000000 0.000000 0.000000
# 4 0.000000 0.000000 0.000000 0.059902 0.000000 0.000000
# 5 0.000000 0.000000 0.000000 0.000000 0.021929 0.000000
# 6 0.000000 0.000000 0.000000 0.000000 0.000000 0.033761
#
#
# Mechanical properties :
#
#
# Convention : Reuss Voigt Hill
#
# Bulk Modulus (GPa) = 54.55116 90.72215 72.63666
# Shear Modulus (GPa) = 32.19626 47.33288 39.76457
#
# Velocity S-wave (km/s) = 3.47241 4.21027 3.85901
# Velocity P-wave (km/s) = 6.04206 7.59019 6.85993
#
# Compressibility (1/GPa) = 0.01833142
#
# Stress axis : x y z
#
# Youngs Moduli (GPa) = 84.73946 96.45741 263.52022
#
# Poissons Ratio (x) = -0.02773 0.85712
# Poissons Ratio (y) = -0.02436 0.22416
# Poissons Ratio (z) = 0.27562 0.08205
#
# Static dielectric constant tensor:
#      x y z
#    x 2.188500 0.000000 0.000000 
#    y 0.000000 2.171720 0.000000 
#    z 0.000000 0.000000 2.120110 
# 
# From -- ./inp_files/17014.got.cif
#   From: 2010.05.17/outbox.cif.g08.bks.cpg/sg58_9_cif.got.tgz:17014.got - 2010.06.03 14:20:14.
