data_PCOD9440924
_publ_section_title
;
Structure prediction by ZEFSAII (Michael W. Deem and Ramdas Pophale) SiO2 
 PCOD9440924
Probable space group: P N N M
;
_chemical_formula_sum "Si O2"
_cell_formula_units_Z 56
_cell_length_a 22.196723
_cell_length_b 18.152570
_cell_length_c 9.342218
_cell_angle_alpha 90.000000
_cell_angle_beta 90.000000
_cell_angle_gamma 90.000000
_cell_volume 3764.237179
_symmetry_space_group_name_H-M "P N N M"
_symmetry_group_IT_number 58
_symmetry_cell_setting 'orthorhombic'
loop_
_space_group_symop_operation_xyz
x,y,z
-x,-y,z
1/2+x,1/2-y,1/2-z
1/2-x,1/2+y,1/2-z
-x,-y,-z
x,y,-z
1/2-x,1/2+y,1/2+z
1/2+x,1/2-y,1/2+z
loop_
_atom_site_type_symbol
_atom_site_label
_atom_site_fract_x
_atom_site_fract_y
_atom_site_fract_z
Si Si1 0.323099 0.733042 0.836227
Si Si2 0.679852 0.728374 0.664911
Si Si3 0.280212 0.578763 0.171930
Si Si4 0.209907 0.912365 0.668680
Si Si5 0.658736 0.872435 0.829572
Si Si6 0.850943 0.626029 0.831150
Si Si7 0.569718 0.006054 0.829539
O O1 0.251426 0.751654 0.833382
O O2 0.324667 0.646897 0.796006
O O3 0.354147 0.792099 0.734489
O O4 0.343733 0.742511 0.000000
O O5 0.660413 0.728086 0.500000
O O6 0.676088 0.648709 0.738238
O O7 0.649325 0.793430 0.755305
O O8 0.304194 0.497231 0.202907
O O9 0.218770 0.592918 0.258444
O O10 0.267164 0.582267 0.000000
O O11 0.198897 0.899201 0.500000
O O12 0.281940 0.901639 0.691777
O O13 0.604718 0.929455 0.804220
O O14 0.667520 0.863620 0.000000
O O15 0.895578 0.570306 0.753054
O O16 0.861813 0.626872 0.000000
O O17 0.500000 0.000000 0.788027
O O18 0.572816 0.021036 0.000000
#
# Coordination Sequence:
#
# PCOD9440924 Si02
#       7
#     8   8   8   8   8   8   8
#     4   8  15  26  40  57  81 112 141 167 204 252
#     4   9  17  27  40  58  82 111 142 172 208 253
#     4   9  16  27  42  62  87 114 141 172 208 249
#     4   9  16  26  41  62  88 113 141 173 207 249
#     4  10  18  28  43  59  79 109 144 179 216 252
#     4  10  18  28  43  60  82 110 142 180 216 247
#     4  10  21  34  46  61  82 111 148 185 219 257
#
# _framework density 14.876853000000001
#
# number of rings (size 3 to 8) (size 9 to 14) (size 15 to 20)
#    0.000    2.714    1.429    2.143    0.000    5.429 
#    0.000    0.000    0.000    0.000    0.000    0.000 
#    0.000    1.143    0.000   13.143    0.000    5.143 
#
# Total GULP energy -311910.065048 kJ/mol
# GULP energy per Si atom -5569.822590 kJ/mol
# Density = 1.484299 g / cm^3
# Si number density = 14.876853 Si / 1000 Ang^3
#
#
#
# Elastic Constant Matrix: (Units=GPa)
#
#
# Indices 1 2 3 4 5 6 
#
# 1 38.1693 35.6625 37.4820 0.0000 0.0000 0.0000
# 2 35.6625 161.3103 77.2207 0.0000 0.0000 0.0000
# 3 37.4820 77.2207 74.0378 0.0000 0.0000 0.0000
# 4 0.0000 0.0000 0.0000 27.3759 0.0000 0.0000
# 5 0.0000 0.0000 0.0000 0.0000 12.2466 0.0000
# 6 0.0000 0.0000 0.0000 0.0000 0.0000 9.7899
#
#
#
# Elastic Compliance Matrix: (Units=1/GPa)
#
#
# Indices 1 2 3 4 5 6 
#
# 1 0.052499 0.002230 -0.028904 0.000000 0.000000 0.000000
# 2 0.002230 0.012476 -0.014141 0.000000 0.000000 0.000000
# 3 -0.028904 -0.014141 0.042888 0.000000 0.000000 0.000000
# 4 0.000000 0.000000 0.000000 0.036528 0.000000 0.000000
# 5 0.000000 0.000000 0.000000 0.000000 0.081655 0.000000
# 6 0.000000 0.000000 0.000000 0.000000 0.000000 0.102146
#
#
# Mechanical properties :
#
#
# Convention : Reuss Voigt Hill
#
# Bulk Modulus (GPa) = 38.11946 63.80532 50.96239
# Shear Modulus (GPa) = 11.94555 18.09262 15.01909
#
# Velocity S-wave (km/s) = 2.83673 3.49113 3.18081
# Velocity P-wave (km/s) = 6.03393 7.69628 6.91524
#
# Compressibility (1/GPa) = 0.02623332
#
# Stress axis : x y z
#
# Youngs Moduli (GPa) = 19.04811 80.15656 23.31653
#
# Poissons Ratio (x) = -0.17875 0.67393
# Poissons Ratio (y) = -0.04248 0.32972
# Poissons Ratio (z) = 0.55056 1.13348
#
# Static dielectric constant tensor:
#      x y z
#    x 1.450920 0.000000 0.000000 
#    y 0.000000 1.516430 0.000000 
#    z 0.000000 0.000000 1.496880 
# 
# From -- ./inp_files/8150.got.cif
#   From: 2010.05.17/outbox.cif.g08.bks.cpg/sg58_5_cif.got.tgz:8150.got - 2010.06.03 14:20:14.
