data_PCOD9440643
_publ_section_title
;
Structure prediction by ZEFSAII (Michael W. Deem and Ramdas Pophale) SiO2 
 PCOD9440643
Probable space group: P B C M
;
_chemical_formula_sum "Si O2"
_cell_formula_units_Z 56
_cell_length_a 6.000000
_cell_length_b 30.000000
_cell_length_c 15.000000
_cell_angle_alpha 90.000000
_cell_angle_beta 90.000000
_cell_angle_gamma 90.000000
_cell_volume 2700.000000
_symmetry_space_group_name_H-M "P B C M"
_symmetry_group_IT_number 57
_symmetry_cell_setting 'orthorhombic'
loop_
_space_group_symop_operation_xyz
x,y,z
-x,-y,1/2+z
x,1/2-y,-z
-x,1/2+y,1/2-z
-x,-y,-z
x,y,1/2-z
-x,1/2+y,z
x,1/2-y,1/2+z
loop_
_atom_site_type_symbol
_atom_site_label
_atom_site_fract_x
_atom_site_fract_y
_atom_site_fract_z
Si Si1 0.414655 0.505269 0.644264
Si Si2 0.032755 0.617381 0.006887
Si Si3 0.916245 0.953789 0.140226
Si Si4 0.636444 0.414440 0.647974
Si Si5 0.192391 0.708606 0.567966
Si Si6 0.297865 0.336815 0.647105
Si Si7 0.311730 0.231344 0.855855
O O1 0.412490 0.513006 0.750000
O O2 0.159363 0.521139 0.617844
O O3 0.452229 0.452475 0.628091
O O4 0.665035 0.525634 0.617302
O O5 0.177925 0.585664 0.071861
O O6 0.853555 0.639938 0.072886
O O7 0.937283 0.590240 0.922136
O O8 0.179338 0.658977 0.972044
O O9 0.916801 0.947746 0.250000
O O10 0.719316 0.423372 0.750000
O O11 0.524037 0.365650 0.648185
O O12 0.195218 0.750000 0.500000
O O13 0.442948 0.712303 0.613212
O O14 0.937941 0.714460 0.612167
O O15 0.208150 0.339555 0.750000
O O16 0.322545 0.284678 0.624414
O O17 0.308633 0.225494 0.750000
#
# Coordination Sequence:
#
# PCOD9440643 Si02
#       7
#     8   8   8   8   8   8   8
#     4   9  21  44  68  94 134 180 224 279 335 397
#     4  12  26  40  70  98 138 176 225 282 343 401
#     4  10  24  44  66  95 136 183 227 276 331 396
#     4  10  23  42  69 100 134 174 223 279 347 410
#     4  12  25  44  69  98 138 174 226 278 347 408
#     4  10  23  43  67 100 134 172 223 283 345 405
#     4  11  25  46  70  96 132 180 230 283 340 410
#
# _framework density 20.740741
#
# number of rings (size 3 to 8) (size 9 to 14) (size 15 to 20)
#    0.000    1.429    1.429    2.143    6.000    2.286 
#    0.000    1.429    0.000    0.000    0.000    0.000 
#    0.000    0.000    0.000    0.000    0.000    0.000 
#
# Total GULP energy -311963.726328 kJ/mol
# GULP energy per Si atom -5570.780827 kJ/mol
# Density = 2.069353 g / cm^3
# Si number density = 20.740741 Si / 1000 Ang^3
#
#
#
# Elastic Constant Matrix: (Units=GPa)
#
#
# Indices 1 2 3 4 5 6 
#
# 1 141.1429 18.0899 33.6473 0.0000 0.0000 0.0000
# 2 18.0899 71.7608 19.2387 0.0000 0.0000 0.0000
# 3 33.6473 19.2387 69.9586 0.0000 0.0000 0.0000
# 4 0.0000 0.0000 0.0000 27.6946 0.0000 0.0000
# 5 0.0000 0.0000 0.0000 0.0000 35.1248 0.0000
# 6 0.0000 0.0000 0.0000 0.0000 0.0000 41.2129
#
#
#
# Elastic Compliance Matrix: (Units=1/GPa)
#
#
# Indices 1 2 3 4 5 6 
#
# 1 0.008079 -0.001074 -0.003590 0.000000 0.000000 0.000000
# 2 -0.001074 0.015187 -0.003660 0.000000 0.000000 0.000000
# 3 -0.003590 -0.003660 0.017027 0.000000 0.000000 0.000000
# 4 0.000000 0.000000 0.000000 0.036108 0.000000 0.000000
# 5 0.000000 0.000000 0.000000 0.000000 0.028470 0.000000
# 6 0.000000 0.000000 0.000000 0.000000 0.000000 0.024264
#
#
# Mechanical properties :
#
#
# Convention : Reuss Voigt Hill
#
# Bulk Modulus (GPa) = 42.29233 47.20157 44.74695
# Shear Modulus (GPa) = 32.53831 34.93223 33.73527
#
# Velocity S-wave (km/s) = 3.96512 4.10839 4.03739
# Velocity P-wave (km/s) = 6.43414 6.73145 6.58447
#
# Compressibility (1/GPa) = 0.02364495
#
# Stress axis : x y z
#
# Youngs Moduli (GPa) = 123.78502 65.84520 58.72900
#
# Poissons Ratio (x) = 0.07072 0.21084
# Poissons Ratio (y) = 0.13294 0.21494
# Poissons Ratio (z) = 0.44440 0.24099
#
# Static dielectric constant tensor:
#      x y z
#    x 1.791980 0.000000 0.000000 
#    y 0.000000 1.746970 0.000000 
#    z 0.000000 0.000000 1.775290 
# 
# From -- ./inp_files/15239.got.cif
#   From: 2010.05.17/outbox.ucp.g08.bks.cvg/sg57_8_cif.got.tgz:15239.got - 2010.06.11 16:39:23.
