data_PCOD9440167
_publ_section_title
;
Structure prediction by ZEFSAII (Michael W. Deem and Ramdas Pophale) SiO2 
 PCOD9440167
Probable space group: P B C M
;
_chemical_formula_sum "Si O2"
_cell_formula_units_Z 40
_cell_length_a 12.415876
_cell_length_b 18.103165
_cell_length_c 8.594157
_cell_angle_alpha 90.000000
_cell_angle_beta 90.000000
_cell_angle_gamma 90.000000
_cell_volume 1931.679894
_symmetry_space_group_name_H-M "P B C M"
_symmetry_group_IT_number 57
_symmetry_cell_setting 'orthorhombic'
loop_
_space_group_symop_operation_xyz
x,y,z
-x,-y,1/2+z
x,1/2-y,-z
-x,1/2+y,1/2-z
-x,-y,-z
x,y,1/2-z
-x,1/2+y,z
x,1/2-y,1/2+z
loop_
_atom_site_type_symbol
_atom_site_label
_atom_site_fract_x
_atom_site_fract_y
_atom_site_fract_z
Si Si1 0.336742 0.831907 0.565805
Si Si2 0.549222 0.923991 0.566293
Si Si3 0.018070 0.329755 0.566581
Si Si4 0.843366 0.438928 0.066714
Si Si5 0.215575 0.403791 0.067466
O O1 0.325112 0.750000 0.500000
O O2 0.310478 0.833980 0.750000
O O3 0.457953 0.861883 0.546603
O O4 0.257613 0.887039 0.475801
O O5 0.570378 0.933754 0.750000
O O6 0.659989 0.903906 0.482209
O O7 0.500000 0.000000 0.500000
O O8 0.986675 0.250000 0.500000
O O9 0.999358 0.331892 0.750000
O O10 0.142067 0.346642 0.526737
O O11 0.947596 0.393091 0.485081
O O12 0.846727 0.454929 0.250000
O O13 0.828764 0.514742 0.973928
O O14 0.204470 0.389378 0.250000
#
# Coordination Sequence:
#
# PCOD9440167 Si02
#       5
#     8   8   8   8   8
#     4  11  24  41  64  96 132 171 217 268 326 389
#     4  11  23  41  66  95 130 172 219 267 323 385
#     4  12  26  46  68  95 132 172 218 269 330 392
#     4  12  24  42  68  97 131 171 218 270 328 388
#     4  12  25  43  68  98 132 172 221 270 326 390
#
# _framework density 20.707364999999999
#
# number of rings (size 3 to 8) (size 9 to 14) (size 15 to 20)
#    0.000    0.400    2.000    7.800    0.000    3.200 
#    0.000    2.000    0.000    0.000    0.000    0.000 
#    0.000    0.000    0.000    0.000    0.000    0.000 
#
# Total GULP energy -224113.532653 kJ/mol
# GULP energy per Si atom -5602.838316 kJ/mol
# Density = 2.066023 g / cm^3
# Si number density = 20.707365 Si / 1000 Ang^3
#
#
#
# Elastic Constant Matrix: (Units=GPa)
#
#
# Indices 1 2 3 4 5 6 
#
# 1 80.8440 -11.4975 5.8776 0.0000 0.0000 0.0000
# 2 -11.4975 43.6376 -7.5212 0.0000 0.0000 0.0000
# 3 5.8776 -7.5212 63.9283 0.0000 0.0000 0.0000
# 4 0.0000 0.0000 0.0000 36.3767 0.0000 0.0000
# 5 0.0000 0.0000 0.0000 0.0000 59.1935 0.0000
# 6 0.0000 0.0000 0.0000 0.0000 0.0000 46.3168
#
#
#
# Elastic Compliance Matrix: (Units=1/GPa)
#
#
# Indices 1 2 3 4 5 6 
#
# 1 0.012891 0.003258 -0.000802 0.000000 0.000000 0.000000
# 2 0.003258 0.024214 0.002549 0.000000 0.000000 0.000000
# 3 -0.000802 0.002549 0.016016 0.000000 0.000000 0.000000
# 4 0.000000 0.000000 0.000000 0.027490 0.000000 0.000000
# 5 0.000000 0.000000 0.000000 0.000000 0.016894 0.000000
# 6 0.000000 0.000000 0.000000 0.000000 0.000000 0.021590
#
#
# Mechanical properties :
#
#
# Convention : Reuss Voigt Hill
#
# Bulk Modulus (GPa) = 15.83971 18.01421 16.92696
# Shear Modulus (GPa) = 38.42357 41.81413 40.11885
#
# Velocity S-wave (km/s) = 4.31228 4.49852 4.40639
# Velocity P-wave (km/s) = 5.69739 5.97500 5.83785
#
# Compressibility (1/GPa) = 0.06313245
#
# Stress axis : x y z
#
# Youngs Moduli (GPa) = 77.57233 41.29865 62.43696
#
# Poissons Ratio (x) = -0.13456 0.05007
# Poissons Ratio (y) = -0.25275 -0.15916
# Poissons Ratio (z) = 0.06220 -0.10528
#
# Static dielectric constant tensor:
#      x y z
#    x 1.747590 0.000000 0.000000 
#    y 0.000000 1.702040 0.000000 
#    z 0.000000 0.000000 1.687230 
# 
# From -- ./inp_files/2666.got.cif
#   From: 2010.05.17/outbox.cif.g08.bks.cpg/sg57_2_cif.got.tgz:2666.got - 2010.06.03 13:58:18.
