data_PCOD9440846
_publ_section_title
;
Structure prediction by ZEFSAII (Michael W. Deem and Ramdas Pophale) SiO2 
 PCOD9440846
Probable space group: P N N M
;
_chemical_formula_sum "Si O2"
_cell_formula_units_Z 48
_cell_length_a 19.609061
_cell_length_b 7.317991
_cell_length_c 14.081173
_cell_angle_alpha 90.000000
_cell_angle_beta 90.000000
_cell_angle_gamma 90.000000
_cell_volume 2020.633286
_symmetry_space_group_name_H-M "P N N M"
_symmetry_group_IT_number 58
_symmetry_cell_setting 'orthorhombic'
loop_
_space_group_symop_operation_xyz
x,y,z
-x,-y,z
1/2+x,1/2-y,1/2-z
1/2-x,1/2+y,1/2-z
-x,-y,-z
x,y,-z
1/2-x,1/2+y,1/2+z
1/2+x,1/2-y,1/2+z
loop_
_atom_site_type_symbol
_atom_site_label
_atom_site_fract_x
_atom_site_fract_y
_atom_site_fract_z
Si Si1 0.898318 0.282766 0.772193
Si Si2 0.206653 0.611729 0.392559
Si Si3 0.498951 0.719411 0.898910
Si Si4 0.658981 0.283961 0.898580
Si Si5 0.017112 0.220777 0.109806
Si Si6 0.346559 0.608177 0.307701
O O1 0.838475 0.357096 0.703050
O O2 0.955570 0.260947 0.690142
O O3 0.951664 0.338382 0.855661
O O4 0.866014 0.102760 0.820662
O O5 0.185699 0.675384 0.500000
O O6 0.205507 0.392594 0.399480
O O7 0.283168 0.673329 0.369412
O O8 0.500000 0.500000 0.902696
O O9 0.420410 0.777927 0.891802
O O10 0.525912 0.789872 0.000000
O O11 0.672485 0.391346 0.803537
O O12 0.665008 0.382792 0.000000
O O13 0.086826 0.231128 0.171164
O O14 0.031826 0.254721 0.000000
O O15 0.000000 0.000000 0.119004
#
# Coordination Sequence:
#
# PCOD9440846 Si02
#       6
#     8   8   8   8   8   8
#     4  11  20  36  60  88 114 151 203 247 292 353
#     4  11  25  39  55  86 126 162 191 242 313 368
#     4  10  17  31  57  86 112 144 194 248 286 335
#     4  10  21  37  58  87 120 154 197 245 297 352
#     4   9  18  34  61  89 109 143 199 253 291 336
#     4  11  20  39  61  85 117 156 202 248 294 359
#
# _framework density 23.754929000000001
#
# number of rings (size 3 to 8) (size 9 to 14) (size 15 to 20)
#    0.000    1.667    3.333    2.500    0.000    2.000 
#    0.000    3.333    0.000    3.000    0.000    0.000 
#    0.000    0.000    0.000    0.000    0.000    0.000 
#
# Total GULP energy -267341.821696 kJ/mol
# GULP energy per Si atom -5569.621285 kJ/mol
# Density = 2.370086 g / cm^3
# Si number density = 23.754929 Si / 1000 Ang^3
#
#
#
# Elastic Constant Matrix: (Units=GPa)
#
#
# Indices 1 2 3 4 5 6 
#
# 1 99.1097 10.0326 38.3665 0.0000 0.0000 0.0000
# 2 10.0326 27.6857 -6.1004 0.0000 0.0000 0.0000
# 3 38.3665 -6.1004 117.8202 0.0000 0.0000 0.0000
# 4 0.0000 0.0000 0.0000 19.5959 0.0000 0.0000
# 5 0.0000 0.0000 0.0000 0.0000 39.9699 0.0000
# 6 0.0000 0.0000 0.0000 0.0000 0.0000 25.5589
#
#
#
# Elastic Compliance Matrix: (Units=1/GPa)
#
#
# Indices 1 2 3 4 5 6 
#
# 1 0.012294 -0.005399 -0.004283 0.000000 0.000000 0.000000
# 2 -0.005399 0.038907 0.003773 0.000000 0.000000 0.000000
# 3 -0.004283 0.003773 0.010078 0.000000 0.000000 0.000000
# 4 0.000000 0.000000 0.000000 0.051031 0.000000 0.000000
# 5 0.000000 0.000000 0.000000 0.000000 0.025019 0.000000
# 6 0.000000 0.000000 0.000000 0.000000 0.000000 0.039125
#
#
# Mechanical properties :
#
#
# Convention : Reuss Voigt Hill
#
# Bulk Modulus (GPa) = 20.21807 36.57923 28.39865
# Shear Modulus (GPa) = 24.41881 30.51273 27.46577
#
# Velocity S-wave (km/s) = 3.20964 3.58785 3.40400
# Velocity P-wave (km/s) = 4.71861 5.70926 5.23741
#
# Compressibility (1/GPa) = 0.04946071
#
# Stress axis : x y z
#
# Youngs Moduli (GPa) = 81.33815 25.70200 99.23046
#
# Poissons Ratio (x) = 0.13876 0.42501
# Poissons Ratio (y) = 0.43914 -0.37436
# Poissons Ratio (z) = 0.34837 -0.09696
#
# Static dielectric constant tensor:
#      x y z
#    x 1.936020 0.000000 0.000000 
#    y 0.000000 1.961220 0.000000 
#    z 0.000000 0.000000 1.950250 
# 
# From -- ./inp_files/19849.got.cif
#   From: 2010.05.17/outbox.cif.g08.bks.cpg/sg58_10_cif.got.tgz:19849.got - 2010.06.03 14:20:14.
