data_PCOD9440379
_publ_section_title
;
Structure prediction by ZEFSAII (Michael W. Deem and Ramdas Pophale) SiO2 
 PCOD9440379
Probable space group: P B C M
;
_chemical_formula_sum "Si O2"
_cell_formula_units_Z 40
_cell_length_a 12.120999
_cell_length_b 8.715158
_cell_length_c 15.397377
_cell_angle_alpha 90.000000
_cell_angle_beta 90.000000
_cell_angle_gamma 90.000000
_cell_volume 1626.523805
_symmetry_space_group_name_H-M "P B C M"
_symmetry_group_IT_number 57
_symmetry_cell_setting 'orthorhombic'
loop_
_space_group_symop_operation_xyz
x,y,z
-x,-y,1/2+z
x,1/2-y,-z
-x,1/2+y,1/2-z
-x,-y,-z
x,y,1/2-z
-x,1/2+y,z
x,1/2-y,1/2+z
loop_
_atom_site_type_symbol
_atom_site_label
_atom_site_fract_x
_atom_site_fract_y
_atom_site_fract_z
Si Si1 0.635275 0.915707 0.600798
Si Si2 0.223510 0.792330 0.151594
Si Si3 0.023793 0.515386 0.643619
Si Si4 0.835190 0.783463 0.145123
Si Si5 0.597050 0.107891 0.436538
O O1 0.696604 0.057923 0.647105
O O2 0.619750 0.967154 0.500634
O O3 0.715173 0.771138 0.613563
O O4 0.507037 0.904211 0.627657
O O5 0.200272 0.748291 0.250000
O O6 0.109975 0.854198 0.112650
O O7 0.290667 0.657774 0.107949
O O8 0.024352 0.517922 0.750000
O O9 0.081386 0.355902 0.620425
O O10 0.901488 0.564800 0.615573
O O11 0.827343 0.788768 0.250000
O O12 0.569089 0.250000 0.500000
#
# Coordination Sequence:
#
# PCOD9440379 Si02
#       5
#     8   8   8   8   8
#     4   9  17  31  49  68  93 131 166 197 244 300
#     4   9  17  30  49  71  95 125 162 203 247 294
#     4   8  15  28  46  69  98 129 159 199 250 293
#     4   9  16  29  50  74 101 133 169 207 249 298
#     4   9  18  32  49  68  96 128 159 199 249 296
#
# _framework density 24.592324000000001
#
# number of rings (size 3 to 8) (size 9 to 14) (size 15 to 20)
#    0.000    3.200    0.000    1.800    0.000    1.600 
#    0.000    7.000    0.000    6.000    0.000    0.000 
#    0.000    0.000    0.000    0.000    0.000    0.000 
#
# Total GULP energy -223331.892937 kJ/mol
# GULP energy per Si atom -5583.297323 kJ/mol
# Density = 2.453635 g / cm^3
# Si number density = 24.592324 Si / 1000 Ang^3
#
#
#
# Elastic Constant Matrix: (Units=GPa)
#
#
# Indices 1 2 3 4 5 6 
#
# 1 136.4150 46.5763 16.2851 0.0000 0.0000 0.0000
# 2 46.5763 29.8125 15.6870 0.0000 0.0000 0.0000
# 3 16.2851 15.6870 21.6794 0.0000 0.0000 0.0000
# 4 0.0000 0.0000 0.0000 18.3648 0.0000 0.0000
# 5 0.0000 0.0000 0.0000 0.0000 32.9053 0.0000
# 6 0.0000 0.0000 0.0000 0.0000 0.0000 50.1305
#
#
#
# Elastic Compliance Matrix: (Units=1/GPa)
#
#
# Indices 1 2 3 4 5 6 
#
# 1 0.017061 -0.032154 0.010450 0.000000 0.000000 0.000000
# 2 -0.032154 0.114763 -0.058888 0.000000 0.000000 0.000000
# 3 0.010450 -0.058888 0.080888 0.000000 0.000000 0.000000
# 4 0.000000 0.000000 0.000000 0.054452 0.000000 0.000000
# 5 0.000000 0.000000 0.000000 0.000000 0.030390 0.000000
# 6 0.000000 0.000000 0.000000 0.000000 0.000000 0.019948
#
#
# Mechanical properties :
#
#
# Convention : Reuss Voigt Hill
#
# Bulk Modulus (GPa) = 19.40677 38.33375 28.87026
# Shear Modulus (GPa) = 10.08345 27.57070 18.82708
#
# Velocity S-wave (km/s) = 2.02710 3.35193 2.76989
# Velocity P-wave (km/s) = 3.65888 5.53192 4.68986
#
# Compressibility (1/GPa) = 0.05152841
#
# Stress axis : x y z
#
# Youngs Moduli (GPa) = 58.61216 8.71361 12.36282
#
# Poissons Ratio (x) = 0.28017 -0.12919
# Poissons Ratio (y) = 1.88459 0.72802
# Poissons Ratio (z) = -0.61249 0.51313
#
# Static dielectric constant tensor:
#      x y z
#    x 2.002370 0.000000 0.000000 
#    y 0.000000 2.008730 0.000000 
#    z 0.000000 0.000000 1.999350 
# 
# From -- ./inp_files/17396.got.cif
#   From: 2010.05.17/outbox.cif.g08.bks.cpg/sg57_9_cif.got.tgz:17396.got - 2010.06.03 13:58:18.
