data_PCOD9440423
_publ_section_title
;
Structure prediction by ZEFSAII (Michael W. Deem and Ramdas Pophale) SiO2 
 PCOD9440423
Probable space group: P B C M
;
_chemical_formula_sum "Si O2"
_cell_formula_units_Z 56
_cell_length_a 15.000000
_cell_length_b 21.000000
_cell_length_c 9.000000
_cell_angle_alpha 90.000000
_cell_angle_beta 90.000000
_cell_angle_gamma 90.000000
_cell_volume 2835.000000
_symmetry_space_group_name_H-M "P B C M"
_symmetry_group_IT_number 57
_symmetry_cell_setting 'orthorhombic'
loop_
_space_group_symop_operation_xyz
x,y,z
-x,-y,1/2+z
x,1/2-y,-z
-x,1/2+y,1/2-z
-x,-y,-z
x,y,1/2-z
-x,1/2+y,z
x,1/2-y,1/2+z
loop_
_atom_site_type_symbol
_atom_site_label
_atom_site_fract_x
_atom_site_fract_y
_atom_site_fract_z
Si Si1 0.071796 0.681266 0.430316
Si Si2 0.220324 0.011006 0.425401
Si Si3 0.447959 0.819815 0.569072
Si Si4 0.930828 0.914060 0.419712
Si Si5 0.368243 0.385146 0.928099
Si Si6 0.221503 0.307787 0.084072
Si Si7 0.258102 0.861207 0.072251
O O1 0.043842 0.750000 0.500000
O O2 0.068373 0.683214 0.250000
O O3 0.172731 0.669613 0.490001
O O4 0.009174 0.623213 0.492144
O O5 0.207991 0.024897 0.250000
O O6 0.125557 0.028645 0.503521
O O7 0.307787 0.053018 0.475217
O O8 0.244478 0.937265 0.443456
O O9 0.468658 0.750000 0.500000
O O10 0.442659 0.816055 0.750000
O O11 0.528908 0.869458 0.529607
O O12 0.352335 0.840837 0.500881
O O13 0.959631 0.929630 0.250000
O O14 0.850414 0.863215 0.410692
O O15 0.367462 0.385330 0.750000
O O16 0.307754 0.328793 0.992823
O O17 0.247664 0.290175 0.250000
O O18 0.177048 0.250000 0.000000
O O19 0.257514 0.845859 0.250000
#
# Coordination Sequence:
#
# PCOD9440423 Si02
#       7
#     8   8   8   8   8   8   8
#     4  12  25  42  64  89 119 155 198 247 299 353
#     4   9  20  40  63  89 121 158 198 240 292 352
#     4  11  23  39  60  87 119 155 198 246 297 351
#     4  10  21  37  59  88 120 154 194 240 292 351
#     4   9  19  36  58  84 116 152 191 238 290 347
#     4  10  19  30  49  79 114 151 189 233 285 343
#     4  11  24  42  63  86 117 157 201 248 296 350
#
# _framework density 19.753086
#
# number of rings (size 3 to 8) (size 9 to 14) (size 15 to 20)
#    0.000    1.714    0.000    4.286    0.000    7.429 
#    0.000    0.000    0.000    0.000    0.000    0.000 
#    0.000    0.000    0.000    0.000    0.000    0.000 
#
# Total GULP energy -312486.307351 kJ/mol
# GULP energy per Si atom -5580.112631 kJ/mol
# Density = 1.970813 g / cm^3
# Si number density = 19.753086 Si / 1000 Ang^3
#
#
#
# Elastic Constant Matrix: (Units=GPa)
#
#
# Indices 1 2 3 4 5 6 
#
# 1 132.7329 15.8757 42.4516 0.0000 0.0000 0.0000
# 2 15.8757 66.1433 25.7488 0.0000 0.0000 0.0000
# 3 42.4516 25.7488 85.8303 0.0000 0.0000 0.0000
# 4 0.0000 0.0000 0.0000 26.4859 0.0000 0.0000
# 5 0.0000 0.0000 0.0000 0.0000 27.5965 0.0000
# 6 0.0000 0.0000 0.0000 0.0000 0.0000 28.7760
#
#
#
# Elastic Compliance Matrix: (Units=1/GPa)
#
#
# Indices 1 2 3 4 5 6 
#
# 1 0.008963 -0.000482 -0.004289 0.000000 0.000000 0.000000
# 2 -0.000482 0.017144 -0.004905 0.000000 0.000000 0.000000
# 3 -0.004289 -0.004905 0.015243 0.000000 0.000000 0.000000
# 4 0.000000 0.000000 0.000000 0.037756 0.000000 0.000000
# 5 0.000000 0.000000 0.000000 0.000000 0.036236 0.000000
# 6 0.000000 0.000000 0.000000 0.000000 0.000000 0.034751
#
#
# Mechanical properties :
#
#
# Convention : Reuss Voigt Hill
#
# Bulk Modulus (GPa) = 45.45468 50.31764 47.88616
# Shear Modulus (GPa) = 28.28411 29.94703 29.11557
#
# Velocity S-wave (km/s) = 3.78813 3.89790 3.84340
# Velocity P-wave (km/s) = 6.49574 6.76659 6.63255
#
# Compressibility (1/GPa) = 0.02199993
#
# Stress axis : x y z
#
# Youngs Moduli (GPa) = 111.56754 58.33046 65.60196
#
# Poissons Ratio (x) = 0.02811 0.28134
# Poissons Ratio (y) = 0.05376 0.32176
# Poissons Ratio (z) = 0.47847 0.28610
#
# Static dielectric constant tensor:
#      x y z
#    x 1.679600 0.000000 0.000000 
#    y 0.000000 1.748990 0.000000 
#    z 0.000000 0.000000 1.700220 
# 
# From -- ./inp_files/5165.got.cif
#   From: 2010.05.17/outbox.ucp.g08.bks.cvg/sg57_3_cif.got.tgz:5165.got - 2010.06.11 16:39:23.
