data_PCOD9440317
_publ_section_title
;
Structure prediction by ZEFSAII (Michael W. Deem and Ramdas Pophale) SiO2 
 PCOD9440317
Probable space group: P B C M
;
_chemical_formula_sum "Si O2"
_cell_formula_units_Z 40
_cell_length_a 5.084829
_cell_length_b 23.578618
_cell_length_c 13.800467
_cell_angle_alpha 90.000000
_cell_angle_beta 90.000000
_cell_angle_gamma 90.000000
_cell_volume 1654.582710
_symmetry_space_group_name_H-M "P B C M"
_symmetry_group_IT_number 57
_symmetry_cell_setting 'orthorhombic'
loop_
_space_group_symop_operation_xyz
x,y,z
-x,-y,1/2+z
x,1/2-y,-z
-x,1/2+y,1/2-z
-x,-y,-z
x,y,1/2-z
-x,1/2+y,z
x,1/2-y,1/2+z
loop_
_atom_site_type_symbol
_atom_site_label
_atom_site_fract_x
_atom_site_fract_y
_atom_site_fract_z
Si Si1 0.300955 0.966701 0.432657
Si Si2 0.555555 0.257033 0.250000
Si Si3 0.024086 0.628747 0.460056
Si Si4 0.451344 0.572841 0.750000
Si Si5 0.471155 0.189199 0.955010
Si Si6 0.008084 0.483537 0.250000
Si Si7 0.054916 0.324773 0.750000
O O1 0.102089 0.932753 0.499868
O O2 0.463414 0.921026 0.366141
O O3 0.148404 0.001829 0.347272
O O4 0.500000 0.000000 0.500000
O O5 0.521234 0.297276 0.157313
O O6 0.831912 0.224158 0.250000
O O7 0.331781 0.208314 0.250000
O O8 0.268348 0.668253 0.490534
O O9 0.978879 0.637220 0.345840
O O10 0.770462 0.650155 0.515821
O O11 0.121824 0.580123 0.750000
O O12 0.682508 0.521431 0.750000
O O13 0.397320 0.250000 0.000000
#
# Coordination Sequence:
#
# PCOD9440317 Si02
#       7
#     8   4   8   4   8   4   4
#     4   9  23  42  68  95 134 172 214 269 316 380
#     4  12  24  40  70  90 130 168 214 262 336 382
#     4  12  25  41  68  97 131 171 220 260 330 383
#     4   8  20  39  63  88 130 162 222 257 315 376
#     4  12  24  44  65  92 129 171 206 271 323 383
#     4   8  20  39  63  88 130 162 222 257 315 376
#     4  12  22  40  64  96 128 166 216 266 320 412
#
# _framework density 24.175277000000001
#
# number of rings (size 3 to 8) (size 9 to 14) (size 15 to 20)
#    1.200    0.000    4.000    1.800    2.800    5.600 
#    0.000    0.000    4.400    0.000    0.000    0.000 
#    0.000    0.000    0.000    0.000    0.000    0.000 
#
# Total GULP energy -222699.196612 kJ/mol
# GULP energy per Si atom -5567.479915 kJ/mol
# Density = 2.412025 g / cm^3
# Si number density = 24.175277 Si / 1000 Ang^3
#
#
#
# Elastic Constant Matrix: (Units=GPa)
#
#
# Indices 1 2 3 4 5 6 
#
# 1 120.1292 14.3509 109.4331 0.0000 0.0000 0.0000
# 2 14.3509 69.3485 26.8534 0.0000 0.0000 0.0000
# 3 109.4331 26.8534 588.3957 0.0000 0.0000 0.0000
# 4 0.0000 0.0000 0.0000 47.2848 0.0000 0.0000
# 5 0.0000 0.0000 0.0000 0.0000 47.3838 0.0000
# 6 0.0000 0.0000 0.0000 0.0000 0.0000 81.4238
#
#
#
# Elastic Compliance Matrix: (Units=1/GPa)
#
#
# Indices 1 2 3 4 5 6 
#
# 1 0.010153 -0.001395 -0.001825 0.000000 0.000000 0.000000
# 2 -0.001395 0.014871 -0.000419 0.000000 0.000000 0.000000
# 3 -0.001825 -0.000419 0.002058 0.000000 0.000000 0.000000
# 4 0.000000 0.000000 0.000000 0.021148 0.000000 0.000000
# 5 0.000000 0.000000 0.000000 0.000000 0.021104 0.000000
# 6 0.000000 0.000000 0.000000 0.000000 0.000000 0.012281
#
#
# Mechanical properties :
#
#
# Convention : Reuss Voigt Hill
#
# Bulk Modulus (GPa) = 50.49225 119.90536 85.19880
# Shear Modulus (GPa) = 52.35875 77.03421 64.69648
#
# Velocity S-wave (km/s) = 4.65886 5.65102 5.17876
# Velocity P-wave (km/s) = 7.06196 9.60649 8.43078
#
# Compressibility (1/GPa) = 0.01980502
#
# Stress axis : x y z
#
# Youngs Moduli (GPa) = 98.49107 67.24554 485.89860
#
# Poissons Ratio (x) = 0.09378 0.88662
# Poissons Ratio (y) = 0.13735 0.20375
# Poissons Ratio (z) = 0.17972 0.02820
#
# Static dielectric constant tensor:
#      x y z
#    x 1.858780 0.000000 0.000000 
#    y 0.000000 2.142260 0.000000 
#    z 0.000000 0.000000 1.919860 
# 
# From -- ./inp_files/15004.got.cif
#   From: 2010.05.17/outbox.cif.g08.bks.cpg/sg57_8_cif.got.tgz:15004.got - 2010.06.03 13:58:18.
