data_PCOD9440094
_publ_section_title
;
Structure prediction by ZEFSAII (Michael W. Deem and Ramdas Pophale) SiO2 
 PCOD9440094
Probable space group: P B C M
;
_chemical_formula_sum "Si O2"
_cell_formula_units_Z 48
_cell_length_a 10.325173
_cell_length_b 10.085539
_cell_length_c 27.094411
_cell_angle_alpha 90.000000
_cell_angle_beta 90.000000
_cell_angle_gamma 90.000000
_cell_volume 2821.474728
_symmetry_space_group_name_H-M "P B C M"
_symmetry_group_IT_number 57
_symmetry_cell_setting 'orthorhombic'
loop_
_space_group_symop_operation_xyz
x,y,z
-x,-y,1/2+z
x,1/2-y,-z
-x,1/2+y,1/2-z
-x,-y,-z
x,y,1/2-z
-x,1/2+y,z
x,1/2-y,1/2+z
loop_
_atom_site_type_symbol
_atom_site_label
_atom_site_fract_x
_atom_site_fract_y
_atom_site_fract_z
Si Si1 0.244083 0.530250 0.596990
Si Si2 0.994355 0.126061 0.964320
Si Si3 0.381316 0.987859 0.193837
Si Si4 0.627832 0.701780 0.692942
Si Si5 0.253315 0.286434 0.410027
Si Si6 0.515881 0.372610 0.465479
O O1 0.268611 0.542752 0.655190
O O2 0.241452 0.373050 0.584762
O O3 0.370663 0.593706 0.572263
O O4 0.118682 0.600339 0.575064
O O5 0.129233 0.149558 0.935960
O O6 0.967543 0.250000 0.000000
O O7 0.000000 0.000000 0.000000
O O8 0.339201 0.967155 0.250000
O O9 0.506825 0.896487 0.185434
O O10 0.415459 0.144000 0.187974
O O11 0.673487 0.684476 0.750000
O O12 0.728500 0.681200 0.648179
O O13 0.383050 0.335323 0.437654
O O14 0.552778 0.250000 0.500000
O O15 0.500000 0.500000 0.500000
#
# Coordination Sequence:
#
# PCOD9440094 Si02
#       6
#     8   8   8   8   8   8
#     4  11  22  39  59  86 114 153 195 235 293 344
#     4  12  24  43  60  80 116 164 198 237 287 341
#     4   9  18  35  59  87 117 146 184 237 294 345
#     4   9  18  35  60  87 116 148 184 235 294 345
#     4  11  22  40  58  85 119 150 191 242 291 340
#     4  12  22  35  56  84 114 148 190 242 285 335
#
# _framework density 17.012381000000001
#
# number of rings (size 3 to 8) (size 9 to 14) (size 15 to 20)
#    0.000    1.333    5.000    2.000    0.000    0.000 
#    3.000    0.833    0.000    0.000    0.000    0.000 
#    0.000    0.000    0.000    0.000    0.000    0.000 
#
# Total GULP energy -267880.746336 kJ/mol
# GULP energy per Si atom -5580.848882 kJ/mol
# Density = 1.697366 g / cm^3
# Si number density = 17.012381 Si / 1000 Ang^3
#
#
#
# Elastic Constant Matrix: (Units=GPa)
#
#
# Indices 1 2 3 4 5 6 
#
# 1 124.4065 43.2579 70.2051 0.0000 0.0000 0.0000
# 2 43.2579 97.5591 64.1609 0.0000 0.0000 0.0000
# 3 70.2051 64.1609 131.7608 0.0000 0.0000 0.0000
# 4 0.0000 0.0000 0.0000 26.9692 0.0000 0.0000
# 5 0.0000 0.0000 0.0000 0.0000 33.6355 0.0000
# 6 0.0000 0.0000 0.0000 0.0000 0.0000 24.1600
#
#
#
# Elastic Compliance Matrix: (Units=1/GPa)
#
#
# Indices 1 2 3 4 5 6 
#
# 1 0.011661 -0.001595 -0.005436 0.000000 0.000000 0.000000
# 2 -0.001595 0.015298 -0.006599 0.000000 0.000000 0.000000
# 3 -0.005436 -0.006599 0.013700 0.000000 0.000000 0.000000
# 4 0.000000 0.000000 0.000000 0.037079 0.000000 0.000000
# 5 0.000000 0.000000 0.000000 0.000000 0.029730 0.000000
# 6 0.000000 0.000000 0.000000 0.000000 0.000000 0.041391
#
#
# Mechanical properties :
#
#
# Convention : Reuss Voigt Hill
#
# Bulk Modulus (GPa) = 74.64648 78.77491 76.71070
# Shear Modulus (GPa) = 27.68780 28.69311 28.19046
#
# Velocity S-wave (km/s) = 4.03862 4.11128 4.07511
# Velocity P-wave (km/s) = 8.10680 8.30312 8.20555
#
# Compressibility (1/GPa) = 0.01339648
#
# Stress axis : x y z
#
# Youngs Moduli (GPa) = 85.75868 65.37014 72.99497
#
# Poissons Ratio (x) = 0.10427 0.39682
# Poissons Ratio (y) = 0.13679 0.48171
# Poissons Ratio (z) = 0.46621 0.43139
#
# Static dielectric constant tensor:
#      x y z
#    x 1.536460 0.000000 0.000000 
#    y 0.000000 1.589460 0.000000 
#    z 0.000000 0.000000 1.616110 
# 
# From -- ./inp_files/29490.got.cif
#   From: 2010.05.17/outbox.cif.g08.bks.cpg/sg57_15_cif.got.tgz:29490.got - 2010.06.03 13:58:18.
