data_PCOD9440308
_publ_section_title
;
Structure prediction by ZEFSAII (Michael W. Deem and Ramdas Pophale) SiO2 
 PCOD9440308
Probable space group: P B C M
;
_chemical_formula_sum "Si O2"
_cell_formula_units_Z 32
_cell_length_a 4.878453
_cell_length_b 10.194170
_cell_length_c 23.314194
_cell_angle_alpha 90.000000
_cell_angle_beta 90.000000
_cell_angle_gamma 90.000000
_cell_volume 1159.456349
_symmetry_space_group_name_H-M "P B C M"
_symmetry_group_IT_number 57
_symmetry_cell_setting 'orthorhombic'
loop_
_space_group_symop_operation_xyz
x,y,z
-x,-y,1/2+z
x,1/2-y,-z
-x,1/2+y,1/2-z
-x,-y,-z
x,y,1/2-z
-x,1/2+y,z
x,1/2-y,1/2+z
loop_
_atom_site_type_symbol
_atom_site_label
_atom_site_fract_x
_atom_site_fract_y
_atom_site_fract_z
Si Si1 0.015920 0.213964 0.250000
Si Si2 0.079371 0.043182 0.435171
Si Si3 0.647142 0.042912 0.750000
Si Si4 0.412955 0.796028 0.564264
Si Si5 0.716209 0.883015 0.151645
O O1 0.096799 0.058889 0.250000
O O2 0.154100 0.274497 0.306561
O O3 0.735067 0.301769 0.250000
O O4 0.906657 0.177000 0.428866
O O5 0.398621 0.074574 0.429805
O O6 0.947775 0.955194 0.385630
O O7 0.000000 0.000000 0.500000
O O8 0.458628 0.023008 0.693996
O O9 0.464848 0.750000 0.500000
O O10 0.515952 0.692375 0.609202
#
# Coordination Sequence:
#
# PCOD9440308 Si02
#       5
#     4   8   4   8   8
#     4  11  28  50  85 110 164 214 282 350 422 505
#     4  12  27  47  77 116 163 214 278 340 423 508
#     4  11  28  54  79 128 158 228 286 358 426 507
#     4  12  27  46  77 116 164 213 274 341 420 500
#     4  11  28  49  78 113 165 216 281 350 422 504
#
# _framework density 27.599143000000002
#
# number of rings (size 3 to 8) (size 9 to 14) (size 15 to 20)
#    0.000    0.500    2.500    3.000   10.500    4.000 
#    0.000    0.000    0.000    0.000    0.000    0.000 
#    0.000    0.000    0.000    0.000    0.000    0.000 
#
# Total GULP energy -179684.864377 kJ/mol
# GULP energy per Si atom -5615.152012 kJ/mol
# Density = 2.753633 g / cm^3
# Si number density = 27.599143 Si / 1000 Ang^3
#
#
#
# Elastic Constant Matrix: (Units=GPa)
#
#
# Indices 1 2 3 4 5 6 
#
# 1 112.0779 24.6379 28.6657 0.0000 0.0000 0.0000
# 2 24.6379 97.7277 50.5485 0.0000 0.0000 0.0000
# 3 28.6657 50.5485 203.3011 0.0000 0.0000 0.0000
# 4 0.0000 0.0000 0.0000 41.0768 0.0000 0.0000
# 5 0.0000 0.0000 0.0000 0.0000 39.2175 0.0000
# 6 0.0000 0.0000 0.0000 0.0000 0.0000 59.4049
#
#
#
# Elastic Compliance Matrix: (Units=1/GPa)
#
#
# Indices 1 2 3 4 5 6 
#
# 1 0.009575 -0.001969 -0.000861 0.000000 0.000000 0.000000
# 2 -0.001969 0.012148 -0.002743 0.000000 0.000000 0.000000
# 3 -0.000861 -0.002743 0.005722 0.000000 0.000000 0.000000
# 4 0.000000 0.000000 0.000000 0.024345 0.000000 0.000000
# 5 0.000000 0.000000 0.000000 0.000000 0.025499 0.000000
# 6 0.000000 0.000000 0.000000 0.000000 0.000000 0.016834
#
#
# Mechanical properties :
#
#
# Convention : Reuss Voigt Hill
#
# Bulk Modulus (GPa) = 61.34769 68.97900 65.16335
# Shear Modulus (GPa) = 45.16714 48.55680 46.86197
#
# Velocity S-wave (km/s) = 4.04981 4.19902 4.12509
# Velocity P-wave (km/s) = 6.64412 6.96825 6.80811
#
# Compressibility (1/GPa) = 0.01630053
#
# Stress axis : x y z
#
# Youngs Moduli (GPa) = 104.43542 82.32129 174.76092
#
# Poissons Ratio (x) = 0.16208 0.15040
# Poissons Ratio (y) = 0.20562 0.47932
# Poissons Ratio (z) = 0.08988 0.22578
#
# Static dielectric constant tensor:
#      x y z
#    x 2.095050 0.000000 0.000000 
#    y 0.000000 2.249040 0.000000 
#    z 0.000000 0.000000 2.067870 
# 
# From -- ./inp_files/26001.got.cif
#   From: 2010.05.17/outbox.cif.g08.bks.cpg/sg57_14_cif.got.tgz:26001.got - 2010.06.03 13:58:18.
