data_PCOD9440700
_publ_section_title
;
Structure prediction by ZEFSAII (Michael W. Deem and Ramdas Pophale) SiO2 
 PCOD9440700
Probable space group: P N N M
;
_chemical_formula_sum "Si O2"
_cell_formula_units_Z 56
_cell_length_a 16.809234
_cell_length_b 8.723595
_cell_length_c 24.323634
_cell_angle_alpha 90.000000
_cell_angle_beta 90.000000
_cell_angle_gamma 90.000000
_cell_volume 3566.743495
_symmetry_space_group_name_H-M "P N N M"
_symmetry_group_IT_number 58
_symmetry_cell_setting 'orthorhombic'
loop_
_space_group_symop_operation_xyz
x,y,z
-x,-y,z
1/2+x,1/2-y,1/2-z
1/2-x,1/2+y,1/2-z
-x,-y,-z
x,y,-z
1/2-x,1/2+y,1/2+z
1/2+x,1/2-y,1/2+z
loop_
_atom_site_type_symbol
_atom_site_label
_atom_site_fract_x
_atom_site_fract_y
_atom_site_fract_z
Si Si1 0.496119 0.314710 0.060511
Si Si2 0.884887 0.838041 0.342310
Si Si3 0.282242 0.893746 0.216978
Si Si4 0.429048 0.109685 0.775676
Si Si5 0.464919 0.664046 0.279483
Si Si6 0.203929 0.191280 0.180470
Si Si7 0.849831 0.188610 0.629441
O O1 0.500000 0.500000 0.058671
O O2 0.556509 0.277070 0.110101
O O3 0.405534 0.277153 0.077193
O O4 0.517195 0.254995 0.000000
O O5 0.814992 0.718204 0.330130
O O6 0.930031 0.851302 0.283333
O O7 0.853892 0.006583 0.358720
O O8 0.260060 0.789310 0.268413
O O9 0.356290 0.997736 0.237347
O O10 0.218308 0.013213 0.195044
O O11 0.466764 0.208442 0.726553
O O12 0.396657 0.224619 0.821619
O O13 0.500000 0.000000 0.796580
O O14 0.500000 0.500000 0.295338
O O15 0.390649 0.713316 0.317309
O O16 0.260280 0.245511 0.130794
#
# Coordination Sequence:
#
# PCOD9440700 Si02
#       7
#     8   8   8   8   8   8   8
#     4   9  16  27  47  69  86 115 154 187 221 261
#     4  10  16  29  44  61  85 118 148 187 216 260
#     4  10  20  27  42  60  84 113 156 182 218 262
#     4  11  17  27  42  58  79 116 144 183 211 256
#     4  11  18  29  42  59  84 118 154 180 220 254
#     4  10  20  28  40  61  82 115 150 184 218 266
#     4  10  18  29  43  59  89 114 145 188 220 261
#
# _framework density 15.700596000000001
#
# number of rings (size 3 to 8) (size 9 to 14) (size 15 to 20)
#    0.000    1.857    5.714    2.143    2.000    0.000 
#    0.000    0.000    0.000   10.714    0.000    0.000 
#    0.000    0.571    0.000    2.571    0.000    0.857 
#
# Total GULP energy -311889.865354 kJ/mol
# GULP energy per Si atom -5569.461881 kJ/mol
# Density = 1.566486 g / cm^3
# Si number density = 15.700596 Si / 1000 Ang^3
#
#
#
# Elastic Constant Matrix: (Units=GPa)
#
#
# Indices 1 2 3 4 5 6 
#
# 1 56.2217 12.3754 17.7582 0.0000 0.0000 0.0000
# 2 12.3754 72.0706 2.8602 0.0000 0.0000 0.0000
# 3 17.7582 2.8602 37.7381 0.0000 0.0000 0.0000
# 4 0.0000 0.0000 0.0000 5.0630 0.0000 0.0000
# 5 0.0000 0.0000 0.0000 0.0000 12.9919 0.0000
# 6 0.0000 0.0000 0.0000 0.0000 0.0000 34.3933
#
#
#
# Elastic Compliance Matrix: (Units=1/GPa)
#
#
# Indices 1 2 3 4 5 6 
#
# 1 0.021658 -0.003324 -0.009939 0.000000 0.000000 0.000000
# 2 -0.003324 0.014427 0.000471 0.000000 0.000000 0.000000
# 3 -0.009939 0.000471 0.031140 0.000000 0.000000 0.000000
# 4 0.000000 0.000000 0.000000 0.197510 0.000000 0.000000
# 5 0.000000 0.000000 0.000000 0.000000 0.076971 0.000000
# 6 0.000000 0.000000 0.000000 0.000000 0.000000 0.029075
#
#
# Mechanical properties :
#
#
# Convention : Reuss Voigt Hill
#
# Bulk Modulus (GPa) = 24.01582 25.77976 24.89779
# Shear Modulus (GPa) = 12.18774 19.35874 15.77324
#
# Velocity S-wave (km/s) = 2.78917 3.51521 3.17302
# Velocity P-wave (km/s) = 5.06971 5.73854 5.41446
#
# Compressibility (1/GPa) = 0.04163923
#
# Stress axis : x y z
#
# Youngs Moduli (GPa) = 46.17235 69.31238 32.11313
#
# Poissons Ratio (x) = 0.23043 0.31919
# Poissons Ratio (y) = 0.15350 -0.01512
# Poissons Ratio (z) = 0.45893 -0.03264
#
# Static dielectric constant tensor:
#      x y z
#    x 1.577730 0.000000 0.000000 
#    y 0.000000 1.570680 0.000000 
#    z 0.000000 0.000000 1.505550 
# 
# From -- ./inp_files/30229.got.cif
#   From: 2010.05.17/outbox.cif.g08.bks.cpg/sg58_16_cif.got.tgz:30229.got - 2010.06.03 14:20:14.
