data_PCOD9440785
_publ_section_title
;
Structure prediction by ZEFSAII (Michael W. Deem and Ramdas Pophale) SiO2 
 PCOD9440785
Probable space group: P N N M
;
_chemical_formula_sum "Si O2"
_cell_formula_units_Z 48
_cell_length_a 20.567518
_cell_length_b 7.040379
_cell_length_c 15.090905
_cell_angle_alpha 90.000000
_cell_angle_beta 90.000000
_cell_angle_gamma 90.000000
_cell_volume 2185.210155
_symmetry_space_group_name_H-M "P N N M"
_symmetry_group_IT_number 58
_symmetry_cell_setting 'orthorhombic'
loop_
_space_group_symop_operation_xyz
x,y,z
-x,-y,z
1/2+x,1/2-y,1/2-z
1/2-x,1/2+y,1/2-z
-x,-y,-z
x,y,-z
1/2-x,1/2+y,1/2+z
1/2+x,1/2-y,1/2+z
loop_
_atom_site_type_symbol
_atom_site_label
_atom_site_fract_x
_atom_site_fract_y
_atom_site_fract_z
Si Si1 0.091468 0.327039 0.810056
Si Si2 0.206259 0.404341 0.310471
Si Si3 0.364254 0.891886 0.500000
Si Si4 0.669200 0.654917 0.189408
Si Si5 0.247172 0.918489 0.000000
Si Si6 0.403849 0.318996 0.500000
Si Si7 0.784146 0.131874 0.500000
Si Si8 0.947679 0.222527 0.191244
O O1 0.149626 0.293327 0.741029
O O2 0.117597 0.286490 0.909267
O O3 0.074765 0.554166 0.810505
O O4 0.023908 0.225527 0.788583
O O5 0.270811 0.410556 0.250590
O O6 0.180296 0.618171 0.318114
O O7 0.224872 0.336130 0.408437
O O8 0.288695 0.950747 0.500000
O O9 0.402860 0.088851 0.500000
O O10 0.677689 0.583556 0.089432
O O11 0.600999 0.628301 0.238579
O O12 0.169821 0.893334 0.000000
O O13 0.266624 0.141605 0.000000
O O14 0.436662 0.363362 0.406472
#
# Coordination Sequence:
#
# PCOD9440785 Si02
#       8
#     8   8   4   8   4   4   4   8
#     4   9  17  29  47  72  98 124 159 201 240 280
#     4  10  19  32  50  71  97 128 161 197 238 284
#     4  10  17  28  50  75  95 122 160 200 239 284
#     4  10  19  32  50  71  97 128 161 197 238 284
#     4  10  20  31  46  73 104 125 152 200 246 282
#     4  10  17  28  50  75  95 122 160 200 239 284
#     4  10  20  31  46  73 104 125 152 200 246 282
#     4   9  17  29  47  72  98 124 159 201 240 280
#
# _framework density 21.965852000000002
#
# number of rings (size 3 to 8) (size 9 to 14) (size 15 to 20)
#    0.000    2.333    3.333    0.500    0.000    2.000 
#    0.000    0.833    0.000   10.000    0.000    0.000 
#    0.000    4.000    0.000    0.000    0.000    0.000 
#
# Total GULP energy -268454.839807 kJ/mol
# GULP energy per Si atom -5592.809163 kJ/mol
# Density = 2.191586 g / cm^3
# Si number density = 21.965852 Si / 1000 Ang^3
#
#
#
# Elastic Constant Matrix: (Units=GPa)
#
#
# Indices 1 2 3 4 5 6 
#
# 1 171.7037 15.8388 107.5629 0.0000 0.0000 0.0000
# 2 15.8388 69.4352 11.9758 0.0000 0.0000 0.0000
# 3 107.5629 11.9758 202.4795 0.0000 0.0000 0.0000
# 4 0.0000 0.0000 0.0000 6.1208 0.0000 0.0000
# 5 0.0000 0.0000 0.0000 0.0000 4.4646 0.0000
# 6 0.0000 0.0000 0.0000 0.0000 0.0000 15.0853
#
#
#
# Elastic Compliance Matrix: (Units=1/GPa)
#
#
# Indices 1 2 3 4 5 6 
#
# 1 0.008830 -0.001218 -0.004618 0.000000 0.000000 0.000000
# 2 -0.001218 0.014718 -0.000224 0.000000 0.000000 0.000000
# 3 -0.004618 -0.000224 0.007405 0.000000 0.000000 0.000000
# 4 0.000000 0.000000 0.000000 0.163378 0.000000 0.000000
# 5 0.000000 0.000000 0.000000 0.000000 0.223983 0.000000
# 6 0.000000 0.000000 0.000000 0.000000 0.000000 0.066290
#
#
# Mechanical properties :
#
#
# Convention : Reuss Voigt Hill
#
# Bulk Modulus (GPa) = 53.09617 79.37481 66.23549
# Shear Modulus (GPa) = 9.94033 25.68354 17.81193
#
# Velocity S-wave (km/s) = 2.12960 3.42314 2.85071
# Velocity P-wave (km/s) = 5.50196 7.19985 6.40739
#
# Compressibility (1/GPa) = 0.01883375
#
# Stress axis : x y z
#
# Youngs Moduli (GPa) = 113.25645 67.94293 135.03523
#
# Poissons Ratio (x) = 0.08272 0.62366
# Poissons Ratio (y) = 0.13789 0.03021
# Poissons Ratio (z) = 0.52307 0.01520
#
# Static dielectric constant tensor:
#      x y z
#    x 1.743750 0.000000 0.000000 
#    y 0.000000 1.908750 0.000000 
#    z 0.000000 0.000000 1.767960 
# 
# From -- ./inp_files/14550.got.cif
#   From: 2010.05.17/outbox.cif.g08.bks.cpg/sg58_8_cif.got.tgz:14550.got - 2010.06.03 14:20:14.
