data_PCOD9440827
_publ_section_title
;
Structure prediction by ZEFSAII (Michael W. Deem and Ramdas Pophale) SiO2 
 PCOD9440827
Probable space group: P N N M
;
_chemical_formula_sum "Si O2"
_cell_formula_units_Z 56
_cell_length_a 14.979643
_cell_length_b 11.000089
_cell_length_c 14.694989
_cell_angle_alpha 90.000000
_cell_angle_beta 90.000000
_cell_angle_gamma 90.000000
_cell_volume 2421.402171
_symmetry_space_group_name_H-M "P N N M"
_symmetry_group_IT_number 58
_symmetry_cell_setting 'orthorhombic'
loop_
_space_group_symop_operation_xyz
x,y,z
-x,-y,z
1/2+x,1/2-y,1/2-z
1/2-x,1/2+y,1/2-z
-x,-y,-z
x,y,-z
1/2-x,1/2+y,1/2+z
1/2+x,1/2-y,1/2+z
loop_
_atom_site_type_symbol
_atom_site_label
_atom_site_fract_x
_atom_site_fract_y
_atom_site_fract_z
Si Si1 0.085737 0.924838 0.138096
Si Si2 0.466117 0.373433 0.844282
Si Si3 0.849995 0.824975 0.606186
Si Si4 0.545287 0.847852 0.395587
Si Si5 0.625081 0.062256 0.291490
Si Si6 0.213724 0.437558 0.394756
Si Si7 0.214918 0.903059 0.602744
O O1 0.069331 0.908225 0.245314
O O2 0.079641 0.788478 0.102395
O O3 0.183720 0.979381 0.119888
O O4 0.000000 0.000000 0.104114
O O5 0.500000 0.500000 0.888826
O O6 0.556884 0.298141 0.842506
O O7 0.377472 0.328537 0.893425
O O8 0.873679 0.830619 0.500000
O O9 0.786474 0.709733 0.615903
O O10 0.811233 0.957286 0.628734
O O11 0.520698 0.876953 0.500000
O O12 0.462885 0.866151 0.325201
O O13 0.616872 0.941594 0.354473
O O14 0.646231 0.025447 0.187095
O O15 0.710687 0.137021 0.326664
O O16 0.187464 0.464756 0.500000
O O17 0.249665 0.902062 0.500000
#
# Coordination Sequence:
#
# PCOD9440827 Si02
#       7
#     8   8   8   8   8   8   8
#     4  11  23  42  67  96 131 173 220 270 328 394
#     4   9  17  31  53  88 125 163 202 258 318 377
#     4   9  18  32  55  87 123 166 213 261 321 392
#     4  11  24  43  69  96 130 173 218 269 336 400
#     4  11  22  41  62  94 129 170 220 274 326 393
#     4  11  23  40  62  91 127 174 223 268 325 395
#     4  10  17  30  56  89 126 164 211 268 325 380
#
# _framework density 23.127095000000001
#
# number of rings (size 3 to 8) (size 9 to 14) (size 15 to 20)
#    0.000    1.714    1.429    4.286    0.000    4.000 
#    2.571    1.429    0.000    1.714    0.000    0.000 
#    0.000    0.000    0.000    0.000    0.000    0.000 
#
# Total GULP energy -312301.693982 kJ/mol
# GULP energy per Si atom -5576.815964 kJ/mol
# Density = 2.307446 g / cm^3
# Si number density = 23.127095 Si / 1000 Ang^3
#
#
#
# Elastic Constant Matrix: (Units=GPa)
#
#
# Indices 1 2 3 4 5 6 
#
# 1 138.9326 -12.6509 52.9838 0.0000 0.0000 0.0000
# 2 -12.6509 26.5353 1.6260 0.0000 0.0000 0.0000
# 3 52.9838 1.6260 153.9879 0.0000 0.0000 0.0000
# 4 0.0000 0.0000 0.0000 19.3185 0.0000 0.0000
# 5 0.0000 0.0000 0.0000 0.0000 42.9529 0.0000
# 6 0.0000 0.0000 0.0000 0.0000 0.0000 20.8421
#
#
#
# Elastic Compliance Matrix: (Units=1/GPa)
#
#
# Indices 1 2 3 4 5 6 
#
# 1 0.008763 0.004365 -0.003061 0.000000 0.000000 0.000000
# 2 0.004365 0.039885 -0.001923 0.000000 0.000000 0.000000
# 3 -0.003061 -0.001923 0.007568 0.000000 0.000000 0.000000
# 4 0.000000 0.000000 0.000000 0.051764 0.000000 0.000000
# 5 0.000000 0.000000 0.000000 0.000000 0.023281 0.000000
# 6 0.000000 0.000000 0.000000 0.000000 0.000000 0.047980
#
#
# Mechanical properties :
#
#
# Convention : Reuss Voigt Hill
#
# Bulk Modulus (GPa) = 18.18948 44.81930 31.50439
# Shear Modulus (GPa) = 25.15044 35.12247 30.13645
#
# Velocity S-wave (km/s) = 3.30129 3.90124 3.61374
# Velocity P-wave (km/s) = 4.73428 6.30195 5.57351
#
# Compressibility (1/GPa) = 0.05497685
#
# Stress axis : x y z
#
# Youngs Moduli (GPa) = 114.12113 25.07228 132.14258
#
# Poissons Ratio (x) = -0.10945 0.40450
# Poissons Ratio (y) = -0.49816 0.25413
# Poissons Ratio (z) = 0.34934 0.04822
#
# Static dielectric constant tensor:
#      x y z
#    x 1.968610 0.000000 0.000000 
#    y 0.000000 1.908230 0.000000 
#    z 0.000000 0.000000 1.885770 
# 
# From -- ./inp_files/22198.got.cif
#   From: 2010.05.17/outbox.cif.g08.bks.cpg/sg58_12_cif.got.tgz:22198.got - 2010.06.03 14:20:14.
