data_PCOD9440060
_publ_section_title
;
Structure prediction by ZEFSAII (Michael W. Deem and Ramdas Pophale) SiO2 
 PCOD9440060
Probable space group: P B C M
;
_chemical_formula_sum "Si O2"
_cell_formula_units_Z 56
_cell_length_a 11.827887
_cell_length_b 15.814617
_cell_length_c 14.809627
_cell_angle_alpha 90.000000
_cell_angle_beta 90.000000
_cell_angle_gamma 90.000000
_cell_volume 2770.192606
_symmetry_space_group_name_H-M "P B C M"
_symmetry_group_IT_number 57
_symmetry_cell_setting 'orthorhombic'
loop_
_space_group_symop_operation_xyz
x,y,z
-x,-y,1/2+z
x,1/2-y,-z
-x,1/2+y,1/2-z
-x,-y,-z
x,y,1/2-z
-x,1/2+y,z
x,1/2-y,1/2+z
loop_
_atom_site_type_symbol
_atom_site_label
_atom_site_fract_x
_atom_site_fract_y
_atom_site_fract_z
Si Si1 0.996685 0.750000 0.500000
Si Si2 0.483437 0.606024 0.405227
Si Si3 0.713927 0.974533 0.857035
Si Si4 0.187605 0.784969 0.642897
Si Si5 0.618036 0.344759 0.095873
Si Si6 0.485248 0.750725 0.250000
Si Si7 0.735645 0.480112 0.645234
Si Si8 0.106042 0.064858 0.498762
O O1 0.076593 0.762366 0.587362
O O2 0.929506 0.837688 0.489997
O O3 0.610889 0.573608 0.405237
O O4 0.440308 0.641427 0.500206
O O5 0.479884 0.676677 0.328129
O O6 0.396271 0.531000 0.379130
O O7 0.712403 0.958300 0.750000
O O8 0.688604 0.072299 0.876768
O O9 0.829818 0.947472 0.903864
O O10 0.182028 0.766180 0.750000
O O11 0.288819 0.729343 0.602550
O O12 0.216111 0.884125 0.633918
O O13 0.526017 0.322976 0.170989
O O14 0.748675 0.504425 0.750000
O O15 0.806258 0.537460 0.577052
O O16 0.000000 0.000000 0.500000
#
# Coordination Sequence:
#
# PCOD9440060 Si02
#       8
#     4   8   8   8   8   4   8   8
#     4  12  26  44  68 100 140 180 252 292 354 446
#     4  12  23  43  69 105 146 184 227 294 367 429
#     4  12  26  47  69  99 146 192 237 293 370 434
#     4  11  21  40  71 103 133 178 238 313 352 399
#     4  12  22  38  71 109 135 180 242 292 353 422
#     4  12  22  38  66 108 144 174 236 296 346 426
#     4  11  21  41  72 103 138 179 230 296 364 423
#     4  12  27  47  70 102 137 192 243 300 363 426
#
# _framework density 20.215201
#
# number of rings (size 3 to 8) (size 9 to 14) (size 15 to 20)
#    0.000    0.286    7.143    2.571    0.000    1.714 
#    2.571    0.000    0.000    0.000    0.000    0.000 
#    0.000    0.000    0.000    0.000    0.000    0.000 
#
# Total GULP energy -312233.561273 kJ/mol
# GULP energy per Si atom -5575.599308 kJ/mol
# Density = 2.016919 g / cm^3
# Si number density = 20.215201 Si / 1000 Ang^3
#
#
#
# Elastic Constant Matrix: (Units=GPa)
#
#
# Indices 1 2 3 4 5 6 
#
# 1 93.5200 38.4949 42.5270 0.0000 0.0000 0.0000
# 2 38.4949 100.6673 38.9872 0.0000 0.0000 0.0000
# 3 42.5270 38.9872 166.4421 0.0000 0.0000 0.0000
# 4 0.0000 0.0000 0.0000 30.7746 0.0000 0.0000
# 5 0.0000 0.0000 0.0000 0.0000 -272.5898 0.0000
# 6 0.0000 0.0000 0.0000 0.0000 0.0000 18.2364
#
#
#
# Elastic Compliance Matrix: (Units=1/GPa)
#
#
# Indices 1 2 3 4 5 6 
#
# 1 0.013558 -0.004226 -0.002474 0.000000 0.000000 0.000000
# 2 -0.004226 0.012242 -0.001788 0.000000 0.000000 0.000000
# 3 -0.002474 -0.001788 0.007059 0.000000 0.000000 0.000000
# 4 0.000000 0.000000 0.000000 0.032494 0.000000 0.000000
# 5 0.000000 0.000000 0.000000 0.000000 -0.003669 0.000000
# 6 0.000000 0.000000 0.000000 0.000000 0.000000 0.054835
#
#
# Mechanical properties :
#
#
# Convention : Reuss Voigt Hill
#
# Bulk Modulus (GPa) = 62.96190 66.73860 64.85025
# Shear Modulus (GPa) = 36.02557 -28.67440 3.67559
#
# Velocity S-wave (km/s) = 4.22608 -3.77033 1.34988
# Velocity P-wave (km/s) = 7.41798 3.75924 5.88040
#
# Compressibility (1/GPa) = 0.01588262
#
# Stress axis : x y z
#
# Youngs Moduli (GPa) = 73.75960 81.68483 141.66292
#
# Poissons Ratio (x) = 0.34521 0.35049
# Poissons Ratio (y) = 0.31172 0.25326
# Poissons Ratio (z) = 0.18249 0.14603
#
# Static dielectric constant tensor:
#      x y z
#    x 1.734870 0.000000 0.000000 
#    y 0.000000 1.742240 0.000000 
#    z 0.000000 0.000000 1.676280 
# 
# From -- ./inp_files/17795.got.cif
#   From: 2010.05.17/outbox.cif.g08.bks.cpg/sg57_9_cif.got.tgz:17795.got - 2010.06.03 13:58:18.
