data_PCOD9440701
_publ_section_title
;
Structure prediction by ZEFSAII (Michael W. Deem and Ramdas Pophale) SiO2 
 PCOD9440701
Probable space group: P N N M
;
_chemical_formula_sum "Si O2"
_cell_formula_units_Z 48
_cell_length_a 7.829704
_cell_length_b 7.362300
_cell_length_c 34.485880
_cell_angle_alpha 90.000000
_cell_angle_beta 90.000000
_cell_angle_gamma 90.000000
_cell_volume 1987.925785
_symmetry_space_group_name_H-M "P N N M"
_symmetry_group_IT_number 58
_symmetry_cell_setting 'orthorhombic'
loop_
_space_group_symop_operation_xyz
x,y,z
-x,-y,z
1/2+x,1/2-y,1/2-z
1/2-x,1/2+y,1/2-z
-x,-y,-z
x,y,-z
1/2-x,1/2+y,1/2+z
1/2+x,1/2-y,1/2+z
loop_
_atom_site_type_symbol
_atom_site_label
_atom_site_fract_x
_atom_site_fract_y
_atom_site_fract_z
Si Si1 0.688742 0.749310 0.815922
Si Si2 0.405687 0.692156 0.758373
Si Si3 0.679683 0.787024 0.401435
Si Si4 0.172785 0.616880 0.821206
Si Si5 0.703771 0.232940 0.598563
Si Si6 0.989968 0.778423 0.544405
O O1 0.521454 0.798871 0.790569
O O2 0.846998 0.763902 0.785496
O O3 0.680113 0.534158 0.824234
O O4 0.736211 0.812236 0.859436
O O5 0.500000 0.500000 0.754466
O O6 0.217503 0.693073 0.779223
O O7 0.695105 0.743049 0.355770
O O8 0.490772 0.721954 0.411967
O O9 0.827552 0.724481 0.429689
O O10 0.694880 0.009550 0.400892
O O11 0.000000 0.500000 0.826657
O O12 0.840529 0.284829 0.566374
O O13 0.977291 0.719613 0.500000
O O14 0.000000 0.000000 0.544150
#
# Coordination Sequence:
#
# PCOD9440701 Si02
#       6
#     8   8   8   8   8   8
#     4  10  18  30  43  64  88 122 159 192 239 274
#     4  10  21  30  46  68  93 123 160 206 240 278
#     4   9  15  26  42  58  81 117 152 189 223 272
#     4  10  16  29  45  62  86 117 162 197 223 277
#     4   9  16  27  41  59  82 116 154 187 228 278
#     4   9  17  26  38  60  88 115 149 191 233 281
#
# _framework density 24.145768
#
# number of rings (size 3 to 8) (size 9 to 14) (size 15 to 20)
#    0.000    2.500    3.333    2.000    0.000    4.667 
#    0.000    3.333    0.000    0.000    0.000    0.000 
#    0.000    0.667    0.000    1.500    0.000    1.667 
#
# Total GULP energy -267383.621350 kJ/mol
# GULP energy per Si atom -5570.492111 kJ/mol
# Density = 2.409081 g / cm^3
# Si number density = 24.145768 Si / 1000 Ang^3
#
#
#
# Elastic Constant Matrix: (Units=GPa)
#
#
# Indices 1 2 3 4 5 6 
#
# 1 175.5933 10.8829 117.8210 0.0000 0.0000 0.0000
# 2 10.8829 71.9319 10.8454 0.0000 0.0000 0.0000
# 3 117.8210 10.8454 225.0407 0.0000 0.0000 0.0000
# 4 0.0000 0.0000 0.0000 -0.3321 0.0000 0.0000
# 5 0.0000 0.0000 0.0000 0.0000 29.1106 0.0000
# 6 0.0000 0.0000 0.0000 0.0000 0.0000 -1.4501
#
#
#
# Elastic Compliance Matrix: (Units=1/GPa)
#
#
# Indices 1 2 3 4 5 6 
#
# 1 0.008808 -0.000642 -0.004581 0.000000 0.000000 0.000000
# 2 -0.000642 0.014051 -0.000341 0.000000 0.000000 0.000000
# 3 -0.004581 -0.000341 0.006858 0.000000 0.000000 0.000000
# 4 0.000000 0.000000 0.000000 -3.010969 0.000000 0.000000
# 5 0.000000 0.000000 0.000000 0.000000 0.034352 0.000000
# 6 0.000000 0.000000 0.000000 0.000000 0.000000 -0.689596
#
#
# Mechanical properties :
#
#
# Convention : Reuss Voigt Hill
#
# Bulk Modulus (GPa) = 53.79293 83.51829 68.65561
# Shear Modulus (GPa) = -1.38153 27.66677 13.14262
#
# Velocity S-wave (km/s) = -0.75724 3.38867 2.33556
# Velocity P-wave (km/s) = 4.64352 7.06931 5.98069
#
# Compressibility (1/GPa) = 0.01858980
#
# Stress axis : x y z
#
# Youngs Moduli (GPa) = 113.52818 71.17140 145.80800
#
# Poissons Ratio (x) = 0.04569 0.66791
# Poissons Ratio (y) = 0.07289 0.04972
# Poissons Ratio (z) = 0.52004 0.02427
#
# Static dielectric constant tensor:
#      x y z
#    x 1.981420 0.000000 0.000000 
#    y 0.000000 2.156030 0.000000 
#    z 0.000000 0.000000 1.991270 
# 
# From -- ./inp_files/34685.got.cif
#   From: 2010.05.17/outbox.cif.g08.bks.cpg/sg58_18_cif.got.tgz:34685.got - 2010.06.03 14:20:14.
