data_PCOD9440421
_publ_section_title
;
Structure prediction by ZEFSAII (Michael W. Deem and Ramdas Pophale) SiO2 
 PCOD9440421
Probable space group: P B C M
;
_chemical_formula_sum "Si O2"
_cell_formula_units_Z 64
_cell_length_a 15.000000
_cell_length_b 30.000000
_cell_length_c 9.000000
_cell_angle_alpha 90.000000
_cell_angle_beta 90.000000
_cell_angle_gamma 90.000000
_cell_volume 4050.000000
_symmetry_space_group_name_H-M "P B C M"
_symmetry_group_IT_number 57
_symmetry_cell_setting 'orthorhombic'
loop_
_space_group_symop_operation_xyz
x,y,z
-x,-y,1/2+z
x,1/2-y,-z
-x,1/2+y,1/2-z
-x,-y,-z
x,y,1/2-z
-x,1/2+y,z
x,1/2-y,1/2+z
loop_
_atom_site_type_symbol
_atom_site_label
_atom_site_fract_x
_atom_site_fract_y
_atom_site_fract_z
Si Si1 0.294533 0.204645 0.572269
Si Si2 0.639599 0.559444 0.072504
Si Si3 0.665954 0.032505 0.072692
Si Si4 0.202306 0.113667 0.572545
Si Si5 0.461175 0.613452 0.072081
Si Si6 0.503563 0.203919 0.572645
Si Si7 0.948538 0.566288 0.074908
Si Si8 0.872783 0.022457 0.426467
O O1 0.261689 0.250000 0.500000
O O2 0.291273 0.208283 0.750000
O O3 0.238463 0.161866 0.526711
O O4 0.398536 0.198857 0.530628
O O5 0.648912 0.559586 0.250000
O O6 0.555871 0.590634 0.032110
O O7 0.626208 0.509559 0.013802
O O8 0.728682 0.578425 0.997193
O O9 0.655156 0.024870 0.250000
O O10 0.614642 0.077631 0.035309
O O11 0.771389 0.035016 0.040991
O O12 0.205822 0.109675 0.750000
O O13 0.104057 0.103789 0.513791
O O14 0.461409 0.620635 0.250000
O O15 0.450001 0.660050 0.989900
O O16 0.535076 0.250000 0.500000
O O17 0.509646 0.206370 0.750000
O O18 0.934473 0.571875 0.250000
O O19 0.053727 0.560617 0.046214
O O20 0.903965 0.519963 0.020883
O O21 0.878637 0.010945 0.250000
#
# Coordination Sequence:
#
# PCOD9440421 Si02
#       8
#     8   8   8   8   8   8   8   8
#     4   9  19  32  48  69  93 123 157 193 236 287
#     4  11  21  31  45  69  98 130 167 203 232 275
#     4  10  20  34  50  67  95 134 167 200 242 286
#     4  11  20  32  48  69  97 130 162 193 240 292
#     4  10  21  34  48  70  98 130 166 200 240 288
#     4  10  19  33  51  71  95 125 160 200 243 286
#     4  10  19  30  47  71  94 121 160 200 238 281
#     4   9  18  32  48  67  94 126 159 198 242 283
#
# _framework density 15.802469
#
# number of rings (size 3 to 8) (size 9 to 14) (size 15 to 20)
#    0.000    2.000    2.500    1.875    0.000    3.000 
#    0.000    0.000    0.000    0.000    0.000    0.875 
#    0.000    2.000    0.000    0.000    0.000    0.000 
#
# Total GULP energy -357030.284265 kJ/mol
# GULP energy per Si atom -5578.598192 kJ/mol
# Density = 1.576650 g / cm^3
# Si number density = 15.802469 Si / 1000 Ang^3
#
#
#
# Elastic Constant Matrix: (Units=GPa)
#
#
# Indices 1 2 3 4 5 6 
#
# 1 42.0848 27.0556 20.0489 0.0000 0.0000 0.0000
# 2 27.0556 111.6567 38.5444 0.0000 0.0000 0.0000
# 3 20.0489 38.5444 29.3701 0.0000 0.0000 0.0000
# 4 0.0000 0.0000 0.0000 28.5227 0.0000 0.0000
# 5 0.0000 0.0000 0.0000 0.0000 17.6036 0.0000
# 6 0.0000 0.0000 0.0000 0.0000 0.0000 18.0904
#
#
#
# Elastic Compliance Matrix: (Units=1/GPa)
#
#
# Indices 1 2 3 4 5 6 
#
# 1 0.035224 -0.000429 -0.023482 0.000000 0.000000 0.000000
# 2 -0.000429 0.016379 -0.021203 0.000000 0.000000 0.000000
# 3 -0.023482 -0.021203 0.077903 0.000000 0.000000 0.000000
# 4 0.000000 0.000000 0.000000 0.035060 0.000000 0.000000
# 5 0.000000 0.000000 0.000000 0.000000 0.056806 0.000000
# 6 0.000000 0.000000 0.000000 0.000000 0.000000 0.055278
#
#
# Mechanical properties :
#
#
# Convention : Reuss Voigt Hill
#
# Bulk Modulus (GPa) = 25.45859 39.37882 32.41870
# Shear Modulus (GPa) = 13.15890 19.34086 16.24988
#
# Velocity S-wave (km/s) = 2.88880 3.50224 3.21021
# Velocity P-wave (km/s) = 5.22230 6.42867 5.85663
#
# Compressibility (1/GPa) = 0.03927947
#
# Stress axis : x y z
#
# Youngs Moduli (GPa) = 28.38981 61.05267 12.83641
#
# Poissons Ratio (x) = 0.02620 0.30142
# Poissons Ratio (y) = 0.01218 0.27217
# Poissons Ratio (z) = 0.66664 1.29448
#
# Static dielectric constant tensor:
#      x y z
#    x 1.526230 0.000000 0.000000 
#    y 0.000000 1.524640 0.000000 
#    z 0.000000 0.000000 1.524880 
# 
# From -- ./inp_files/5988.got.cif
#   From: 2010.05.17/outbox.ucp.g08.bks.cvg/sg57_3_cif.got.tgz:5988.got - 2010.06.11 16:39:23.
