data_PCOD9440888
_publ_section_title
;
Structure prediction by ZEFSAII (Michael W. Deem and Ramdas Pophale) SiO2 
 PCOD9440888
Probable space group: P N N M
;
_chemical_formula_sum "Si O2"
_cell_formula_units_Z 56
_cell_length_a 8.948344
_cell_length_b 14.899695
_cell_length_c 20.580884
_cell_angle_alpha 90.000000
_cell_angle_beta 90.000000
_cell_angle_gamma 90.000000
_cell_volume 2743.999795
_symmetry_space_group_name_H-M "P N N M"
_symmetry_group_IT_number 58
_symmetry_cell_setting 'orthorhombic'
loop_
_space_group_symop_operation_xyz
x,y,z
-x,-y,z
1/2+x,1/2-y,1/2-z
1/2-x,1/2+y,1/2-z
-x,-y,-z
x,y,-z
1/2-x,1/2+y,1/2+z
1/2+x,1/2-y,1/2+z
loop_
_atom_site_type_symbol
_atom_site_label
_atom_site_fract_x
_atom_site_fract_y
_atom_site_fract_z
Si Si1 0.539233 0.273551 0.427025
Si Si2 0.317033 0.330433 0.928651
Si Si3 0.905998 0.824431 0.789272
Si Si4 0.354295 0.035199 0.229284
Si Si5 0.916820 0.411077 0.129653
Si Si6 0.788602 0.143393 0.283992
Si Si7 0.894161 0.913026 0.572366
O O1 0.491618 0.301043 0.500000
O O2 0.719286 0.259001 0.428630
O O3 0.512286 0.325399 0.360079
O O4 0.475365 0.174666 0.409618
O O5 0.275106 0.377066 0.861204
O O6 0.495530 0.328069 0.924407
O O7 0.285373 0.373059 0.000000
O O8 0.774129 0.897517 0.793595
O O9 0.816982 0.730985 0.775066
O O10 0.039679 0.838380 0.737399
O O11 0.429713 0.085563 0.292146
O O12 0.500000 0.000000 0.189831
O O13 0.266703 0.945007 0.248457
O O14 0.739608 0.412648 0.121023
O O15 0.000000 0.500000 0.104801
O O16 0.829322 0.916092 0.500000
O O17 0.000000 0.000000 0.580120
#
# Coordination Sequence:
#
# PCOD9440888 Si02
#       7
#     8   8   8   8   8   8   8
#     4  10  21  37  56  79 110 149 190 237 294 345
#     4   9  18  32  50  75 108 144 179 218 271 339
#     4  11  22  38  60  86 117 152 195 245 291 345
#     4  11  22  37  58  86 115 149 195 240 291 349
#     4  11  20  32  50  78 113 146 183 224 278 349
#     4  11  21  37  60  85 117 155 196 240 290 348
#     4  10  18  26  39  64 101 144 182 212 251 315
#
# _framework density 20.408165
#
# number of rings (size 3 to 8) (size 9 to 14) (size 15 to 20)
#    0.000    1.571    0.000    8.571    0.000    2.286 
#    0.000    0.714    0.000    2.571    0.000    0.000 
#    0.000    0.000    0.000    0.000    0.000    0.000 
#
# Total GULP energy -311823.540745 kJ/mol
# GULP energy per Si atom -5568.277513 kJ/mol
# Density = 2.036172 g / cm^3
# Si number density = 20.408165 Si / 1000 Ang^3
#
#
#
# Elastic Constant Matrix: (Units=GPa)
#
#
# Indices 1 2 3 4 5 6 
#
# 1 93.2920 29.4798 16.5681 0.0000 0.0000 0.0000
# 2 29.4798 80.3909 21.7956 0.0000 0.0000 0.0000
# 3 16.5681 21.7956 75.9611 0.0000 0.0000 0.0000
# 4 0.0000 0.0000 0.0000 10.3207 0.0000 0.0000
# 5 0.0000 0.0000 0.0000 0.0000 28.0952 0.0000
# 6 0.0000 0.0000 0.0000 0.0000 0.0000 37.8071
#
#
#
# Elastic Compliance Matrix: (Units=1/GPa)
#
#
# Indices 1 2 3 4 5 6 
#
# 1 0.012280 -0.004096 -0.001503 0.000000 0.000000 0.000000
# 2 -0.004096 0.014854 -0.003369 0.000000 0.000000 0.000000
# 3 -0.001503 -0.003369 0.014459 0.000000 0.000000 0.000000
# 4 0.000000 0.000000 0.000000 0.096893 0.000000 0.000000
# 5 0.000000 0.000000 0.000000 0.000000 0.035593 0.000000
# 6 0.000000 0.000000 0.000000 0.000000 0.000000 0.026450
#
#
# Mechanical properties :
#
#
# Convention : Reuss Voigt Hill
#
# Bulk Modulus (GPa) = 42.26867 42.81452 42.54159
# Shear Modulus (GPa) = 22.08952 27.36464 24.72708
#
# Velocity S-wave (km/s) = 3.29353 3.66576 3.48462
# Velocity P-wave (km/s) = 5.93462 6.24033 6.08939
#
# Compressibility (1/GPa) = 0.02365818
#
# Stress axis : x y z
#
# Youngs Moduli (GPa) = 81.43178 67.31969 69.16026
#
# Poissons Ratio (x) = 0.27572 0.10397
# Poissons Ratio (y) = 0.33352 0.23299
# Poissons Ratio (z) = 0.12242 0.22679
#
# Static dielectric constant tensor:
#      x y z
#    x 1.794840 0.000000 0.000000 
#    y 0.000000 1.754420 0.000000 
#    z 0.000000 0.000000 1.807230 
# 
# From -- ./inp_files/28935.got.cif
#   From: 2010.05.17/outbox.cif.g08.bks.cpg/sg58_15_cif.got.tgz:28935.got - 2010.06.03 14:20:14.
