data_PCOD9440678
_publ_section_title
;
Structure prediction by ZEFSAII (Michael W. Deem and Ramdas Pophale) SiO2 
 PCOD9440678
Probable space group: P N N M
;
_chemical_formula_sum "Si O2"
_cell_formula_units_Z 48
_cell_length_a 6.996012
_cell_length_b 33.240971
_cell_length_c 8.824500
_cell_angle_alpha 90.000000
_cell_angle_beta 90.000000
_cell_angle_gamma 90.000000
_cell_volume 2052.174820
_symmetry_space_group_name_H-M "P N N M"
_symmetry_group_IT_number 58
_symmetry_cell_setting 'orthorhombic'
loop_
_space_group_symop_operation_xyz
x,y,z
-x,-y,z
1/2+x,1/2-y,1/2-z
1/2-x,1/2+y,1/2-z
-x,-y,-z
x,y,-z
1/2-x,1/2+y,1/2+z
1/2+x,1/2-y,1/2+z
loop_
_atom_site_type_symbol
_atom_site_label
_atom_site_fract_x
_atom_site_fract_y
_atom_site_fract_z
Si Si1 0.991878 0.215132 0.177341
Si Si2 0.909281 0.696013 0.183500
Si Si3 0.334130 0.549353 0.183450
Si Si4 0.245772 0.469862 0.319891
Si Si5 0.149726 0.390085 0.824947
Si Si6 0.397279 0.636630 0.175258
O O1 0.783389 0.200816 0.222248
O O2 0.990477 0.262034 0.224611
O O3 0.123987 0.180408 0.249610
O O4 0.027854 0.214336 0.000000
O O5 0.969202 0.650121 0.215314
O O6 0.876465 0.696608 0.000000
O O7 0.204002 0.513091 0.244205
O O8 0.542260 0.540457 0.255472
O O9 0.294183 0.595619 0.228025
O O10 0.345604 0.547625 0.000000
O O11 0.247142 0.474569 0.500000
O O12 0.130085 0.430040 0.273121
O O13 0.374960 0.376010 0.818590
O O14 0.110445 0.400916 0.000000
O O15 0.349093 0.642650 0.000000
#
# Coordination Sequence:
#
# PCOD9440678 Si02
#       6
#     8   8   8   8   8   8
#     4  10  19  30  47  68  88 115 150 185 222 261
#     4   9  19  33  46  64  90 118 149 183 220 264
#     4   9  15  23  33  46  70 106 139 162 200 256
#     4  10  16  20  30  51  75  98 132 174 208 242
#     4   8  14  26  39  50  74 110 139 166 206 255
#     4   8  15  26  39  55  78 109 141 174 212 256
#
# _framework density 23.389818999999999
#
# number of rings (size 3 to 8) (size 9 to 14) (size 15 to 20)
#    0.000    3.000    0.000    5.500    0.000    8.000 
#    0.000    0.000    0.000    0.000    0.000    0.000 
#    0.000    1.333    0.000   15.000    0.000   15.833 
#
# Total GULP energy -267673.376716 kJ/mol
# GULP energy per Si atom -5576.528682 kJ/mol
# Density = 2.333658 g / cm^3
# Si number density = 23.389819 Si / 1000 Ang^3
#
#
#
# Elastic Constant Matrix: (Units=GPa)
#
#
# Indices 1 2 3 4 5 6 
#
# 1 46.3291 42.8054 14.6687 0.0000 0.0000 0.0000
# 2 42.8054 271.3828 86.8392 0.0000 0.0000 0.0000
# 3 14.6687 86.8392 57.7401 0.0000 0.0000 0.0000
# 4 0.0000 0.0000 0.0000 44.0355 0.0000 0.0000
# 5 0.0000 0.0000 0.0000 0.0000 0.7699 0.0000
# 6 0.0000 0.0000 0.0000 0.0000 0.0000 51.8721
#
#
#
# Elastic Compliance Matrix: (Units=1/GPa)
#
#
# Indices 1 2 3 4 5 6 
#
# 1 0.025287 -0.003726 -0.000820 0.000000 0.000000 0.000000
# 2 -0.003726 0.007652 -0.010562 0.000000 0.000000 0.000000
# 3 -0.000820 -0.010562 0.033413 0.000000 0.000000 0.000000
# 4 0.000000 0.000000 0.000000 0.022709 0.000000 0.000000
# 5 0.000000 0.000000 0.000000 0.000000 1.298937 0.000000
# 6 0.000000 0.000000 0.000000 0.000000 0.000000 0.019278
#
#
# Mechanical properties :
#
#
# Convention : Reuss Voigt Hill
#
# Bulk Modulus (GPa) = 27.67398 73.78648 50.73023
# Shear Modulus (GPa) = 3.44937 34.74475 19.09706
#
# Velocity S-wave (km/s) = 1.21570 3.85835 2.86049
# Velocity P-wave (km/s) = 3.71859 7.17385 5.71367
#
# Compressibility (1/GPa) = 0.03613503
#
# Stress axis : x y z
#
# Youngs Moduli (GPa) = 39.54587 130.67877 29.92876
#
# Poissons Ratio (x) = 0.48692 0.02455
# Poissons Ratio (y) = 0.14735 0.31612
# Poissons Ratio (z) = 0.03243 1.38027
#
# Static dielectric constant tensor:
#      x y z
#    x 2.036810 0.000000 0.000000 
#    y 0.000000 1.977660 0.000000 
#    z 0.000000 0.000000 1.774870 
# 
# From -- ./inp_files/4499.got.cif
#   From: 2010.05.17/outbox.cif.g08.bks.cpg/sg58_3_cif.got.tgz:4499.got - 2010.06.03 14:20:14.
