data_PCOD9440207
_publ_section_title
;
Structure prediction by ZEFSAII (Michael W. Deem and Ramdas Pophale) SiO2 
 PCOD9440207
Probable space group: P B C M
;
_chemical_formula_sum "Si O2"
_cell_formula_units_Z 20
_cell_length_a 5.888094
_cell_length_b 13.172304
_cell_length_c 10.162203
_cell_angle_alpha 90.000000
_cell_angle_beta 90.000000
_cell_angle_gamma 90.000000
_cell_volume 788.178068
_symmetry_space_group_name_H-M "P B C M"
_symmetry_group_IT_number 57
_symmetry_cell_setting 'orthorhombic'
loop_
_space_group_symop_operation_xyz
x,y,z
-x,-y,1/2+z
x,1/2-y,-z
-x,1/2+y,1/2-z
-x,-y,-z
x,y,1/2-z
-x,1/2+y,z
x,1/2-y,1/2+z
loop_
_atom_site_type_symbol
_atom_site_label
_atom_site_fract_x
_atom_site_fract_y
_atom_site_fract_z
Si Si1 0.346396 0.098421 0.465713
Si Si2 0.981507 0.417953 0.750000
Si Si3 0.683870 0.892539 0.250000
Si Si4 0.619892 0.226087 0.250000
O O1 0.246596 0.141150 0.603217
O O2 0.498876 0.174350 0.377147
O O3 0.137789 0.065862 0.375274
O O4 0.500000 0.000000 0.500000
O O5 0.765681 0.491864 0.750000
O O6 0.880122 0.305059 0.750000
O O7 0.428137 0.846285 0.250000
#
# Coordination Sequence:
#
# PCOD9440207 Si02
#       4
#     8   4   4   4
#     4  11  23  47  71 106 152 192 253 309 373 445
#     4  11  24  47  78 110 148 204 246 309 390 439
#     4  12  23  44  75 105 151 195 246 313 372 443
#     4  11  25  45  67 111 151 189 254 302 370 464
#
# _framework density 25.374976
#
# number of rings (size 3 to 8) (size 9 to 14) (size 15 to 20)
#    0.000    0.800    4.000    3.600    0.000    0.000 
#   14.400    8.000    0.000    0.000    0.000    0.000 
#    0.000    0.000    0.000    0.000    0.000    0.000 
#
# Total GULP energy -111647.695053 kJ/mol
# GULP energy per Si atom -5582.384753 kJ/mol
# Density = 2.531722 g / cm^3
# Si number density = 25.374976 Si / 1000 Ang^3
#
#
#
# Elastic Constant Matrix: (Units=GPa)
#
#
# Indices 1 2 3 4 5 6 
#
# 1 109.6566 77.1137 48.0411 0.0000 0.0000 0.0000
# 2 77.1137 93.9479 30.8844 0.0000 0.0000 0.0000
# 3 48.0411 30.8844 257.8758 0.0000 0.0000 0.0000
# 4 0.0000 0.0000 0.0000 28.5071 0.0000 0.0000
# 5 0.0000 0.0000 0.0000 0.0000 35.3353 0.0000
# 6 0.0000 0.0000 0.0000 0.0000 0.0000 44.5829
#
#
#
# Elastic Compliance Matrix: (Units=1/GPa)
#
#
# Indices 1 2 3 4 5 6 
#
# 1 0.022582 -0.017856 -0.002068 0.000000 0.000000 0.000000
# 2 -0.017856 0.025199 0.000309 0.000000 0.000000 0.000000
# 3 -0.002068 0.000309 0.004226 0.000000 0.000000 0.000000
# 4 0.000000 0.000000 0.000000 0.035079 0.000000 0.000000
# 5 0.000000 0.000000 0.000000 0.000000 0.028300 0.000000
# 6 0.000000 0.000000 0.000000 0.000000 0.000000 0.022430
#
#
# Mechanical properties :
#
#
# Convention : Reuss Voigt Hill
#
# Bulk Modulus (GPa) = 78.27191 85.95096 82.11144
# Shear Modulus (GPa) = 27.57744 42.04782 34.81263
#
# Velocity S-wave (km/s) = 3.30024 4.07511 3.70797
# Velocity P-wave (km/s) = 6.74056 7.48919 7.12471
#
# Compressibility (1/GPa) = 0.01277597
#
# Stress axis : x y z
#
# Youngs Moduli (GPa) = 44.28230 39.68388 236.61712
#
# Poissons Ratio (x) = 0.70859 0.48944
# Poissons Ratio (y) = 0.79070 -0.07300
# Poissons Ratio (z) = 0.09160 -0.01224
#
# Static dielectric constant tensor:
#      x y z
#    x 1.945790 0.000000 0.000000 
#    y 0.000000 2.075390 0.000000 
#    z 0.000000 0.000000 2.010380 
# 
# From -- ./inp_files/10454.got.cif
#   From: 2010.05.17/outbox.cif.g08.bks.cpg/sg57_6_cif.got.tgz:10454.got - 2010.06.03 13:58:18.
