data_PCOD9440345
_publ_section_title
;
Structure prediction by ZEFSAII (Michael W. Deem and Ramdas Pophale) SiO2 
 PCOD9440345
Probable space group: P B C M
;
_chemical_formula_sum "Si O2"
_cell_formula_units_Z 28
_cell_length_a 7.690051
_cell_length_b 7.260294
_cell_length_c 19.192003
_cell_angle_alpha 90.000000
_cell_angle_beta 90.000000
_cell_angle_gamma 90.000000
_cell_volume 1071.528509
_symmetry_space_group_name_H-M "P B C M"
_symmetry_group_IT_number 57
_symmetry_cell_setting 'orthorhombic'
loop_
_space_group_symop_operation_xyz
x,y,z
-x,-y,1/2+z
x,1/2-y,-z
-x,1/2+y,1/2-z
-x,-y,-z
x,y,1/2-z
-x,1/2+y,z
x,1/2-y,1/2+z
loop_
_atom_site_type_symbol
_atom_site_label
_atom_site_fract_x
_atom_site_fract_y
_atom_site_fract_z
Si Si1 0.245118 0.466003 0.597094
Si Si2 0.854527 0.434082 0.250000
Si Si3 0.181876 0.750000 0.500000
Si Si4 0.252759 0.987192 0.750000
Si Si5 0.360311 0.061237 0.904839
O O1 0.203413 0.470952 0.678672
O O2 0.110744 0.597807 0.555914
O O3 0.433863 0.555525 0.581531
O O4 0.271160 0.254632 0.576610
O O5 0.062288 0.423078 0.250000
O O6 0.775185 0.231353 0.250000
O O7 0.273201 0.605093 0.446693
O O8 0.345197 0.037093 0.821665
#
# Coordination Sequence:
#
# PCOD9440345 Si02
#       5
#     8   4   4   4   8
#     4  12  24  42  71 103 136 175 224 276 334 394
#     4  12  25  48  71  97 133 177 230 282 329 392
#     4  12  24  42  68 100 148 168 224 266 348 398
#     4  12  25  48  71  97 133 177 230 282 329 392
#     4  12  24  42  71 103 136 175 224 276 334 394
#
# _framework density 26.130894000000001
#
# number of rings (size 3 to 8) (size 9 to 14) (size 15 to 20)
#    0.000    0.000    5.714    5.143    0.000    0.000 
#    0.000    1.429    0.000    0.000    0.000    0.000 
#    0.000    0.000    0.000    0.000    0.000    0.000 
#
# Total GULP energy -156845.566822 kJ/mol
# GULP energy per Si atom -5601.627386 kJ/mol
# Density = 2.607142 g / cm^3
# Si number density = 26.130894 Si / 1000 Ang^3
#
#
#
# Elastic Constant Matrix: (Units=GPa)
#
#
# Indices 1 2 3 4 5 6 
#
# 1 77.3290 35.3353 12.6453 0.0000 0.0000 0.0000
# 2 35.3353 233.1708 66.8757 0.0000 0.0000 0.0000
# 3 12.6453 66.8757 222.8711 0.0000 0.0000 0.0000
# 4 0.0000 0.0000 0.0000 44.5974 0.0000 0.0000
# 5 0.0000 0.0000 0.0000 0.0000 -7.4025 0.0000
# 6 0.0000 0.0000 0.0000 0.0000 0.0000 -36.1547
#
#
#
# Elastic Compliance Matrix: (Units=1/GPa)
#
#
# Indices 1 2 3 4 5 6 
#
# 1 0.013900 -0.002057 -0.000171 0.000000 0.000000 0.000000
# 2 -0.002057 0.004997 -0.001383 0.000000 0.000000 0.000000
# 3 -0.000171 -0.001383 0.004912 0.000000 0.000000 0.000000
# 4 0.000000 0.000000 0.000000 0.022423 0.000000 0.000000
# 5 0.000000 0.000000 0.000000 0.000000 -0.135090 0.000000
# 6 0.000000 0.000000 0.000000 0.000000 0.000000 -0.027659
#
#
# Mechanical properties :
#
#
# Convention : Reuss Voigt Hill
#
# Bulk Modulus (GPa) = 60.29266 84.78706 72.53986
# Shear Modulus (GPa) = -48.18502 28.10903 -10.03799
#
# Velocity S-wave (km/s) = -4.29882 3.28335 -1.96208
# Velocity P-wave (km/s) = 1.23144 6.84772 4.76313
#
# Compressibility (1/GPa) = 0.01658577
#
# Stress axis : x y z
#
# Youngs Moduli (GPa) = 71.94326 200.11847 203.60291
#
# Poissons Ratio (x) = 0.41170 0.03488
# Poissons Ratio (y) = 0.14801 0.28152
# Poissons Ratio (z) = 0.01233 0.27671
#
# Static dielectric constant tensor:
#      x y z
#    x 1.998070 0.000000 0.000000 
#    y 0.000000 2.005850 0.000000 
#    z 0.000000 0.000000 2.032540 
# 
# From -- ./inp_files/20446.got.cif
#   From: 2010.05.17/outbox.cif.g08.bks.cpg/sg57_11_cif.got.tgz:20446.got - 2010.06.03 13:58:18.
