data_PCOD9440338
_publ_section_title
;
Structure prediction by ZEFSAII (Michael W. Deem and Ramdas Pophale) SiO2 
 PCOD9440338
Probable space group: P B C M
;
_chemical_formula_sum "Si O2"
_cell_formula_units_Z 32
_cell_length_a 14.943324
_cell_length_b 9.623321
_cell_length_c 9.933618
_cell_angle_alpha 90.000000
_cell_angle_beta 90.000000
_cell_angle_gamma 90.000000
_cell_volume 1428.498013
_symmetry_space_group_name_H-M "P B C M"
_symmetry_group_IT_number 57
_symmetry_cell_setting 'orthorhombic'
loop_
_space_group_symop_operation_xyz
x,y,z
-x,-y,1/2+z
x,1/2-y,-z
-x,1/2+y,1/2-z
-x,-y,-z
x,y,1/2-z
-x,1/2+y,z
x,1/2-y,1/2+z
loop_
_atom_site_type_symbol
_atom_site_label
_atom_site_fract_x
_atom_site_fract_y
_atom_site_fract_z
Si Si1 0.113842 0.817594 0.750000
Si Si2 0.235528 0.750000 0.000000
Si Si3 0.690857 0.961265 0.960523
Si Si4 0.389396 0.449147 0.250000
Si Si5 0.450758 0.148231 0.250000
Si Si6 0.157557 0.250000 0.000000
Si Si7 0.049087 0.376914 0.250000
O O1 0.174711 0.814296 0.882572
O O2 0.050498 0.683457 0.750000
O O3 0.054966 0.956916 0.750000
O O4 0.291683 0.623615 0.937120
O O5 0.606937 0.904857 0.877075
O O6 0.777499 0.866458 0.934130
O O7 0.670199 0.944346 0.117926
O O8 0.451832 0.313717 0.250000
O O9 0.451723 0.583313 0.250000
O O10 0.098566 0.319503 0.116679
#
# Coordination Sequence:
#
# PCOD9440338 Si02
#       7
#     4   4   8   4   4   4   4
#     4  12  28  48  66 107 139 181 227 283 341 414
#     4  12  27  46  73 100 140 176 234 284 337 404
#     4  12  25  45  71  98 133 179 228 279 337 402
#     4  12  26  45  68  99 141 174 227 279 339 408
#     4  12  26  44  68 101 135 181 223 277 345 404
#     4  12  23  48  73  98 134 186 226 288 337 404
#     4  12  28  45  72 101 143 178 229 281 347 408
#
# _framework density 22.401150000000001
#
# number of rings (size 3 to 8) (size 9 to 14) (size 15 to 20)
#    0.000    0.000    5.000    4.500    7.000    2.000 
#    0.000    0.000    0.000    0.000    0.000    0.000 
#    0.000    0.000    0.000    0.000    0.000    0.000 
#
# Total GULP energy -179405.095980 kJ/mol
# GULP energy per Si atom -5606.409249 kJ/mol
# Density = 2.235016 g / cm^3
# Si number density = 22.401150 Si / 1000 Ang^3
#
#
#
# Elastic Constant Matrix: (Units=GPa)
#
#
# Indices 1 2 3 4 5 6 
#
# 1 19.0567 -11.2660 -5.0612 0.0000 0.0000 0.0000
# 2 -11.2660 122.9418 -21.7116 0.0000 0.0000 0.0000
# 3 -5.0612 -21.7116 101.3819 0.0000 0.0000 0.0000
# 4 0.0000 0.0000 0.0000 38.0009 0.0000 0.0000
# 5 0.0000 0.0000 0.0000 0.0000 14.7339 0.0000
# 6 0.0000 0.0000 0.0000 0.0000 0.0000 50.6546
#
#
#
# Elastic Compliance Matrix: (Units=1/GPa)
#
#
# Indices 1 2 3 4 5 6 
#
# 1 0.057095 0.005961 0.004127 0.000000 0.000000 0.000000
# 2 0.005961 0.009076 0.002241 0.000000 0.000000 0.000000
# 3 0.004127 0.002241 0.010550 0.000000 0.000000 0.000000
# 4 0.000000 0.000000 0.000000 0.026315 0.000000 0.000000
# 5 0.000000 0.000000 0.000000 0.000000 0.067871 0.000000
# 6 0.000000 0.000000 0.000000 0.000000 0.000000 0.019742
#
#
# Mechanical properties :
#
#
# Convention : Reuss Voigt Hill
#
# Bulk Modulus (GPa) = 9.86402 18.58920 14.22661
# Shear Modulus (GPa) = 25.02714 39.43916 32.23315
#
# Velocity S-wave (km/s) = 3.34612 4.20049 3.79741
# Velocity P-wave (km/s) = 4.39791 5.64285 5.05882
#
# Compressibility (1/GPa) = 0.10137854
#
# Stress axis : x y z
#
# Youngs Moduli (GPa) = 17.51466 110.18115 94.78948
#
# Poissons Ratio (x) = -0.65677 -0.39118
# Poissons Ratio (y) = -0.10440 -0.21245
# Poissons Ratio (z) = -0.07228 -0.24694
#
# Static dielectric constant tensor:
#      x y z
#    x 1.766380 0.000000 0.000000 
#    y 0.000000 1.824920 0.000000 
#    z 0.000000 0.000000 1.785390 
# 
# From -- ./inp_files/13489.got.cif
#   From: 2010.05.17/outbox.cif.g08.bks.cpg/sg57_7_cif.got.tgz:13489.got - 2010.06.03 13:58:18.
