data_PCOD9440897
_publ_section_title
;
Structure prediction by ZEFSAII (Michael W. Deem and Ramdas Pophale) SiO2 
 PCOD9440897
Probable space group: P N N M
;
_chemical_formula_sum "Si O2"
_cell_formula_units_Z 64
_cell_length_a 27.528238
_cell_length_b 19.130369
_cell_length_c 8.038355
_cell_angle_alpha 90.000000
_cell_angle_beta 90.000000
_cell_angle_gamma 90.000000
_cell_volume 4233.201522
_symmetry_space_group_name_H-M "P N N M"
_symmetry_group_IT_number 58
_symmetry_cell_setting 'orthorhombic'
loop_
_space_group_symop_operation_xyz
x,y,z
-x,-y,z
1/2+x,1/2-y,1/2-z
1/2-x,1/2+y,1/2-z
-x,-y,-z
x,y,-z
1/2-x,1/2+y,1/2+z
1/2+x,1/2-y,1/2+z
loop_
_atom_site_type_symbol
_atom_site_label
_atom_site_fract_x
_atom_site_fract_y
_atom_site_fract_z
Si Si1 0.054028 0.418704 0.296932
Si Si2 0.650230 0.839090 0.302322
Si Si3 0.646004 0.168345 0.795956
Si Si4 0.256370 0.912628 0.801737
Si Si5 0.195924 0.197677 0.308549
Si Si6 0.212315 0.778821 0.309085
Si Si7 0.944132 0.420971 0.700731
Si Si8 0.243920 0.572787 0.798783
O O1 0.054399 0.418208 0.500000
O O2 0.095706 0.365889 0.240597
O O3 0.065294 0.498651 0.246068
O O4 0.998897 0.402192 0.244576
O O5 0.654443 0.833171 0.500000
O O6 0.663411 0.763741 0.226302
O O7 0.598126 0.870259 0.259439
O O8 0.692721 0.892710 0.243042
O O9 0.691391 0.119074 0.746199
O O10 0.657379 0.247229 0.736168
O O11 0.646055 0.170041 0.000000
O O12 0.215642 0.860708 0.728871
O O13 0.251840 0.992929 0.752643
O O14 0.254652 0.907325 0.000000
O O15 0.181866 0.185388 0.500000
O O16 0.246222 0.242130 0.302871
O O17 0.212646 0.123434 0.235569
O O18 0.226293 0.767398 0.500000
O O19 0.943988 0.420842 0.500000
O O20 0.244439 0.576074 0.000000
#
# Coordination Sequence:
#
# PCOD9440897 Si02
#       8
#     8   8   8   8   8   8   8   8
#     4   8  14  24  39  59  82 106 137 175 205 234
#     4  10  19  30  42  57  81 110 139 171 205 240
#     4   8  13  23  39  56  75 104 136 163 196 234
#     4  10  18  27  41  60  81 105 134 165 198 239
#     4   8  15  27  40  56  80 106 134 168 201 234
#     4  10  18  28  42  58  78 104 134 166 200 239
#     4   9  16  26  40  59  81 106 139 176 207 235
#     4   9  17  27  38  55  79 105 133 166 200 233
#
# _framework density 15.118581000000001
#
# number of rings (size 3 to 8) (size 9 to 14) (size 15 to 20)
#    0.000    3.000    0.000    4.875    0.000    3.500 
#    0.000    1.250    0.000    3.750    0.000    0.000 
#    0.000    1.000    0.000   11.750    0.000    2.250 
#
# Total GULP energy -356275.427256 kJ/mol
# GULP energy per Si atom -5566.803551 kJ/mol
# Density = 1.508417 g / cm^3
# Si number density = 15.118581 Si / 1000 Ang^3
#
#
#
# Elastic Constant Matrix: (Units=GPa)
#
#
# Indices 1 2 3 4 5 6 
#
# 1 93.4722 65.5634 10.8329 0.0000 0.0000 0.0000
# 2 65.5634 121.6616 12.6264 0.0000 0.0000 0.0000
# 3 10.8329 12.6264 23.8017 0.0000 0.0000 0.0000
# 4 0.0000 0.0000 0.0000 16.6088 0.0000 0.0000
# 5 0.0000 0.0000 0.0000 0.0000 12.7144 0.0000
# 6 0.0000 0.0000 0.0000 0.0000 0.0000 29.3036
#
#
#
# Elastic Compliance Matrix: (Units=1/GPa)
#
#
# Indices 1 2 3 4 5 6 
#
# 1 0.017416 -0.009062 -0.003119 0.000000 0.000000 0.000000
# 2 -0.009062 0.013413 -0.002991 0.000000 0.000000 0.000000
# 3 -0.003119 -0.002991 0.045020 0.000000 0.000000 0.000000
# 4 0.000000 0.000000 0.000000 0.060209 0.000000 0.000000
# 5 0.000000 0.000000 0.000000 0.000000 0.078651 0.000000
# 6 0.000000 0.000000 0.000000 0.000000 0.000000 0.034126
#
#
# Mechanical properties :
#
#
# Convention : Reuss Voigt Hill
#
# Bulk Modulus (GPa) = 21.97568 46.33120 34.15344
# Shear Modulus (GPa) = 16.98665 21.71953 19.35309
#
# Velocity S-wave (km/s) = 3.35559 3.79438 3.58171
# Velocity P-wave (km/s) = 5.43879 7.06457 6.30431
#
# Compressibility (1/GPa) = 0.04550485
#
# Stress axis : x y z
#
# Youngs Moduli (GPa) = 57.41853 74.55271 22.21213
#
# Poissons Ratio (x) = 0.67558 0.06929
# Poissons Ratio (y) = 0.52031 0.06644
# Poissons Ratio (z) = 0.17911 0.22301
#
# Static dielectric constant tensor:
#      x y z
#    x 1.498470 0.000000 0.000000 
#    y 0.000000 1.519770 0.000000 
#    z 0.000000 0.000000 1.544310 
# 
# From -- ./inp_files/8536.got.cif
#   From: 2010.05.17/outbox.cif.g08.bks.cpg/sg58_5_cif.got.tgz:8536.got - 2010.06.03 14:20:14.
