data_PCOD9440907
_publ_section_title
;
Structure prediction by ZEFSAII (Michael W. Deem and Ramdas Pophale) SiO2 
 PCOD9440907
Probable space group: P N N M
;
_chemical_formula_sum "Si O2"
_cell_formula_units_Z 56
_cell_length_a 17.997597
_cell_length_b 22.615179
_cell_length_c 8.975078
_cell_angle_alpha 90.000000
_cell_angle_beta 90.000000
_cell_angle_gamma 90.000000
_cell_volume 3653.026175
_symmetry_space_group_name_H-M "P N N M"
_symmetry_group_IT_number 58
_symmetry_cell_setting 'orthorhombic'
loop_
_space_group_symop_operation_xyz
x,y,z
-x,-y,z
1/2+x,1/2-y,1/2-z
1/2-x,1/2+y,1/2-z
-x,-y,-z
x,y,-z
1/2-x,1/2+y,1/2+z
1/2+x,1/2-y,1/2+z
loop_
_atom_site_type_symbol
_atom_site_label
_atom_site_fract_x
_atom_site_fract_y
_atom_site_fract_z
Si Si1 0.619848 0.351746 0.323661
Si Si2 0.371555 0.350253 0.679383
Si Si3 0.933502 0.715690 0.174408
Si Si4 0.210908 0.319513 0.671155
Si Si5 0.506695 0.569890 0.176844
Si Si6 0.087466 0.723883 0.677619
Si Si7 0.232407 0.682997 0.827613
O O1 0.621935 0.363368 0.500000
O O2 0.587674 0.285065 0.303693
O O3 0.564816 0.396336 0.241714
O O4 0.702149 0.352183 0.254256
O O5 0.377888 0.344963 0.500000
O O6 0.284016 0.356082 0.716263
O O7 0.422099 0.402533 0.740841
O O8 0.400630 0.289323 0.752428
O O9 0.861662 0.679078 0.227450
O O10 0.006759 0.702828 0.269195
O O11 0.948272 0.706950 0.000000
O O12 0.191434 0.333393 0.500000
O O13 0.240078 0.251536 0.673638
O O14 0.500000 0.500000 0.201273
O O15 0.512416 0.581126 0.000000
O O16 0.092322 0.727252 0.500000
O O17 0.154049 0.684109 0.743217
O O18 0.224428 0.665475 0.000000
#
# Coordination Sequence:
#
# PCOD9440907 Si02
#       7
#     8   8   8   8   8   8   8
#     4  10  19  31  47  64  87 118 154 191 231 274
#     4  10  19  32  47  63  86 117 153 192 233 274
#     4  10  18  27  42  65  91 119 152 184 221 271
#     4   8  16  28  42  61  85 114 147 182 223 270
#     4  11  23  35  48  67  90 120 159 198 235 274
#     4  11  19  27  43  65  92 122 153 185 224 271
#     4   9  17  29  44  62  88 117 150 186 224 271
#
# _framework density 15.329756
#
# number of rings (size 3 to 8) (size 9 to 14) (size 15 to 20)
#    0.000    2.143    1.429    4.286    0.000    6.286 
#    0.000    0.000    0.000    0.000    0.000    0.000 
#    0.000    1.143    0.000   12.000    0.000    6.571 
#
# Total GULP energy -312278.985126 kJ/mol
# GULP energy per Si atom -5576.410449 kJ/mol
# Density = 1.529486 g / cm^3
# Si number density = 15.329756 Si / 1000 Ang^3
#
#
#
# Elastic Constant Matrix: (Units=GPa)
#
#
# Indices 1 2 3 4 5 6 
#
# 1 131.2384 33.1899 79.3791 0.0000 0.0000 0.0000
# 2 33.1899 33.5890 32.2534 0.0000 0.0000 0.0000
# 3 79.3791 32.2534 108.4796 0.0000 0.0000 0.0000
# 4 0.0000 0.0000 0.0000 11.9381 0.0000 0.0000
# 5 0.0000 0.0000 0.0000 0.0000 32.1218 0.0000
# 6 0.0000 0.0000 0.0000 0.0000 0.0000 10.6382
#
#
#
# Elastic Compliance Matrix: (Units=1/GPa)
#
#
# Indices 1 2 3 4 5 6 
#
# 1 0.014425 -0.005764 -0.008842 0.000000 0.000000 0.000000
# 2 -0.005764 0.043971 -0.008856 0.000000 0.000000 0.000000
# 3 -0.008842 -0.008856 0.018322 0.000000 0.000000 0.000000
# 4 0.000000 0.000000 0.000000 0.083766 0.000000 0.000000
# 5 0.000000 0.000000 0.000000 0.000000 0.031131 0.000000
# 6 0.000000 0.000000 0.000000 0.000000 0.000000 0.094001
#
#
# Mechanical properties :
#
#
# Convention : Reuss Voigt Hill
#
# Bulk Modulus (GPa) = 33.56348 62.55020 48.05684
# Shear Modulus (GPa) = 14.59982 19.50526 17.05254
#
# Velocity S-wave (km/s) = 3.08942 3.57091 3.33886
# Velocity P-wave (km/s) = 5.88794 7.60878 6.80299
#
# Compressibility (1/GPa) = 0.02979429
#
# Stress axis : x y z
#
# Youngs Moduli (GPa) = 69.32229 22.74248 54.58065
#
# Poissons Ratio (x) = 0.13108 0.48260
# Poissons Ratio (y) = 0.39954 0.48337
# Poissons Ratio (z) = 0.61295 0.20141
#
# Static dielectric constant tensor:
#      x y z
#    x 1.527130 0.000000 0.000000 
#    y 0.000000 1.474820 0.000000 
#    z 0.000000 0.000000 1.509610 
# 
# From -- ./inp_files/8119.got.cif
#   From: 2010.05.17/outbox.cif.g08.bks.cpg/sg58_5_cif.got.tgz:8119.got - 2010.06.03 14:20:14.
