data_PCOD9440620
_publ_section_title
;
Structure prediction by ZEFSAII (Michael W. Deem and Ramdas Pophale) SiO2 
 PCOD9440620
Probable space group: P B C M
;
_chemical_formula_sum "Si O2"
_cell_formula_units_Z 40
_cell_length_a 12.000000
_cell_length_b 9.000000
_cell_length_c 18.000000
_cell_angle_alpha 90.000000
_cell_angle_beta 90.000000
_cell_angle_gamma 90.000000
_cell_volume 1944.000000
_symmetry_space_group_name_H-M "P B C M"
_symmetry_group_IT_number 57
_symmetry_cell_setting 'orthorhombic'
loop_
_space_group_symop_operation_xyz
x,y,z
-x,-y,1/2+z
x,1/2-y,-z
-x,1/2+y,1/2-z
-x,-y,-z
x,y,1/2-z
-x,1/2+y,z
x,1/2-y,1/2+z
loop_
_atom_site_type_symbol
_atom_site_label
_atom_site_fract_x
_atom_site_fract_y
_atom_site_fract_z
Si Si1 0.751494 0.954058 0.661110
Si Si2 0.569633 0.387631 0.053955
Si Si3 0.367545 0.133780 0.833951
Si Si4 0.862539 0.011181 0.339942
Si Si5 0.041627 0.288983 0.589048
O O1 0.765391 0.003957 0.750000
O O2 0.690523 0.794606 0.667200
O O3 0.867278 0.911915 0.618312
O O4 0.673217 0.050256 0.604339
O O5 0.473719 0.350899 0.113973
O O6 0.601334 0.250000 0.000000
O O7 0.500000 0.500000 0.000000
O O8 0.401768 0.093209 0.750000
O O9 0.268836 0.018788 0.857247
O O10 0.872564 0.027233 0.250000
O O11 0.924990 0.861186 0.367239
O O12 0.922795 0.145682 0.383411
O O13 0.046040 0.250000 0.500000
#
# Coordination Sequence:
#
# PCOD9440620 Si02
#       5
#     8   8   8   8   8
#     4  10  22  42  68  93 132 181 222 267 334 414
#     4  12  24  41  65  97 131 171 219 284 338 392
#     4   9  20  40  65  90 128 178 224 265 331 408
#     4  10  21  41  67  95 131 178 222 269 337 413
#     4  11  23  41  68 100 135 174 226 283 338 394
#
# _framework density 20.576132000000001
#
# number of rings (size 3 to 8) (size 9 to 14) (size 15 to 20)
#    0.000    1.600    2.000    4.200    5.600    0.000 
#    3.600    0.000    0.000    0.000    0.000    0.000 
#    0.000    0.000    0.000    0.000    0.000    0.000 
#
# Total GULP energy -223279.301126 kJ/mol
# GULP energy per Si atom -5581.982528 kJ/mol
# Density = 2.052930 g / cm^3
# Si number density = 20.576132 Si / 1000 Ang^3
#
#
#
# Elastic Constant Matrix: (Units=GPa)
#
#
# Indices 1 2 3 4 5 6 
#
# 1 82.8766 9.0083 55.3850 0.0000 0.0000 0.0000
# 2 9.0083 39.3447 31.1020 0.0000 0.0000 0.0000
# 3 55.3850 31.1020 162.0687 0.0000 0.0000 0.0000
# 4 0.0000 0.0000 0.0000 40.6775 0.0000 0.0000
# 5 0.0000 0.0000 0.0000 0.0000 36.0557 0.0000
# 6 0.0000 0.0000 0.0000 0.0000 0.0000 39.8140
#
#
#
# Elastic Compliance Matrix: (Units=1/GPa)
#
#
# Indices 1 2 3 4 5 6 
#
# 1 0.015657 0.000760 -0.005496 0.000000 0.000000 0.000000
# 2 0.000760 0.029999 -0.006017 0.000000 0.000000 0.000000
# 3 -0.005496 -0.006017 0.009203 0.000000 0.000000 0.000000
# 4 0.000000 0.000000 0.000000 0.024584 0.000000 0.000000
# 5 0.000000 0.000000 0.000000 0.000000 0.027735 0.000000
# 6 0.000000 0.000000 0.000000 0.000000 0.000000 0.025117
#
#
# Mechanical properties :
#
#
# Convention : Reuss Voigt Hill
#
# Bulk Modulus (GPa) = 29.98266 52.80893 41.39580
# Shear Modulus (GPa) = 30.31831 35.89576 33.10704
#
# Velocity S-wave (km/s) = 3.84274 4.18129 4.01559
# Velocity P-wave (km/s) = 5.85595 7.00227 6.45461
#
# Compressibility (1/GPa) = 0.03335261
#
# Stress axis : x y z
#
# Youngs Moduli (GPa) = 63.87081 33.33494 108.65834
#
# Poissons Ratio (x) = -0.02534 0.59722
# Poissons Ratio (y) = -0.04855 0.65376
# Poissons Ratio (z) = 0.35105 0.20057
#
# Static dielectric constant tensor:
#      x y z
#    x 1.750460 0.000000 0.000000 
#    y 0.000000 1.764330 0.000000 
#    z 0.000000 0.000000 1.741700 
# 
# From -- ./inp_files/21622.got.cif
#   From: 2010.05.17/outbox.ucp.g08.bks.cvg/sg57_11_cif.got.tgz:21622.got - 2010.06.11 16:39:23.
