data_PCOD9440005
_publ_section_title
;
Structure prediction by ZEFSAII (Michael W. Deem and Ramdas Pophale) SiO2 
 PCOD9440005
Probable space group: P B C M
;
_chemical_formula_sum "Si O2"
_cell_formula_units_Z 48
_cell_length_a 10.328549
_cell_length_b 11.829897
_cell_length_c 19.289134
_cell_angle_alpha 90.000000
_cell_angle_beta 90.000000
_cell_angle_gamma 90.000000
_cell_volume 2356.855778
_symmetry_space_group_name_H-M "P B C M"
_symmetry_group_IT_number 57
_symmetry_cell_setting 'orthorhombic'
loop_
_space_group_symop_operation_xyz
x,y,z
-x,-y,1/2+z
x,1/2-y,-z
-x,1/2+y,1/2-z
-x,-y,-z
x,y,1/2-z
-x,1/2+y,z
x,1/2-y,1/2+z
loop_
_atom_site_type_symbol
_atom_site_label
_atom_site_fract_x
_atom_site_fract_y
_atom_site_fract_z
Si Si1 0.416165 0.751841 0.418149
Si Si2 0.035169 0.246377 0.666439
Si Si3 0.330458 0.206944 0.170272
Si Si4 0.966574 0.000771 0.169350
Si Si5 0.673895 0.055433 0.326992
Si Si6 0.392210 0.549940 0.673363
O O1 0.423612 0.750000 0.500000
O O2 0.557789 0.741228 0.382661
O O3 0.337532 0.647567 0.386573
O O4 0.356909 0.865941 0.387291
O O5 0.010909 0.246627 0.750000
O O6 0.189321 0.247431 0.655114
O O7 0.985486 0.122090 0.641133
O O8 0.992329 0.371849 0.640490
O O9 0.366231 0.237054 0.250000
O O10 0.323684 0.070647 0.168113
O O11 0.010925 0.005150 0.250000
O O12 0.810218 0.994014 0.169510
O O13 0.666858 0.109940 0.250000
O O14 0.545963 0.978651 0.331345
O O15 0.366001 0.597660 0.750000
#
# Coordination Sequence:
#
# PCOD9440005 Si02
#       6
#     8   8   8   8   8   8
#     4  11  21  31  48  75 105 135 170 216 265 314
#     4   9  17  30  50  78 107 135 170 215 264 310
#     4   9  18  32  50  73 102 137 176 213 254 310
#     4   9  17  29  48  74 104 135 170 215 263 310
#     4   9  18  32  50  73 101 135 172 211 259 313
#     4   9  17  31  51  72  97 132 171 211 256 310
#
# _framework density 20.366116999999999
#
# number of rings (size 3 to 8) (size 9 to 14) (size 15 to 20)
#    0.000    2.667    0.000    3.500    0.000    6.667 
#    0.000    5.000    0.000    1.000    0.000    4.667 
#    0.000    0.000    0.000    0.000    0.000    0.000 
#
# Total GULP energy -267452.306122 kJ/mol
# GULP energy per Si atom -5571.923044 kJ/mol
# Density = 2.031976 g / cm^3
# Si number density = 20.366117 Si / 1000 Ang^3
#
#
#
# Elastic Constant Matrix: (Units=GPa)
#
#
# Indices 1 2 3 4 5 6 
#
# 1 36.7511 22.3930 14.4700 0.0000 0.0000 0.0000
# 2 22.3930 163.5823 41.4851 0.0000 0.0000 0.0000
# 3 14.4700 41.4851 90.3088 0.0000 0.0000 0.0000
# 4 0.0000 0.0000 0.0000 170.1097 0.0000 0.0000
# 5 0.0000 0.0000 0.0000 0.0000 -11.8457 0.0000
# 6 0.0000 0.0000 0.0000 0.0000 0.0000 -8.7484
#
#
#
# Elastic Compliance Matrix: (Units=1/GPa)
#
#
# Indices 1 2 3 4 5 6 
#
# 1 0.030565 -0.003330 -0.003368 0.000000 0.000000 0.000000
# 2 -0.003330 0.007282 -0.002812 0.000000 0.000000 0.000000
# 3 -0.003368 -0.002812 0.012904 0.000000 0.000000 0.000000
# 4 0.000000 0.000000 0.000000 0.005879 0.000000 0.000000
# 5 0.000000 0.000000 0.000000 0.000000 -0.084419 0.000000
# 6 0.000000 0.000000 0.000000 0.000000 0.000000 -0.114307
#
#
# Mechanical properties :
#
#
# Convention : Reuss Voigt Hill
#
# Bulk Modulus (GPa) = 31.51313 49.70426 40.60870
# Shear Modulus (GPa) = -44.44441 44.05608 -0.19417
#
# Velocity S-wave (km/s) = -4.67655 4.65607 -0.30910
# Velocity P-wave (km/s) = 3.69503 7.30505 4.45592
#
# Compressibility (1/GPa) = 0.03173281
#
# Stress axis : x y z
#
# Youngs Moduli (GPa) = 32.71706 137.32474 77.49381
#
# Poissons Ratio (x) = 0.45730 0.26097
# Poissons Ratio (y) = 0.10895 0.21788
# Poissons Ratio (z) = 0.11018 0.38610
#
# Static dielectric constant tensor:
#      x y z
#    x 1.746550 0.000000 0.000000 
#    y 0.000000 1.853830 0.000000 
#    z 0.000000 0.000000 1.648740 
# 
# From -- ./inp_files/21782.got.cif
#   From: 2010.05.17/outbox.cif.g08.bks.cpg/sg57_11_cif.got.tgz:21782.got - 2010.06.03 13:58:18.
