data_PCOD9440787
_publ_section_title
;
Structure prediction by ZEFSAII (Michael W. Deem and Ramdas Pophale) SiO2 
 PCOD9440787
Probable space group: P N N M
;
_chemical_formula_sum "Si O2"
_cell_formula_units_Z 64
_cell_length_a 10.930879
_cell_length_b 15.903165
_cell_length_c 15.206826
_cell_angle_alpha 90.000000
_cell_angle_beta 90.000000
_cell_angle_gamma 90.000000
_cell_volume 2643.487301
_symmetry_space_group_name_H-M "P N N M"
_symmetry_group_IT_number 58
_symmetry_cell_setting 'orthorhombic'
loop_
_space_group_symop_operation_xyz
x,y,z
-x,-y,z
1/2+x,1/2-y,1/2-z
1/2-x,1/2+y,1/2-z
-x,-y,-z
x,y,-z
1/2-x,1/2+y,1/2+z
1/2+x,1/2-y,1/2+z
loop_
_atom_site_type_symbol
_atom_site_label
_atom_site_fract_x
_atom_site_fract_y
_atom_site_fract_z
Si Si1 0.241158 0.117331 0.404275
Si Si2 0.278456 0.774373 0.404066
Si Si3 0.052335 0.293160 0.257297
Si Si4 0.535105 0.604790 0.714091
Si Si5 0.802963 0.927436 0.898665
Si Si6 0.118673 0.556241 0.743870
Si Si7 0.552819 0.609770 0.903132
Si Si8 0.245284 0.812944 0.898294
O O1 0.281001 0.086226 0.500000
O O2 0.291173 0.060215 0.326564
O O3 0.093381 0.122482 0.404656
O O4 0.289305 0.213448 0.394786
O O5 0.330085 0.798101 0.500000
O O6 0.359368 0.812096 0.325913
O O7 0.281299 0.673550 0.399456
O O8 0.140348 0.808673 0.400610
O O9 0.018990 0.196014 0.244357
O O10 0.130831 0.314723 0.342955
O O11 0.932857 0.349279 0.261686
O O12 0.423088 0.562734 0.661540
O O13 0.578933 0.568281 0.808133
O O14 0.643798 0.629538 0.648142
O O15 0.690721 0.966532 0.844801
O O16 0.816976 0.954583 0.000000
O O17 0.000000 0.500000 0.757749
O O18 0.583691 0.570851 0.000000
O O19 0.260432 0.835280 0.000000
#
# Coordination Sequence:
#
# PCOD9440787 Si02
#       8
#     8   8   8   8   8   8   8   8
#     4  10  20  35  55  83 115 148 186 234 290 350
#     4   9  18  32  56  88 115 142 175 232 305 351
#     4  11  21  33  53  81 118 151 184 235 277 340
#     4  11  18  33  58  84 117 144 178 236 309 347
#     4  10  21  36  55  81 111 147 191 238 288 344
#     4  12  25  40  56  78 114 165 202 227 269 335
#     4  10  17  28  53  84 113 142 173 221 291 352
#     4  11  21  33  56  88 117 146 181 238 304 350
#
# _framework density 24.210443999999999
#
# number of rings (size 3 to 8) (size 9 to 14) (size 15 to 20)
#    0.000    1.500    5.000    1.875    0.000    2.000 
#    0.000    0.000    0.000    3.000    0.000    4.375 
#    0.000    0.000    0.000    0.000    0.000    0.000 
#
# Total GULP energy -358038.211233 kJ/mol
# GULP energy per Si atom -5594.347051 kJ/mol
# Density = 2.415534 g / cm^3
# Si number density = 24.210444 Si / 1000 Ang^3
#
#
#
# Elastic Constant Matrix: (Units=GPa)
#
#
# Indices 1 2 3 4 5 6 
#
# 1 111.9292 27.0605 77.7049 0.0000 0.0000 0.0000
# 2 27.0605 61.3711 20.8209 0.0000 0.0000 0.0000
# 3 77.7049 20.8209 254.5555 0.0000 0.0000 0.0000
# 4 0.0000 0.0000 0.0000 -1.7690 0.0000 0.0000
# 5 0.0000 0.0000 0.0000 0.0000 18.0938 0.0000
# 6 0.0000 0.0000 0.0000 0.0000 0.0000 51.7030
#
#
#
# Elastic Compliance Matrix: (Units=1/GPa)
#
#
# Indices 1 2 3 4 5 6 
#
# 1 0.012342 -0.004283 -0.003417 0.000000 0.000000 0.000000
# 2 -0.004283 0.018245 -0.000185 0.000000 0.000000 0.000000
# 3 -0.003417 -0.000185 0.004987 0.000000 0.000000 0.000000
# 4 0.000000 0.000000 0.000000 -0.565276 0.000000 0.000000
# 5 0.000000 0.000000 0.000000 0.000000 0.055267 0.000000
# 6 0.000000 0.000000 0.000000 0.000000 0.000000 0.019341
#
#
# Mechanical properties :
#
#
# Convention : Reuss Voigt Hill
#
# Bulk Modulus (GPa) = 50.49402 75.44761 62.97081
# Shear Modulus (GPa) = -11.55477 33.75684 11.10104
#
# Velocity S-wave (km/s) = -2.18701 3.73810 2.14364
# Velocity P-wave (km/s) = 3.81107 7.06131 5.67390
#
# Compressibility (1/GPa) = 0.01980433
#
# Stress axis : x y z
#
# Youngs Moduli (GPa) = 81.02468 54.80824 200.53463
#
# Poissons Ratio (x) = 0.23472 0.68526
# Poissons Ratio (y) = 0.34700 0.03711
# Poissons Ratio (z) = 0.27688 0.01014
#
# Static dielectric constant tensor:
#      x y z
#    x 1.863920 0.000000 0.000000 
#    y 0.000000 1.985480 0.000000 
#    z 0.000000 0.000000 1.956830 
# 
# From -- ./inp_files/21516.got.cif
#   From: 2010.05.17/outbox.cif.g08.bks.cpg/sg58_11_cif.got.tgz:21516.got - 2010.06.03 14:20:14.
