data_PCOD9440927
_publ_section_title
;
Structure prediction by ZEFSAII (Michael W. Deem and Ramdas Pophale) SiO2 
 PCOD9440927
Probable space group: P N N M
;
_chemical_formula_sum "Si O2"
_cell_formula_units_Z 56
_cell_length_a 30.691268
_cell_length_b 13.968385
_cell_length_c 7.733329
_cell_angle_alpha 90.000000
_cell_angle_beta 90.000000
_cell_angle_gamma 90.000000
_cell_volume 3315.335737
_symmetry_space_group_name_H-M "P N N M"
_symmetry_group_IT_number 58
_symmetry_cell_setting 'orthorhombic'
loop_
_space_group_symop_operation_xyz
x,y,z
-x,-y,z
1/2+x,1/2-y,1/2-z
1/2-x,1/2+y,1/2-z
-x,-y,-z
x,y,-z
1/2-x,1/2+y,1/2+z
1/2+x,1/2-y,1/2+z
loop_
_atom_site_type_symbol
_atom_site_label
_atom_site_fract_x
_atom_site_fract_y
_atom_site_fract_z
Si Si1 0.902746 0.899750 0.288219
Si Si2 0.592207 0.622417 0.211880
Si Si3 0.776229 0.417376 0.699592
Si Si4 0.002715 0.116222 0.702021
Si Si5 0.767445 0.632535 0.200640
Si Si6 0.312048 0.682427 0.800144
Si Si7 0.678567 0.727471 0.211507
O O1 0.904492 0.896835 0.500000
O O2 0.949574 0.860691 0.224753
O O3 0.859699 0.843969 0.231645
O O4 0.899127 0.011727 0.240342
O O5 0.543692 0.650251 0.274447
O O6 0.632076 0.688232 0.269765
O O7 0.591156 0.624163 0.000000
O O8 0.787536 0.431487 0.500000
O O9 0.777487 0.521225 0.783171
O O10 0.727573 0.373856 0.711626
O O11 0.807480 0.333499 0.770543
O O12 0.003279 0.144713 0.500000
O O13 0.000000 0.000000 0.705863
O O14 0.800576 0.705508 0.290317
O O15 0.718400 0.657384 0.263027
O O16 0.768729 0.659981 0.000000
O O17 0.310744 0.651328 0.000000
O O18 0.677641 0.728533 0.000000
#
# Coordination Sequence:
#
# PCOD9440927 Si02
#       7
#     8   8   8   8   8   8   8
#     4   8  13  20  33  56  84 111 135 160 195 240
#     4   8  11  18  33  53  80 110 133 156 196 245
#     4  10  19  30  42  59  84 110 140 174 206 242
#     4   7  10  16  28  50  80 108 131 157 192 239
#     4  10  19  31  44  59  82 109 140 175 209 244
#     4  10  18  28  43  62  85 112 139 166 202 245
#     4   8  15  25  38  57  79 104 132 164 203 246
#
# _framework density 16.891200000000001
#
# number of rings (size 3 to 8) (size 9 to 14) (size 15 to 20)
#    0.000    3.286    0.000    4.714    0.000    2.286 
#    0.000    0.000    0.000    0.000    0.000    1.000 
#    0.000   57.143    0.000    0.000    0.000    0.000 
#
# Total GULP energy -311770.749632 kJ/mol
# GULP energy per Si atom -5567.334815 kJ/mol
# Density = 1.685275 g / cm^3
# Si number density = 16.891200 Si / 1000 Ang^3
#
#
#
# Elastic Constant Matrix: (Units=GPa)
#
#
# Indices 1 2 3 4 5 6 
#
# 1 159.6432 56.7617 -0.5240 0.0000 0.0000 0.0000
# 2 56.7617 74.5074 -3.8915 0.0000 0.0000 0.0000
# 3 -0.5240 -3.8915 25.0900 0.0000 0.0000 0.0000
# 4 0.0000 0.0000 0.0000 14.1090 0.0000 0.0000
# 5 0.0000 0.0000 0.0000 0.0000 8.5054 0.0000
# 6 0.0000 0.0000 0.0000 0.0000 0.0000 26.6142
#
#
#
# Elastic Compliance Matrix: (Units=1/GPa)
#
#
# Indices 1 2 3 4 5 6 
#
# 1 0.008609 -0.006602 -0.000844 0.000000 0.000000 0.000000
# 2 -0.006602 0.018595 0.002746 0.000000 0.000000 0.000000
# 3 -0.000844 0.002746 0.040265 0.000000 0.000000 0.000000
# 4 0.000000 0.000000 0.000000 0.070877 0.000000 0.000000
# 5 0.000000 0.000000 0.000000 0.000000 0.117572 0.000000
# 6 0.000000 0.000000 0.000000 0.000000 0.000000 0.037574
#
#
# Mechanical properties :
#
#
# Convention : Reuss Voigt Hill
#
# Bulk Modulus (GPa) = 17.22138 40.43699 28.82918
# Shear Modulus (GPa) = 15.51600 23.63869 19.57734
#
# Velocity S-wave (km/s) = 3.03410 3.74500 3.40814
# Velocity P-wave (km/s) = 4.74257 6.53389 5.70893
#
# Compressibility (1/GPa) = 0.05806736
#
# Stress axis : x y z
#
# Youngs Moduli (GPa) = 116.16121 53.77832 24.83559
#
# Poissons Ratio (x) = 0.35507 0.02097
# Poissons Ratio (y) = 0.76695 -0.06820
# Poissons Ratio (z) = 0.09807 -0.14769
#
# Static dielectric constant tensor:
#      x y z
#    x 1.606500 0.000000 0.000000 
#    y 0.000000 1.539850 0.000000 
#    z 0.000000 0.000000 1.648250 
# 
# From -- ./inp_files/7119.got.cif
#   From: 2010.05.17/outbox.cif.g08.bks.cpg/sg58_4_cif.got.tgz:7119.got - 2010.06.03 14:20:14.
