data_PCOD9440534
_publ_section_title
;
Structure prediction by ZEFSAII (Michael W. Deem and Ramdas Pophale) SiO2 
 PCOD9440534
Probable space group: P B C M
;
_chemical_formula_sum "Si O2"
_cell_formula_units_Z 56
_cell_length_a 21.000000
_cell_length_b 15.000000
_cell_length_c 9.000000
_cell_angle_alpha 90.000000
_cell_angle_beta 90.000000
_cell_angle_gamma 90.000000
_cell_volume 2835.000000
_symmetry_space_group_name_H-M "P B C M"
_symmetry_group_IT_number 57
_symmetry_cell_setting 'orthorhombic'
loop_
_space_group_symop_operation_xyz
x,y,z
-x,-y,1/2+z
x,1/2-y,-z
-x,1/2+y,1/2-z
-x,-y,-z
x,y,1/2-z
-x,1/2+y,z
x,1/2-y,1/2+z
loop_
_atom_site_type_symbol
_atom_site_label
_atom_site_fract_x
_atom_site_fract_y
_atom_site_fract_z
Si Si1 0.523687 0.847755 0.572255
Si Si2 0.024109 0.837118 0.924227
Si Si3 0.149329 0.892224 0.416329
Si Si4 0.729014 0.475668 0.428542
Si Si5 0.225696 0.158658 0.574534
Si Si6 0.415915 0.964886 0.073644
Si Si7 0.105560 0.096383 0.082807
O O1 0.534446 0.750000 0.500000
O O2 0.523426 0.836444 0.750000
O O3 0.458850 0.894811 0.515102
O O4 0.571762 0.930265 0.535219
O O5 0.029751 0.827009 0.750000
O O6 0.968673 0.907601 0.956108
O O7 0.996197 0.750000 0.000000
O O8 0.093624 0.851220 0.988666
O O9 0.148762 0.853852 0.250000
O O10 0.220531 0.900211 0.477458
O O11 0.130415 0.996208 0.408726
O O12 0.738192 0.487866 0.250000
O O13 0.741909 0.570247 0.506674
O O14 0.657533 0.446222 0.453159
O O15 0.249316 0.250000 0.500000
O O16 0.233838 0.161914 0.750000
O O17 0.151293 0.146980 0.530105
O O18 0.430571 0.956436 0.250000
O O19 0.112009 0.135721 0.250000
#
# Coordination Sequence:
#
# PCOD9440534 Si02
#       7
#     8   8   8   8   8   8   8
#     4  10  20  35  58  88 120 151 185 225 268 319
#     4  11  22  34  50  72  98 128 167 214 263 313
#     4   9  18  34  54  74  99 129 163 206 257 312
#     4   9  19  37  57  77 105 140 176 216 264 314
#     4  11  21  32  49  74 105 139 176 219 266 320
#     4   9  19  37  60  85 115 150 186 227 274 322
#     4   9  19  35  53  73  97 128 166 212 266 320
#
# _framework density 19.753086
#
# number of rings (size 3 to 8) (size 9 to 14) (size 15 to 20)
#    0.000    2.286    0.000    3.857    0.000    6.286 
#    0.000    2.143    0.000    0.000    0.000    0.000 
#    0.000    0.000    0.000    0.000    0.000    0.000 
#
# Total GULP energy -311980.551449 kJ/mol
# GULP energy per Si atom -5571.081276 kJ/mol
# Density = 1.970813 g / cm^3
# Si number density = 19.753086 Si / 1000 Ang^3
#
#
#
# Elastic Constant Matrix: (Units=GPa)
#
#
# Indices 1 2 3 4 5 6 
#
# 1 93.1937 -8.3740 10.4794 0.0000 0.0000 0.0000
# 2 -8.3740 15.7867 -13.1882 0.0000 0.0000 0.0000
# 3 10.4794 -13.1882 19.0892 0.0000 0.0000 0.0000
# 4 0.0000 0.0000 0.0000 25.8729 0.0000 0.0000
# 5 0.0000 0.0000 0.0000 0.0000 24.0395 0.0000
# 6 0.0000 0.0000 0.0000 0.0000 0.0000 10.2328
#
#
#
# Elastic Compliance Matrix: (Units=1/GPa)
#
#
# Indices 1 2 3 4 5 6 
#
# 1 0.011462 0.001947 -0.004947 0.000000 0.000000 0.000000
# 2 0.001947 0.150134 0.102654 0.000000 0.000000 0.000000
# 3 -0.004947 0.102654 0.126022 0.000000 0.000000 0.000000
# 4 0.000000 0.000000 0.000000 0.038651 0.000000 0.000000
# 5 0.000000 0.000000 0.000000 0.000000 0.041598 0.000000
# 6 0.000000 0.000000 0.000000 0.000000 0.000000 0.097725
#
#
# Mechanical properties :
#
#
# Convention : Reuss Voigt Hill
#
# Bulk Modulus (GPa) = 2.05370 11.76715 6.91042
# Shear Modulus (GPa) = 11.66613 21.30584 16.48599
#
# Velocity S-wave (km/s) = 2.43286 3.28778 2.89208
# Velocity P-wave (km/s) = 2.98893 4.51472 3.82860
#
# Compressibility (1/GPa) = 0.48692570
#
# Stress axis : x y z
#
# Youngs Moduli (GPa) = 87.24815 6.66071 7.93515
#
# Poissons Ratio (x) = -0.01297 0.03925
# Poissons Ratio (y) = -0.16988 -0.81457
# Poissons Ratio (z) = 0.43160 -0.68375
#
# Static dielectric constant tensor:
#      x y z
#    x 1.747100 0.000000 0.000000 
#    y 0.000000 1.701850 0.000000 
#    z 0.000000 0.000000 1.701250 
# 
# From -- ./inp_files/8161.got.cif
#   From: 2010.05.17/outbox.ucp.g08.bks.cvg/sg57_5_cif.got.tgz:8161.got - 2010.06.11 16:39:23.
