data_PCOD9440050
_publ_section_title
;
Structure prediction by ZEFSAII (Michael W. Deem and Ramdas Pophale) SiO2 
 PCOD9440050
Probable space group: P B C M
;
_chemical_formula_sum "Si O2"
_cell_formula_units_Z 40
_cell_length_a 12.511879
_cell_length_b 7.634877
_cell_length_c 17.012968
_cell_angle_alpha 90.000000
_cell_angle_beta 90.000000
_cell_angle_gamma 90.000000
_cell_volume 1625.191962
_symmetry_space_group_name_H-M "P B C M"
_symmetry_group_IT_number 57
_symmetry_cell_setting 'orthorhombic'
loop_
_space_group_symop_operation_xyz
x,y,z
-x,-y,1/2+z
x,1/2-y,-z
-x,1/2+y,1/2-z
-x,-y,-z
x,y,1/2-z
-x,1/2+y,z
x,1/2-y,1/2+z
loop_
_atom_site_type_symbol
_atom_site_label
_atom_site_fract_x
_atom_site_fract_y
_atom_site_fract_z
Si Si1 0.282420 0.579742 0.442234
Si Si2 0.352752 0.138623 0.413562
Si Si3 0.859874 0.597070 0.340927
Si Si4 0.931504 0.233854 0.088420
Si Si5 0.562288 0.222418 0.842199
O O1 0.290863 0.750000 0.500000
O O2 0.325813 0.426396 0.498070
O O3 0.158973 0.583702 0.416143
O O4 0.356681 0.624244 0.368528
O O5 0.457332 0.250936 0.395053
O O6 0.241418 0.199614 0.375537
O O7 0.382575 0.960175 0.364899
O O8 0.842046 0.560885 0.250000
O O9 0.873617 0.413468 0.387065
O O10 0.971560 0.694561 0.354326
O O11 0.975702 0.250000 0.000000
O O12 0.537754 0.229673 0.750000
#
# Coordination Sequence:
#
# PCOD9440050 Si02
#       5
#     8   8   8   8   8
#     4   9  19  39  65  89 119 166 214 253 313 383
#     4  11  23  42  63  91 130 170 217 263 323 388
#     4  12  24  42  67  99 135 171 216 276 331 387
#     4  11  22  43  70  93 132 175 220 265 330 394
#     4  11  21  38  64  90 126 168 208 268 324 376
#
# _framework density 24.612477999999999
#
# number of rings (size 3 to 8) (size 9 to 14) (size 15 to 20)
#    0.000    1.200    6.000    3.600    0.000    0.800 
#    3.600    3.000    0.000    0.000    0.000    0.000 
#    0.000    0.000    0.000    0.000    0.000    0.000 
#
# Total GULP energy -224130.920110 kJ/mol
# GULP energy per Si atom -5603.273003 kJ/mol
# Density = 2.455646 g / cm^3
# Si number density = 24.612478 Si / 1000 Ang^3
#
#
#
# Elastic Constant Matrix: (Units=GPa)
#
#
# Indices 1 2 3 4 5 6 
#
# 1 142.9280 1.1932 13.2584 0.0000 0.0000 0.0000
# 2 1.1932 45.4525 -26.4634 0.0000 0.0000 0.0000
# 3 13.2584 -26.4634 90.9709 0.0000 0.0000 0.0000
# 4 0.0000 0.0000 0.0000 20.1253 0.0000 0.0000
# 5 0.0000 0.0000 0.0000 0.0000 30.9855 0.0000
# 6 0.0000 0.0000 0.0000 0.0000 0.0000 32.4832
#
#
#
# Elastic Compliance Matrix: (Units=1/GPa)
#
#
# Indices 1 2 3 4 5 6 
#
# 1 0.007127 -0.000953 -0.001316 0.000000 0.000000 0.000000
# 2 -0.000953 0.026615 0.007881 0.000000 0.000000 0.000000
# 3 -0.001316 0.007881 0.013477 0.000000 0.000000 0.000000
# 4 0.000000 0.000000 0.000000 0.049689 0.000000 0.000000
# 5 0.000000 0.000000 0.000000 0.000000 0.032273 0.000000
# 6 0.000000 0.000000 0.000000 0.000000 0.000000 0.030785
#
#
# Mechanical properties :
#
#
# Convention : Reuss Voigt Hill
#
# Bulk Modulus (GPa) = 17.11103 28.36977 22.74040
# Shear Modulus (GPa) = 29.72265 36.14300 32.93283
#
# Velocity S-wave (km/s) = 3.47886 3.83624 3.66191
# Velocity P-wave (km/s) = 4.80665 5.58336 5.20950
#
# Compressibility (1/GPa) = 0.05844182
#
# Stress axis : x y z
#
# Youngs Moduli (GPa) = 140.32015 37.57339 74.20091
#
# Poissons Ratio (x) = 0.03582 0.09765
# Poissons Ratio (y) = 0.13376 -0.58478
# Poissons Ratio (z) = 0.18466 -0.29612
#
# Static dielectric constant tensor:
#      x y z
#    x 1.918650 0.000000 0.000000 
#    y 0.000000 2.096800 0.000000 
#    z 0.000000 0.000000 1.880720 
# 
# From -- ./inp_files/21599.got.cif
#   From: 2010.05.17/outbox.cif.g08.bks.cpg/sg57_11_cif.got.tgz:21599.got - 2010.06.03 13:58:18.
