data_PCOD9440424
_publ_section_title
;
Structure prediction by ZEFSAII (Michael W. Deem and Ramdas Pophale) SiO2 
 PCOD9440424
Probable space group: P B C M
;
_chemical_formula_sum "Si O2"
_cell_formula_units_Z 64
_cell_length_a 24.000000
_cell_length_b 18.000000
_cell_length_c 9.000000
_cell_angle_alpha 90.000000
_cell_angle_beta 90.000000
_cell_angle_gamma 90.000000
_cell_volume 3888.000000
_symmetry_space_group_name_H-M "P B C M"
_symmetry_group_IT_number 57
_symmetry_cell_setting 'orthorhombic'
loop_
_space_group_symop_operation_xyz
x,y,z
-x,-y,1/2+z
x,1/2-y,-z
-x,1/2+y,1/2-z
-x,-y,-z
x,y,1/2-z
-x,1/2+y,z
x,1/2-y,1/2+z
loop_
_atom_site_type_symbol
_atom_site_label
_atom_site_fract_x
_atom_site_fract_y
_atom_site_fract_z
Si Si1 0.561462 0.830539 0.071658
Si Si2 0.632425 0.521439 0.929972
Si Si3 0.175996 0.175541 0.572585
Si Si4 0.761942 0.978277 0.427279
Si Si5 0.867761 0.047164 0.927374
Si Si6 0.068931 0.105711 0.428625
Si Si7 0.957021 0.168264 0.929464
Si Si8 0.537205 0.065047 0.928593
O O1 0.565588 0.823316 0.250000
O O2 0.603727 0.898593 0.028886
O O3 0.498730 0.860887 0.036543
O O4 0.572197 0.750000 0.000000
O O5 0.628277 0.516568 0.750000
O O6 0.697393 0.516802 0.973713
O O7 0.597264 0.454058 0.002493
O O8 0.199467 0.250000 0.500000
O O9 0.169225 0.183069 0.750000
O O10 0.215050 0.104701 0.542471
O O11 0.116728 0.158924 0.495187
O O12 0.763578 0.989259 0.250000
O O13 0.807777 0.032710 0.499231
O O14 0.860176 0.046539 0.750000
O O15 0.901578 0.121199 0.968130
O O16 0.908226 0.977068 0.963169
O O17 0.064990 0.113850 0.250000
O O18 0.010641 0.125270 0.504941
O O19 0.961550 0.172121 0.750000
O O20 0.955789 0.250000 0.000000
O O21 0.539100 0.058328 0.750000
O O22 0.500000 0.000000 0.000000
#
# Coordination Sequence:
#
# PCOD9440424 Si02
#       8
#     8   8   8   8   8   8   8   8
#     4   9  18  30  46  71 104 132 158 192 234 280
#     4   9  18  33  50  72  99 128 164 204 239 282
#     4  10  19  31  46  67  97 132 164 198 240 288
#     4   9  19  34  52  71  95 128 165 202 242 283
#     4   9  20  36  53  73  98 126 161 203 244 288
#     4  10  19  33  52  73  96 125 160 199 243 295
#     4  11  22  35  51  74 100 125 155 198 249 300
#     4   9  17  30  48  71  97 128 162 198 235 276
#
# _framework density 16.460905
#
# number of rings (size 3 to 8) (size 9 to 14) (size 15 to 20)
#    0.000    2.500    0.000    3.000    0.000    5.500 
#    0.000    0.000    0.000    0.750    0.000    0.000 
#    0.000    0.000    0.000    0.000    0.000    0.000 
#
# Total GULP energy -356714.842580 kJ/mol
# GULP energy per Si atom -5573.669415 kJ/mol
# Density = 1.642344 g / cm^3
# Si number density = 16.460905 Si / 1000 Ang^3
#
#
#
# Elastic Constant Matrix: (Units=GPa)
#
#
# Indices 1 2 3 4 5 6 
#
# 1 148.7120 46.6393 38.6881 0.0000 0.0000 0.0000
# 2 46.6393 56.8042 22.4937 0.0000 0.0000 0.0000
# 3 38.6881 22.4937 43.6669 0.0000 0.0000 0.0000
# 4 0.0000 0.0000 0.0000 25.9593 0.0000 0.0000
# 5 0.0000 0.0000 0.0000 0.0000 28.8544 0.0000
# 6 0.0000 0.0000 0.0000 0.0000 0.0000 14.1765
#
#
#
# Elastic Compliance Matrix: (Units=1/GPa)
#
#
# Indices 1 2 3 4 5 6 
#
# 1 0.010136 -0.005987 -0.005896 0.000000 0.000000 0.000000
# 2 -0.005987 0.025652 -0.007909 0.000000 0.000000 0.000000
# 3 -0.005896 -0.007909 0.032199 0.000000 0.000000 0.000000
# 4 0.000000 0.000000 0.000000 0.038522 0.000000 0.000000
# 5 0.000000 0.000000 0.000000 0.000000 0.034657 0.000000
# 6 0.000000 0.000000 0.000000 0.000000 0.000000 0.070539
#
#
# Mechanical properties :
#
#
# Convention : Reuss Voigt Hill
#
# Bulk Modulus (GPa) = 35.20949 51.64727 43.42838
# Shear Modulus (GPa) = 19.17488 23.22217 21.19852
#
# Velocity S-wave (km/s) = 3.41673 3.76007 3.59250
# Velocity P-wave (km/s) = 6.08289 7.09187 6.60667
#
# Compressibility (1/GPa) = 0.02840143
#
# Stress axis : x y z
#
# Youngs Moduli (GPa) = 98.65707 38.98284 31.05712
#
# Poissons Ratio (x) = 0.23341 0.18312
# Poissons Ratio (y) = 0.59071 0.24564
# Poissons Ratio (z) = 0.58170 0.30832
#
# Static dielectric constant tensor:
#      x y z
#    x 1.565980 0.000000 0.000000 
#    y 0.000000 1.554930 0.000000 
#    z 0.000000 0.000000 1.550130 
# 
# From -- ./inp_files/9569.got.cif
#   From: 2010.05.17/outbox.ucp.g08.bks.cvg/sg57_5_cif.got.tgz:9569.got - 2010.06.11 16:39:23.
