data_PCOD9440596
_publ_section_title
;
Structure prediction by ZEFSAII (Michael W. Deem and Ramdas Pophale) SiO2 
 PCOD9440596
Probable space group: P B C M
;
_chemical_formula_sum "Si O2"
_cell_formula_units_Z 56
_cell_length_a 15.000000
_cell_length_b 21.000000
_cell_length_c 9.000000
_cell_angle_alpha 90.000000
_cell_angle_beta 90.000000
_cell_angle_gamma 90.000000
_cell_volume 2835.000000
_symmetry_space_group_name_H-M "P B C M"
_symmetry_group_IT_number 57
_symmetry_cell_setting 'orthorhombic'
loop_
_space_group_symop_operation_xyz
x,y,z
-x,-y,1/2+z
x,1/2-y,-z
-x,1/2+y,1/2-z
-x,-y,-z
x,y,1/2-z
-x,1/2+y,z
x,1/2-y,1/2+z
loop_
_atom_site_type_symbol
_atom_site_label
_atom_site_fract_x
_atom_site_fract_y
_atom_site_fract_z
Si Si1 0.888755 0.704334 0.750000
Si Si2 0.174575 0.852680 0.579203
Si Si3 0.902521 0.006332 0.427605
Si Si4 0.735084 0.556223 0.427636
Si Si5 0.972994 0.250000 0.500000
Si Si6 0.359453 0.681816 0.928218
Si Si7 0.578227 0.457821 0.428172
Si Si8 0.296683 0.186300 0.913574
O O1 0.808597 0.694086 0.623956
O O2 0.963625 0.718169 0.621620
O O3 0.206870 0.852556 0.750000
O O4 0.136631 0.922973 0.545456
O O5 0.093045 0.803803 0.564216
O O6 0.256900 0.832257 0.476087
O O7 0.908334 0.995439 0.250000
O O8 0.830814 0.958074 0.498334
O O9 0.000000 0.000000 0.500000
O O10 0.744651 0.562024 0.250000
O O11 0.669757 0.496630 0.460494
O O12 0.694485 0.621299 0.494134
O O13 0.364818 0.687068 0.750000
O O14 0.412295 0.616678 0.974238
O O15 0.386002 0.750000 0.000000
O O16 0.500000 0.500000 0.500000
O O17 0.566545 0.458171 0.250000
O O18 0.340932 0.181117 0.750000
O O19 0.325705 0.250000 0.000000
#
# Coordination Sequence:
#
# PCOD9440596 Si02
#       8
#     4   8   8   8   4   8   8   8
#     4  10  22  36  54  82 124 162 228 274 326 384
#     4  11  24  38  56  86 123 168 220 268 329 382
#     4  11  25  40  58  87 126 173 221 274 329 395
#     4  11  23  42  65  93 130 171 222 278 334 404
#     4  12  22  36  54  84 122 170 220 278 318 388
#     4  11  23  42  67 101 135 169 216 271 332 397
#     4  10  24  46  73 103 135 175 218 273 344 416
#     4  10  21  38  59  88 119 168 218 274 335 387
#
# _framework density 19.753086
#
# number of rings (size 3 to 8) (size 9 to 14) (size 15 to 20)
#    0.429    0.857    3.571    1.714    3.000    2.857 
#    0.000    0.714    0.000    1.714    0.000    0.000 
#    0.000    0.000    0.000    0.000    0.000    0.000 
#
# Total GULP energy -311770.098015 kJ/mol
# GULP energy per Si atom -5567.323179 kJ/mol
# Density = 1.970813 g / cm^3
# Si number density = 19.753086 Si / 1000 Ang^3
#
#
#
# Elastic Constant Matrix: (Units=GPa)
#
#
# Indices 1 2 3 4 5 6 
#
# 1 47.8180 9.9274 23.2734 0.0000 0.0000 0.0000
# 2 9.9274 145.4490 57.1839 0.0000 0.0000 0.0000
# 3 23.2734 57.1839 88.5554 0.0000 0.0000 0.0000
# 4 0.0000 0.0000 0.0000 29.5331 0.0000 0.0000
# 5 0.0000 0.0000 0.0000 0.0000 29.4572 0.0000
# 6 0.0000 0.0000 0.0000 0.0000 0.0000 19.3253
#
#
#
# Elastic Compliance Matrix: (Units=1/GPa)
#
#
# Indices 1 2 3 4 5 6 
#
# 1 0.024119 0.001134 -0.007071 0.000000 0.000000 0.000000
# 2 0.001134 0.009268 -0.006283 0.000000 0.000000 0.000000
# 3 -0.007071 -0.006283 0.017208 0.000000 0.000000 0.000000
# 4 0.000000 0.000000 0.000000 0.033860 0.000000 0.000000
# 5 0.000000 0.000000 0.000000 0.000000 0.033948 0.000000
# 6 0.000000 0.000000 0.000000 0.000000 0.000000 0.051746
#
#
# Mechanical properties :
#
#
# Convention : Reuss Voigt Hill
#
# Bulk Modulus (GPa) = 38.23386 51.39908 44.81647
# Shear Modulus (GPa) = 24.59356 28.42564 26.50960
#
# Velocity S-wave (km/s) = 3.53235 3.79759 3.66737
# Velocity P-wave (km/s) = 6.00288 6.73099 6.37734
#
# Compressibility (1/GPa) = 0.02615482
#
# Stress axis : x y z
#
# Youngs Moduli (GPa) = 41.46174 107.89901 58.11387
#
# Poissons Ratio (x) = -0.12233 0.41091
# Poissons Ratio (y) = -0.04701 0.36511
# Poissons Ratio (z) = 0.29317 0.67789
#
# Static dielectric constant tensor:
#      x y z
#    x 1.667600 0.000000 0.000000 
#    y 0.000000 1.712260 0.000000 
#    z 0.000000 0.000000 1.689590 
# 
# From -- ./inp_files/5330.got.cif
#   From: 2010.05.17/outbox.ucp.g08.bks.cvg/sg57_3_cif.got.tgz:5330.got - 2010.06.11 16:39:23.
