data_PCOD9440915
_publ_section_title
;
Structure prediction by ZEFSAII (Michael W. Deem and Ramdas Pophale) SiO2 
 PCOD9440915
Probable space group: P N N M
;
_chemical_formula_sum "Si O2"
_cell_formula_units_Z 64
_cell_length_a 19.851343
_cell_length_b 24.079642
_cell_length_c 7.632311
_cell_angle_alpha 90.000000
_cell_angle_beta 90.000000
_cell_angle_gamma 90.000000
_cell_volume 3648.345654
_symmetry_space_group_name_H-M "P N N M"
_symmetry_group_IT_number 58
_symmetry_cell_setting 'orthorhombic'
loop_
_space_group_symop_operation_xyz
x,y,z
-x,-y,z
1/2+x,1/2-y,1/2-z
1/2-x,1/2+y,1/2-z
-x,-y,-z
x,y,-z
1/2-x,1/2+y,1/2+z
1/2+x,1/2-y,1/2+z
loop_
_atom_site_type_symbol
_atom_site_label
_atom_site_fract_x
_atom_site_fract_y
_atom_site_fract_z
Si Si1 0.842555 0.736943 0.206679
Si Si2 0.491306 0.742833 0.714365
Si Si3 0.139736 0.067916 0.294652
Si Si4 0.496801 0.383817 0.295186
Si Si5 0.757270 0.843545 0.298241
Si Si6 0.863162 0.272982 0.214556
Si Si7 0.778869 0.164707 0.789070
Si Si8 0.639267 0.559217 0.712728
O O1 0.805217 0.789196 0.294464
O O2 0.795409 0.683672 0.234167
O O3 0.919363 0.732664 0.268844
O O4 0.843772 0.749737 0.000000
O O5 0.491694 0.742997 0.500000
O O6 0.495708 0.678655 0.775284
O O7 0.559377 0.773716 0.770137
O O8 0.134530 0.081476 0.500000
O O9 0.067279 0.084418 0.218159
O O10 0.199419 0.106397 0.218935
O O11 0.152624 0.002955 0.273327
O O12 0.480897 0.375977 0.500000
O O13 0.434011 0.418969 0.224549
O O14 0.743128 0.858704 0.500000
O O15 0.686682 0.821546 0.221877
O O16 0.829557 0.214159 0.267539
O O17 0.861518 0.273789 0.000000
O O18 0.806693 0.105441 0.729967
O O19 0.780397 0.164520 0.000000
O O20 0.638915 0.557449 0.500000
#
# Coordination Sequence:
#
# PCOD9440915 Si02
#       8
#     8   8   8   8   8   8   8   8
#     4  10  18  27  45  70  93 114 141 182 233 271
#     4   9  15  25  45  70  90 113 146 187 222 256
#     4  11  22  32  43  65  96 126 153 189 237 271
#     4  10  18  31  47  65  89 121 163 193 212 256
#     4   9  18  31  46  63  87 122 155 184 222 268
#     4   8  13  26  47  65  83 110 149 188 217 257
#     4   9  17  31  48  65  87 117 153 188 224 266
#     4  10  20  33  50  66  84 123 169 196 216 257
#
# _framework density 17.542197000000002
#
# number of rings (size 3 to 8) (size 9 to 14) (size 15 to 20)
#    0.000    2.500    2.500    1.875    0.000    3.000 
#    0.000    0.000    0.000    6.000    0.000    0.875 
#    0.000    7.000    0.000    0.000    0.000    0.000 
#
# Total GULP energy -356834.824559 kJ/mol
# GULP energy per Si atom -5575.544134 kJ/mol
# Density = 1.750227 g / cm^3
# Si number density = 17.542197 Si / 1000 Ang^3
#
#
#
# Elastic Constant Matrix: (Units=GPa)
#
#
# Indices 1 2 3 4 5 6 
#
# 1 145.3807 67.7658 -8.9603 0.0000 0.0000 0.0000
# 2 67.7658 95.1881 -9.4174 0.0000 0.0000 0.0000
# 3 -8.9603 -9.4174 30.8230 0.0000 0.0000 0.0000
# 4 0.0000 0.0000 0.0000 15.5463 0.0000 0.0000
# 5 0.0000 0.0000 0.0000 0.0000 11.4103 0.0000
# 6 0.0000 0.0000 0.0000 0.0000 0.0000 23.0258
#
#
#
# Elastic Compliance Matrix: (Units=1/GPa)
#
#
# Indices 1 2 3 4 5 6 
#
# 1 0.010313 -0.007265 0.000778 0.000000 0.000000 0.000000
# 2 -0.007265 0.015951 0.002762 0.000000 0.000000 0.000000
# 3 0.000778 0.002762 0.033513 0.000000 0.000000 0.000000
# 4 0.000000 0.000000 0.000000 0.064324 0.000000 0.000000
# 5 0.000000 0.000000 0.000000 0.000000 0.087640 0.000000
# 6 0.000000 0.000000 0.000000 0.000000 0.000000 0.043430
#
#
# Mechanical properties :
#
#
# Convention : Reuss Voigt Hill
#
# Bulk Modulus (GPa) = 19.11065 41.12977 30.12021
# Shear Modulus (GPa) = 17.85312 24.79671 21.32491
#
# Velocity S-wave (km/s) = 3.19364 3.76379 3.49038
# Velocity P-wave (km/s) = 4.95145 6.51040 5.78369
#
# Compressibility (1/GPa) = 0.05232683
#
# Stress axis : x y z
#
# Youngs Moduli (GPa) = 96.96698 62.69332 29.83886
#
# Poissons Ratio (x) = 0.45546 -0.02322
# Poissons Ratio (y) = 0.70445 -0.08240
# Poissons Ratio (z) = -0.07547 -0.17313
#
# Static dielectric constant tensor:
#      x y z
#    x 1.616720 0.000000 0.000000 
#    y 0.000000 1.574940 0.000000 
#    z 0.000000 0.000000 1.669130 
# 
# From -- ./inp_files/9397.got.cif
#   From: 2010.05.17/outbox.cif.g08.bks.cpg/sg58_5_cif.got.tgz:9397.got - 2010.06.03 14:20:14.
