data_PCOD9440595
_publ_section_title
;
Structure prediction by ZEFSAII (Michael W. Deem and Ramdas Pophale) SiO2 
 PCOD9440595
Probable space group: P B C M
;
_chemical_formula_sum "Si O2"
_cell_formula_units_Z 64
_cell_length_a 24.000000
_cell_length_b 15.000000
_cell_length_c 9.000000
_cell_angle_alpha 90.000000
_cell_angle_beta 90.000000
_cell_angle_gamma 90.000000
_cell_volume 3240.000000
_symmetry_space_group_name_H-M "P B C M"
_symmetry_group_IT_number 57
_symmetry_cell_setting 'orthorhombic'
loop_
_space_group_symop_operation_xyz
x,y,z
-x,-y,1/2+z
x,1/2-y,-z
-x,1/2+y,1/2-z
-x,-y,-z
x,y,1/2-z
-x,1/2+y,z
x,1/2-y,1/2+z
loop_
_atom_site_type_symbol
_atom_site_label
_atom_site_fract_x
_atom_site_fract_y
_atom_site_fract_z
Si Si1 0.606936 0.161645 0.072328
Si Si2 0.307903 0.984611 0.570628
Si Si3 0.875582 0.840743 0.573189
Si Si4 0.486203 0.094992 0.071417
Si Si5 0.816006 0.001806 0.074905
Si Si6 0.009013 0.097130 0.928461
Si Si7 0.371170 0.341313 0.428020
Si Si8 0.100594 0.833660 0.924065
O O1 0.611033 0.165409 0.250000
O O2 0.643876 0.080197 0.014834
O O3 0.541872 0.150584 0.037858
O O4 0.629628 0.250000 0.000000
O O5 0.309590 0.978321 0.750000
O O6 0.244910 0.964989 0.527428
O O7 0.326642 0.083496 0.532247
O O8 0.854552 0.750000 0.500000
O O9 0.881656 0.833447 0.750000
O O10 0.835605 0.920840 0.525953
O O11 0.935215 0.861962 0.497609
O O12 0.479639 0.089180 0.250000
O O13 0.431051 0.133247 0.996482
O O14 0.500000 0.000000 0.000000
O O15 0.813553 0.974472 0.250000
O O16 0.861385 0.079366 0.064565
O O17 0.013028 0.092123 0.750000
O O18 0.955358 0.151393 0.981951
O O19 0.000000 0.000000 0.000000
O O20 0.353114 0.250000 0.500000
O O21 0.376470 0.335905 0.250000
O O22 0.088236 0.818808 0.750000
O O23 0.130345 0.750000 0.000000
#
# Coordination Sequence:
#
# PCOD9440595 Si02
#       8
#     8   8   8   8   8   8   8   8
#     4  10  21  38  59  87 120 157 197 243 299 359
#     4   9  20  41  63  84 118 161 203 252 306 357
#     4  12  25  42  65  93 127 162 203 252 304 364
#     4  11  21  36  60  89 122 158 198 244 305 366
#     4  10  22  42  66  88 118 162 209 256 307 360
#     4  12  23  39  64  94 128 162 201 246 304 366
#     4  11  22  39  61  88 122 159 202 249 304 365
#     4  11  23  39  62  92 126 163 205 250 305 362
#
# _framework density 19.753086
#
# number of rings (size 3 to 8) (size 9 to 14) (size 15 to 20)
#    0.000    1.250    2.500    4.125    0.000    3.500 
#    0.000    3.125    0.000    0.000    0.000    0.000 
#    0.000    0.000    0.000    0.000    0.000    0.000 
#
# Total GULP energy -357469.471105 kJ/mol
# GULP energy per Si atom -5585.460486 kJ/mol
# Density = 1.970813 g / cm^3
# Si number density = 19.753086 Si / 1000 Ang^3
#
#
#
# Elastic Constant Matrix: (Units=GPa)
#
#
# Indices 1 2 3 4 5 6 
#
# 1 39.1120 -18.1944 4.2417 0.0000 0.0000 0.0000
# 2 -18.1944 80.6587 24.9753 0.0000 0.0000 0.0000
# 3 4.2417 24.9753 90.9305 0.0000 0.0000 0.0000
# 4 0.0000 0.0000 0.0000 33.0638 0.0000 0.0000
# 5 0.0000 0.0000 0.0000 0.0000 14.1510 0.0000
# 6 0.0000 0.0000 0.0000 0.0000 0.0000 -108.9270
#
#
#
# Elastic Compliance Matrix: (Units=1/GPa)
#
#
# Indices 1 2 3 4 5 6 
#
# 1 0.029555 0.007753 -0.003508 0.000000 0.000000 0.000000
# 2 0.007753 0.015584 -0.004642 0.000000 0.000000 0.000000
# 3 -0.003508 -0.004642 0.012436 0.000000 0.000000 0.000000
# 4 0.000000 0.000000 0.000000 0.030245 0.000000 0.000000
# 5 0.000000 0.000000 0.000000 0.000000 0.070667 0.000000
# 6 0.000000 0.000000 0.000000 0.000000 0.000000 -0.009180
#
#
# Mechanical properties :
#
#
# Convention : Reuss Voigt Hill
#
# Bulk Modulus (GPa) = 17.61171 25.86073 21.73622
# Shear Modulus (GPa) = 29.58113 0.96945 15.27529
#
# Velocity S-wave (km/s) = 3.87401 0.70132 2.78387
# Velocity P-wave (km/s) = 5.38014 3.71163 4.62180
#
# Compressibility (1/GPa) = 0.05678039
#
# Stress axis : x y z
#
# Youngs Moduli (GPa) = 33.83568 64.16779 80.41133
#
# Poissons Ratio (x) = -0.49749 0.28209
# Poissons Ratio (y) = -0.26233 0.37327
# Poissons Ratio (z) = 0.11870 0.29787
#
# Static dielectric constant tensor:
#      x y z
#    x 1.714610 0.000000 0.000000 
#    y 0.000000 1.810170 0.000000 
#    z 0.000000 0.000000 1.660960 
# 
# From -- ./inp_files/9359.got.cif
#   From: 2010.05.17/outbox.ucp.g08.bks.cvg/sg57_5_cif.got.tgz:9359.got - 2010.06.11 16:39:23.
