data_PCOD9440747
_publ_section_title
;
Structure prediction by ZEFSAII (Michael W. Deem and Ramdas Pophale) SiO2 
 PCOD9440747
Probable space group: P N N M
;
_chemical_formula_sum "Si O2"
_cell_formula_units_Z 48
_cell_length_a 7.821120
_cell_length_b 9.206369
_cell_length_c 26.538477
_cell_angle_alpha 90.000000
_cell_angle_beta 90.000000
_cell_angle_gamma 90.000000
_cell_volume 1910.879595
_symmetry_space_group_name_H-M "P N N M"
_symmetry_group_IT_number 58
_symmetry_cell_setting 'orthorhombic'
loop_
_space_group_symop_operation_xyz
x,y,z
-x,-y,z
1/2+x,1/2-y,1/2-z
1/2-x,1/2+y,1/2-z
-x,-y,-z
x,y,-z
1/2-x,1/2+y,1/2+z
1/2+x,1/2-y,1/2+z
loop_
_atom_site_type_symbol
_atom_site_label
_atom_site_fract_x
_atom_site_fract_y
_atom_site_fract_z
Si Si1 0.809345 0.250000 0.805395
Si Si2 0.098370 0.749999 0.688619
Si Si3 0.900455 0.750001 0.441369
Si Si4 0.220587 0.502261 0.875022
Si Si5 0.816508 0.750000 0.942772
Si Si6 0.779414 0.002263 0.124978
O O1 0.849492 0.250001 0.746907
O O2 0.605088 0.249998 0.811711
O O3 0.870949 0.390818 0.835476
O O4 0.870952 0.109184 0.835477
O O5 0.169832 0.891859 0.660151
O O6 0.169834 0.608138 0.660151
O O7 0.846436 0.750001 0.500000
O O8 0.828870 0.609589 0.411780
O O9 0.107446 0.750000 0.441659
O O10 0.828871 0.890413 0.411780
O O11 0.127340 0.391534 0.912685
O O12 0.872659 0.891536 0.912686
O O13 0.874197 0.749999 0.000000
#
# Coordination Sequence:
#
# PCOD9440747 Si02
#       6
#     8   8   8   8   8   8
#     4  11  21  34  51  71  99 132 166 202 242 286
#     4  11  21  34  51  71  99 132 166 202 242 286
#     4  10  17  26  43  68  99 132 161 191 239 301
#     4  10  19  31  46  68 100 133 160 197 247 290
#     4  10  17  26  43  68  99 132 161 191 239 301
#     4  10  19  31  46  68 100 133 160 197 247 290
#
# _framework density 25.119322
#
# number of rings (size 3 to 8) (size 9 to 14) (size 15 to 20)
#    0.000    1.667    0.000   10.000    0.000    2.667 
#    0.000    0.000    0.000    0.000    0.000    0.000 
#    0.000   93.333    0.000    0.000    0.000    0.000 
#
# Total GULP energy -269084.126852 kJ/mol
# GULP energy per Si atom -5605.919309 kJ/mol
# Density = 2.506215 g / cm^3
# Si number density = 25.119322 Si / 1000 Ang^3
#
#
#
# Elastic Constant Matrix: (Units=GPa)
#
#
# Indices 1 2 3 4 5 6 
#
# 1 65.3666 50.3332 41.5404 0.0000 0.0000 0.0000
# 2 50.3332 252.9542 130.2686 0.0000 0.0000 0.0000
# 3 41.5404 130.2686 305.7620 0.0000 0.0000 0.0000
# 4 0.0000 0.0000 0.0000 23.6711 0.0000 0.0000
# 5 0.0000 0.0000 0.0000 0.0000 41.0735 0.0000
# 6 0.0000 0.0000 0.0000 0.0000 0.0000 42.5490
#
#
#
# Elastic Compliance Matrix: (Units=1/GPa)
#
#
# Indices 1 2 3 4 5 6 
#
# 1 0.018406 -0.003042 -0.001205 0.000000 0.000000 0.000000
# 2 -0.003042 0.005567 -0.001959 0.000000 0.000000 0.000000
# 3 -0.001205 -0.001959 0.004269 0.000000 0.000000 0.000000
# 4 0.000000 0.000000 0.000000 0.042246 0.000000 0.000000
# 5 0.000000 0.000000 0.000000 0.000000 0.024347 0.000000
# 6 0.000000 0.000000 0.000000 0.000000 0.000000 0.023502
#
#
# Mechanical properties :
#
#
# Convention : Reuss Voigt Hill
#
# Bulk Modulus (GPa) = 63.16499 118.70749 90.93624
# Shear Modulus (GPa) = 36.75802 48.25476 42.50639
#
# Velocity S-wave (km/s) = 3.82951 4.38770 4.11807
# Velocity P-wave (km/s) = 6.68985 8.54572 7.67409
#
# Compressibility (1/GPa) = 0.01583155
#
# Stress axis : x y z
#
# Youngs Moduli (GPa) = 54.32906 179.62066 234.26756
#
# Poissons Ratio (x) = 0.54644 0.28219
# Poissons Ratio (y) = 0.16528 0.45884
# Poissons Ratio (z) = 0.06544 0.35181
#
# Static dielectric constant tensor:
#      x y z
#    x 2.046760 0.000000 0.000000 
#    y 0.000000 1.937420 0.000000 
#    z 0.000000 0.000000 1.927790 
# 
# From -- ./inp_files/31910.got.cif
#   From: 2010.05.17/outbox.cif.g08.bks.cpg/sg58_16_cif.got.tgz:31910.got - 2010.06.03 14:20:14.
