data_PCOD9440872
_publ_section_title
;
Structure prediction by ZEFSAII (Michael W. Deem and Ramdas Pophale) SiO2 
 PCOD9440872
Probable space group: P N N M
;
_chemical_formula_sum "Si O2"
_cell_formula_units_Z 48
_cell_length_a 17.305808
_cell_length_b 7.960404
_cell_length_c 15.997292
_cell_angle_alpha 90.000000
_cell_angle_beta 90.000000
_cell_angle_gamma 90.000000
_cell_volume 2203.806514
_symmetry_space_group_name_H-M "P N N M"
_symmetry_group_IT_number 58
_symmetry_cell_setting 'orthorhombic'
loop_
_space_group_symop_operation_xyz
x,y,z
-x,-y,z
1/2+x,1/2-y,1/2-z
1/2-x,1/2+y,1/2-z
-x,-y,-z
x,y,-z
1/2-x,1/2+y,1/2+z
1/2+x,1/2-y,1/2+z
loop_
_atom_site_type_symbol
_atom_site_label
_atom_site_fract_x
_atom_site_fract_y
_atom_site_fract_z
Si Si1 0.588902 0.561843 0.409776
Si Si2 0.799295 0.644502 0.746027
Si Si3 0.620735 0.065214 0.093547
Si Si4 0.142549 0.991432 0.725528
Si Si5 0.967807 0.261813 0.657290
Si Si6 0.076046 0.581812 0.838196
O O1 0.500000 0.500000 0.412818
O O2 0.623544 0.513578 0.500000
O O3 0.617136 0.490708 0.321915
O O4 0.600265 0.761998 0.395274
O O5 0.809379 0.546734 0.658395
O O6 0.713036 0.638899 0.779615
O O7 0.859262 0.553762 0.809948
O O8 0.819228 0.829249 0.713387
O O9 0.555592 0.195891 0.130130
O O10 0.579560 0.883979 0.096476
O O11 0.641809 0.113089 0.000000
O O12 0.073719 0.918736 0.668180
O O13 0.955174 0.335951 0.751016
O O14 0.000000 0.500000 0.877534
#
# Coordination Sequence:
#
# PCOD9440872 Si02
#       6
#     8   8   8   8   8   8
#     4  10  22  37  58  88 119 154 196 249 304 351
#     4  11  22  39  59  90 115 161 206 247 304 353
#     4  10  19  35  60  90 124 155 192 244 304 363
#     4  11  23  38  62  82 121 158 204 252 293 363
#     4   9  17  33  57  85 114 156 197 233 289 360
#     4  10  17  34  59  84 117 150 199 241 289 358
#
# _framework density 21.780494999999998
#
# number of rings (size 3 to 8) (size 9 to 14) (size 15 to 20)
#    0.000    1.833    3.333    5.000    2.333    1.000 
#    0.000    3.333    0.000    5.000    0.000    0.000 
#    0.000    0.000    0.000    0.000    0.000    0.000 
#
# Total GULP energy -267325.604752 kJ/mol
# GULP energy per Si atom -5569.283432 kJ/mol
# Density = 2.173092 g / cm^3
# Si number density = 21.780495 Si / 1000 Ang^3
#
#
#
# Elastic Constant Matrix: (Units=GPa)
#
#
# Indices 1 2 3 4 5 6 
#
# 1 85.6993 15.0578 11.7212 0.0000 0.0000 0.0000
# 2 15.0578 80.7603 -8.0189 0.0000 0.0000 0.0000
# 3 11.7212 -8.0189 61.8634 0.0000 0.0000 0.0000
# 4 0.0000 0.0000 0.0000 -29.6095 0.0000 0.0000
# 5 0.0000 0.0000 0.0000 0.0000 -0.2586 0.0000
# 6 0.0000 0.0000 0.0000 0.0000 0.0000 26.1613
#
#
#
# Elastic Compliance Matrix: (Units=1/GPa)
#
#
# Indices 1 2 3 4 5 6 
#
# 1 0.012495 -0.002598 -0.002704 0.000000 0.000000 0.000000
# 2 -0.002598 0.013084 0.002188 0.000000 0.000000 0.000000
# 3 -0.002704 0.002188 0.016961 0.000000 0.000000 0.000000
# 4 0.000000 0.000000 0.000000 -0.033773 0.000000 0.000000
# 5 0.000000 0.000000 0.000000 0.000000 -3.866620 0.000000
# 6 0.000000 0.000000 0.000000 0.000000 0.000000 0.038224
#
#
# Mechanical properties :
#
#
# Convention : Reuss Voigt Hill
#
# Bulk Modulus (GPa) = 27.53953 29.53814 28.53883
# Shear Modulus (GPa) = -1.31534 13.22950 5.95708
#
# Velocity S-wave (km/s) = -0.77796 2.46722 1.65559
# Velocity P-wave (km/s) = 3.44451 4.65912 4.09708
#
# Compressibility (1/GPa) = 0.03631144
#
# Stress axis : x y z
#
# Youngs Moduli (GPa) = 80.03143 76.42895 58.95995
#
# Poissons Ratio (x) = 0.19858 0.15944
# Poissons Ratio (y) = 0.20794 -0.12902
# Poissons Ratio (z) = 0.21642 -0.16725
#
# Static dielectric constant tensor:
#      x y z
#    x 1.871910 0.000000 0.000000 
#    y 0.000000 1.982410 0.000000 
#    z 0.000000 0.000000 1.812900 
# 
# From -- ./inp_files/27218.got.cif
#   From: 2010.05.17/outbox.cif.g08.bks.cpg/sg58_14_cif.got.tgz:27218.got - 2010.06.03 14:20:14.
