data_PCOD9440550
_publ_section_title
;
Structure prediction by ZEFSAII (Michael W. Deem and Ramdas Pophale) SiO2 
 PCOD9440550
Probable space group: P B C M
;
_chemical_formula_sum "Si O2"
_cell_formula_units_Z 56
_cell_length_a 15.000000
_cell_length_b 9.000000
_cell_length_c 21.000000
_cell_angle_alpha 90.000000
_cell_angle_beta 90.000000
_cell_angle_gamma 90.000000
_cell_volume 2835.000000
_symmetry_space_group_name_H-M "P B C M"
_symmetry_group_IT_number 57
_symmetry_cell_setting 'orthorhombic'
loop_
_space_group_symop_operation_xyz
x,y,z
-x,-y,1/2+z
x,1/2-y,-z
-x,1/2+y,1/2-z
-x,-y,-z
x,y,1/2-z
-x,1/2+y,z
x,1/2-y,1/2+z
loop_
_atom_site_type_symbol
_atom_site_label
_atom_site_fract_x
_atom_site_fract_y
_atom_site_fract_z
Si Si1 0.990648 0.890892 0.865488
Si Si2 0.378379 0.044136 0.823233
Si Si3 0.126008 0.642257 0.679380
Si Si4 0.560914 0.296880 0.321587
Si Si5 0.265870 0.976790 0.947703
Si Si6 0.285339 0.872165 0.085003
Si Si7 0.079005 0.140898 0.557447
O O1 0.923297 0.759492 0.884836
O O2 0.076786 0.795770 0.842472
O O3 0.945967 0.009019 0.818718
O O4 0.015321 0.003698 0.923433
O O5 0.340690 0.061526 0.750000
O O6 0.458230 0.161162 0.831268
O O7 0.421778 0.879300 0.824489
O O8 0.316427 0.046661 0.886262
O O9 0.164029 0.666582 0.750000
O O10 0.200478 0.589684 0.629077
O O11 0.584633 0.347499 0.250000
O O12 0.625718 0.371138 0.372823
O O13 0.263119 0.800531 0.932034
O O14 0.173113 0.063525 0.952901
O O15 0.299600 0.969100 0.021231
O O16 0.051812 0.250000 0.500000
#
# Coordination Sequence:
#
# PCOD9440550 Si02
#       7
#     8   8   8   8   8   8   8
#     4  10  23  38  58  87 115 156 206 251 299 359
#     4   9  19  38  62  87 116 152 196 243 298 360
#     4  11  21  39  60  86 120 158 201 251 304 357
#     4   9  18  36  60  85 113 152 196 240 295 359
#     4  10  21  38  57  88 121 154 199 244 299 357
#     4  10  20  36  60  86 118 155 202 244 292 363
#     4  11  21  39  59  85 119 160 199 248 302 358
#
# _framework density 19.753086
#
# number of rings (size 3 to 8) (size 9 to 14) (size 15 to 20)
#    0.000    2.000    1.429    2.143    0.000    2.286 
#    5.143    1.429    0.000    0.000    0.000    0.000 
#    0.000    0.000    0.000    0.000    0.000    0.000 
#
# Total GULP energy -311847.082404 kJ/mol
# GULP energy per Si atom -5568.697900 kJ/mol
# Density = 1.970813 g / cm^3
# Si number density = 19.753086 Si / 1000 Ang^3
#
#
#
# Elastic Constant Matrix: (Units=GPa)
#
#
# Indices 1 2 3 4 5 6 
#
# 1 5.7714 2.2719 8.7411 0.0000 0.0000 0.0000
# 2 2.2719 53.1790 10.8407 0.0000 0.0000 0.0000
# 3 8.7411 10.8407 105.3706 0.0000 0.0000 0.0000
# 4 0.0000 0.0000 0.0000 11.9461 0.0000 0.0000
# 5 0.0000 0.0000 0.0000 0.0000 24.7631 0.0000
# 6 0.0000 0.0000 0.0000 0.0000 0.0000 27.7943
#
#
#
# Elastic Compliance Matrix: (Units=1/GPa)
#
#
# Indices 1 2 3 4 5 6 
#
# 1 0.199599 -0.005262 -0.016017 0.000000 0.000000 0.000000
# 2 -0.005262 0.019346 -0.001554 0.000000 0.000000 0.000000
# 3 -0.016017 -0.001554 0.010979 0.000000 0.000000 0.000000
# 4 0.000000 0.000000 0.000000 0.083710 0.000000 0.000000
# 5 0.000000 0.000000 0.000000 0.000000 0.040383 0.000000
# 6 0.000000 0.000000 0.000000 0.000000 0.000000 0.035979
#
#
# Mechanical properties :
#
#
# Convention : Reuss Voigt Hill
#
# Bulk Modulus (GPa) = 5.42715 23.11427 14.27071
# Shear Modulus (GPa) = 10.05875 22.39852 16.22863
#
# Velocity S-wave (km/s) = 2.25905 3.37103 2.86942
# Velocity P-wave (km/s) = 3.09158 5.18448 4.26829
#
# Compressibility (1/GPa) = 0.18425878
#
# Stress axis : x y z
#
# Youngs Moduli (GPa) = 5.01004 51.69037 91.08439
#
# Poissons Ratio (x) = 0.27201 1.45885
# Poissons Ratio (y) = 0.02636 0.14153
# Poissons Ratio (z) = 0.08024 0.08032
#
# Static dielectric constant tensor:
#      x y z
#    x 1.695080 0.000000 0.000000 
#    y 0.000000 1.672770 0.000000 
#    z 0.000000 0.000000 1.787330 
# 
# From -- ./inp_files/25385.got.cif
#   From: 2010.05.17/outbox.ucp.g08.bks.cvg/sg57_13_cif.got.tgz:25385.got - 2010.06.11 16:39:23.
