data_PCOD9440759
_publ_section_title
;
Structure prediction by ZEFSAII (Michael W. Deem and Ramdas Pophale) SiO2 
 PCOD9440759
Probable space group: P N N M
;
_chemical_formula_sum "Si O2"
_cell_formula_units_Z 64
_cell_length_a 18.868292
_cell_length_b 27.345218
_cell_length_c 8.560916
_cell_angle_alpha 90.000000
_cell_angle_beta 90.000000
_cell_angle_gamma 90.000000
_cell_volume 4417.069314
_symmetry_space_group_name_H-M "P N N M"
_symmetry_group_IT_number 58
_symmetry_cell_setting 'orthorhombic'
loop_
_space_group_symop_operation_xyz
x,y,z
-x,-y,z
1/2+x,1/2-y,1/2-z
1/2-x,1/2+y,1/2-z
-x,-y,-z
x,y,-z
1/2-x,1/2+y,1/2+z
1/2+x,1/2-y,1/2+z
loop_
_atom_site_type_symbol
_atom_site_label
_atom_site_fract_x
_atom_site_fract_y
_atom_site_fract_z
Si Si1 0.287458 0.791514 0.685390
Si Si2 0.299918 0.201020 0.683783
Si Si3 0.920388 0.056020 0.189817
Si Si4 0.169888 0.851962 0.186800
Si Si5 0.583349 0.444338 0.689067
Si Si6 0.918574 0.239003 0.316879
Si Si7 0.664790 0.352648 0.187182
Si Si8 0.074650 0.238724 0.814633
O O1 0.276767 0.782974 0.500000
O O2 0.247882 0.748952 0.781566
O O3 0.245474 0.839843 0.735108
O O4 0.370359 0.783141 0.716964
O O5 0.314145 0.196963 0.500000
O O6 0.372693 0.213230 0.770734
O O7 0.246615 0.157865 0.734038
O O8 0.866727 0.097942 0.241896
O O9 0.001749 0.066757 0.235997
O O10 0.902320 0.000525 0.236207
O O11 0.920353 0.056528 0.000000
O O12 0.116832 0.807375 0.229567
O O13 0.178216 0.853272 0.000000
O O14 0.586894 0.441512 0.500000
O O15 0.635556 0.404824 0.761098
O O16 0.911167 0.230201 0.500000
O O17 0.000075 0.243631 0.270089
O O18 0.615127 0.310737 0.262502
O O19 0.661092 0.347318 0.000000
O O20 0.062306 0.236161 0.000000
#
# Coordination Sequence:
#
# PCOD9440759 Si02
#       8
#     8   8   8   8   8   8   8   8
#     4   9  17  28  41  58  79 104 137 171 201 238
#     4   9  17  29  42  56  80 110 136 164 200 243
#     4   8  16  28  42  60  79 107 144 174 200 238
#     4  10  17  27  43  60  82 111 141 169 203 243
#     4   9  16  29  45  58  79 110 143 174 203 238
#     4  11  20  28  41  62  85 106 136 173 204 239
#     4  10  19  29  42  62  84 107 139 174 206 239
#     4  10  19  30  43  58  80 111 141 167 202 246
#
# _framework density 14.489245
#
# number of rings (size 3 to 8) (size 9 to 14) (size 15 to 20)
#    0.000    2.500    0.000    6.000    0.000    4.000 
#    0.000    3.125    0.000    0.000    0.000    0.000 
#    0.000    1.000    0.000   11.250    0.000    5.000 
#
# Total GULP energy -356499.470981 kJ/mol
# GULP energy per Si atom -5570.304234 kJ/mol
# Density = 1.445627 g / cm^3
# Si number density = 14.489245 Si / 1000 Ang^3
#
#
#
# Elastic Constant Matrix: (Units=GPa)
#
#
# Indices 1 2 3 4 5 6 
#
# 1 73.5034 35.0281 6.4108 0.0000 0.0000 0.0000
# 2 35.0281 72.3971 3.4380 0.0000 0.0000 0.0000
# 3 6.4108 3.4380 18.7935 0.0000 0.0000 0.0000
# 4 0.0000 0.0000 0.0000 22.0709 0.0000 0.0000
# 5 0.0000 0.0000 0.0000 0.0000 22.2026 0.0000
# 6 0.0000 0.0000 0.0000 0.0000 0.0000 27.7500
#
#
#
# Elastic Compliance Matrix: (Units=1/GPa)
#
#
# Indices 1 2 3 4 5 6 
#
# 1 0.018068 -0.008523 -0.004604 0.000000 0.000000 0.000000
# 2 -0.008523 0.017954 -0.000377 0.000000 0.000000 0.000000
# 3 -0.004604 -0.000377 0.054849 0.000000 0.000000 0.000000
# 4 0.000000 0.000000 0.000000 0.045309 0.000000 0.000000
# 5 0.000000 0.000000 0.000000 0.000000 0.045040 0.000000
# 6 0.000000 0.000000 0.000000 0.000000 0.000000 0.036036
#
#
# Mechanical properties :
#
#
# Convention : Reuss Voigt Hill
#
# Bulk Modulus (GPa) = 15.65852 28.27198 21.96525
# Shear Modulus (GPa) = 18.82861 22.39250 20.61056
#
# Velocity S-wave (km/s) = 3.60875 3.93549 3.77566
# Velocity P-wave (km/s) = 5.30986 6.34079 5.84808
#
# Compressibility (1/GPa) = 0.06386301
#
# Stress axis : x y z
#
# Youngs Moduli (GPa) = 55.34589 55.69640 18.23173
#
# Poissons Ratio (x) = 0.47472 0.08394
# Poissons Ratio (y) = 0.47173 0.00687
# Poissons Ratio (z) = 0.25482 0.02100
#
# Static dielectric constant tensor:
#      x y z
#    x 1.492620 0.000000 0.000000 
#    y 0.000000 1.476890 0.000000 
#    z 0.000000 0.000000 1.491600 
# 
# From -- ./inp_files/8527.got.cif
#   From: 2010.05.17/outbox.cif.g08.bks.cpg/sg58_5_cif.got.tgz:8527.got - 2010.06.03 14:20:14.
