data_PCOD9440179
_publ_section_title
;
Structure prediction by ZEFSAII (Michael W. Deem and Ramdas Pophale) SiO2 
 PCOD9440179
Probable space group: P B C M
;
_chemical_formula_sum "Si O2"
_cell_formula_units_Z 24
_cell_length_a 11.214303
_cell_length_b 5.023516
_cell_length_c 16.420545
_cell_angle_alpha 90.000000
_cell_angle_beta 90.000000
_cell_angle_gamma 90.000000
_cell_volume 925.055188
_symmetry_space_group_name_H-M "P B C M"
_symmetry_group_IT_number 57
_symmetry_cell_setting 'orthorhombic'
loop_
_space_group_symop_operation_xyz
x,y,z
-x,-y,1/2+z
x,1/2-y,-z
-x,1/2+y,1/2-z
-x,-y,-z
x,y,1/2-z
-x,1/2+y,z
x,1/2-y,1/2+z
loop_
_atom_site_type_symbol
_atom_site_label
_atom_site_fract_x
_atom_site_fract_y
_atom_site_fract_z
Si Si1 0.609071 0.570970 0.437444
Si Si2 0.321151 0.957458 0.843940
Si Si3 0.939639 0.792358 0.152462
O O1 0.688152 0.750000 0.500000
O O2 0.500000 0.500000 0.500000
O O3 0.661628 0.302982 0.399856
O O4 0.592398 0.709939 0.634565
O O5 0.336026 0.879783 0.750000
O O6 0.189637 0.079528 0.854477
O O7 0.957914 0.757881 0.250000
O O8 0.036732 0.999834 0.118852
#
# Coordination Sequence:
#
# PCOD9440179 Si02
#       3
#     8   8   8
#     4  12  25  46  67  91 133 183 224 274 356 415
#     4  11  23  42  71 102 130 172 234 285 325 402
#     4   9  17  32  59  97 135 166 206 272 343 395
#
# _framework density 25.944398
#
# number of rings (size 3 to 8) (size 9 to 14) (size 15 to 20)
#    0.000    1.333    0.000    7.000    0.000    5.333 
#    0.000   16.667    0.000   20.000    0.000    0.000 
#    0.000    0.000    0.000    0.000    0.000    3.667 
#
# Total GULP energy -133903.636022 kJ/mol
# GULP energy per Si atom -5579.318168 kJ/mol
# Density = 2.588535 g / cm^3
# Si number density = 25.944398 Si / 1000 Ang^3
#
#
#
# Elastic Constant Matrix: (Units=GPa)
#
#
# Indices 1 2 3 4 5 6 
#
# 1 55.7862 19.1325 11.5705 0.0000 0.0000 0.0000
# 2 19.1325 173.0705 41.0046 0.0000 0.0000 0.0000
# 3 11.5705 41.0046 99.9133 0.0000 0.0000 0.0000
# 4 0.0000 0.0000 0.0000 56.6773 0.0000 0.0000
# 5 0.0000 0.0000 0.0000 0.0000 19.0617 0.0000
# 6 0.0000 0.0000 0.0000 0.0000 0.0000 39.8382
#
#
#
# Elastic Compliance Matrix: (Units=1/GPa)
#
#
# Indices 1 2 3 4 5 6 
#
# 1 0.018825 -0.001733 -0.001469 0.000000 0.000000 0.000000
# 2 -0.001733 0.006560 -0.002491 0.000000 0.000000 0.000000
# 3 -0.001469 -0.002491 0.011201 0.000000 0.000000 0.000000
# 4 0.000000 0.000000 0.000000 0.017644 0.000000 0.000000
# 5 0.000000 0.000000 0.000000 0.000000 0.052461 0.000000
# 6 0.000000 0.000000 0.000000 0.000000 0.000000 0.025102
#
#
# Mechanical properties :
#
#
# Convention : Reuss Voigt Hill
#
# Bulk Modulus (GPa) = 39.68383 52.46503 46.07443
# Shear Modulus (GPa) = 32.98620 40.25293 36.61957
#
# Velocity S-wave (km/s) = 3.56956 3.94319 3.76102
# Velocity P-wave (km/s) = 5.68489 6.40294 6.05457
#
# Compressibility (1/GPa) = 0.02519918
#
# Stress axis : x y z
#
# Youngs Moduli (GPa) = 53.12211 152.44214 89.27550
#
# Poissons Ratio (x) = 0.26419 0.13112
# Poissons Ratio (y) = 0.09206 0.22243
# Poissons Ratio (z) = 0.07802 0.37981
#
# Static dielectric constant tensor:
#      x y z
#    x 2.238350 0.000000 0.000000 
#    y 0.000000 2.189130 0.000000 
#    z 0.000000 0.000000 2.128700 
# 
# From -- ./inp_files/18092.got.cif
#   From: 2010.05.17/outbox.cif.g08.bks.cpg/sg57_10_cif.got.tgz:18092.got - 2010.06.03 13:58:18.
