data_PCOD9440743
_publ_section_title
;
Structure prediction by ZEFSAII (Michael W. Deem and Ramdas Pophale) SiO2 
 PCOD9440743
Probable space group: P N N M
;
_chemical_formula_sum "Si O2"
_cell_formula_units_Z 48
_cell_length_a 17.494307
_cell_length_b 17.253526
_cell_length_c 8.152405
_cell_angle_alpha 90.000000
_cell_angle_beta 90.000000
_cell_angle_gamma 90.000000
_cell_volume 2460.709539
_symmetry_space_group_name_H-M "P N N M"
_symmetry_group_IT_number 58
_symmetry_cell_setting 'orthorhombic'
loop_
_space_group_symop_operation_xyz
x,y,z
-x,-y,z
1/2+x,1/2-y,1/2-z
1/2-x,1/2+y,1/2-z
-x,-y,-z
x,y,-z
1/2-x,1/2+y,1/2+z
1/2+x,1/2-y,1/2+z
loop_
_atom_site_type_symbol
_atom_site_label
_atom_site_fract_x
_atom_site_fract_y
_atom_site_fract_z
Si Si1 0.504972 0.388315 0.311458
Si Si2 0.428521 0.897800 0.697904
Si Si3 0.263622 0.611202 0.200829
Si Si4 0.610554 0.265463 0.805244
Si Si5 0.098919 0.573389 0.199921
Si Si6 0.378083 0.486334 0.810901
O O1 0.522131 0.406105 0.500000
O O2 0.533723 0.302442 0.272663
O O3 0.559249 0.444144 0.203382
O O4 0.418258 0.413945 0.276837
O O5 0.427518 0.895599 0.500000
O O6 0.383162 0.824151 0.761870
O O7 0.517282 0.893366 0.753578
O O8 0.398902 0.982613 0.747148
O O9 0.318268 0.681701 0.253583
O O10 0.176139 0.615024 0.255031
O O11 0.302591 0.529612 0.253306
O O12 0.264897 0.610424 0.000000
O O13 0.605063 0.274330 0.000000
O O14 0.097987 0.575276 0.000000
O O15 0.366670 0.465765 0.000000
#
# Coordination Sequence:
#
# PCOD9440743 Si02
#       6
#     8   8   8   8   8   8
#     4  10  17  26  42  64  92 126 163 198 230 274
#     4   9  17  31  54  76  93 120 159 202 240 282
#     4   8  15  28  48  71  96 128 160 192 234 289
#     4  10  19  31  48  70  98 129 159 196 244 291
#     4   8  15  31  53  74  94 122 162 198 235 286
#     4   9  15  25  42  65  94 127 159 190 232 284
#
# _framework density 19.506571000000001
#
# number of rings (size 3 to 8) (size 9 to 14) (size 15 to 20)
#    0.000    3.000    0.000    5.500    0.000    0.000 
#    0.000    3.333    0.000   16.000    0.000    0.000 
#    0.000    0.000    0.000    0.000    0.000    0.000 
#
# Total GULP energy -267309.302161 kJ/mol
# GULP energy per Si atom -5568.943795 kJ/mol
# Density = 1.946217 g / cm^3
# Si number density = 19.506571 Si / 1000 Ang^3
#
#
#
# Elastic Constant Matrix: (Units=GPa)
#
#
# Indices 1 2 3 4 5 6 
#
# 1 84.2451 30.7281 6.1474 0.0000 0.0000 0.0000
# 2 30.7281 70.0504 7.6122 0.0000 0.0000 0.0000
# 3 6.1474 7.6122 24.8970 0.0000 0.0000 0.0000
# 4 0.0000 0.0000 0.0000 22.3787 0.0000 0.0000
# 5 0.0000 0.0000 0.0000 0.0000 4.5783 0.0000
# 6 0.0000 0.0000 0.0000 0.0000 0.0000 12.1655
#
#
#
# Elastic Compliance Matrix: (Units=1/GPa)
#
#
# Indices 1 2 3 4 5 6 
#
# 1 0.014197 -0.006048 -0.001656 0.000000 0.000000 0.000000
# 2 -0.006048 0.017342 -0.003809 0.000000 0.000000 0.000000
# 3 -0.001656 -0.003809 0.041739 0.000000 0.000000 0.000000
# 4 0.000000 0.000000 0.000000 0.044685 0.000000 0.000000
# 5 0.000000 0.000000 0.000000 0.000000 0.218420 0.000000
# 6 0.000000 0.000000 0.000000 0.000000 0.000000 0.082200
#
#
# Mechanical properties :
#
#
# Convention : Reuss Voigt Hill
#
# Bulk Modulus (GPa) = 19.89972 29.79643 24.84807
# Shear Modulus (GPa) = 10.90848 16.80484 13.85666
#
# Velocity S-wave (km/s) = 2.36735 2.93831 2.66815
# Velocity P-wave (km/s) = 4.20668 5.17878 4.71784
#
# Compressibility (1/GPa) = 0.05025198
#
# Stress axis : x y z
#
# Youngs Moduli (GPa) = 70.43839 57.66297 23.95841
#
# Poissons Ratio (x) = 0.34872 0.03968
# Poissons Ratio (y) = 0.42598 0.09126
# Poissons Ratio (z) = 0.11667 0.21964
#
# Static dielectric constant tensor:
#      x y z
#    x 1.724120 0.000000 0.000000 
#    y 0.000000 1.696730 0.000000 
#    z 0.000000 0.000000 1.685350 
# 
# From -- ./inp_files/7743.got.cif
#   From: 2010.05.17/outbox.cif.g08.bks.cpg/sg58_4_cif.got.tgz:7743.got - 2010.06.03 14:20:14.
