data_PCOD9440049
_publ_section_title
;
Structure prediction by ZEFSAII (Michael W. Deem and Ramdas Pophale) SiO2 
 PCOD9440049
Probable space group: P B C M
;
_chemical_formula_sum "Si O2"
_cell_formula_units_Z 40
_cell_length_a 12.862716
_cell_length_b 10.619498
_cell_length_c 14.812181
_cell_angle_alpha 90.000000
_cell_angle_beta 90.000000
_cell_angle_gamma 90.000000
_cell_volume 2023.278556
_symmetry_space_group_name_H-M "P B C M"
_symmetry_group_IT_number 57
_symmetry_cell_setting 'orthorhombic'
loop_
_space_group_symop_operation_xyz
x,y,z
-x,-y,1/2+z
x,1/2-y,-z
-x,1/2+y,1/2-z
-x,-y,-z
x,y,1/2-z
-x,1/2+y,z
x,1/2-y,1/2+z
loop_
_atom_site_type_symbol
_atom_site_label
_atom_site_fract_x
_atom_site_fract_y
_atom_site_fract_z
Si Si1 0.512536 0.625105 0.938464
Si Si2 0.309059 0.763831 0.391647
Si Si3 0.922565 0.264896 0.110423
Si Si4 0.286364 0.476680 0.148164
Si Si5 0.938886 0.987234 0.405389
O O1 0.408898 0.648202 0.878230
O O2 0.617116 0.606347 0.882369
O O3 0.522163 0.750000 0.000000
O O4 0.500000 0.500000 0.000000
O O5 0.302358 0.750000 0.500000
O O6 0.194060 0.805534 0.362532
O O7 0.323001 0.622409 0.355718
O O8 0.944954 0.122994 0.142359
O O9 0.005751 0.367940 0.138886
O O10 0.924003 0.250000 0.000000
O O11 0.253465 0.447504 0.250000
O O12 0.184649 0.464449 0.085284
O O13 0.000000 0.000000 0.500000
#
# Coordination Sequence:
#
# PCOD9440049 Si02
#       5
#     8   8   8   8   8
#     4  11  21  38  63  90 121 163 216 250 295 375
#     4   9  17  36  61  84 118 159 206 240 300 373
#     4   8  15  29  53  80 107 142 195 244 282 341
#     4  11  23  39  60  93 130 160 199 264 320 354
#     4   9  18  33  56  84 114 158 201 242 296 367
#
# _framework density 19.769891999999999
#
# number of rings (size 3 to 8) (size 9 to 14) (size 15 to 20)
#    0.000    2.400    4.000    1.200    0.000    3.200 
#    0.000    4.000    0.000    0.000    0.000    0.000 
#    0.000    0.000    0.000    0.000    0.000    0.000 
#
# Total GULP energy -222854.270037 kJ/mol
# GULP energy per Si atom -5571.356751 kJ/mol
# Density = 1.972490 g / cm^3
# Si number density = 19.769892 Si / 1000 Ang^3
#
#
#
# Elastic Constant Matrix: (Units=GPa)
#
#
# Indices 1 2 3 4 5 6 
#
# 1 176.8384 81.9445 14.5611 0.0000 0.0000 0.0000
# 2 81.9445 117.7431 -2.8484 0.0000 0.0000 0.0000
# 3 14.5611 -2.8484 61.5069 0.0000 0.0000 0.0000
# 4 0.0000 0.0000 0.0000 3.7231 0.0000 0.0000
# 5 0.0000 0.0000 0.0000 0.0000 -2.6929 0.0000
# 6 0.0000 0.0000 0.0000 0.0000 0.0000 44.9865
#
#
#
# Elastic Compliance Matrix: (Units=1/GPa)
#
#
# Indices 1 2 3 4 5 6 
#
# 1 0.008669 -0.006090 -0.002334 0.000000 0.000000 0.000000
# 2 -0.006090 0.012780 0.002034 0.000000 0.000000 0.000000
# 3 -0.002334 0.002034 0.016905 0.000000 0.000000 0.000000
# 4 0.000000 0.000000 0.000000 0.268592 0.000000 0.000000
# 5 0.000000 0.000000 0.000000 0.000000 -0.371351 0.000000
# 6 0.000000 0.000000 0.000000 0.000000 0.000000 0.022229
#
#
# Mechanical properties :
#
#
# Convention : Reuss Voigt Hill
#
# Bulk Modulus (GPa) = 39.10285 60.37810 49.74047
# Shear Modulus (GPa) = -239.58312 26.69875 -106.44218
#
# Velocity S-wave (km/s) = -11.02039 3.67887 -7.34557
# Velocity P-wave (km/s) = 11.92099 6.97511 6.83585
#
# Compressibility (1/GPa) = 0.02557359
#
# Stress axis : x y z
#
# Youngs Moduli (GPa) = 115.35360 78.24428 59.15366
#
# Poissons Ratio (x) = 0.47649 0.13808
# Poissons Ratio (y) = 0.70247 -0.12029
# Poissons Ratio (z) = 0.26927 -0.15911
#
# Static dielectric constant tensor:
#      x y z
#    x 1.727570 0.000000 0.000000 
#    y 0.000000 1.707250 0.000000 
#    z 0.000000 0.000000 1.732630 
# 
# From -- ./inp_files/17383.got.cif
#   From: 2010.05.17/outbox.cif.g08.bks.cpg/sg57_9_cif.got.tgz:17383.got - 2010.06.03 13:58:18.
