data_PCOD9440494
_publ_section_title
;
Structure prediction by ZEFSAII (Michael W. Deem and Ramdas Pophale) SiO2 
 PCOD9440494
Probable space group: P B C M
;
_chemical_formula_sum "Si O2"
_cell_formula_units_Z 64
_cell_length_a 15.000000
_cell_length_b 24.000000
_cell_length_c 9.000000
_cell_angle_alpha 90.000000
_cell_angle_beta 90.000000
_cell_angle_gamma 90.000000
_cell_volume 3240.000000
_symmetry_space_group_name_H-M "P B C M"
_symmetry_group_IT_number 57
_symmetry_cell_setting 'orthorhombic'
loop_
_space_group_symop_operation_xyz
x,y,z
-x,-y,1/2+z
x,1/2-y,-z
-x,1/2+y,1/2-z
-x,-y,-z
x,y,1/2-z
-x,1/2+y,z
x,1/2-y,1/2+z
loop_
_atom_site_type_symbol
_atom_site_label
_atom_site_fract_x
_atom_site_fract_y
_atom_site_fract_z
Si Si1 0.926779 0.467052 0.413157
Si Si2 0.608214 0.809794 0.573839
Si Si3 0.017750 0.346562 0.083527
Si Si4 0.231670 0.579626 0.423768
Si Si5 0.819255 0.809842 0.925198
Si Si6 0.427842 0.079121 0.917543
Si Si7 0.621680 0.024289 0.914761
Si Si8 0.150314 0.695906 0.426022
O O1 0.914163 0.490339 0.250000
O O2 0.834138 0.463084 0.496888
O O3 0.000000 0.500000 0.500000
O O4 0.968141 0.405327 0.405340
O O5 0.588714 0.750000 0.500000
O O6 0.589475 0.808677 0.750000
O O7 0.714454 0.820804 0.553945
O O8 0.561080 0.860606 0.490360
O O9 0.026257 0.323258 0.250000
O O10 0.113502 0.351205 0.007135
O O11 0.950537 0.311118 0.983424
O O12 0.216989 0.576252 0.250000
O O13 0.329658 0.563766 0.469585
O O14 0.204631 0.641340 0.472466
O O15 0.837261 0.808268 0.750000
O O16 0.837709 0.750000 0.000000
O O17 0.390669 0.083803 0.750000
O O18 0.521287 0.046660 0.905842
O O19 0.372484 0.038542 0.025070
O O20 0.661242 0.028841 0.750000
O O21 0.190649 0.750000 0.500000
O O22 0.150527 0.700482 0.250000
#
# Coordination Sequence:
#
# PCOD9440494 Si02
#       8
#     8   8   8   8   8   8   8   8
#     4  10  21  36  53  74 104 141 179 221 268 320
#     4  10  21  37  57  82 114 150 187 228 277 331
#     4  10  20  33  50  72  99 135 177 219 263 311
#     4  10  21  37  57  81 109 143 182 227 277 327
#     4  10  20  33  50  73 102 136 173 215 259 306
#     4  10  21  38  61  87 114 145 181 223 273 329
#     4  10  21  38  61  87 113 143 181 226 274 326
#     4  10  20  34  53  76 104 139 179 223 271 322
#
# _framework density 19.753086
#
# number of rings (size 3 to 8) (size 9 to 14) (size 15 to 20)
#    0.000    2.000    0.000    3.375    0.000    7.000 
#    0.000    3.125    0.000    1.500    0.000    0.000 
#    0.000    0.000    0.000    0.000    0.000    0.000 
#
# Total GULP energy -356808.046195 kJ/mol
# GULP energy per Si atom -5575.125722 kJ/mol
# Density = 1.970813 g / cm^3
# Si number density = 19.753086 Si / 1000 Ang^3
#
#
#
# Elastic Constant Matrix: (Units=GPa)
#
#
# Indices 1 2 3 4 5 6 
#
# 1 8.1832 5.3622 8.8459 0.0000 0.0000 0.0000
# 2 5.3622 68.4548 31.6764 0.0000 0.0000 0.0000
# 3 8.8459 31.6764 39.4511 0.0000 0.0000 0.0000
# 4 0.0000 0.0000 0.0000 25.5768 0.0000 0.0000
# 5 0.0000 0.0000 0.0000 0.0000 26.5307 0.0000
# 6 0.0000 0.0000 0.0000 0.0000 0.0000 3.8675
#
#
#
# Elastic Compliance Matrix: (Units=1/GPa)
#
#
# Indices 1 2 3 4 5 6 
#
# 1 0.163151 0.006600 -0.041882 0.000000 0.000000 0.000000
# 2 0.006600 0.023512 -0.020358 0.000000 0.000000 0.000000
# 3 -0.041882 -0.020358 0.051085 0.000000 0.000000 0.000000
# 4 0.000000 0.000000 0.000000 0.039098 0.000000 0.000000
# 5 0.000000 0.000000 0.000000 0.000000 0.037692 0.000000
# 6 0.000000 0.000000 0.000000 0.000000 0.000000 0.258567
#
#
# Mechanical properties :
#
#
# Convention : Reuss Voigt Hill
#
# Bulk Modulus (GPa) = 7.90715 23.09536 15.50126
# Shear Modulus (GPa) = 6.88193 15.87529 11.37861
#
# Velocity S-wave (km/s) = 1.86857 2.83801 2.40269
# Velocity P-wave (km/s) = 2.94399 4.73883 3.94484
#
# Compressibility (1/GPa) = 0.12646779
#
# Stress axis : x y z
#
# Youngs Moduli (GPa) = 6.12929 42.53231 19.57526
#
# Poissons Ratio (x) = -0.28073 0.81985
# Poissons Ratio (y) = -0.04046 0.39851
# Poissons Ratio (z) = 0.25671 0.86587
#
# Static dielectric constant tensor:
#      x y z
#    x 1.674880 0.000000 0.000000 
#    y 0.000000 1.771410 0.000000 
#    z 0.000000 0.000000 1.715370 
# 
# From -- ./inp_files/5541.got.cif
#   From: 2010.05.17/outbox.ucp.g08.bks.cvg/sg57_3_cif.got.tgz:5541.got - 2010.06.11 16:39:23.
