data_PCOD9440879
_publ_section_title
;
Structure prediction by ZEFSAII (Michael W. Deem and Ramdas Pophale) SiO2 
 PCOD9440879
Probable space group: P N N M
;
_chemical_formula_sum "Si O2"
_cell_formula_units_Z 48
_cell_length_a 13.317975
_cell_length_b 8.027816
_cell_length_c 19.290501
_cell_angle_alpha 90.000000
_cell_angle_beta 90.000000
_cell_angle_gamma 90.000000
_cell_volume 2062.429500
_symmetry_space_group_name_H-M "P N N M"
_symmetry_group_IT_number 58
_symmetry_cell_setting 'orthorhombic'
loop_
_space_group_symop_operation_xyz
x,y,z
-x,-y,z
1/2+x,1/2-y,1/2-z
1/2-x,1/2+y,1/2-z
-x,-y,-z
x,y,-z
1/2-x,1/2+y,1/2+z
1/2+x,1/2-y,1/2+z
loop_
_atom_site_type_symbol
_atom_site_label
_atom_site_fract_x
_atom_site_fract_y
_atom_site_fract_z
Si Si1 0.942340 0.322442 0.500000
Si Si2 0.832249 0.816797 0.657611
Si Si3 0.590415 0.388191 0.377756
Si Si4 0.763739 0.452086 0.282784
Si Si5 0.050718 0.682065 0.348592
Si Si6 0.347931 0.688327 0.000000
Si Si7 0.987309 0.309791 0.000000
Si Si8 0.308619 0.413326 0.500000
O O1 0.966638 0.810445 0.500000
O O2 0.000000 0.500000 0.500000
O O3 0.895902 0.292867 0.423992
O O4 0.787405 0.633638 0.681994
O O5 0.776474 0.952377 0.704606
O O6 0.814090 0.862802 0.576821
O O7 0.954164 0.799684 0.664772
O O8 0.500000 0.500000 0.347914
O O9 0.671971 0.353247 0.320023
O O10 0.537764 0.258689 0.429420
O O11 0.653837 0.493656 0.433129
O O12 0.864349 0.342035 0.291152
O O13 0.000000 0.500000 0.353941
O O14 0.307800 0.880615 0.000000
O O15 0.000000 0.500000 0.000000
O O16 0.871664 0.256337 0.000000
#
# Coordination Sequence:
#
# PCOD9440879 Si02
#       8
#     4   8   8   8   8   4   4   4
#     4   8  14  24  52  86 109 141 195 246 285 335
#     4  10  22  38  62  90 119 158 205 250 308 367
#     4   9  19  34  58  87 120 161 207 251 296 376
#     4  11  21  38  59  89 121 156 196 255 318 359
#     4   8  17  33  54  86 117 147 194 246 297 355
#     4  10  17  36  60  83 115 160 201 245 293 374
#     4   9  19  37  53  89 129 163 207 256 308 356
#     4   9  16  33  60  84 115 161 206 238 297 374
#
# _framework density 23.273520999999999
#
# number of rings (size 3 to 8) (size 9 to 14) (size 15 to 20)
#    0.000    2.667    1.667    2.000    0.000    2.000 
#    3.000    0.833    0.000    2.000    0.000    4.083 
#    0.000    0.000    0.000    0.000    0.000    0.000 
#
# Total GULP energy -267354.180388 kJ/mol
# GULP energy per Si atom -5569.878758 kJ/mol
# Density = 2.322055 g / cm^3
# Si number density = 23.273521 Si / 1000 Ang^3
#
#
#
# Elastic Constant Matrix: (Units=GPa)
#
#
# Indices 1 2 3 4 5 6 
#
# 1 96.1255 22.8285 30.2306 0.0000 0.0000 0.0000
# 2 22.8285 67.4367 14.0468 0.0000 0.0000 0.0000
# 3 30.2306 14.0468 130.2394 0.0000 0.0000 0.0000
# 4 0.0000 0.0000 0.0000 -64.3677 0.0000 0.0000
# 5 0.0000 0.0000 0.0000 0.0000 41.1640 0.0000
# 6 0.0000 0.0000 0.0000 0.0000 0.0000 8.3672
#
#
#
# Elastic Compliance Matrix: (Units=1/GPa)
#
#
# Indices 1 2 3 4 5 6 
#
# 1 0.012005 -0.003563 -0.002402 0.000000 0.000000 0.000000
# 2 -0.003563 0.016227 -0.000923 0.000000 0.000000 0.000000
# 3 -0.002402 -0.000923 0.008335 0.000000 0.000000 0.000000
# 4 0.000000 0.000000 0.000000 -0.015536 0.000000 0.000000
# 5 0.000000 0.000000 0.000000 0.000000 0.024293 0.000000
# 6 0.000000 0.000000 0.000000 0.000000 0.000000 0.119515
#
#
# Mechanical properties :
#
#
# Convention : Reuss Voigt Hill
#
# Bulk Modulus (GPa) = 43.87882 47.55705 45.71794
# Shear Modulus (GPa) = 26.85086 12.14572 19.49829
#
# Velocity S-wave (km/s) = 3.40031 2.28692 2.89760
# Velocity P-wave (km/s) = 5.85753 5.23944 5.55708
#
# Compressibility (1/GPa) = 0.02279004
#
# Stress axis : x y z
#
# Youngs Moduli (GPa) = 83.29995 61.62457 119.97159
#
# Poissons Ratio (x) = 0.21960 0.28819
# Poissons Ratio (y) = 0.29684 0.11074
# Poissons Ratio (z) = 0.20010 0.05688
#
# Static dielectric constant tensor:
#      x y z
#    x 1.839860 0.000000 0.000000 
#    y 0.000000 1.934550 0.000000 
#    z 0.000000 0.000000 1.866160 
# 
# From -- ./inp_files/26853.got.cif
#   From: 2010.05.17/outbox.cif.g08.bks.cpg/sg58_14_cif.got.tgz:26853.got - 2010.06.03 14:20:14.
