data_PCOD9440858
_publ_section_title
;
Structure prediction by ZEFSAII (Michael W. Deem and Ramdas Pophale) SiO2 
 PCOD9440858
Probable space group: P N N M
;
_chemical_formula_sum "Si O2"
_cell_formula_units_Z 52
_cell_length_a 17.857777
_cell_length_b 6.857386
_cell_length_c 16.969310
_cell_angle_alpha 90.000000
_cell_angle_beta 90.000000
_cell_angle_gamma 90.000000
_cell_volume 2078.022164
_symmetry_space_group_name_H-M "P N N M"
_symmetry_group_IT_number 58
_symmetry_cell_setting 'orthorhombic'
loop_
_space_group_symop_operation_xyz
x,y,z
-x,-y,z
1/2+x,1/2-y,1/2-z
1/2-x,1/2+y,1/2-z
-x,-y,-z
x,y,-z
1/2-x,1/2+y,1/2+z
1/2+x,1/2-y,1/2+z
loop_
_atom_site_type_symbol
_atom_site_label
_atom_site_fract_x
_atom_site_fract_y
_atom_site_fract_z
Si Si1 0.073859 0.619579 0.766025
Si Si2 0.635948 0.477016 0.269968
Si Si3 0.570858 0.363784 0.114174
Si Si4 0.773758 0.479162 0.845935
Si Si5 0.226899 0.970289 0.091120
Si Si6 0.699255 0.540152 0.000000
Si Si7 0.401970 0.069976 0.913863
O O1 0.083097 0.842080 0.793604
O O2 0.147339 0.511514 0.799851
O O3 0.076568 0.650390 0.670977
O O4 0.000000 0.500000 0.786965
O O5 0.590523 0.349583 0.206914
O O6 0.709386 0.535002 0.217272
O O7 0.673230 0.410079 0.350870
O O8 0.500000 0.500000 0.101663
O O9 0.639877 0.460230 0.068230
O O10 0.562277 0.144975 0.083477
O O11 0.769342 0.249202 0.872475
O O12 0.759871 0.583799 0.929188
O O13 0.312549 0.040696 0.090962
O O14 0.203192 0.955744 0.000000
O O15 0.411091 0.168536 0.000000
#
# Coordination Sequence:
#
# PCOD9440858 Si02
#       7
#     8   8   8   8   8   4   8
#     4  11  24  39  53  85 129 157 188 249 320 358
#     4  10  21  36  59  87 110 154 203 245 292 354
#     4  11  20  35  59  91 116 149 199 244 297 358
#     4  10  18  36  61  83 107 148 208 245 280 351
#     4  10  17  34  60  84 108 148 201 245 285 345
#     4  10  17  32  57  88 106 138 196 248 275 332
#     4  11  20  35  55  80 117 160 194 229 298 368
#
# _framework density 25.023793999999999
#
# number of rings (size 3 to 8) (size 9 to 14) (size 15 to 20)
#    0.000    1.538    6.154    1.154    0.000    0.308 
#    5.538    0.385    0.000    0.462    0.000    0.000 
#    0.000    0.000    0.000    0.000    0.000    0.000 
#
# Total GULP energy -290257.659551 kJ/mol
# GULP energy per Si atom -5581.878068 kJ/mol
# Density = 2.496684 g / cm^3
# Si number density = 25.023794 Si / 1000 Ang^3
#
#
#
# Elastic Constant Matrix: (Units=GPa)
#
#
# Indices 1 2 3 4 5 6 
#
# 1 120.1870 25.5038 51.3590 0.0000 0.0000 0.0000
# 2 25.5038 82.1695 32.0025 0.0000 0.0000 0.0000
# 3 51.3590 32.0025 174.7542 0.0000 0.0000 0.0000
# 4 0.0000 0.0000 0.0000 53.6631 0.0000 0.0000
# 5 0.0000 0.0000 0.0000 0.0000 58.6097 0.0000
# 6 0.0000 0.0000 0.0000 0.0000 0.0000 14.1295
#
#
#
# Elastic Compliance Matrix: (Units=1/GPa)
#
#
# Indices 1 2 3 4 5 6 
#
# 1 0.009833 -0.002074 -0.002510 0.000000 0.000000 0.000000
# 2 -0.002074 0.013542 -0.001870 0.000000 0.000000 0.000000
# 3 -0.002510 -0.001870 0.006803 0.000000 0.000000 0.000000
# 4 0.000000 0.000000 0.000000 0.018635 0.000000 0.000000
# 5 0.000000 0.000000 0.000000 0.000000 0.017062 0.000000
# 6 0.000000 0.000000 0.000000 0.000000 0.000000 0.070774
#
#
# Mechanical properties :
#
#
# Convention : Reuss Voigt Hill
#
# Bulk Modulus (GPa) = 57.90924 66.09347 62.00135
# Shear Modulus (GPa) = 32.19282 43.16350 37.67816
#
# Velocity S-wave (km/s) = 3.59066 4.15769 3.88454
# Velocity P-wave (km/s) = 6.35471 7.03691 6.70449
#
# Compressibility (1/GPa) = 0.01726840
#
# Stress axis : x y z
#
# Youngs Moduli (GPa) = 101.69680 73.84286 147.00467
#
# Poissons Ratio (x) = 0.15318 0.36898
# Poissons Ratio (y) = 0.21096 0.27495
# Poissons Ratio (z) = 0.25526 0.13811
#
# Static dielectric constant tensor:
#      x y z
#    x 2.053870 0.000000 0.000000 
#    y 0.000000 2.195160 0.000000 
#    z 0.000000 0.000000 1.930320 
# 
# From -- ./inp_files/23194.got.cif
#   From: 2010.05.17/outbox.cif.g08.bks.cpg/sg58_12_cif.got.tgz:23194.got - 2010.06.03 14:20:14.
