data_PCOD9440791
_publ_section_title
;
Structure prediction by ZEFSAII (Michael W. Deem and Ramdas Pophale) SiO2 
 PCOD9440791
Probable space group: P N N M
;
_chemical_formula_sum "Si O2"
_cell_formula_units_Z 40
_cell_length_a 8.106024
_cell_length_b 9.719261
_cell_length_c 28.032795
_cell_angle_alpha 90.000000
_cell_angle_beta 90.000000
_cell_angle_gamma 90.000000
_cell_volume 2208.551502
_symmetry_space_group_name_H-M "P N N M"
_symmetry_group_IT_number 58
_symmetry_cell_setting 'orthorhombic'
loop_
_space_group_symop_operation_xyz
x,y,z
-x,-y,z
1/2+x,1/2-y,1/2-z
1/2-x,1/2+y,1/2-z
-x,-y,-z
x,y,-z
1/2-x,1/2+y,1/2+z
1/2+x,1/2-y,1/2+z
loop_
_atom_site_type_symbol
_atom_site_label
_atom_site_fract_x
_atom_site_fract_y
_atom_site_fract_z
Si Si1 0.196327 0.347926 0.555892
Si Si2 0.968496 0.650505 0.297625
Si Si3 0.422877 0.347986 0.285090
Si Si4 0.128908 0.656074 0.403449
Si Si5 0.986958 0.830354 0.112725
O O1 0.229715 0.359420 0.500000
O O2 0.164913 0.500341 0.578013
O O3 0.352571 0.285600 0.583313
O O4 0.018988 0.279301 0.565930
O O5 0.770057 0.657496 0.299313
O O6 0.000000 0.500000 0.276610
O O7 0.041449 0.763309 0.262334
O O8 0.059395 0.655115 0.349106
O O9 0.500000 0.500000 0.278768
O O10 0.509720 0.287947 0.332135
O O11 0.311270 0.717954 0.407025
O O12 0.000000 0.000000 0.112697
#
# Coordination Sequence:
#
# PCOD9440791 Si02
#       5
#     8   8   8   8   8
#     4  10  18  28  45  69 102 137 174 214 271 322
#     4  12  20  35  54  75 107 148 180 225 272 321
#     4  11  22  35  52  78 105 147 185 219 271 327
#     4  10  17  29  44  67  99 134 169 214 262 315
#     4   9  17  30  44  64  99 135 169 214 261 314
#
# _framework density 18.111418
#
# number of rings (size 3 to 8) (size 9 to 14) (size 15 to 20)
#    0.000    1.600    4.000    6.000    0.000    4.400 
#    0.000    0.000    0.000    0.000    0.000    0.000 
#    0.000    4.000    3.600    0.000    0.000    0.200 
#
# Total GULP energy -222694.547631 kJ/mol
# GULP energy per Si atom -5567.363691 kJ/mol
# Density = 1.807020 g / cm^3
# Si number density = 18.111418 Si / 1000 Ang^3
#
#
#
# Elastic Constant Matrix: (Units=GPa)
#
#
# Indices 1 2 3 4 5 6 
#
# 1 103.4742 7.9726 21.6844 0.0000 0.0000 0.0000
# 2 7.9726 17.9453 24.6452 0.0000 0.0000 0.0000
# 3 21.6844 24.6452 119.0705 0.0000 0.0000 0.0000
# 4 0.0000 0.0000 0.0000 2.1347 0.0000 0.0000
# 5 0.0000 0.0000 0.0000 0.0000 20.5392 0.0000
# 6 0.0000 0.0000 0.0000 0.0000 0.0000 10.2603
#
#
#
# Elastic Compliance Matrix: (Units=1/GPa)
#
#
# Indices 1 2 3 4 5 6 
#
# 1 0.010144 -0.002752 -0.001278 0.000000 0.000000 0.000000
# 2 -0.002752 0.078602 -0.015768 0.000000 0.000000 0.000000
# 3 -0.001278 -0.015768 0.011895 0.000000 0.000000 0.000000
# 4 0.000000 0.000000 0.000000 0.468459 0.000000 0.000000
# 5 0.000000 0.000000 0.000000 0.000000 0.048687 0.000000
# 6 0.000000 0.000000 0.000000 0.000000 0.000000 0.097463
#
#
# Mechanical properties :
#
#
# Convention : Reuss Voigt Hill
#
# Bulk Modulus (GPa) = 16.38110 38.78826 27.58468
# Shear Modulus (GPa) = 6.44999 18.99935 12.72467
#
# Velocity S-wave (km/s) = 1.88918 3.24238 2.65349
# Velocity P-wave (km/s) = 3.71792 5.95654 4.96504
#
# Compressibility (1/GPa) = 0.06104597
#
# Stress axis : x y z
#
# Youngs Moduli (GPa) = 98.57993 12.72226 84.07087
#
# Poissons Ratio (x) = 0.03501 0.10742
# Poissons Ratio (y) = 0.27128 1.32562
# Poissons Ratio (z) = 0.12596 0.20060
#
# Static dielectric constant tensor:
#      x y z
#    x 1.740830 0.000000 0.000000 
#    y 0.000000 1.655580 0.000000 
#    z 0.000000 0.000000 1.626090 
# 
# From -- ./inp_files/33218.got.cif
#   From: 2010.05.17/outbox.cif.g08.bks.cpg/sg58_17_cif.got.tgz:33218.got - 2010.06.03 14:20:14.
