data_PCOD9440284
_publ_section_title
;
Structure prediction by ZEFSAII (Michael W. Deem and Ramdas Pophale) SiO2 
 PCOD9440284
Probable space group: P B C M
;
_chemical_formula_sum "Si O2"
_cell_formula_units_Z 28
_cell_length_a 5.183888
_cell_length_b 27.936061
_cell_length_c 7.713381
_cell_angle_alpha 90.000000
_cell_angle_beta 90.000000
_cell_angle_gamma 90.000000
_cell_volume 1117.031869
_symmetry_space_group_name_H-M "P B C M"
_symmetry_group_IT_number 57
_symmetry_cell_setting 'orthorhombic'
loop_
_space_group_symop_operation_xyz
x,y,z
-x,-y,1/2+z
x,1/2-y,-z
-x,1/2+y,1/2-z
-x,-y,-z
x,y,1/2-z
-x,1/2+y,z
x,1/2-y,1/2+z
loop_
_atom_site_type_symbol
_atom_site_label
_atom_site_fract_x
_atom_site_fract_y
_atom_site_fract_z
Si Si1 0.687192 0.305257 0.549895
Si Si2 0.067218 0.386651 0.937842
Si Si3 0.251831 0.530909 0.953198
Si Si4 0.397844 0.366196 0.250000
O O1 0.712486 0.250000 0.500000
O O2 0.593500 0.309340 0.750000
O O3 0.962459 0.332618 0.545384
O O4 0.521440 0.331952 0.403874
O O5 0.184111 0.395912 0.750000
O O6 0.810074 0.419284 0.952889
O O7 0.247731 0.397191 0.098220
O O8 0.266198 0.542782 0.750000
O O9 0.500000 0.500000 0.000000
O O10 0.000000 0.500000 0.000000
#
# Coordination Sequence:
#
# PCOD9440284 Si02
#       4
#     8   8   8   4
#     4  11  25  46  69 103 145 188 242 305 368 443
#     4  11  26  47  72 104 146 191 240 307 371 447
#     4  12  27  48  77 113 152 197 252 313 381 455
#     4  12  24  44  74 104 136 190 244 294 378 424
#
# _framework density 25.066431000000001
#
# number of rings (size 3 to 8) (size 9 to 14) (size 15 to 20)
#    0.000    0.571    2.857    4.286    4.000    1.143 
#    5.143    0.000    0.000    0.000    0.000    0.000 
#    0.000    0.000    0.000    0.000    0.000    0.000 
#
# Total GULP energy -155903.163544 kJ/mol
# GULP energy per Si atom -5567.970127 kJ/mol
# Density = 2.500938 g / cm^3
# Si number density = 25.066431 Si / 1000 Ang^3
#
#
#
# Elastic Constant Matrix: (Units=GPa)
#
#
# Indices 1 2 3 4 5 6 
#
# 1 88.8157 16.5782 36.5030 0.0000 0.0000 0.0000
# 2 16.5782 84.6808 10.5203 0.0000 0.0000 0.0000
# 3 36.5030 10.5203 281.7289 0.0000 0.0000 0.0000
# 4 0.0000 0.0000 0.0000 2.6162 0.0000 0.0000
# 5 0.0000 0.0000 0.0000 0.0000 31.9922 0.0000
# 6 0.0000 0.0000 0.0000 0.0000 0.0000 38.3824
#
#
#
# Elastic Compliance Matrix: (Units=1/GPa)
#
#
# Indices 1 2 3 4 5 6 
#
# 1 0.012294 -0.002219 -0.001510 0.000000 0.000000 0.000000
# 2 -0.002219 0.012265 -0.000170 0.000000 0.000000 0.000000
# 3 -0.001510 -0.000170 0.003752 0.000000 0.000000 0.000000
# 4 0.000000 0.000000 0.000000 0.382233 0.000000 0.000000
# 5 0.000000 0.000000 0.000000 0.000000 0.031258 0.000000
# 6 0.000000 0.000000 0.000000 0.000000 0.000000 0.026054
#
#
# Mechanical properties :
#
#
# Convention : Reuss Voigt Hill
#
# Bulk Modulus (GPa) = 48.75467 64.71428 56.73447
# Shear Modulus (GPa) = 10.36289 40.70642 25.53466
#
# Velocity S-wave (km/s) = 2.03547 4.03419 3.19514
# Velocity P-wave (km/s) = 5.00166 6.89730 6.02451
#
# Compressibility (1/GPa) = 0.02051086
#
# Stress axis : x y z
#
# Youngs Moduli (GPa) = 81.33954 81.53483 266.55789
#
# Poissons Ratio (x) = 0.18095 0.40252
# Poissons Ratio (y) = 0.18051 0.04543
# Poissons Ratio (z) = 0.12283 0.01390
#
# Static dielectric constant tensor:
#      x y z
#    x 2.082880 0.000000 0.000000 
#    y 0.000000 1.988840 0.000000 
#    z 0.000000 0.000000 1.936700 
# 
# From -- ./inp_files/788.got.cif
#   From: 2010.05.17/outbox.cif.g08.bks.cpg/sg57_1_cif.got.tgz:788.got - 2010.06.03 13:58:18.
