data_PCOD9440370
_publ_section_title
;
Structure prediction by ZEFSAII (Michael W. Deem and Ramdas Pophale) SiO2 
 PCOD9440370
Probable space group: P B C M
;
_chemical_formula_sum "Si O2"
_cell_formula_units_Z 56
_cell_length_a 7.153127
_cell_length_b 21.535726
_cell_length_c 13.053731
_cell_angle_alpha 90.000000
_cell_angle_beta 90.000000
_cell_angle_gamma 90.000000
_cell_volume 2010.898322
_symmetry_space_group_name_H-M "P B C M"
_symmetry_group_IT_number 57
_symmetry_cell_setting 'orthorhombic'
loop_
_space_group_symop_operation_xyz
x,y,z
-x,-y,1/2+z
x,1/2-y,-z
-x,1/2+y,1/2-z
-x,-y,-z
x,y,1/2-z
-x,1/2+y,z
x,1/2-y,1/2+z
loop_
_atom_site_type_symbol
_atom_site_label
_atom_site_fract_x
_atom_site_fract_y
_atom_site_fract_z
Si Si1 0.304695 0.213116 0.873131
Si Si2 0.543747 0.046561 0.862721
Si Si3 0.053322 0.170892 0.124769
Si Si4 0.996353 0.961734 0.867952
Si Si5 0.885562 0.591161 0.632654
Si Si6 0.651372 0.218246 0.369879
Si Si7 0.590196 0.417168 0.585897
O O1 0.315088 0.204190 0.750000
O O2 0.162699 0.159520 0.908743
O O3 0.521010 0.224143 0.905854
O O4 0.207399 0.277995 0.895078
O O5 0.615202 0.062978 0.750000
O O6 0.324340 0.063524 0.862387
O O7 0.551778 0.972454 0.883318
O O8 0.615060 0.080693 0.963399
O O9 0.039114 0.165833 0.250000
O O10 0.096919 0.100629 0.088368
O O11 0.854721 0.199354 0.087144
O O12 0.937287 0.968327 0.750000
O O13 0.211821 0.938147 0.867580
O O14 0.993576 0.032718 0.909314
O O15 0.952366 0.600561 0.750000
O O16 0.682855 0.231731 0.250000
O O17 0.545472 0.151588 0.377037
#
# Coordination Sequence:
#
# PCOD9440370 Si02
#       7
#     8   8   8   8   8   8   8
#     4   9  16  26  44  70 100 138 182 224 269 320
#     4   9  16  26  43  70 102 135 175 219 264 321
#     4   8  14  25  43  69 101 137 177 220 264 313
#     4   8  13  24  44  69 101 142 182 220 268 326
#     4   8  14  25  41  64  97 136 175 216 266 324
#     4   9  16  27  45  72 105 135 170 219 264 310
#     4   9  15  25  44  70  99 134 174 216 265 317
#
# _framework density 27.848248999999999
#
# number of rings (size 3 to 8) (size 9 to 14) (size 15 to 20)
#    0.000    3.429    0.000    3.000    0.000    0.000 
#    0.000    0.714    0.000    5.143    0.000   65.000 
#    0.000   22.857    0.000   11.429    0.000    0.429 
#
# Total GULP energy -312965.335954 kJ/mol
# GULP energy per Si atom -5588.666713 kJ/mol
# Density = 2.778486 g / cm^3
# Si number density = 27.848249 Si / 1000 Ang^3
#
#
#
# Elastic Constant Matrix: (Units=GPa)
#
#
# Indices 1 2 3 4 5 6 
#
# 1 87.4729 45.1876 -0.5633 0.0000 0.0000 0.0000
# 2 45.1876 171.5064 -2.3539 0.0000 0.0000 0.0000
# 3 -0.5633 -2.3539 118.6060 0.0000 0.0000 0.0000
# 4 0.0000 0.0000 0.0000 42.0230 0.0000 0.0000
# 5 0.0000 0.0000 0.0000 0.0000 8.4643 0.0000
# 6 0.0000 0.0000 0.0000 0.0000 0.0000 46.2119
#
#
#
# Elastic Compliance Matrix: (Units=1/GPa)
#
#
# Indices 1 2 3 4 5 6 
#
# 1 0.013233 -0.003487 -0.000006 0.000000 0.000000 0.000000
# 2 -0.003487 0.006751 0.000117 0.000000 0.000000 0.000000
# 3 -0.000006 0.000117 0.008434 0.000000 0.000000 0.000000
# 4 0.000000 0.000000 0.000000 0.023797 0.000000 0.000000
# 5 0.000000 0.000000 0.000000 0.000000 0.118143 0.000000
# 6 0.000000 0.000000 0.000000 0.000000 0.000000 0.021639
#
#
# Mechanical properties :
#
#
# Convention : Reuss Voigt Hill
#
# Bulk Modulus (GPa) = 46.15417 51.34735 48.75076
# Shear Modulus (GPa) = 24.27530 41.69416 32.98473
#
# Velocity S-wave (km/s) = 2.95566 3.87355 3.44531
# Velocity P-wave (km/s) = 5.31576 6.20356 5.77674
#
# Compressibility (1/GPa) = 0.02166652
#
# Stress axis : x y z
#
# Youngs Moduli (GPa) = 75.56710 148.12715 118.57367
#
# Poissons Ratio (x) = 0.51648 0.00075
# Poissons Ratio (y) = 0.26348 -0.01392
# Poissons Ratio (z) = 0.00048 -0.01739
#
# Static dielectric constant tensor:
#      x y z
#    x 2.139200 0.000000 0.000000 
#    y 0.000000 2.176540 0.000000 
#    z 0.000000 0.000000 2.268560 
# 
# From -- ./inp_files/16769.got.cif
#   From: 2010.05.17/outbox.cif.g08.bks.cpg/sg57_9_cif.got.tgz:16769.got - 2010.06.03 13:58:18.
