data_PCOD9440509
_publ_section_title
;
Structure prediction by ZEFSAII (Michael W. Deem and Ramdas Pophale) SiO2 
 PCOD9440509
Probable space group: P B C M
;
_chemical_formula_sum "Si O2"
_cell_formula_units_Z 48
_cell_length_a 15.000000
_cell_length_b 21.000000
_cell_length_c 9.000000
_cell_angle_alpha 90.000000
_cell_angle_beta 90.000000
_cell_angle_gamma 90.000000
_cell_volume 2835.000000
_symmetry_space_group_name_H-M "P B C M"
_symmetry_group_IT_number 57
_symmetry_cell_setting 'orthorhombic'
loop_
_space_group_symop_operation_xyz
x,y,z
-x,-y,1/2+z
x,1/2-y,-z
-x,1/2+y,1/2-z
-x,-y,-z
x,y,1/2-z
-x,1/2+y,z
x,1/2-y,1/2+z
loop_
_atom_site_type_symbol
_atom_site_label
_atom_site_fract_x
_atom_site_fract_y
_atom_site_fract_z
Si Si1 0.602423 0.926892 0.577053
Si Si2 0.783897 0.923554 0.073652
Si Si3 0.589111 0.060975 0.075901
Si Si4 0.210521 0.924556 0.923985
Si Si5 0.098884 0.684741 0.928075
Si Si6 0.097313 0.184166 0.428769
O O1 0.625767 0.918518 0.750000
O O2 0.683140 0.905519 0.473802
O O3 0.502385 0.900849 0.550977
O O4 0.591698 0.001674 0.536553
O O5 0.796570 0.915351 0.250000
O O6 0.796916 0.999466 0.041252
O O7 0.848016 0.877263 0.982451
O O8 0.585081 0.038065 0.250000
O O9 0.684892 0.093276 0.061460
O O10 0.185164 0.916937 0.750000
O O11 0.153871 0.877609 0.025181
O O12 0.092288 0.690894 0.750000
O O13 0.137327 0.750000 0.000000
O O14 0.001471 0.678110 0.002279
O O15 0.134530 0.250000 0.500000
O O16 0.094528 0.188741 0.250000
#
# Coordination Sequence:
#
# PCOD9440509 Si02
#       6
#     8   8   8   8   8   8
#     4   9  15  25  44  71 101 134 171 208 249 297
#     4  10  20  34  52  77 108 138 169 209 255 300
#     4   8  15  27  44  68 101 137 169 206 250 297
#     4   9  18  33  52  76 106 137 170 210 253 295
#     4  11  22  37  56  76 100 132 170 209 253 306
#     4  11  22  38  58  77 100 132 170 209 252 305
#
# _framework density 16.931217
#
# number of rings (size 3 to 8) (size 9 to 14) (size 15 to 20)
#    0.000    2.333    0.000    6.000    0.000    4.667 
#    0.000    0.000    0.000    1.000    0.000    4.667 
#    0.000    0.000    0.000    0.000    0.000    0.000 
#
# Total GULP energy -267334.096934 kJ/mol
# GULP energy per Si atom -5569.460353 kJ/mol
# Density = 1.689268 g / cm^3
# Si number density = 16.931217 Si / 1000 Ang^3
#
#
#
# Elastic Constant Matrix: (Units=GPa)
#
#
# Indices 1 2 3 4 5 6 
#
# 1 74.1246 45.3178 44.9882 0.0000 0.0000 0.0000
# 2 45.3178 73.6982 50.8452 0.0000 0.0000 0.0000
# 3 44.9882 50.8452 123.8768 0.0000 0.0000 0.0000
# 4 0.0000 0.0000 0.0000 25.5392 0.0000 0.0000
# 5 0.0000 0.0000 0.0000 0.0000 29.7519 0.0000
# 6 0.0000 0.0000 0.0000 0.0000 0.0000 -4.3561
#
#
#
# Elastic Compliance Matrix: (Units=1/GPa)
#
#
# Indices 1 2 3 4 5 6 
#
# 1 0.022656 -0.011516 -0.003501 0.000000 0.000000 0.000000
# 2 -0.011516 0.024783 -0.005990 0.000000 0.000000 0.000000
# 3 -0.003501 -0.005990 0.011803 0.000000 0.000000 0.000000
# 4 0.000000 0.000000 0.000000 0.039155 0.000000 0.000000
# 5 0.000000 0.000000 0.000000 0.000000 0.033611 0.000000
# 6 0.000000 0.000000 0.000000 0.000000 0.000000 -0.229564
#
#
# Mechanical properties :
#
#
# Convention : Reuss Voigt Hill
#
# Bulk Modulus (GPa) = 58.04723 61.55576 59.80149
# Shear Modulus (GPa) = -100.40369 18.89023 -40.75673
#
# Velocity S-wave (km/s) = -7.70906 3.34384 -4.91164
# Velocity P-wave (km/s) = 6.69933 7.16545 1.79759
#
# Compressibility (1/GPa) = 0.01722735
#
# Stress axis : x y z
#
# Youngs Moduli (GPa) = 44.13745 40.35093 84.72706
#
# Poissons Ratio (x) = 0.46468 0.29666
# Poissons Ratio (y) = 0.50829 0.50749
# Poissons Ratio (z) = 0.15454 0.24169
#
# Static dielectric constant tensor:
#      x y z
#    x 1.627890 0.000000 0.000000 
#    y 0.000000 1.556020 0.000000 
#    z 0.000000 0.000000 1.568810 
# 
# From -- ./inp_files/4842.got.cif
#   From: 2010.05.17/outbox.ucp.g08.bks.cvg/sg57_3_cif.got.tgz:4842.got - 2010.06.11 16:39:23.
