data_PCOD9440477
_publ_section_title
;
Structure prediction by ZEFSAII (Michael W. Deem and Ramdas Pophale) SiO2 
 PCOD9440477
Probable space group: P B C M
;
_chemical_formula_sum "Si O2"
_cell_formula_units_Z 64
_cell_length_a 15.000000
_cell_length_b 24.000000
_cell_length_c 9.000000
_cell_angle_alpha 90.000000
_cell_angle_beta 90.000000
_cell_angle_gamma 90.000000
_cell_volume 3240.000000
_symmetry_space_group_name_H-M "P B C M"
_symmetry_group_IT_number 57
_symmetry_cell_setting 'orthorhombic'
loop_
_space_group_symop_operation_xyz
x,y,z
-x,-y,1/2+z
x,1/2-y,-z
-x,1/2+y,1/2-z
-x,-y,-z
x,y,1/2-z
-x,1/2+y,z
x,1/2-y,1/2+z
loop_
_atom_site_type_symbol
_atom_site_label
_atom_site_fract_x
_atom_site_fract_y
_atom_site_fract_z
Si Si1 0.712516 0.473971 0.581508
Si Si2 0.681077 0.803423 0.070057
Si Si3 0.712176 0.191479 0.930165
Si Si4 0.548718 0.451639 0.415832
Si Si5 0.219996 0.086416 0.930683
Si Si6 0.857776 0.387255 0.920600
Si Si7 0.489542 0.671834 0.920855
Si Si8 0.019335 0.060028 0.571436
O O1 0.677861 0.475850 0.750000
O O2 0.643854 0.439360 0.486956
O O3 0.721130 0.534939 0.515505
O O4 0.809740 0.447595 0.585662
O O5 0.678119 0.801621 0.250000
O O6 0.735766 0.856924 0.023770
O O7 0.579909 0.806551 0.008752
O O8 0.725521 0.750000 0.000000
O O9 0.713117 0.189490 0.750000
O O10 0.608876 0.183073 0.982414
O O11 0.738943 0.250000 0.000000
O O12 0.784794 0.149529 0.995732
O O13 0.500000 0.500000 0.500000
O O14 0.563211 0.470142 0.250000
O O15 0.496050 0.394398 0.416509
O O16 0.222515 0.082789 0.750000
O O17 0.118084 0.078900 0.973172
O O18 0.870738 0.368891 0.750000
O O19 0.948045 0.396004 0.009271
O O20 0.485844 0.692140 0.750000
O O21 0.013524 0.056115 0.750000
O O22 0.000000 0.000000 0.500000
#
# Coordination Sequence:
#
# PCOD9440477 Si02
#       8
#     8   8   8   8   8   8   8   8
#     4  10  19  35  57  82 114 150 189 234 290 354
#     4  10  20  38  60  81 111 150 193 239 283 336
#     4  11  22  39  60  87 119 157 200 245 294 350
#     4  11  21  34  51  79 115 155 196 235 290 350
#     4   9  19  37  60  84 115 155 192 230 293 356
#     4  11  22  38  60  88 119 154 195 243 297 354
#     4   9  19  35  57  81 112 152 195 236 284 344
#     4  11  21  37  61  90 120 155 195 241 297 361
#
# _framework density 19.753086
#
# number of rings (size 3 to 8) (size 9 to 14) (size 15 to 20)
#    0.000    1.750    2.500    2.625    0.000    2.500 
#    0.000    5.625    0.000    1.500    0.000    0.000 
#    0.000    0.000    0.000    0.000    0.000    0.000 
#
# Total GULP energy -356553.032447 kJ/mol
# GULP energy per Si atom -5571.141132 kJ/mol
# Density = 1.970813 g / cm^3
# Si number density = 19.753086 Si / 1000 Ang^3
#
#
#
# Elastic Constant Matrix: (Units=GPa)
#
#
# Indices 1 2 3 4 5 6 
#
# 1 91.6138 49.4131 29.7488 0.0000 0.0000 0.0000
# 2 49.4131 103.8021 26.2918 0.0000 0.0000 0.0000
# 3 29.7488 26.2918 59.9366 0.0000 0.0000 0.0000
# 4 0.0000 0.0000 0.0000 21.4958 0.0000 0.0000
# 5 0.0000 0.0000 0.0000 0.0000 15.7290 0.0000
# 6 0.0000 0.0000 0.0000 0.0000 0.0000 -6.7727
#
#
#
# Elastic Compliance Matrix: (Units=1/GPa)
#
#
# Indices 1 2 3 4 5 6 
#
# 1 0.015996 -0.006304 -0.005174 0.000000 0.000000 0.000000
# 2 -0.006304 0.013322 -0.002715 0.000000 0.000000 0.000000
# 3 -0.005174 -0.002715 0.020443 0.000000 0.000000 0.000000
# 4 0.000000 0.000000 0.000000 0.046521 0.000000 0.000000
# 5 0.000000 0.000000 0.000000 0.000000 0.063577 0.000000
# 6 0.000000 0.000000 0.000000 0.000000 0.000000 -0.147652
#
#
# Mechanical properties :
#
#
# Convention : Reuss Voigt Hill
#
# Bulk Modulus (GPa) = 46.78295 51.80665 49.29480
# Shear Modulus (GPa) = 104.78261 16.08369 60.43315
#
# Velocity S-wave (km/s) = 7.29118 2.85658 5.53721
# Velocity P-wave (km/s) = 9.72713 6.09624 8.11730
#
# Compressibility (1/GPa) = 0.02137531
#
# Stress axis : x y z
#
# Youngs Moduli (GPa) = 62.51747 75.06232 48.91578
#
# Poissons Ratio (x) = 0.47318 0.25309
# Poissons Ratio (y) = 0.39410 0.13281
# Poissons Ratio (z) = 0.32346 0.20380
#
# Static dielectric constant tensor:
#      x y z
#    x 1.696050 0.000000 0.000000 
#    y 0.000000 2.189650 0.000000 
#    z 0.000000 0.000000 1.679570 
# 
# From -- ./inp_files/5559.got.cif
#   From: 2010.05.17/outbox.ucp.g08.bks.cvg/sg57_3_cif.got.tgz:5559.got - 2010.06.11 16:39:23.
