data_PCOD9440459
_publ_section_title
;
Structure prediction by ZEFSAII (Michael W. Deem and Ramdas Pophale) SiO2 
 PCOD9440459
Probable space group: P B C M
;
_chemical_formula_sum "Si O2"
_cell_formula_units_Z 48
_cell_length_a 9.000000
_cell_length_b 30.000000
_cell_length_c 9.000000
_cell_angle_alpha 90.000000
_cell_angle_beta 90.000000
_cell_angle_gamma 90.000000
_cell_volume 2430.000000
_symmetry_space_group_name_H-M "P B C M"
_symmetry_group_IT_number 57
_symmetry_cell_setting 'orthorhombic'
loop_
_space_group_symop_operation_xyz
x,y,z
-x,-y,1/2+z
x,1/2-y,-z
-x,1/2+y,1/2-z
-x,-y,-z
x,y,1/2-z
-x,1/2+y,z
x,1/2-y,1/2+z
loop_
_atom_site_type_symbol
_atom_site_label
_atom_site_fract_x
_atom_site_fract_y
_atom_site_fract_z
Si Si1 0.859424 0.295193 0.928921
Si Si2 0.057800 0.453545 0.072558
Si Si3 0.285112 0.391828 0.576601
Si Si4 0.181441 0.604514 0.429405
Si Si5 0.446530 0.955126 0.921286
Si Si6 0.809653 0.797854 0.068635
O O1 0.875973 0.289572 0.750000
O O2 0.781918 0.343333 0.954665
O O3 0.791444 0.250000 0.000000
O O4 0.020757 0.299733 0.007278
O O5 0.064193 0.458749 0.250000
O O6 0.209459 0.434888 0.002669
O O7 0.000000 0.500000 0.000000
O O8 0.959584 0.410874 0.022962
O O9 0.234528 0.387327 0.750000
O O10 0.451315 0.410768 0.577962
O O11 0.263201 0.344090 0.494437
O O12 0.157650 0.600234 0.250000
O O13 0.294891 0.566050 0.478476
O O14 0.426859 0.968043 0.750000
O O15 0.500000 0.000000 0.000000
O O16 0.804675 0.796764 0.250000
O O17 0.751739 0.750000 0.000000
#
# Coordination Sequence:
#
# PCOD9440459 Si02
#       6
#     8   8   8   8   8   8
#     4  10  19  33  57  85 118 152 188 236 292 347
#     4  12  24  37  57  85 115 149 194 245 296 349
#     4  11  22  39  60  86 119 155 197 244 293 347
#     4  10  21  39  60  84 116 153 193 239 294 350
#     4  10  23  41  61  84 115 157 199 241 295 353
#     4  11  21  35  58  88 120 154 195 241 294 350
#
# _framework density 19.753086
#
# number of rings (size 3 to 8) (size 9 to 14) (size 15 to 20)
#    0.000    1.333    1.667    6.000    0.000    5.333 
#    0.000    0.833    0.000    2.000    0.000    0.000 
#    0.000    0.000    0.000    0.000    0.000    0.000 
#
# Total GULP energy -267428.019423 kJ/mol
# GULP energy per Si atom -5571.417071 kJ/mol
# Density = 1.970813 g / cm^3
# Si number density = 19.753086 Si / 1000 Ang^3
#
#
#
# Elastic Constant Matrix: (Units=GPa)
#
#
# Indices 1 2 3 4 5 6 
#
# 1 16.7508 -0.0656 -7.8960 0.0000 0.0000 0.0000
# 2 -0.0656 159.5278 49.0765 0.0000 0.0000 0.0000
# 3 -7.8960 49.0765 112.1365 0.0000 0.0000 0.0000
# 4 0.0000 0.0000 0.0000 47.8782 0.0000 0.0000
# 5 0.0000 0.0000 0.0000 0.0000 13.1855 0.0000
# 6 0.0000 0.0000 0.0000 0.0000 0.0000 21.6648
#
#
#
# Elastic Compliance Matrix: (Units=1/GPa)
#
#
# Indices 1 2 3 4 5 6 
#
# 1 0.062067 -0.001524 0.005037 0.000000 0.000000 0.000000
# 2 -0.001524 0.007281 -0.003294 0.000000 0.000000 0.000000
# 3 0.005037 -0.003294 0.010714 0.000000 0.000000 0.000000
# 4 0.000000 0.000000 0.000000 0.020886 0.000000 0.000000
# 5 0.000000 0.000000 0.000000 0.000000 0.075841 0.000000
# 6 0.000000 0.000000 0.000000 0.000000 0.000000 0.046158
#
#
# Mechanical properties :
#
#
# Convention : Reuss Voigt Hill
#
# Bulk Modulus (GPa) = 12.42221 41.18275 26.80248
# Shear Modulus (GPa) = 20.05277 33.03239 26.54258
#
# Velocity S-wave (km/s) = 3.18963 4.09377 3.66965
# Velocity P-wave (km/s) = 4.45729 6.57566 5.61724
#
# Compressibility (1/GPa) = 0.08050098
#
# Stress axis : x y z
#
# Youngs Moduli (GPa) = 16.11160 137.33990 93.33580
#
# Poissons Ratio (x) = 0.20933 -0.47017
# Poissons Ratio (y) = 0.02456 0.30744
# Poissons Ratio (z) = -0.08116 0.45239
#
# Static dielectric constant tensor:
#      x y z
#    x 1.783930 0.000000 0.000000 
#    y 0.000000 1.629490 0.000000 
#    z 0.000000 0.000000 1.662300 
# 
# From -- ./inp_files/2103.got.cif
#   From: 2010.05.17/outbox.ucp.g08.bks.cvg/sg57_2_cif.got.tgz:2103.got - 2010.06.11 16:39:23.
