data_PCOD9440061
_publ_section_title
;
Structure prediction by ZEFSAII (Michael W. Deem and Ramdas Pophale) SiO2 
 PCOD9440061
Probable space group: P B C M
;
_chemical_formula_sum "Si O2"
_cell_formula_units_Z 48
_cell_length_a 12.069744
_cell_length_b 8.334940
_cell_length_c 22.756982
_cell_angle_alpha 90.000000
_cell_angle_beta 90.000000
_cell_angle_gamma 90.000000
_cell_volume 2289.365863
_symmetry_space_group_name_H-M "P B C M"
_symmetry_group_IT_number 57
_symmetry_cell_setting 'orthorhombic'
loop_
_space_group_symop_operation_xyz
x,y,z
-x,-y,1/2+z
x,1/2-y,-z
-x,1/2+y,1/2-z
-x,-y,-z
x,y,1/2-z
-x,1/2+y,z
x,1/2-y,1/2+z
loop_
_atom_site_type_symbol
_atom_site_label
_atom_site_fract_x
_atom_site_fract_y
_atom_site_fract_z
Si Si1 0.760655 0.278041 0.250000
Si Si2 0.622676 0.578322 0.250000
Si Si3 0.936410 0.004695 0.420261
Si Si4 0.851670 0.184836 0.874608
Si Si5 0.625899 0.301225 0.431959
Si Si6 0.534201 0.019297 0.144289
Si Si7 0.683909 0.588248 0.750000
Si Si8 0.074647 0.250000 0.000000
O O1 0.649933 0.386809 0.250000
O O2 0.819528 0.341458 0.191986
O O3 0.748847 0.084394 0.250000
O O4 0.551757 0.597338 0.309442
O O5 0.715836 0.720549 0.250000
O O6 0.036890 0.910583 0.389866
O O7 0.866146 0.869849 0.455011
O O8 0.994328 0.131219 0.464403
O O9 0.869061 0.123705 0.380023
O O10 0.750894 0.138263 0.918100
O O11 0.613649 0.250000 0.500000
O O12 0.535537 0.423683 0.405141
O O13 0.606877 0.147865 0.390438
O O14 0.613612 0.927552 0.189811
#
# Coordination Sequence:
#
# PCOD9440061 Si02
#       8
#     4   4   8   8   8   8   4   4
#     4  12  24  46  70  98 130 174 228 284 334 394
#     4  11  21  40  72  95 127 174 233 277 314 401
#     4   9  20  39  64  96 128 171 221 272 328 386
#     4  11  24  43  67  96 130 176 223 274 333 391
#     4  12  25  40  67  95 141 174 213 273 340 392
#     4  11  21  42  64 100 131 173 218 272 334 397
#     4  11  21  40  72  95 127 174 233 277 314 401
#     4   8  16  36  68  84 122 164 222 258 316 394
#
# _framework density 20.966502999999999
#
# number of rings (size 3 to 8) (size 9 to 14) (size 15 to 20)
#    0.000    1.333    5.000    0.500    9.333    0.667 
#    6.000    3.333    3.667    0.000    0.000    0.000 
#    0.000    0.000    0.000    0.000    0.000    0.000 
#
# Total GULP energy -267246.569890 kJ/mol
# GULP energy per Si atom -5567.636873 kJ/mol
# Density = 2.091878 g / cm^3
# Si number density = 20.966503 Si / 1000 Ang^3
#
#
#
# Elastic Constant Matrix: (Units=GPa)
#
#
# Indices 1 2 3 4 5 6 
#
# 1 39.1974 -1.6121 6.8560 0.0000 0.0000 0.0000
# 2 -1.6121 65.5263 13.0401 0.0000 0.0000 0.0000
# 3 6.8560 13.0401 119.1161 0.0000 0.0000 0.0000
# 4 0.0000 0.0000 0.0000 156.7342 0.0000 0.0000
# 5 0.0000 0.0000 0.0000 0.0000 8.7822 0.0000
# 6 0.0000 0.0000 0.0000 0.0000 0.0000 49.2550
#
#
#
# Elastic Compliance Matrix: (Units=1/GPa)
#
#
# Indices 1 2 3 4 5 6 
#
# 1 0.025829 0.000952 -0.001591 0.000000 0.000000 0.000000
# 2 0.000952 0.015636 -0.001767 0.000000 0.000000 0.000000
# 3 -0.001591 -0.001767 0.008680 0.000000 0.000000 0.000000
# 4 0.000000 0.000000 0.000000 0.006380 0.000000 0.000000
# 5 0.000000 0.000000 0.000000 0.000000 0.113867 0.000000
# 6 0.000000 0.000000 0.000000 0.000000 0.000000 0.020303
#
#
# Mechanical properties :
#
#
# Convention : Reuss Voigt Hill
#
# Bulk Modulus (GPa) = 22.05814 28.93421 25.49618
# Shear Modulus (GPa) = 23.73976 56.65800 40.19888
#
# Velocity S-wave (km/s) = 3.36857 5.20401 4.38344
# Velocity P-wave (km/s) = 5.06687 7.06677 6.14867
#
# Compressibility (1/GPa) = 0.04533473
#
# Stress axis : x y z
#
# Youngs Moduli (GPa) = 38.71569 63.95492 115.20565
#
# Poissons Ratio (x) = -0.06089 0.18328
# Poissons Ratio (y) = -0.03686 0.20352
# Poissons Ratio (z) = 0.06159 0.11298
#
# Static dielectric constant tensor:
#      x y z
#    x 1.742790 0.000000 0.000000 
#    y 0.000000 1.838430 0.000000 
#    z 0.000000 0.000000 1.877380 
# 
# From -- ./inp_files/27172.got.cif
#   From: 2010.05.17/outbox.cif.g08.bks.cpg/sg57_14_cif.got.tgz:27172.got - 2010.06.03 13:58:18.
