data_PCOD9440366
_publ_section_title
;
Structure prediction by ZEFSAII (Michael W. Deem and Ramdas Pophale) SiO2 
 PCOD9440366
Probable space group: P B C M
;
_chemical_formula_sum "Si O2"
_cell_formula_units_Z 28
_cell_length_a 6.983060
_cell_length_b 6.939207
_cell_length_c 21.753771
_cell_angle_alpha 90.000000
_cell_angle_beta 90.000000
_cell_angle_gamma 90.000000
_cell_volume 1054.120281
_symmetry_space_group_name_H-M "P B C M"
_symmetry_group_IT_number 57
_symmetry_cell_setting 'orthorhombic'
loop_
_space_group_symop_operation_xyz
x,y,z
-x,-y,1/2+z
x,1/2-y,-z
-x,1/2+y,1/2-z
-x,-y,-z
x,y,1/2-z
-x,1/2+y,z
x,1/2-y,1/2+z
loop_
_atom_site_type_symbol
_atom_site_label
_atom_site_fract_x
_atom_site_fract_y
_atom_site_fract_z
Si Si1 0.220349 0.636292 0.639958
Si Si2 0.085244 0.375809 0.250000
Si Si3 0.653730 0.786038 0.368386
Si Si4 0.824076 0.416502 0.539705
O O1 0.087607 0.610178 0.698331
O O2 0.429646 0.728094 0.648684
O O3 0.107519 0.781306 0.595925
O O4 0.273750 0.426858 0.615298
O O5 0.241516 0.356538 0.193995
O O6 0.699192 0.921392 0.426933
O O7 0.717080 0.250000 0.500000
O O8 0.000000 0.500000 0.500000
#
# Coordination Sequence:
#
# PCOD9440366 Si02
#       4
#     8   4   8   8
#     4  12  29  55  84 128 170 220 280 351 430 508
#     4  12  30  48  90 126 174 216 276 356 424 520
#     4  12  29  55  85 129 171 221 281 352 435 504
#     4  12  31  53  84 120 169 222 290 348 416 511
#
# _framework density 26.562432000000001
#
# number of rings (size 3 to 8) (size 9 to 14) (size 15 to 20)
#    0.000    0.000    2.857    3.429   20.000    1.143 
#    0.000    0.000    0.000    0.000    0.000    0.000 
#    0.000    0.000    0.000    0.000    0.000    0.000 
#
# Total GULP energy -155883.074665 kJ/mol
# GULP energy per Si atom -5567.252667 kJ/mol
# Density = 2.650198 g / cm^3
# Si number density = 26.562432 Si / 1000 Ang^3
#
#
#
# Elastic Constant Matrix: (Units=GPa)
#
#
# Indices 1 2 3 4 5 6 
#
# 1 231.0746 58.7077 54.4229 0.0000 0.0000 0.0000
# 2 58.7077 139.1762 65.9727 0.0000 0.0000 0.0000
# 3 54.4229 65.9727 119.9025 0.0000 0.0000 0.0000
# 4 0.0000 0.0000 0.0000 -16.0225 0.0000 0.0000
# 5 0.0000 0.0000 0.0000 0.0000 27.0681 0.0000
# 6 0.0000 0.0000 0.0000 0.0000 0.0000 28.2197
#
#
#
# Elastic Compliance Matrix: (Units=1/GPa)
#
#
# Indices 1 2 3 4 5 6 
#
# 1 0.005042 -0.001410 -0.001513 0.000000 0.000000 0.000000
# 2 -0.001410 0.010115 -0.004925 0.000000 0.000000 0.000000
# 3 -0.001513 -0.004925 0.011737 0.000000 0.000000 0.000000
# 4 0.000000 0.000000 0.000000 -0.062412 0.000000 0.000000
# 5 0.000000 0.000000 0.000000 0.000000 0.036944 0.000000
# 6 0.000000 0.000000 0.000000 0.000000 0.000000 0.035436
#
#
# Mechanical properties :
#
#
# Convention : Reuss Voigt Hill
#
# Bulk Modulus (GPa) = 89.30577 94.26222 91.78399
# Shear Modulus (GPa) = 88.82591 28.58971 58.70781
#
# Velocity S-wave (km/s) = 5.78904 3.28429 4.70636
# Velocity P-wave (km/s) = 8.85314 7.06726 8.01013
#
# Compressibility (1/GPa) = 0.01119748
#
# Stress axis : x y z
#
# Youngs Moduli (GPa) = 198.33054 98.86786 85.20183
#
# Poissons Ratio (x) = 0.13937 0.12890
# Poissons Ratio (y) = 0.27959 0.41965
# Poissons Ratio (z) = 0.30006 0.48696
#
# Static dielectric constant tensor:
#      x y z
#    x 2.068020 0.000000 0.000000 
#    y 0.000000 2.230360 0.000000 
#    z 0.000000 0.000000 2.078290 
# 
# From -- ./inp_files/27736.got.cif
#   From: 2010.05.17/outbox.cif.g08.bks.cpg/sg57_14_cif.got.tgz:27736.got - 2010.06.03 13:58:18.
