data_PCOD9440559
_publ_section_title
;
Structure prediction by ZEFSAII (Michael W. Deem and Ramdas Pophale) SiO2 
 PCOD9440559
Probable space group: P B C M
;
_chemical_formula_sum "Si O2"
_cell_formula_units_Z 64
_cell_length_a 24.000000
_cell_length_b 15.000000
_cell_length_c 9.000000
_cell_angle_alpha 90.000000
_cell_angle_beta 90.000000
_cell_angle_gamma 90.000000
_cell_volume 3240.000000
_symmetry_space_group_name_H-M "P B C M"
_symmetry_group_IT_number 57
_symmetry_cell_setting 'orthorhombic'
loop_
_space_group_symop_operation_xyz
x,y,z
-x,-y,1/2+z
x,1/2-y,-z
-x,1/2+y,1/2-z
-x,-y,-z
x,y,1/2-z
-x,1/2+y,z
x,1/2-y,1/2+z
loop_
_atom_site_type_symbol
_atom_site_label
_atom_site_fract_x
_atom_site_fract_y
_atom_site_fract_z
Si Si1 0.299012 0.842366 0.926850
Si Si2 0.522891 0.839943 0.425437
Si Si3 0.366643 0.396677 0.584026
Si Si4 0.254310 0.025581 0.070003
Si Si5 0.084905 0.843810 0.926795
Si Si6 0.862751 0.971575 0.070909
Si Si7 0.406257 0.900059 0.082479
Si Si8 0.955735 0.653225 0.429070
O O1 0.291285 0.842308 0.750000
O O2 0.278893 0.750000 0.000000
O O3 0.364573 0.852016 0.969869
O O4 0.269906 0.929250 0.999490
O O5 0.502144 0.750000 0.500000
O O6 0.527033 0.833168 0.250000
O O7 0.584295 0.856828 0.487006
O O8 0.471140 0.904880 0.460063
O O9 0.368174 0.357185 0.750000
O O10 0.303219 0.403771 0.529417
O O11 0.383736 0.500199 0.593826
O O12 0.253925 0.018665 0.250000
O O13 0.195276 0.054290 0.004591
O O14 0.087132 0.832511 0.750000
O O15 0.020590 0.867868 0.963962
O O16 0.124534 0.925258 0.967376
O O17 0.099105 0.750000 0.000000
O O18 0.860687 0.962864 0.250000
O O19 0.913326 0.914828 0.004127
O O20 0.401811 0.860078 0.250000
O O21 0.945056 0.750000 0.500000
O O22 0.949352 0.654571 0.250000
#
# Coordination Sequence:
#
# PCOD9440559 Si02
#       8
#     8   8   8   8   8   8   8   8
#     4  11  21  34  54  79 108 144 182 224 273 327
#     4  11  22  34  52  78 107 136 170 212 264 321
#     4   9  19  37  57  75 101 134 172 217 266 317
#     4  10  22  40  58  78 106 143 186 231 276 327
#     4   9  20  36  57  87 123 158 192 230 278 335
#     4  11  22  37  58  87 119 153 194 239 284 338
#     4   9  19  35  54  79 107 136 170 212 263 324
#     4  10  20  37  60  87 118 154 193 237 287 337
#
# _framework density 19.753086
#
# number of rings (size 3 to 8) (size 9 to 14) (size 15 to 20)
#    0.000    2.000    0.000    4.500    0.000    6.500 
#    0.000    1.875    0.000    3.000    0.000    0.000 
#    0.000    0.000    0.000    0.000    0.000    0.000 
#
# Total GULP energy -357049.046805 kJ/mol
# GULP energy per Si atom -5578.891356 kJ/mol
# Density = 1.970813 g / cm^3
# Si number density = 19.753086 Si / 1000 Ang^3
#
#
#
# Elastic Constant Matrix: (Units=GPa)
#
#
# Indices 1 2 3 4 5 6 
#
# 1 73.3214 6.0952 13.1891 0.0000 0.0000 0.0000
# 2 6.0952 12.5431 -0.2892 0.0000 0.0000 0.0000
# 3 13.1891 -0.2892 51.8770 0.0000 0.0000 0.0000
# 4 0.0000 0.0000 0.0000 28.0463 0.0000 0.0000
# 5 0.0000 0.0000 0.0000 0.0000 30.6046 0.0000
# 6 0.0000 0.0000 0.0000 0.0000 0.0000 13.6137
#
#
#
# Elastic Compliance Matrix: (Units=1/GPa)
#
#
# Indices 1 2 3 4 5 6 
#
# 1 0.014940 -0.007349 -0.003839 0.000000 0.000000 0.000000
# 2 -0.007349 0.083350 0.002333 0.000000 0.000000 0.000000
# 3 -0.003839 0.002333 0.020265 0.000000 0.000000 0.000000
# 4 0.000000 0.000000 0.000000 0.035655 0.000000 0.000000
# 5 0.000000 0.000000 0.000000 0.000000 0.032675 0.000000
# 6 0.000000 0.000000 0.000000 0.000000 0.000000 0.073456
#
#
# Mechanical properties :
#
#
# Convention : Reuss Voigt Hill
#
# Bulk Modulus (GPa) = 9.91614 19.52575 14.72095
# Shear Modulus (GPa) = 16.04280 22.36934 19.20607
#
# Velocity S-wave (km/s) = 2.85295 3.36884 3.12157
# Velocity P-wave (km/s) = 3.98539 5.00384 4.52337
#
# Compressibility (1/GPa) = 0.10084571
#
# Stress axis : x y z
#
# Youngs Moduli (GPa) = 66.93404 11.99761 49.34497
#
# Poissons Ratio (x) = 0.08816 0.18945
# Poissons Ratio (y) = 0.49187 -0.11512
# Poissons Ratio (z) = 0.25698 -0.02799
#
# Static dielectric constant tensor:
#      x y z
#    x 1.719650 0.000000 0.000000 
#    y 0.000000 1.710650 0.000000 
#    z 0.000000 0.000000 1.681630 
# 
# From -- ./inp_files/9418.got.cif
#   From: 2010.05.17/outbox.ucp.g08.bks.cvg/sg57_5_cif.got.tgz:9418.got - 2010.06.11 16:39:23.
