data_PCOD9440873
_publ_section_title
;
Structure prediction by ZEFSAII (Michael W. Deem and Ramdas Pophale) SiO2 
 PCOD9440873
Probable space group: P N N M
;
_chemical_formula_sum "Si O2"
_cell_formula_units_Z 52
_cell_length_a 9.294192
_cell_length_b 10.552897
_cell_length_c 28.604538
_cell_angle_alpha 90.000000
_cell_angle_beta 90.000000
_cell_angle_gamma 90.000000
_cell_volume 2805.551705
_symmetry_space_group_name_H-M "P N N M"
_symmetry_group_IT_number 58
_symmetry_cell_setting 'orthorhombic'
loop_
_space_group_symop_operation_xyz
x,y,z
-x,-y,z
1/2+x,1/2-y,1/2-z
1/2-x,1/2+y,1/2-z
-x,-y,-z
x,y,-z
1/2-x,1/2+y,1/2+z
1/2+x,1/2-y,1/2+z
loop_
_atom_site_type_symbol
_atom_site_label
_atom_site_fract_x
_atom_site_fract_y
_atom_site_fract_z
Si Si1 0.062910 0.682560 0.389669
Si Si2 0.000000 0.000000 0.925924
Si Si3 0.777850 0.564635 0.631655
Si Si4 0.426379 0.358308 0.703441
Si Si5 0.673635 0.251362 0.551710
Si Si6 0.097252 0.876289 0.690424
Si Si7 0.411736 0.870186 0.349854
O O1 0.159018 0.576256 0.362985
O O2 0.160817 0.716862 0.434000
O O3 0.043317 0.792273 0.352403
O O4 0.903338 0.631008 0.397982
O O5 0.080701 0.118391 0.949655
O O6 0.871586 0.059383 0.895629
O O7 0.732092 0.626605 0.680452
O O8 0.500000 0.500000 0.700401
O O9 0.415575 0.320241 0.757577
O O10 0.512120 0.250360 0.675040
O O11 0.665799 0.192956 0.500000
O O12 0.619135 0.170760 0.596249
O O13 0.263430 0.897036 0.677344
O O14 0.000000 0.000000 0.691092
O O15 0.500000 0.000000 0.348855
#
# Coordination Sequence:
#
# PCOD9440873 Si02
#       7
#     8   4   8   8   8   8   8
#     4   9  21  37  56  84 114 158 199 240 302 360
#     4  10  17  34  60  94 114 148 192 252 305 356
#     4  10  18  35  60  81 119 153 189 250 301 353
#     4  11  21  38  62  85 122 158 201 249 299 354
#     4  10  20  39  62  85 119 155 199 252 308 360
#     4  10  24  38  57  85 122 163 202 245 298 359
#     4  11  25  40  61  93 124 159 206 252 302 363
#
# _framework density 18.534680000000002
#
# number of rings (size 3 to 8) (size 9 to 14) (size 15 to 20)
#    0.000    1.846    2.308    2.077    4.308    2.769 
#    0.000    6.923    0.000    7.385    0.000    0.000 
#    0.000    0.000    0.000    0.000    0.000    0.000 
#
# Total GULP energy -289645.674615 kJ/mol
# GULP energy per Si atom -5570.109127 kJ/mol
# Density = 1.849249 g / cm^3
# Si number density = 18.534680 Si / 1000 Ang^3
#
#
#
# Elastic Constant Matrix: (Units=GPa)
#
#
# Indices 1 2 3 4 5 6 
#
# 1 101.9524 32.9478 40.7228 0.0000 0.0000 0.0000
# 2 32.9478 69.4755 34.4236 0.0000 0.0000 0.0000
# 3 40.7228 34.4236 121.7747 0.0000 0.0000 0.0000
# 4 0.0000 0.0000 0.0000 3.5768 0.0000 0.0000
# 5 0.0000 0.0000 0.0000 0.0000 3.5486 0.0000
# 6 0.0000 0.0000 0.0000 0.0000 0.0000 22.6160
#
#
#
# Elastic Compliance Matrix: (Units=1/GPa)
#
#
# Indices 1 2 3 4 5 6 
#
# 1 0.012400 -0.004449 -0.002889 0.000000 0.000000 0.000000
# 2 -0.004449 0.018334 -0.003695 0.000000 0.000000 0.000000
# 3 -0.002889 -0.003695 0.010223 0.000000 0.000000 0.000000
# 4 0.000000 0.000000 0.000000 0.279580 0.000000 0.000000
# 5 0.000000 0.000000 0.000000 0.000000 0.281798 0.000000
# 6 0.000000 0.000000 0.000000 0.000000 0.000000 0.044216
#
#
# Mechanical properties :
#
#
# Convention : Reuss Voigt Hill
#
# Bulk Modulus (GPa) = 52.93611 56.59901 54.76756
# Shear Modulus (GPa) = 7.40834 18.28884 12.84859
#
# Velocity S-wave (km/s) = 2.00142 3.14464 2.63576
# Velocity P-wave (km/s) = 5.82782 6.61726 6.23505
#
# Compressibility (1/GPa) = 0.01889070
#
# Stress axis : x y z
#
# Youngs Moduli (GPa) = 80.64295 54.54260 97.82320
#
# Poissons Ratio (x) = 0.24267 0.28262
# Poissons Ratio (y) = 0.35880 0.36145
# Poissons Ratio (z) = 0.23299 0.20153
#
# Static dielectric constant tensor:
#      x y z
#    x 1.655030 0.000000 0.000000 
#    y 0.000000 1.672420 0.000000 
#    z 0.000000 0.000000 1.656830 
# 
# From -- ./inp_files/33274.got.cif
#   From: 2010.05.17/outbox.cif.g08.bks.cpg/sg58_17_cif.got.tgz:33274.got - 2010.06.03 14:20:14.
