data_PCOD9440642
_publ_section_title
;
Structure prediction by ZEFSAII (Michael W. Deem and Ramdas Pophale) SiO2 
 PCOD9440642
Probable space group: P B C M
;
_chemical_formula_sum "Si O2"
_cell_formula_units_Z 48
_cell_length_a 9.000000
_cell_length_b 30.000000
_cell_length_c 9.000000
_cell_angle_alpha 90.000000
_cell_angle_beta 90.000000
_cell_angle_gamma 90.000000
_cell_volume 2430.000000
_symmetry_space_group_name_H-M "P B C M"
_symmetry_group_IT_number 57
_symmetry_cell_setting 'orthorhombic'
loop_
_space_group_symop_operation_xyz
x,y,z
-x,-y,1/2+z
x,1/2-y,-z
-x,1/2+y,1/2-z
-x,-y,-z
x,y,1/2-z
-x,1/2+y,z
x,1/2-y,1/2+z
loop_
_atom_site_type_symbol
_atom_site_label
_atom_site_fract_x
_atom_site_fract_y
_atom_site_fract_z
Si Si1 0.424845 0.456364 0.571985
Si Si2 0.072241 0.044372 0.072227
Si Si3 0.030961 0.361247 0.078531
Si Si4 0.696962 0.796919 0.425037
Si Si5 0.458306 0.857500 0.927554
Si Si6 0.223059 0.701954 0.926808
O O1 0.500000 0.500000 0.500000
O O2 0.443304 0.459619 0.750000
O O3 0.248882 0.456610 0.539722
O O4 0.490154 0.407548 0.528167
O O5 0.050212 0.042915 0.250000
O O6 0.016662 0.092676 0.011731
O O7 0.000000 0.000000 0.000000
O O8 0.991676 0.371563 0.250000
O O9 0.192968 0.339389 0.074443
O O10 0.938253 0.317276 0.033056
O O11 0.745887 0.750000 0.500000
O O12 0.658414 0.788924 0.250000
O O13 0.567989 0.817336 0.526706
O O14 0.436565 0.857709 0.750000
O O15 0.316590 0.840309 0.016087
O O16 0.238451 0.707276 0.750000
O O17 0.254552 0.750000 0.000000
#
# Coordination Sequence:
#
# PCOD9440642 Si02
#       6
#     8   8   8   8   8   8
#     4  10  24  43  65  93 125 162 206 255 309 370
#     4  11  24  43  66  95 127 163 206 255 311 372
#     4  10  23  42  64  92 125 162 207 255 309 368
#     4  11  22  38  63  92 122 161 203 252 310 366
#     4  11  23  42  63  90 125 163 209 255 306 367
#     4  11  24  42  63  92 127 166 210 257 309 367
#
# _framework density 19.753086
#
# number of rings (size 3 to 8) (size 9 to 14) (size 15 to 20)
#    0.000    1.333    1.667    3.000    2.333    4.667 
#    0.000    0.000    0.000    0.000    0.000    0.000 
#    0.000    0.000    0.000    0.000    0.000    0.000 
#
# Total GULP energy -267524.931881 kJ/mol
# GULP energy per Si atom -5573.436081 kJ/mol
# Density = 1.970813 g / cm^3
# Si number density = 19.753086 Si / 1000 Ang^3
#
#
#
# Elastic Constant Matrix: (Units=GPa)
#
#
# Indices 1 2 3 4 5 6 
#
# 1 27.3050 5.3387 28.7762 0.0000 0.0000 0.0000
# 2 5.3387 139.4427 90.0539 0.0000 0.0000 0.0000
# 3 28.7762 90.0539 36.8242 0.0000 0.0000 0.0000
# 4 0.0000 0.0000 0.0000 50.9918 0.0000 0.0000
# 5 0.0000 0.0000 0.0000 0.0000 21.8207 0.0000
# 6 0.0000 0.0000 0.0000 0.0000 0.0000 46.6547
#
#
#
# Elastic Compliance Matrix: (Units=1/GPa)
#
#
# Indices 1 2 3 4 5 6 
#
# 1 0.017491 -0.014081 0.020766 0.000000 0.000000 0.000000
# 2 -0.014081 -0.001043 0.013555 0.000000 0.000000 0.000000
# 3 0.020766 0.013555 -0.022219 0.000000 0.000000 0.000000
# 4 0.000000 0.000000 0.000000 0.019611 0.000000 0.000000
# 5 0.000000 0.000000 0.000000 0.000000 0.045828 0.000000
# 6 0.000000 0.000000 0.000000 0.000000 0.000000 0.021434
#
#
# Mechanical properties :
#
#
# Convention : Reuss Voigt Hill
#
# Bulk Modulus (GPa) = 28.81127 50.21218 39.51173
# Shear Modulus (GPa) = 95.80153 29.18699 62.49426
#
# Velocity S-wave (km/s) = 6.97172 3.84812 5.63084
# Velocity P-wave (km/s) = 8.91200 6.72451 7.89439
#
# Compressibility (1/GPa) = 0.03470864
#
# Stress axis : x y z
#
# Youngs Moduli (GPa) = 57.17158 -958.61023 -45.00572
#
# Poissons Ratio (x) = -13.49803 0.93460
# Poissons Ratio (y) = 0.80502 0.61003
# Poissons Ratio (z) = -1.18724 12.99350
#
# Static dielectric constant tensor:
#      x y z
#    x 2.416270 0.000000 0.000000 
#    y 0.000000 1.616320 0.000000 
#    z 0.000000 0.000000 1.695060 
# 
# From -- ./inp_files/2130.got.cif
#   From: 2010.05.17/outbox.ucp.g08.bks.cvg/sg57_2_cif.got.tgz:2130.got - 2010.06.11 16:39:23.
