data_PCOD9440357
_publ_section_title
;
Structure prediction by ZEFSAII (Michael W. Deem and Ramdas Pophale) SiO2 
 PCOD9440357
Probable space group: P B C M
;
_chemical_formula_sum "Si O2"
_cell_formula_units_Z 40
_cell_length_a 20.635047
_cell_length_b 9.008353
_cell_length_c 10.176777
_cell_angle_alpha 90.000000
_cell_angle_beta 90.000000
_cell_angle_gamma 90.000000
_cell_volume 1891.738561
_symmetry_space_group_name_H-M "P B C M"
_symmetry_group_IT_number 57
_symmetry_cell_setting 'orthorhombic'
loop_
_space_group_symop_operation_xyz
x,y,z
-x,-y,1/2+z
x,1/2-y,-z
-x,1/2+y,1/2-z
-x,-y,-z
x,y,1/2-z
-x,1/2+y,z
x,1/2-y,1/2+z
loop_
_atom_site_type_symbol
_atom_site_label
_atom_site_fract_x
_atom_site_fract_y
_atom_site_fract_z
Si Si1 0.124968 0.083977 0.516999
Si Si2 0.678488 0.250000 0.000000
Si Si3 0.586592 0.232666 0.750000
Si Si4 0.621795 0.750000 0.500000
Si Si5 0.055293 0.906714 0.750000
Si Si6 0.732618 0.533305 0.901948
Si Si7 0.547586 0.609445 0.250000
Si Si8 0.084916 0.946163 0.250000
O O1 0.096307 0.250000 0.500000
O O2 0.198179 0.104289 0.568474
O O3 0.087198 0.984986 0.623071
O O4 0.122884 0.996498 0.379993
O O5 0.631671 0.247784 0.124360
O O6 0.723352 0.107042 0.004748
O O7 0.527604 0.347354 0.750000
O O8 0.557753 0.066708 0.750000
O O9 0.670747 0.635092 0.569023
O O10 0.579840 0.676015 0.383243
O O11 0.067684 0.729381 0.750000
O O12 0.980552 0.955155 0.750000
O O13 0.732197 0.487632 0.750000
#
# Coordination Sequence:
#
# PCOD9440357 Si02
#       8
#     8   4   4   4   4   8   4   4
#     4  12  26  45  75 109 145 187 242 299 358 426
#     4  12  27  46  72 102 139 184 230 294 348 424
#     4  12  28  46  68 102 138 181 235 287 351 414
#     4  12  25  46  72 100 137 186 230 282 352 420
#     4  12  26  50  72 103 150 199 237 300 355 418
#     4  12  26  45  74 104 142 181 232 289 357 424
#     4  12  28  44  70 101 136 181 235 288 343 424
#     4  12  28  46  74 106 146 193 251 291 357 426
#
# _framework density 21.144570000000002
#
# number of rings (size 3 to 8) (size 9 to 14) (size 15 to 20)
#    0.000    0.000    6.000    3.600    5.600    3.200 
#    0.000    0.000    0.000    0.000    0.000    0.000 
#    0.000    0.000    0.000    0.000    0.000    0.000 
#
# Total GULP energy -223900.753551 kJ/mol
# GULP energy per Si atom -5597.518839 kJ/mol
# Density = 2.109644 g / cm^3
# Si number density = 21.144570 Si / 1000 Ang^3
#
#
#
# Elastic Constant Matrix: (Units=GPa)
#
#
# Indices 1 2 3 4 5 6 
#
# 1 45.1143 -5.5569 32.1811 0.0000 0.0000 0.0000
# 2 -5.5569 100.2579 -6.2259 0.0000 0.0000 0.0000
# 3 32.1811 -6.2259 124.9316 0.0000 0.0000 0.0000
# 4 0.0000 0.0000 0.0000 27.4110 0.0000 0.0000
# 5 0.0000 0.0000 0.0000 0.0000 31.8276 0.0000
# 6 0.0000 0.0000 0.0000 0.0000 0.0000 -151.9922
#
#
#
# Elastic Compliance Matrix: (Units=1/GPa)
#
#
# Indices 1 2 3 4 5 6 
#
# 1 0.027271 0.001079 -0.006971 0.000000 0.000000 0.000000
# 2 0.001079 0.010048 0.000223 0.000000 0.000000 0.000000
# 3 -0.006971 0.000223 0.009811 0.000000 0.000000 0.000000
# 4 0.000000 0.000000 0.000000 0.036482 0.000000 0.000000
# 5 0.000000 0.000000 0.000000 0.000000 0.031419 0.000000
# 6 0.000000 0.000000 0.000000 0.000000 0.000000 -0.006579
#
#
# Mechanical properties :
#
#
# Convention : Reuss Voigt Hill
#
# Bulk Modulus (GPa) = 27.93967 34.56670 31.25319
# Shear Modulus (GPa) = 37.95882 -1.89035 18.03423
#
# Velocity S-wave (km/s) = 4.24158 -0.94655 2.92362
# Velocity P-wave (km/s) = 6.10167 3.89726 5.11952
#
# Compressibility (1/GPa) = 0.03579140
#
# Stress axis : x y z
#
# Youngs Moduli (GPa) = 36.66845 99.52322 101.92467
#
# Poissons Ratio (x) = -0.10735 0.71052
# Poissons Ratio (y) = -0.03955 -0.02272
# Poissons Ratio (z) = 0.25562 -0.02218
#
# Static dielectric constant tensor:
#      x y z
#    x 1.719430 0.000000 0.000000 
#    y 0.000000 1.694620 0.000000 
#    z 0.000000 0.000000 1.726860 
# 
# From -- ./inp_files/9056.got.cif
#   From: 2010.05.17/outbox.cif.g08.bks.cpg/sg57_5_cif.got.tgz:9056.got - 2010.06.03 13:58:18.
