data_PCOD9440012
_publ_section_title
;
Structure prediction by ZEFSAII (Michael W. Deem and Ramdas Pophale) SiO2 
 PCOD9440012
Probable space group: P B C M
;
_chemical_formula_sum "Si O2"
_cell_formula_units_Z 48
_cell_length_a 14.499871
_cell_length_b 21.646608
_cell_length_c 8.785760
_cell_angle_alpha 90.000000
_cell_angle_beta 90.000000
_cell_angle_gamma 90.000000
_cell_volume 2757.613056
_symmetry_space_group_name_H-M "P B C M"
_symmetry_group_IT_number 57
_symmetry_cell_setting 'orthorhombic'
loop_
_space_group_symop_operation_xyz
x,y,z
-x,-y,1/2+z
x,1/2-y,-z
-x,1/2+y,1/2-z
-x,-y,-z
x,y,1/2-z
-x,1/2+y,z
x,1/2-y,1/2+z
loop_
_atom_site_type_symbol
_atom_site_label
_atom_site_fract_x
_atom_site_fract_y
_atom_site_fract_z
Si Si1 0.157510 0.103007 0.075455
Si Si2 0.219768 0.539908 0.575381
Si Si3 0.036079 0.564339 0.430546
Si Si4 0.497964 0.317053 0.932319
Si Si5 0.568122 0.053374 0.565492
Si Si6 0.296903 0.188371 0.572736
O O1 0.172889 0.125008 0.250000
O O2 0.049385 0.109841 0.036468
O O3 0.186103 0.031074 0.074192
O O4 0.223825 0.135573 0.957531
O O5 0.221119 0.561268 0.750000
O O6 0.138742 0.576751 0.489954
O O7 0.325063 0.541705 0.519577
O O8 0.039519 0.557193 0.250000
O O9 0.000000 0.500000 0.500000
O O10 0.508058 0.316733 0.750000
O O11 0.528406 0.250000 0.000000
O O12 0.543381 0.378278 0.004191
O O13 0.390603 0.322973 0.979662
O O14 0.561394 0.051736 0.750000
O O15 0.500000 0.000000 0.500000
O O16 0.255486 0.250000 0.500000
O O17 0.319267 0.195831 0.750000
#
# Coordination Sequence:
#
# PCOD9440012 Si02
#       6
#     8   8   8   8   8   8
#     4   9  17  31  49  73 103 133 164 204 251 300
#     4   9  19  33  50  73 104 135 166 207 254 301
#     4   9  17  29  48  71  98 130 164 200 244 299
#     4  11  22  38  57  77 105 142 181 222 265 319
#     4  11  22  36  55  82 112 143 178 222 271 317
#     4  11  21  33  51  74  99 131 168 209 255 308
#
# _framework density 17.406357
#
# number of rings (size 3 to 8) (size 9 to 14) (size 15 to 20)
#    0.000    2.000    0.000    7.000    0.000    6.000 
#    0.000    0.000    0.000    1.000    0.000    7.000 
#    0.000    0.000    0.000    0.000    0.000    0.000 
#
# Total GULP energy -267417.089083 kJ/mol
# GULP energy per Si atom -5571.189356 kJ/mol
# Density = 1.736674 g / cm^3
# Si number density = 17.406357 Si / 1000 Ang^3
#
#
#
# Elastic Constant Matrix: (Units=GPa)
#
#
# Indices 1 2 3 4 5 6 
#
# 1 118.0180 43.9590 39.1202 0.0000 0.0000 0.0000
# 2 43.9590 61.6323 29.6798 0.0000 0.0000 0.0000
# 3 39.1202 29.6798 74.2846 0.0000 0.0000 0.0000
# 4 0.0000 0.0000 0.0000 23.6669 0.0000 0.0000
# 5 0.0000 0.0000 0.0000 0.0000 30.0311 0.0000
# 6 0.0000 0.0000 0.0000 0.0000 0.0000 13.5692
#
#
#
# Elastic Compliance Matrix: (Units=1/GPa)
#
#
# Indices 1 2 3 4 5 6 
#
# 1 0.012301 -0.007001 -0.003681 0.000000 0.000000 0.000000
# 2 -0.007001 0.024076 -0.005932 0.000000 0.000000 0.000000
# 3 -0.003681 -0.005932 0.017770 0.000000 0.000000 0.000000
# 4 0.000000 0.000000 0.000000 0.042253 0.000000 0.000000
# 5 0.000000 0.000000 0.000000 0.000000 0.033299 0.000000
# 6 0.000000 0.000000 0.000000 0.000000 0.000000 0.073696
#
#
# Mechanical properties :
#
#
# Convention : Reuss Voigt Hill
#
# Bulk Modulus (GPa) = 47.80434 53.27256 50.53845
# Shear Modulus (GPa) = 20.52571 22.86515 21.69543
#
# Velocity S-wave (km/s) = 3.43768 3.62831 3.53428
# Velocity P-wave (km/s) = 6.57877 6.94439 6.76405
#
# Compressibility (1/GPa) = 0.02091860
#
# Stress axis : x y z
#
# Youngs Moduli (GPa) = 81.29290 41.53590 56.27355
#
# Poissons Ratio (x) = 0.29080 0.20714
# Poissons Ratio (y) = 0.56915 0.33382
# Poissons Ratio (z) = 0.29923 0.24640
#
# Static dielectric constant tensor:
#      x y z
#    x 1.617070 0.000000 0.000000 
#    y 0.000000 1.623100 0.000000 
#    z 0.000000 0.000000 1.593620 
# 
# From -- ./inp_files/4930.got.cif
#   From: 2010.05.17/outbox.cif.g08.bks.cpg/sg57_3_cif.got.tgz:4930.got - 2010.06.03 13:58:18.
