data_PCOD9440644
_publ_section_title
;
Structure prediction by ZEFSAII (Michael W. Deem and Ramdas Pophale) SiO2 
 PCOD9440644
Probable space group: P B C M
;
_chemical_formula_sum "Si O2"
_cell_formula_units_Z 64
_cell_length_a 21.000000
_cell_length_b 9.000000
_cell_length_c 18.000000
_cell_angle_alpha 90.000000
_cell_angle_beta 90.000000
_cell_angle_gamma 90.000000
_cell_volume 3402.000000
_symmetry_space_group_name_H-M "P B C M"
_symmetry_group_IT_number 57
_symmetry_cell_setting 'orthorhombic'
loop_
_space_group_symop_operation_xyz
x,y,z
-x,-y,1/2+z
x,1/2-y,-z
-x,1/2+y,1/2-z
-x,-y,-z
x,y,1/2-z
-x,1/2+y,z
x,1/2-y,1/2+z
loop_
_atom_site_type_symbol
_atom_site_label
_atom_site_fract_x
_atom_site_fract_y
_atom_site_fract_z
Si Si1 0.323061 0.380085 0.945342
Si Si2 0.426373 0.753608 0.163101
Si Si3 0.563710 0.610349 0.336806
Si Si4 0.209350 0.127111 0.162834
Si Si5 0.794407 0.988955 0.337441
Si Si6 0.062880 0.030017 0.840416
Si Si7 0.314100 0.630385 0.058724
Si Si8 0.066842 0.373211 0.840427
O O1 0.381628 0.332947 0.892499
O O2 0.265540 0.427321 0.890694
O O3 0.300337 0.250000 0.000000
O O4 0.342830 0.507207 0.003054
O O5 0.411590 0.720230 0.250000
O O6 0.493896 0.674884 0.145731
O O7 0.369646 0.698283 0.110303
O O8 0.435178 0.931304 0.156878
O O9 0.577773 0.648502 0.250000
O O10 0.219982 0.088011 0.250000
O O11 0.209370 0.308249 0.158874
O O12 0.138337 0.074274 0.139344
O O13 0.785357 0.028379 0.250000
O O14 0.867018 0.031654 0.360522
O O15 0.740924 0.061118 0.389403
O O16 0.062198 0.025633 0.750000
O O17 0.997286 0.954749 0.866146
O O18 0.061692 0.201786 0.863036
O O19 0.287569 0.750000 0.000000
O O20 0.066690 0.377858 0.750000
#
# Coordination Sequence:
#
# PCOD9440644 Si02
#       8
#     8   8   8   8   8   8   8   8
#     4  12  24  39  59  86 115 154 192 230 277 334
#     4  10  23  43  65  88 115 148 186 231 281 334
#     4  10  23  43  64  88 116 147 187 232 279 334
#     4   9  18  35  58  83 112 149 193 236 278 334
#     4   9  18  35  59  82 110 151 193 232 281 341
#     4   8  14  27  49  78 107 137 181 234 281 328
#     4  12  24  41  57  83 120 152 186 233 285 330
#     4   8  14  27  49  77 108 139 180 234 282 326
#
# _framework density 18.812463000000001
#
# number of rings (size 3 to 8) (size 9 to 14) (size 15 to 20)
#    0.000    2.250    2.500    2.250    1.750    1.000 
#    2.250    0.000    0.000    1.500    0.000    0.000 
#    0.000    0.000    0.000    0.000    0.000    0.000 
#
# Total GULP energy -356882.360089 kJ/mol
# GULP energy per Si atom -5576.286876 kJ/mol
# Density = 1.876965 g / cm^3
# Si number density = 18.812463 Si / 1000 Ang^3
#
#
#
# Elastic Constant Matrix: (Units=GPa)
#
#
# Indices 1 2 3 4 5 6 
#
# 1 125.5692 3.8707 52.9063 0.0000 0.0000 0.0000
# 2 3.8707 5.7789 10.9726 0.0000 0.0000 0.0000
# 3 52.9063 10.9726 72.3529 0.0000 0.0000 0.0000
# 4 0.0000 0.0000 0.0000 15.5099 0.0000 0.0000
# 5 0.0000 0.0000 0.0000 0.0000 11.9532 0.0000
# 6 0.0000 0.0000 0.0000 0.0000 0.0000 29.9816
#
#
#
# Elastic Compliance Matrix: (Units=1/GPa)
#
#
# Indices 1 2 3 4 5 6 
#
# 1 0.012093 0.012205 -0.010694 0.000000 0.000000 0.000000
# 2 0.012205 0.255340 -0.047648 0.000000 0.000000 0.000000
# 3 -0.010694 -0.047648 0.028867 0.000000 0.000000 0.000000
# 4 0.000000 0.000000 0.000000 0.064475 0.000000 0.000000
# 5 0.000000 0.000000 0.000000 0.000000 0.083660 0.000000
# 6 0.000000 0.000000 0.000000 0.000000 0.000000 0.033354
#
#
# Mechanical properties :
#
#
# Convention : Reuss Voigt Hill
#
# Bulk Modulus (GPa) = 4.90133 37.68891 21.29512
# Shear Modulus (GPa) = 7.83614 20.55237 14.19425
#
# Velocity S-wave (km/s) = 2.04314 3.30886 2.74982
# Velocity P-wave (km/s) = 2.85953 5.88860 4.62885
#
# Compressibility (1/GPa) = 0.20402612
#
# Stress axis : x y z
#
# Youngs Moduli (GPa) = 82.69168 3.91635 34.64212
#
# Poissons Ratio (x) = -0.04780 0.37045
# Poissons Ratio (y) = -1.00922 1.65061
# Poissons Ratio (z) = 0.88428 0.18660
#
# Static dielectric constant tensor:
#      x y z
#    x 1.647690 0.000000 0.000000 
#    y 0.000000 1.690420 0.000000 
#    z 0.000000 0.000000 1.630880 
# 
# From -- ./inp_files/23019.got.cif
#   From: 2010.05.17/outbox.ucp.g08.bks.cvg/sg57_12_cif.got.tgz:23019.got - 2010.06.11 16:39:23.
