data_PCOD9440955
_publ_section_title
;
Structure prediction by ZEFSAII (Michael W. Deem and Ramdas Pophale) SiO2 
 PCOD9440955
Probable space group: P N N M
;
_chemical_formula_sum "Si O2"
_cell_formula_units_Z 44
_cell_length_a 16.021083
_cell_length_b 18.252550
_cell_length_c 8.092313
_cell_angle_alpha 90.000000
_cell_angle_beta 90.000000
_cell_angle_gamma 90.000000
_cell_volume 2366.399634
_symmetry_space_group_name_H-M "P N N M"
_symmetry_group_IT_number 58
_symmetry_cell_setting 'orthorhombic'
loop_
_space_group_symop_operation_xyz
x,y,z
-x,-y,z
1/2+x,1/2-y,1/2-z
1/2-x,1/2+y,1/2-z
-x,-y,-z
x,y,-z
1/2-x,1/2+y,1/2+z
1/2+x,1/2-y,1/2+z
loop_
_atom_site_type_symbol
_atom_site_label
_atom_site_fract_x
_atom_site_fract_y
_atom_site_fract_z
Si Si1 0.909543 0.957268 0.500000
Si Si2 0.971188 0.915223 0.820768
Si Si3 0.251989 0.322087 0.693333
Si Si4 0.064665 0.331254 0.314806
Si Si5 0.931548 0.562282 0.000000
Si Si6 0.755850 0.066855 0.500000
Si Si7 0.426114 0.273776 0.692143
O O1 0.910395 0.910256 0.666166
O O2 0.833412 0.012611 0.500000
O O3 0.000000 0.000000 0.500000
O O4 0.047357 0.859290 0.791218
O O5 0.934878 0.896047 0.000000
O O6 0.000000 0.000000 0.829693
O O7 0.264841 0.346180 0.500000
O O8 0.156651 0.294878 0.703556
O O9 0.259566 0.384228 0.833459
O O10 0.328294 0.267356 0.729690
O O11 0.062459 0.364006 0.500000
O O12 0.058411 0.388574 0.164958
O O13 0.989955 0.273869 0.296335
O O14 0.000000 0.500000 0.000000
O O15 0.836640 0.532249 0.000000
O O16 0.439031 0.253987 0.500000
#
# Coordination Sequence:
#
# PCOD9440955 Si02
#       7
#     4   8   8   8   4   4   8
#     4  10  18  28  46  76 108 138 175 218 263 320
#     4   9  18  30  46  73 110 147 180 215 258 324
#     4   9  19  34  53  80 110 146 192 233 271 336
#     4  10  21  37  59  87 112 143 191 239 282 335
#     4  10  22  44  64  80 109 143 190 249 285 331
#     4  10  20  34  58  82 106 151 193 225 280 341
#     4  10  19  34  57  81 113 157 188 226 284 331
#
# _framework density 18.593646
#
# number of rings (size 3 to 8) (size 9 to 14) (size 15 to 20)
#    0.000    2.364    0.909    2.182    2.545    2.545 
#    0.000    1.818    0.000    2.182    0.000    0.000 
#    0.000    0.000    0.000    0.000    0.000    0.000 
#
# Total GULP energy -244956.416383 kJ/mol
# GULP energy per Si atom -5567.191281 kJ/mol
# Density = 1.855133 g / cm^3
# Si number density = 18.593646 Si / 1000 Ang^3
#
#
#
# Elastic Constant Matrix: (Units=GPa)
#
#
# Indices 1 2 3 4 5 6 
#
# 1 148.8318 42.9041 60.5563 0.0000 0.0000 0.0000
# 2 42.9041 30.2269 19.7065 0.0000 0.0000 0.0000
# 3 60.5563 19.7065 127.0510 0.0000 0.0000 0.0000
# 4 0.0000 0.0000 0.0000 4.7275 0.0000 0.0000
# 5 0.0000 0.0000 0.0000 0.0000 23.8769 0.0000
# 6 0.0000 0.0000 0.0000 0.0000 0.0000 30.5586
#
#
#
# Elastic Compliance Matrix: (Units=1/GPa)
#
#
# Indices 1 2 3 4 5 6 
#
# 1 0.012717 -0.015685 -0.003628 0.000000 0.000000 0.000000
# 2 -0.015685 0.056150 -0.001233 0.000000 0.000000 0.000000
# 3 -0.003628 -0.001233 0.009792 0.000000 0.000000 0.000000
# 4 0.000000 0.000000 0.000000 0.211529 0.000000 0.000000
# 5 0.000000 0.000000 0.000000 0.000000 0.041881 0.000000
# 6 0.000000 0.000000 0.000000 0.000000 0.000000 0.032724
#
#
# Mechanical properties :
#
#
# Convention : Reuss Voigt Hill
#
# Bulk Modulus (GPa) = 26.62024 61.38259 44.00142
# Shear Modulus (GPa) = 11.95006 24.02877 17.98942
#
# Velocity S-wave (km/s) = 2.53789 3.59877 3.11385
# Velocity P-wave (km/s) = 4.78913 7.09595 6.05344
#
# Compressibility (1/GPa) = 0.03756540
#
# Stress axis : x y z
#
# Youngs Moduli (GPa) = 78.63640 17.80940 102.12854
#
# Poissons Ratio (x) = 0.27933 0.37056
# Poissons Ratio (y) = 1.23338 0.12597
# Poissons Ratio (z) = 0.28532 0.02197
#
# Static dielectric constant tensor:
#      x y z
#    x 1.642710 0.000000 0.000000 
#    y 0.000000 1.607720 0.000000 
#    z 0.000000 0.000000 1.712460 
# 
# From -- ./inp_files/5712.got.cif
#   From: 2010.05.17/outbox.cif.g08.bks.cpg/sg58_3_cif.got.tgz:5712.got - 2010.06.03 14:20:14.
