data_PCOD9440359
_publ_section_title
;
Structure prediction by ZEFSAII (Michael W. Deem and Ramdas Pophale) SiO2 
 PCOD9440359
Probable space group: P B C M
;
_chemical_formula_sum "Si O2"
_cell_formula_units_Z 32
_cell_length_a 4.778814
_cell_length_b 8.330951
_cell_length_c 32.266434
_cell_angle_alpha 90.000000
_cell_angle_beta 90.000000
_cell_angle_gamma 90.000000
_cell_volume 1284.593377
_symmetry_space_group_name_H-M "P B C M"
_symmetry_group_IT_number 57
_symmetry_cell_setting 'orthorhombic'
loop_
_space_group_symop_operation_xyz
x,y,z
-x,-y,1/2+z
x,1/2-y,-z
-x,1/2+y,1/2-z
-x,-y,-z
x,y,1/2-z
-x,1/2+y,z
x,1/2-y,1/2+z
loop_
_atom_site_type_symbol
_atom_site_label
_atom_site_fract_x
_atom_site_fract_y
_atom_site_fract_z
Si Si1 0.104640 0.934807 0.170488
Si Si2 0.088078 0.493035 0.077494
Si Si3 0.609116 0.306931 0.453644
Si Si4 0.411485 0.249164 0.202367
O O1 0.324096 0.788119 0.173620
O O2 0.028735 0.977105 0.123645
O O3 0.825068 0.883228 0.194190
O O4 0.263227 0.082739 0.191476
O O5 0.231068 0.662916 0.069191
O O6 0.329912 0.362521 0.069163
O O7 0.828521 0.454717 0.047205
O O8 0.549529 0.250000 0.500000
O O9 0.503546 0.251921 0.250000
#
# Coordination Sequence:
#
# PCOD9440359 Si02
#       4
#     8   8   8   8
#     4  12  27  46  72 107 144 188 238 295 360 429
#     4  12  26  46  72 107 147 190 239 297 359 427
#     4  12  25  47  75 108 145 191 242 298 359 427
#     4  12  25  47  74 106 143 187 238 298 361 431
#
# _framework density 24.910605
#
# number of rings (size 3 to 8) (size 9 to 14) (size 15 to 20)
#    0.000    0.000    0.000   10.500    0.000    4.000 
#    0.000    2.500    0.000    0.000    0.000    0.000 
#    0.000    0.000    0.000    0.000    0.000    0.000 
#
# Total GULP energy -179855.401299 kJ/mol
# GULP energy per Si atom -5620.481291 kJ/mol
# Density = 2.485391 g / cm^3
# Si number density = 24.910605 Si / 1000 Ang^3
#
#
#
# Elastic Constant Matrix: (Units=GPa)
#
#
# Indices 1 2 3 4 5 6 
#
# 1 136.2924 19.7261 23.6348 0.0000 0.0000 0.0000
# 2 19.7261 74.5567 17.6214 0.0000 0.0000 0.0000
# 3 23.6348 17.6214 99.4835 0.0000 0.0000 0.0000
# 4 0.0000 0.0000 0.0000 39.3349 0.0000 0.0000
# 5 0.0000 0.0000 0.0000 0.0000 34.9072 0.0000
# 6 0.0000 0.0000 0.0000 0.0000 0.0000 196.3245
#
#
#
# Elastic Compliance Matrix: (Units=1/GPa)
#
#
# Indices 1 2 3 4 5 6 
#
# 1 0.007856 -0.001709 -0.001564 0.000000 0.000000 0.000000
# 2 -0.001709 0.014370 -0.002139 0.000000 0.000000 0.000000
# 3 -0.001564 -0.002139 0.010802 0.000000 0.000000 0.000000
# 4 0.000000 0.000000 0.000000 0.025423 0.000000 0.000000
# 5 0.000000 0.000000 0.000000 0.000000 0.028647 0.000000
# 6 0.000000 0.000000 0.000000 0.000000 0.000000 0.005094
#
#
# Mechanical properties :
#
#
# Convention : Reuss Voigt Hill
#
# Bulk Modulus (GPa) = 45.03578 48.03301 46.53439
# Shear Modulus (GPa) = 45.28269 70.73667 58.00968
#
# Velocity S-wave (km/s) = 4.26820 5.33459 4.83091
# Velocity P-wave (km/s) = 6.51216 7.56755 7.05961
#
# Compressibility (1/GPa) = 0.02220457
#
# Stress axis : x y z
#
# Youngs Moduli (GPa) = 127.29690 69.58752 92.57243
#
# Poissons Ratio (x) = 0.11892 0.14475
# Poissons Ratio (y) = 0.21753 0.19805
# Poissons Ratio (z) = 0.19904 0.14888
#
# Static dielectric constant tensor:
#      x y z
#    x 1.923360 0.000000 0.000000 
#    y 0.000000 2.040370 0.000000 
#    z 0.000000 0.000000 1.886470 
# 
# From -- ./inp_files/29010.got.cif
#   From: 2010.05.17/outbox.cif.g08.bks.cpg/sg57_15_cif.got.tgz:29010.got - 2010.06.03 13:58:18.
