data_PCOD9440664
_publ_section_title
;
Structure prediction by ZEFSAII (Michael W. Deem and Ramdas Pophale) SiO2 
 PCOD9440664
Probable space group: P N N M
;
_chemical_formula_sum "Si O2"
_cell_formula_units_Z 36
_cell_length_a 13.387519
_cell_length_b 8.061896
_cell_length_c 15.058848
_cell_angle_alpha 90.000000
_cell_angle_beta 90.000000
_cell_angle_gamma 90.000000
_cell_volume 1625.283181
_symmetry_space_group_name_H-M "P N N M"
_symmetry_group_IT_number 58
_symmetry_cell_setting 'orthorhombic'
loop_
_space_group_symop_operation_xyz
x,y,z
-x,-y,z
1/2+x,1/2-y,1/2-z
1/2-x,1/2+y,1/2-z
-x,-y,-z
x,y,-z
1/2-x,1/2+y,1/2+z
1/2+x,1/2-y,1/2+z
loop_
_atom_site_type_symbol
_atom_site_label
_atom_site_fract_x
_atom_site_fract_y
_atom_site_fract_z
Si Si1 0.706702 0.249951 0.500000
Si Si2 0.110757 0.912477 0.000000
Si Si3 0.879049 0.001601 0.500000
Si Si4 0.120555 0.355619 0.810972
Si Si5 0.929606 0.166914 0.190603
Si Si6 0.198832 0.058300 0.308606
O O1 0.694903 0.446523 0.500000
O O2 0.818975 0.178215 0.500000
O O3 0.648152 0.187779 0.587056
O O4 0.118495 0.817045 0.907166
O O5 0.000000 0.000000 0.000000
O O6 0.837919 0.920608 0.409399
O O7 0.000000 0.000000 0.500000
O O8 0.184313 0.520894 0.795753
O O9 0.004227 0.320087 0.796004
O O10 0.168179 0.214774 0.748521
O O11 0.857515 0.104866 0.268730
O O12 0.000000 0.000000 0.183305
#
# Coordination Sequence:
#
# PCOD9440664 Si02
#       6
#     4   4   4   8   8   8
#     4  10  16  28  53  81 104 129 188 242 271 328
#     4  10  12  24  51  81  98 119 176 235 287 310
#     4  10  20  32  48  74 112 155 182 215 271 353
#     4  10  18  32  50  78 100 136 177 232 278 333
#     4   9  15  27  50  71 100 125 169 224 276 317
#     4  10  20  32  52  73 104 139 188 219 275 332
#
# _framework density 22.149986999999999
#
# number of rings (size 3 to 8) (size 9 to 14) (size 15 to 20)
#    0.000    2.222    6.667    2.000    0.000    0.000 
#    0.000    3.333    0.000    0.000    0.000   14.000 
#    0.000    0.000    0.000    0.000    0.000    0.000 
#
# Total GULP energy -200839.462852 kJ/mol
# GULP energy per Si atom -5578.873968 kJ/mol
# Density = 2.209957 g / cm^3
# Si number density = 22.149987 Si / 1000 Ang^3
#
#
#
# Elastic Constant Matrix: (Units=GPa)
#
#
# Indices 1 2 3 4 5 6 
#
# 1 163.1665 30.1896 36.7595 0.0000 0.0000 0.0000
# 2 30.1896 43.5621 18.7897 0.0000 0.0000 0.0000
# 3 36.7595 18.7897 150.2611 0.0000 0.0000 0.0000
# 4 0.0000 0.0000 0.0000 6.8953 0.0000 0.0000
# 5 0.0000 0.0000 0.0000 0.0000 30.9482 0.0000
# 6 0.0000 0.0000 0.0000 0.0000 0.0000 49.5831
#
#
#
# Elastic Compliance Matrix: (Units=1/GPa)
#
#
# Indices 1 2 3 4 5 6 
#
# 1 0.007232 -0.004491 -0.001208 0.000000 0.000000 0.000000
# 2 -0.004491 0.027053 -0.002284 0.000000 0.000000 0.000000
# 3 -0.001208 -0.002284 0.007236 0.000000 0.000000 0.000000
# 4 0.000000 0.000000 0.000000 0.145027 0.000000 0.000000
# 5 0.000000 0.000000 0.000000 0.000000 0.032312 0.000000
# 6 0.000000 0.000000 0.000000 0.000000 0.000000 0.020168
#
#
# Mechanical properties :
#
#
# Convention : Reuss Voigt Hill
#
# Bulk Modulus (GPa) = 39.13025 58.71858 48.92441
# Shear Modulus (GPa) = 18.97443 35.56870 27.27157
#
# Velocity S-wave (km/s) = 2.93001 4.01161 3.51269
# Velocity P-wave (km/s) = 5.39916 6.92996 6.21190
#
# Compressibility (1/GPa) = 0.02555568
#
# Stress axis : x y z
#
# Youngs Moduli (GPa) = 138.28057 36.96404 138.19515
#
# Poissons Ratio (x) = 0.16600 0.16688
# Poissons Ratio (y) = 0.62100 0.31568
# Poissons Ratio (z) = 0.16698 0.08444
#
# Static dielectric constant tensor:
#      x y z
#    x 1.898000 0.000000 0.000000 
#    y 0.000000 1.905790 0.000000 
#    z 0.000000 0.000000 1.786980 
# 
# From -- ./inp_files/21850.got.cif
#   From: 2010.05.17/outbox.cif.g08.bks.cpg/sg58_11_cif.got.tgz:21850.got - 2010.06.03 14:20:14.
