data_PCOD9440213
_publ_section_title
;
Structure prediction by ZEFSAII (Michael W. Deem and Ramdas Pophale) SiO2 
 PCOD9440213
Probable space group: P B C M
;
_chemical_formula_sum "Si O2"
_cell_formula_units_Z 32
_cell_length_a 16.844358
_cell_length_b 4.887918
_cell_length_c 16.897455
_cell_angle_alpha 90.000000
_cell_angle_beta 90.000000
_cell_angle_gamma 90.000000
_cell_volume 1391.232368
_symmetry_space_group_name_H-M "P B C M"
_symmetry_group_IT_number 57
_symmetry_cell_setting 'orthorhombic'
loop_
_space_group_symop_operation_xyz
x,y,z
-x,-y,1/2+z
x,1/2-y,-z
-x,1/2+y,1/2-z
-x,-y,-z
x,y,1/2-z
-x,1/2+y,z
x,1/2-y,1/2+z
loop_
_atom_site_type_symbol
_atom_site_label
_atom_site_fract_x
_atom_site_fract_y
_atom_site_fract_z
Si Si1 0.732727 0.733431 0.750000
Si Si2 0.836055 0.250000 0.000000
Si Si3 0.440043 0.750000 0.500000
Si Si4 0.836745 0.220466 0.750000
Si Si5 0.053457 0.475698 0.614159
Si Si6 0.692483 0.955180 0.422775
O O1 0.811834 0.537172 0.750000
O O2 0.692696 0.672683 0.664706
O O3 0.755241 0.050981 0.750000
O O4 0.895711 0.469078 0.036365
O O5 0.776106 0.107209 0.061743
O O6 0.500000 0.500000 0.500000
O O7 0.378063 0.676252 0.430320
O O8 0.888208 0.103699 0.821584
O O9 0.024604 0.166833 0.620456
O O10 0.683827 0.750000 0.500000
#
# Coordination Sequence:
#
# PCOD9440213 Si02
#       6
#     4   4   4   4   8   8
#     4  12  26  45  74 105 146 185 248 306 347 431
#     4  11  24  40  66  97 132 184 248 305 368 434
#     4  11  24  48  80 111 150 186 220 283 356 432
#     4  12  24  45  64  93 138 187 242 312 367 423
#     4  12  25  41  61  91 133 183 244 309 377 433
#     4  11  25  46  78 110 144 195 244 292 364 437
#
# _framework density 23.001192
#
# number of rings (size 3 to 8) (size 9 to 14) (size 15 to 20)
#    0.000    0.500    3.750    4.500    7.000    0.000 
#    0.000    1.250    0.000    0.000    0.000    0.000 
#    0.000    0.000    0.000    0.000    0.000    0.000 
#
# Total GULP energy -178822.469775 kJ/mol
# GULP energy per Si atom -5588.202180 kJ/mol
# Density = 2.294884 g / cm^3
# Si number density = 23.001192 Si / 1000 Ang^3
#
#
#
# Elastic Constant Matrix: (Units=GPa)
#
#
# Indices 1 2 3 4 5 6 
#
# 1 75.9389 15.6625 23.0359 0.0000 0.0000 0.0000
# 2 15.6625 105.5246 22.9975 0.0000 0.0000 0.0000
# 3 23.0359 22.9975 123.0916 0.0000 0.0000 0.0000
# 4 0.0000 0.0000 0.0000 21.7611 0.0000 0.0000
# 5 0.0000 0.0000 0.0000 0.0000 0.3887 0.0000
# 6 0.0000 0.0000 0.0000 0.0000 0.0000 149.6283
#
#
#
# Elastic Compliance Matrix: (Units=1/GPa)
#
#
# Indices 1 2 3 4 5 6 
#
# 1 0.014214 -0.001595 -0.002362 0.000000 0.000000 0.000000
# 2 -0.001595 0.010058 -0.001581 0.000000 0.000000 0.000000
# 3 -0.002362 -0.001581 0.008861 0.000000 0.000000 0.000000
# 4 0.000000 0.000000 0.000000 0.045954 0.000000 0.000000
# 5 0.000000 0.000000 0.000000 0.000000 2.572801 0.000000
# 6 0.000000 0.000000 0.000000 0.000000 0.000000 0.006683
#
#
# Mechanical properties :
#
#
# Convention : Reuss Voigt Hill
#
# Bulk Modulus (GPa) = 45.33550 47.54966 46.44258
# Shear Modulus (GPa) = 1.86776 50.54625 26.20700
#
# Velocity S-wave (km/s) = 0.90210 4.69289 3.37913
# Velocity P-wave (km/s) = 4.56486 7.07685 5.95482
#
# Compressibility (1/GPa) = 0.02205777
#
# Stress axis : x y z
#
# Youngs Moduli (GPa) = 70.35335 99.42669 112.84915
#
# Poissons Ratio (x) = 0.15858 0.26656
# Poissons Ratio (y) = 0.11221 0.17837
# Poissons Ratio (z) = 0.16618 0.15716
#
# Static dielectric constant tensor:
#      x y z
#    x 1.850730 0.000000 0.000000 
#    y 0.000000 1.886910 0.000000 
#    z 0.000000 0.000000 2.007160 
# 
# From -- ./inp_files/22260.got.cif
#   From: 2010.05.17/outbox.cif.g08.bks.cpg/sg57_12_cif.got.tgz:22260.got - 2010.06.03 13:58:18.
