data_PCOD9440581
_publ_section_title
;
Structure prediction by ZEFSAII (Michael W. Deem and Ramdas Pophale) SiO2 
 PCOD9440581
Probable space group: P B C M
;
_chemical_formula_sum "Si O2"
_cell_formula_units_Z 48
_cell_length_a 30.000000
_cell_length_b 9.000000
_cell_length_c 9.000000
_cell_angle_alpha 90.000000
_cell_angle_beta 90.000000
_cell_angle_gamma 90.000000
_cell_volume 2430.000000
_symmetry_space_group_name_H-M "P B C M"
_symmetry_group_IT_number 57
_symmetry_cell_setting 'orthorhombic'
loop_
_space_group_symop_operation_xyz
x,y,z
-x,-y,1/2+z
x,1/2-y,-z
-x,1/2+y,1/2-z
-x,-y,-z
x,y,1/2-z
-x,1/2+y,z
x,1/2-y,1/2+z
loop_
_atom_site_type_symbol
_atom_site_label
_atom_site_fract_x
_atom_site_fract_y
_atom_site_fract_z
Si Si1 0.039327 0.412166 0.574191
Si Si2 0.877280 0.596174 0.919062
Si Si3 0.535362 0.904119 0.417773
Si Si4 0.790118 0.096002 0.081885
Si Si5 0.365826 0.091532 0.579266
Si Si6 0.708244 0.089575 0.924483
O O1 0.039659 0.250000 0.500000
O O2 0.035522 0.405984 0.750000
O O3 0.085515 0.482089 0.519081
O O4 0.000000 0.500000 0.500000
O O5 0.893626 0.622550 0.750000
O O6 0.833960 0.498865 0.912095
O O7 0.866628 0.750000 0.000000
O O8 0.538847 0.750000 0.500000
O O9 0.521612 0.877820 0.250000
O O10 0.584424 0.972673 0.419537
O O11 0.500000 0.000000 0.500000
O O12 0.774276 0.124025 0.250000
O O13 0.800059 0.250000 0.000000
O O14 0.752306 0.012465 0.988707
O O15 0.366250 0.250000 0.500000
O O16 0.350935 0.105877 0.750000
O O17 0.334596 0.990016 0.484078
O O18 0.708915 0.098054 0.750000
O O19 0.709365 0.250000 0.000000
#
# Coordination Sequence:
#
# PCOD9440581 Si02
#       6
#     8   8   8   8   8   8
#     4  11  22  38  59  83 113 147 185 229 276 327
#     4  10  21  37  57  82 111 144 183 226 273 325
#     4  10  21  37  58  82 111 145 182 226 273 325
#     4  10  21  37  57  81 111 144 182 227 273 326
#     4  10  21  38  58  82 111 144 183 226 274 326
#     4  11  22  37  58  82 111 146 184 228 275 325
#
# _framework density 19.753086
#
# number of rings (size 3 to 8) (size 9 to 14) (size 15 to 20)
#    0.000    1.667    0.000    7.000    0.000    6.667 
#    0.000    3.333    0.000    0.000    0.000    0.000 
#    0.000    0.000    0.000    0.000    0.000    0.000 
#
# Total GULP energy -267467.993418 kJ/mol
# GULP energy per Si atom -5572.249863 kJ/mol
# Density = 1.970813 g / cm^3
# Si number density = 19.753086 Si / 1000 Ang^3
#
#
#
# Elastic Constant Matrix: (Units=GPa)
#
#
# Indices 1 2 3 4 5 6 
#
# 1 90.1884 55.6623 90.2178 0.0000 0.0000 0.0000
# 2 55.6623 26.7840 42.9374 0.0000 0.0000 0.0000
# 3 90.2178 42.9374 230.0582 0.0000 0.0000 0.0000
# 4 0.0000 0.0000 0.0000 26.8401 0.0000 0.0000
# 5 0.0000 0.0000 0.0000 0.0000 44.3956 0.0000
# 6 0.0000 0.0000 0.0000 0.0000 0.0000 33.7350
#
#
#
# Elastic Compliance Matrix: (Units=1/GPa)
#
#
# Indices 1 2 3 4 5 6 
#
# 1 -0.039224 0.081131 0.000240 0.000000 0.000000 0.000000
# 2 0.081131 -0.114535 -0.010439 0.000000 0.000000 0.000000
# 3 0.000240 -0.010439 0.006201 0.000000 0.000000 0.000000
# 4 0.000000 0.000000 0.000000 0.037258 0.000000 0.000000
# 5 0.000000 0.000000 0.000000 0.000000 0.022525 0.000000
# 6 0.000000 0.000000 0.000000 0.000000 0.000000 0.029643
#
#
# Mechanical properties :
#
#
# Convention : Reuss Voigt Hill
#
# Bulk Modulus (GPa) = -175.59537 80.51838 -47.53849
# Shear Modulus (GPa) = -24.76555 31.54170 3.38807
#
# Velocity S-wave (km/s) = -3.54468 4.00033 1.31108
# Velocity P-wave (km/s) = 10.28791 7.88592 4.67190
#
# Compressibility (1/GPa) = -0.00569491
#
# Stress axis : x y z
#
# Youngs Moduli (GPa) = -25.49459 -8.73099 161.26336
#
# Poissons Ratio (x) = 0.70835 -0.03867
# Poissons Ratio (y) = 2.06839 1.68346
# Poissons Ratio (z) = 0.00611 -0.09114
#
# Static dielectric constant tensor:
#      x y z
#    x 1.835810 0.000000 0.000000 
#    y 0.000000 1.656850 0.000000 
#    z 0.000000 0.000000 1.551620 
# 
# From -- ./inp_files/9991.got.cif
#   From: 2010.05.17/outbox.ucp.g08.bks.cvg/sg57_5_cif.got.tgz:9991.got - 2010.06.11 16:39:23.
