data_PCOD9440410
_publ_section_title
;
Structure prediction by ZEFSAII (Michael W. Deem and Ramdas Pophale) SiO2 
 PCOD9440410
Probable space group: P B C M
;
_chemical_formula_sum "Si O2"
_cell_formula_units_Z 64
_cell_length_a 12.000000
_cell_length_b 18.000000
_cell_length_c 18.000000
_cell_angle_alpha 90.000000
_cell_angle_beta 90.000000
_cell_angle_gamma 90.000000
_cell_volume 3888.000000
_symmetry_space_group_name_H-M "P B C M"
_symmetry_group_IT_number 57
_symmetry_cell_setting 'orthorhombic'
loop_
_space_group_symop_operation_xyz
x,y,z
-x,-y,1/2+z
x,1/2-y,-z
-x,1/2+y,1/2-z
-x,-y,-z
x,y,1/2-z
-x,1/2+y,z
x,1/2-y,1/2+z
loop_
_atom_site_type_symbol
_atom_site_label
_atom_site_fract_x
_atom_site_fract_y
_atom_site_fract_z
Si Si1 0.317816 0.564526 0.068046
Si Si2 0.464049 0.159057 0.425098
Si Si3 0.246365 0.069749 0.660865
Si Si4 0.544404 0.829680 0.395069
Si Si5 0.149974 0.834817 0.026154
Si Si6 0.711279 0.963005 0.570518
Si Si7 0.927374 0.572827 0.524214
Si Si8 0.301418 0.611388 0.660450
O O1 0.417870 0.619275 0.087471
O O2 0.288467 0.512695 0.137758
O O3 0.217422 0.612875 0.032470
O O4 0.344223 0.506787 0.000242
O O5 0.455065 0.163050 0.515218
O O6 0.455077 0.239797 0.386981
O O7 0.365987 0.103457 0.402236
O O8 0.224031 0.075964 0.750000
O O9 0.346758 0.127521 0.638078
O O10 0.139948 0.076650 0.603601
O O11 0.428123 0.863454 0.362542
O O12 0.214274 0.845260 0.105587
O O13 0.022027 0.863366 0.026685
O O14 0.157209 0.750000 0.000000
O O15 0.719461 0.026172 0.633681
O O16 0.826804 0.930129 0.536736
O O17 0.000000 0.500000 0.500000
O O18 0.286982 0.620286 0.750000
#
# Coordination Sequence:
#
# PCOD9440410 Si02
#       8
#     8   8   8   8   8   8   8   8
#     4  10  18  35  60  88 115 147 199 244 280 350
#     4  11  19  33  60  88 117 155 203 239 285 344
#     4  11  23  39  61  87 121 158 193 243 302 352
#     4  11  21  34  56  91 123 155 193 241 294 358
#     4  11  22  38  63  87 113 151 199 246 290 346
#     4  10  19  35  61  83 113 150 200 246 277 345
#     4  11  20  40  60  86 110 148 205 247 279 339
#     4  11  22  37  59  87 120 155 189 239 302 358
#
# _framework density 16.460905
#
# number of rings (size 3 to 8) (size 9 to 14) (size 15 to 20)
#    0.000    1.250    8.750    2.250    0.000    1.500 
#    0.000    4.375    0.000    0.000    0.000    0.000 
#    0.000    0.000    0.000    0.000    0.000    0.000 
#
# Total GULP energy -356549.449907 kJ/mol
# GULP energy per Si atom -5571.085155 kJ/mol
# Density = 1.642344 g / cm^3
# Si number density = 16.460905 Si / 1000 Ang^3
#
#
#
# Elastic Constant Matrix: (Units=GPa)
#
#
# Indices 1 2 3 4 5 6 
#
# 1 131.4461 63.1092 47.2599 0.0000 0.0000 0.0000
# 2 63.1092 124.6228 43.9570 0.0000 0.0000 0.0000
# 3 47.2599 43.9570 106.2104 0.0000 0.0000 0.0000
# 4 0.0000 0.0000 0.0000 20.2024 0.0000 0.0000
# 5 0.0000 0.0000 0.0000 0.0000 19.2833 0.0000
# 6 0.0000 0.0000 0.0000 0.0000 0.0000 32.3025
#
#
#
# Elastic Compliance Matrix: (Units=1/GPa)
#
#
# Indices 1 2 3 4 5 6 
#
# 1 0.010799 -0.004419 -0.002977 0.000000 0.000000 0.000000
# 2 -0.004419 0.011204 -0.002671 0.000000 0.000000 0.000000
# 3 -0.002977 -0.002671 0.011845 0.000000 0.000000 0.000000
# 4 0.000000 0.000000 0.000000 0.049499 0.000000 0.000000
# 5 0.000000 0.000000 0.000000 0.000000 0.051858 0.000000
# 6 0.000000 0.000000 0.000000 0.000000 0.000000 0.030957
#
#
# Mechanical properties :
#
#
# Convention : Reuss Voigt Hill
#
# Bulk Modulus (GPa) = 72.90682 74.54796 73.72739
# Shear Modulus (GPa) = 26.19617 28.22120 27.20868
#
# Velocity S-wave (km/s) = 3.99359 4.14507 4.07003
# Velocity P-wave (km/s) = 8.10259 8.26408 8.18373
#
# Compressibility (1/GPa) = 0.01371614
#
# Stress axis : x y z
#
# Youngs Moduli (GPa) = 92.59711 89.25382 84.42365
#
# Poissons Ratio (x) = 0.39441 0.25129
# Poissons Ratio (y) = 0.40919 0.22547
# Poissons Ratio (z) = 0.27562 0.23837
#
# Static dielectric constant tensor:
#      x y z
#    x 1.570030 0.000000 0.000000 
#    y 0.000000 1.579370 0.000000 
#    z 0.000000 0.000000 1.543620 
# 
# From -- ./inp_files/22165.got.cif
#   From: 2010.05.17/outbox.ucp.g08.bks.cvg/sg57_12_cif.got.tgz:22165.got - 2010.06.11 16:39:23.
