data_PCOD9440993
_publ_section_title
;
Structure prediction by ZEFSAII (Michael W. Deem and Ramdas Pophale) SiO2 
 PCOD9440993
Probable space group: P N N M
;
_chemical_formula_sum "Si O2"
_cell_formula_units_Z 64
_cell_length_a 12.479152
_cell_length_b 17.846936
_cell_length_c 17.765340
_cell_angle_alpha 90.000000
_cell_angle_beta 90.000000
_cell_angle_gamma 90.000000
_cell_volume 3956.601073
_symmetry_space_group_name_H-M "P N N M"
_symmetry_group_IT_number 58
_symmetry_cell_setting 'orthorhombic'
loop_
_space_group_symop_operation_xyz
x,y,z
-x,-y,z
1/2+x,1/2-y,1/2-z
1/2-x,1/2+y,1/2-z
-x,-y,-z
x,y,-z
1/2-x,1/2+y,1/2+z
1/2+x,1/2-y,1/2+z
loop_
_atom_site_type_symbol
_atom_site_label
_atom_site_fract_x
_atom_site_fract_y
_atom_site_fract_z
Si Si1 0.058726 0.817432 0.776241
Si Si2 0.724904 0.338752 0.585957
Si Si3 0.083876 0.430997 0.588296
Si Si4 0.438559 0.169876 0.819388
Si Si5 0.247968 0.432533 0.278177
Si Si6 0.404830 0.555725 0.683698
Si Si7 0.963976 0.582488 0.818353
Si Si8 0.530239 0.228639 0.413515
O O1 0.048458 0.752977 0.713890
O O2 0.169625 0.863061 0.774568
O O3 0.961942 0.877216 0.771095
O O4 0.043207 0.776421 0.856640
O O5 0.762004 0.346743 0.500000
O O6 0.822664 0.336403 0.643453
O O7 0.651254 0.407766 0.611663
O O8 0.648367 0.266142 0.591993
O O9 0.108843 0.428644 0.500000
O O10 0.186893 0.439407 0.641655
O O11 0.000000 0.500000 0.600676
O O12 0.023399 0.356672 0.617864
O O13 0.460456 0.113440 0.749593
O O14 0.318937 0.507349 0.270239
O O15 0.154478 0.422582 0.217507
O O16 0.500000 0.500000 0.660777
O O17 0.967140 0.644245 0.883279
O O18 0.000000 0.500000 0.841235
O O19 0.496176 0.233923 0.500000
#
# Coordination Sequence:
#
# PCOD9440993 Si02
#       8
#     8   8   8   8   8   8   8   8
#     4   9  19  32  49  69  92 122 153 191 231 269
#     4  10  18  29  47  69  94 123 153 187 226 273
#     4  10  20  32  46  68  98 127 154 186 226 274
#     4  10  18  31  48  69  94 120 155 190 228 272
#     4  10  18  31  49  69  94 121 153 189 226 272
#     4   9  18  31  46  68  95 123 156 189 226 272
#     4  10  19  31  48  69  91 119 153 191 230 267
#     4   9  19  33  47  67  93 119 152 190 228 271
#
# _framework density 16.1755
#
# number of rings (size 3 to 8) (size 9 to 14) (size 15 to 20)
#    0.000    2.375    0.000    4.125    0.000    3.500 
#    0.000    2.500    0.000    0.000    0.000    1.750 
#    0.000    9.500    0.000    0.000    0.000    0.500 
#
# Total GULP energy -356761.623003 kJ/mol
# GULP energy per Si atom -5574.400359 kJ/mol
# Density = 1.613868 g / cm^3
# Si number density = 16.175500 Si / 1000 Ang^3
#
#
#
# Elastic Constant Matrix: (Units=GPa)
#
#
# Indices 1 2 3 4 5 6 
#
# 1 77.8922 46.7675 33.8340 0.0000 0.0000 0.0000
# 2 46.7675 120.8855 35.3436 0.0000 0.0000 0.0000
# 3 33.8340 35.3436 53.2764 0.0000 0.0000 0.0000
# 4 0.0000 0.0000 0.0000 13.1846 0.0000 0.0000
# 5 0.0000 0.0000 0.0000 0.0000 9.6972 0.0000
# 6 0.0000 0.0000 0.0000 0.0000 0.0000 17.3672
#
#
#
# Elastic Compliance Matrix: (Units=1/GPa)
#
#
# Indices 1 2 3 4 5 6 
#
# 1 0.019867 -0.004959 -0.009327 0.000000 0.000000 0.000000
# 2 -0.004959 0.011501 -0.004480 0.000000 0.000000 0.000000
# 3 -0.009327 -0.004480 0.027665 0.000000 0.000000 0.000000
# 4 0.000000 0.000000 0.000000 0.075846 0.000000 0.000000
# 5 0.000000 0.000000 0.000000 0.000000 0.103122 0.000000
# 6 0.000000 0.000000 0.000000 0.000000 0.000000 0.057580
#
#
# Mechanical properties :
#
#
# Convention : Reuss Voigt Hill
#
# Bulk Modulus (GPa) = 46.51033 53.77158 50.14096
# Shear Modulus (GPa) = 14.69375 17.12376 15.90875
#
# Velocity S-wave (km/s) = 3.01723 3.25718 3.13950
# Velocity P-wave (km/s) = 6.39955 6.88915 6.64886
#
# Compressibility (1/GPa) = 0.02150060
#
# Stress axis : x y z
#
# Youngs Moduli (GPa) = 50.33430 86.95088 36.14610
#
# Poissons Ratio (x) = 0.43120 0.33714
# Poissons Ratio (y) = 0.24961 0.16194
# Poissons Ratio (z) = 0.46947 0.38956
#
# Static dielectric constant tensor:
#      x y z
#    x 1.550720 0.000000 0.000000 
#    y 0.000000 1.555040 0.000000 
#    z 0.000000 0.000000 1.515410 
# 
# From -- ./inp_files/26467.got.cif
#   From: 2010.05.17/outbox.cif.g08.bks.cpg/sg58_14_cif.got.tgz:26467.got - 2010.06.03 14:20:14.
