data_PCOD9440000
_publ_section_title
;
Structure prediction by ZEFSAII (Michael W. Deem and Ramdas Pophale) SiO2 
 PCOD9440000
Probable space group: P B C M
;
_chemical_formula_sum "Si O2"
_cell_formula_units_Z 32
_cell_length_a 8.530891
_cell_length_b 12.972552
_cell_length_c 13.653651
_cell_angle_alpha 90.000000
_cell_angle_beta 90.000000
_cell_angle_gamma 90.000000
_cell_volume 1511.014427
_symmetry_space_group_name_H-M "P B C M"
_symmetry_group_IT_number 57
_symmetry_cell_setting 'orthorhombic'
loop_
_space_group_symop_operation_xyz
x,y,z
-x,-y,1/2+z
x,1/2-y,-z
-x,1/2+y,1/2-z
-x,-y,-z
x,y,1/2-z
-x,1/2+y,z
x,1/2-y,1/2+z
loop_
_atom_site_type_symbol
_atom_site_label
_atom_site_fract_x
_atom_site_fract_y
_atom_site_fract_z
Si Si1 0.912069 0.391640 0.250000
Si Si2 0.893985 0.548787 0.083571
Si Si3 0.606442 0.816597 0.586366
Si Si4 0.577092 0.442404 0.750000
Si Si5 0.089174 0.657138 0.250000
Si Si6 0.283353 0.158379 0.750000
O O1 0.852918 0.455323 0.156738
O O2 0.860375 0.274825 0.250000
O O3 0.103673 0.383113 0.250000
O O4 0.743856 0.609908 0.044715
O O5 0.989248 0.626893 0.154277
O O6 0.000000 0.500000 0.000000
O O7 0.527995 0.750000 0.500000
O O8 0.502354 0.890497 0.654842
O O9 0.685944 0.732478 0.657807
O O10 0.756207 0.409092 0.750000
O O11 0.589951 0.565878 0.750000
#
# Coordination Sequence:
#
# PCOD9440000 Si02
#       6
#     4   8   8   4   4   4
#     4  11  20  41  66  94 136 169 223 281 330 395
#     4  11  23  40  69 101 125 178 228 276 332 398
#     4  11  25  44  67  98 135 181 220 273 348 403
#     4  11  25  44  66 100 134 184 225 273 341 410
#     4  11  23  42  65  99 133 173 225 275 333 395
#     4  11  20  43  69  89 141 178 217 281 336 400
#
# _framework density 21.177826
#
# number of rings (size 3 to 8) (size 9 to 14) (size 15 to 20)
#    0.000    1.000    5.000    3.750    0.000    5.000 
#    4.500    0.000    0.000    0.000    0.000    0.000 
#    0.000    0.000    0.000    0.000    0.000    0.000 
#
# Total GULP energy -178817.072708 kJ/mol
# GULP energy per Si atom -5588.033522 kJ/mol
# Density = 2.112962 g / cm^3
# Si number density = 21.177826 Si / 1000 Ang^3
#
#
#
# Elastic Constant Matrix: (Units=GPa)
#
#
# Indices 1 2 3 4 5 6 
#
# 1 30.5993 -10.5313 -28.0498 0.0000 0.0000 0.0000
# 2 -10.5313 127.2764 0.8460 0.0000 0.0000 0.0000
# 3 -28.0498 0.8460 58.1752 0.0000 0.0000 0.0000
# 4 0.0000 0.0000 0.0000 17.6839 0.0000 0.0000
# 5 0.0000 0.0000 0.0000 0.0000 14.5730 0.0000
# 6 0.0000 0.0000 0.0000 0.0000 0.0000 44.6563
#
#
#
# Elastic Compliance Matrix: (Units=1/GPa)
#
#
# Indices 1 2 3 4 5 6 
#
# 1 0.061465 0.004889 0.029565 0.000000 0.000000 0.000000
# 2 0.004889 0.008247 0.002237 0.000000 0.000000 0.000000
# 3 0.029565 0.002237 0.031412 0.000000 0.000000 0.000000
# 4 0.000000 0.000000 0.000000 0.056549 0.000000 0.000000
# 5 0.000000 0.000000 0.000000 0.000000 0.068620 0.000000
# 6 0.000000 0.000000 0.000000 0.000000 0.000000 0.022393
#
#
# Mechanical properties :
#
#
# Convention : Reuss Voigt Hill
#
# Bulk Modulus (GPa) = 5.73047 15.62009 10.67528
# Shear Modulus (GPa) = 21.41595 32.30170 26.85882
#
# Velocity S-wave (km/s) = 3.18346 3.90969 3.56512
# Velocity P-wave (km/s) = 4.02794 5.26998 4.69025
#
# Compressibility (1/GPa) = 0.17450582
#
# Stress axis : x y z
#
# Youngs Moduli (GPa) = 16.26954 121.26216 31.83516
#
# Poissons Ratio (x) = -0.59288 -0.94120
# Poissons Ratio (y) = -0.07955 -0.07123
# Poissons Ratio (z) = -0.48100 -0.27132
#
# Static dielectric constant tensor:
#      x y z
#    x 1.754820 0.000000 0.000000 
#    y 0.000000 1.855400 0.000000 
#    z 0.000000 0.000000 1.910270 
# 
# From -- ./inp_files/15625.got.cif
#   From: 2010.05.17/outbox.cif.g08.bks.cpg/sg57_8_cif.got.tgz:15625.got - 2010.06.03 13:58:18.
