data_PCOD9440990
_publ_section_title
;
Structure prediction by ZEFSAII (Michael W. Deem and Ramdas Pophale) SiO2 
 PCOD9440990
Probable space group: P N N M
;
_chemical_formula_sum "Si O2"
_cell_formula_units_Z 56
_cell_length_a 7.056797
_cell_length_b 22.456547
_cell_length_c 15.095579
_cell_angle_alpha 90.000000
_cell_angle_beta 90.000000
_cell_angle_gamma 90.000000
_cell_volume 2392.215930
_symmetry_space_group_name_H-M "P N N M"
_symmetry_group_IT_number 58
_symmetry_cell_setting 'orthorhombic'
loop_
_space_group_symop_operation_xyz
x,y,z
-x,-y,z
1/2+x,1/2-y,1/2-z
1/2-x,1/2+y,1/2-z
-x,-y,-z
x,y,-z
1/2-x,1/2+y,1/2+z
1/2+x,1/2-y,1/2+z
loop_
_atom_site_type_symbol
_atom_site_label
_atom_site_fract_x
_atom_site_fract_y
_atom_site_fract_z
Si Si1 0.205966 0.411961 0.222248
Si Si2 0.346209 0.667973 0.400842
Si Si3 0.137251 0.226753 0.400166
Si Si4 0.584738 0.196141 0.400327
Si Si5 0.724921 0.481834 0.898843
Si Si6 0.371753 0.621701 0.220601
Si Si7 0.800251 0.637710 0.400800
O O1 0.142697 0.352227 0.171330
O O2 0.173258 0.467385 0.158337
O O3 0.433247 0.412643 0.235181
O O4 0.140227 0.406857 0.323476
O O5 0.279546 0.652007 0.500000
O O6 0.320301 0.738956 0.389258
O O7 0.272861 0.635045 0.313577
O O8 0.573217 0.652887 0.399115
O O9 0.071760 0.211333 0.500000
O O10 0.362051 0.211999 0.397126
O O11 0.063284 0.183594 0.324537
O O12 0.109826 0.296757 0.386318
O O13 0.627114 0.173918 0.500000
O O14 0.500000 0.500000 0.903357
O O15 0.741411 0.418857 0.848438
O O16 0.789452 0.477195 0.000000
O O17 0.842494 0.617057 0.500000
#
# Coordination Sequence:
#
# PCOD9440990 Si02
#       7
#     8   8   8   8   8   8   8
#     4  10  18  29  47  66  86 118 153 180 212 257
#     4   8  15  28  45  66  91 115 141 179 225 264
#     4   9  17  29  45  66  92 117 140 176 226 267
#     4   9  17  29  45  66  92 117 140 176 226 267
#     4   9  18  30  42  62  92 117 141 181 224 253
#     4  10  18  29  47  66  86 118 153 180 212 257
#     4   8  15  28  45  66  91 115 141 179 225 264
#
# _framework density 23.409258000000001
#
# number of rings (size 3 to 8) (size 9 to 14) (size 15 to 20)
#    0.000    3.000    0.000    3.429    0.000    1.714 
#    0.000    1.429    0.000    9.429    0.000    0.000 
#    0.000    2.286    0.000    0.000    0.000    0.000 
#
# Total GULP energy -312899.335694 kJ/mol
# GULP energy per Si atom -5587.488137 kJ/mol
# Density = 2.335598 g / cm^3
# Si number density = 23.409258 Si / 1000 Ang^3
#
#
#
# Elastic Constant Matrix: (Units=GPa)
#
#
# Indices 1 2 3 4 5 6 
#
# 1 74.3664 2.0798 4.3103 0.0000 0.0000 0.0000
# 2 2.0798 63.9350 100.5185 0.0000 0.0000 0.0000
# 3 4.3103 100.5185 237.8939 0.0000 0.0000 0.0000
# 4 0.0000 0.0000 0.0000 36.0758 0.0000 0.0000
# 5 0.0000 0.0000 0.0000 0.0000 4.1549 0.0000
# 6 0.0000 0.0000 0.0000 0.0000 0.0000 13.7714
#
#
#
# Elastic Compliance Matrix: (Units=1/GPa)
#
#
# Indices 1 2 3 4 5 6 
#
# 1 0.013462 -0.000162 -0.000175 0.000000 0.000000 0.000000
# 2 -0.000162 0.046595 -0.019685 0.000000 0.000000 0.000000
# 3 -0.000175 -0.019685 0.012524 0.000000 0.000000 0.000000
# 4 0.000000 0.000000 0.000000 0.027719 0.000000 0.000000
# 5 0.000000 0.000000 0.000000 0.000000 0.240681 0.000000
# 6 0.000000 0.000000 0.000000 0.000000 0.000000 0.072614
#
#
# Mechanical properties :
#
#
# Convention : Reuss Voigt Hill
#
# Bulk Modulus (GPa) = 30.73544 65.55694 48.14619
# Shear Modulus (GPa) = 10.76459 28.75286 19.75873
#
# Velocity S-wave (km/s) = 2.14672 3.50847 2.90842
# Velocity P-wave (km/s) = 4.39348 6.66918 5.64715
#
# Compressibility (1/GPa) = 0.03253573
#
# Stress axis : x y z
#
# Youngs Moduli (GPa) = 74.28519 21.46153 79.84436
#
# Poissons Ratio (x) = 0.00348 0.01400
# Poissons Ratio (y) = 0.01205 1.57174
# Poissons Ratio (z) = 0.01303 0.42247
#
# Static dielectric constant tensor:
#      x y z
#    x 1.968940 0.000000 0.000000 
#    y 0.000000 1.823660 0.000000 
#    z 0.000000 0.000000 1.874030 
# 
# From -- ./inp_files/14757.got.cif
#   From: 2010.05.17/outbox.cif.g08.bks.cpg/sg58_8_cif.got.tgz:14757.got - 2010.06.03 14:20:14.
