data_PCOD9440736
_publ_section_title
;
Structure prediction by ZEFSAII (Michael W. Deem and Ramdas Pophale) SiO2 
 PCOD9440736
Probable space group: P N N M
;
_chemical_formula_sum "Si O2"
_cell_formula_units_Z 64
_cell_length_a 25.044763
_cell_length_b 5.368566
_cell_length_c 26.193613
_cell_angle_alpha 90.000000
_cell_angle_beta 90.000000
_cell_angle_gamma 90.000000
_cell_volume 3521.848173
_symmetry_space_group_name_H-M "P N N M"
_symmetry_group_IT_number 58
_symmetry_cell_setting 'orthorhombic'
loop_
_space_group_symop_operation_xyz
x,y,z
-x,-y,z
1/2+x,1/2-y,1/2-z
1/2-x,1/2+y,1/2-z
-x,-y,-z
x,y,-z
1/2-x,1/2+y,1/2+z
1/2+x,1/2-y,1/2+z
loop_
_atom_site_type_symbol
_atom_site_label
_atom_site_fract_x
_atom_site_fract_y
_atom_site_fract_z
Si Si1 0.693316 0.831551 0.381661
Si Si2 0.985699 0.750621 0.330527
Si Si3 0.936623 0.839646 0.941677
Si Si4 0.936168 0.338882 0.118975
Si Si5 0.807260 0.832296 0.941970
Si Si6 0.566407 0.749964 0.268444
Si Si7 0.616750 0.251640 0.231984
Si Si8 0.238719 0.144332 0.279289
O O1 0.628839 0.832381 0.374782
O O2 0.708180 0.580247 0.411646
O O3 0.724598 0.837571 0.328829
O O4 0.707639 0.078690 0.413397
O O5 0.924655 0.753988 0.314506
O O6 0.000000 0.500000 0.358412
O O7 0.022452 0.750296 0.277675
O O8 0.000000 0.000000 0.358885
O O9 0.949694 0.608205 0.904633
O O10 0.871914 0.835372 0.943897
O O11 0.949792 0.112387 0.919257
O O12 0.955314 0.801275 0.000000
O O13 0.958130 0.283101 0.175546
O O14 0.787610 0.836051 0.000000
O O15 0.598299 0.489407 0.265759
O O16 0.604689 0.988174 0.259103
O O17 0.676658 0.287005 0.214040
O O18 0.258606 0.361825 0.241188
#
# Coordination Sequence:
#
# PCOD9440736 Si02
#       8
#     8   8   8   8   8   8   8   8
#     4  10  19  29  42  63  88 119 160 191 224 278
#     4   8  16  29  46  64  83 105 141 186 224 258
#     4   9  17  27  39  57  82 110 137 172 228 282
#     4  10  17  26  41  59  83 109 139 187 223 256
#     4   9  17  30  46  61  81 113 155 202 240 268
#     4  10  18  30  47  67  86 111 149 190 230 261
#     4  10  19  32  46  62  90 118 147 184 218 257
#     4  12  23  33  45  65  97 137 165 184 221 274
#
# _framework density 18.172276
#
# number of rings (size 3 to 8) (size 9 to 14) (size 15 to 20)
#    0.000    2.250    0.000    4.500    0.000    5.000 
#    0.000    0.000    0.000    0.000    0.000    0.000 
#    0.000   90.000    0.000    5.000    0.000  112.500 
#
# Total GULP energy -357388.271829 kJ/mol
# GULP energy per Si atom -5584.191747 kJ/mol
# Density = 1.813092 g / cm^3
# Si number density = 18.172276 Si / 1000 Ang^3
#
#
#
# Elastic Constant Matrix: (Units=GPa)
#
#
# Indices 1 2 3 4 5 6 
#
# 1 70.2268 10.7794 10.8689 0.0000 0.0000 0.0000
# 2 10.7794 138.5840 23.6791 0.0000 0.0000 0.0000
# 3 10.8689 23.6791 62.5010 0.0000 0.0000 0.0000
# 4 0.0000 0.0000 0.0000 13.8959 0.0000 0.0000
# 5 0.0000 0.0000 0.0000 0.0000 17.8145 0.0000
# 6 0.0000 0.0000 0.0000 0.0000 0.0000 14.7459
#
#
#
# Elastic Compliance Matrix: (Units=1/GPa)
#
#
# Indices 1 2 3 4 5 6 
#
# 1 0.014707 -0.000756 -0.002271 0.000000 0.000000 0.000000
# 2 -0.000756 0.007754 -0.002806 0.000000 0.000000 0.000000
# 3 -0.002271 -0.002806 0.017458 0.000000 0.000000 0.000000
# 4 0.000000 0.000000 0.000000 0.071964 0.000000 0.000000
# 5 0.000000 0.000000 0.000000 0.000000 0.056134 0.000000
# 6 0.000000 0.000000 0.000000 0.000000 0.000000 0.067816
#
#
# Mechanical properties :
#
#
# Convention : Reuss Voigt Hill
#
# Bulk Modulus (GPa) = 35.39518 40.21851 37.80685
# Shear Modulus (GPa) = 19.46157 24.35687 21.90922
#
# Velocity S-wave (km/s) = 3.27608 3.66503 3.47600
# Velocity P-wave (km/s) = 5.81637 6.33164 6.07947
#
# Compressibility (1/GPa) = 0.02825243
#
# Stress axis : x y z
#
# Youngs Moduli (GPa) = 67.99433 128.96348 57.28066
#
# Poissons Ratio (x) = 0.09748 0.13009
# Poissons Ratio (y) = 0.05140 0.16075
# Poissons Ratio (z) = 0.15443 0.36191
#
# Static dielectric constant tensor:
#      x y z
#    x 1.640490 0.000000 0.000000 
#    y 0.000000 1.682930 0.000000 
#    z 0.000000 0.000000 1.591370 
# 
# From -- ./inp_files/30613.got.cif
#   From: 2010.05.17/outbox.cif.g08.bks.cpg/sg58_16_cif.got.tgz:30613.got - 2010.06.03 14:20:14.
