data_PCOD9440980
_publ_section_title
;
Structure prediction by ZEFSAII (Michael W. Deem and Ramdas Pophale) SiO2 
 PCOD9440980
Probable space group: P N N M
;
_chemical_formula_sum "Si O2"
_cell_formula_units_Z 48
_cell_length_a 24.808334
_cell_length_b 14.080045
_cell_length_c 7.856146
_cell_angle_alpha 90.000000
_cell_angle_beta 90.000000
_cell_angle_gamma 90.000000
_cell_volume 2744.171117
_symmetry_space_group_name_H-M "P N N M"
_symmetry_group_IT_number 58
_symmetry_cell_setting 'orthorhombic'
loop_
_space_group_symop_operation_xyz
x,y,z
-x,-y,z
1/2+x,1/2-y,1/2-z
1/2-x,1/2+y,1/2-z
-x,-y,-z
x,y,-z
1/2-x,1/2+y,1/2+z
1/2+x,1/2-y,1/2+z
loop_
_atom_site_type_symbol
_atom_site_label
_atom_site_fract_x
_atom_site_fract_y
_atom_site_fract_z
Si Si1 0.838110 0.278371 0.292180
Si Si2 0.230488 0.895461 0.698386
Si Si3 0.667301 0.215864 0.197914
Si Si4 0.436086 0.895240 0.791929
Si Si5 0.734132 0.394356 0.301745
Si Si6 0.442313 0.113901 0.792271
O O1 0.839399 0.280602 0.500000
O O2 0.817599 0.173843 0.241352
O O3 0.790565 0.350217 0.236585
O O4 0.896026 0.314670 0.232699
O O5 0.239239 0.873038 0.500000
O O6 0.285527 0.862917 0.788239
O O7 0.219639 0.006264 0.717479
O O8 0.612291 0.171306 0.268660
O O9 0.690394 0.311104 0.281698
O O10 0.658946 0.238346 0.000000
O O11 0.496330 0.865468 0.738921
O O12 0.428660 0.005466 0.741905
O O13 0.434640 0.894239 0.000000
O O14 0.741653 0.415031 0.500000
O O15 0.442478 0.115083 0.000000
#
# Coordination Sequence:
#
# PCOD9440980 Si02
#       6
#     8   8   8   8   8   8
#     4   8  15  26  42  63  88 112 141 181 225 264
#     4  10  19  30  44  66  91 119 151 184 221 266
#     4  10  18  29  45  68  94 119 145 179 220 269
#     4   8  14  22  39  66  92 115 143 176 218 265
#     4  10  19  31  46  66  89 118 151 186 225 265
#     4   8  12  22  39  63  91 115 139 178 223 261
#
# _framework density 17.491622
#
# number of rings (size 3 to 8) (size 9 to 14) (size 15 to 20)
#    0.000    3.000    0.000    4.500    0.000    2.667 
#    0.000    0.000    0.000    1.000    0.000   40.833 
#    0.000    0.000    0.000    0.000    0.000    0.000 
#
# Total GULP energy -267485.169337 kJ/mol
# GULP energy per Si atom -5572.607695 kJ/mol
# Density = 1.745181 g / cm^3
# Si number density = 17.491622 Si / 1000 Ang^3
#
#
#
# Elastic Constant Matrix: (Units=GPa)
#
#
# Indices 1 2 3 4 5 6 
#
# 1 135.0001 73.8888 -4.7392 0.0000 0.0000 0.0000
# 2 73.8888 109.4975 -3.4953 0.0000 0.0000 0.0000
# 3 -4.7392 -3.4953 19.4346 0.0000 0.0000 0.0000
# 4 0.0000 0.0000 0.0000 17.8441 0.0000 0.0000
# 5 0.0000 0.0000 0.0000 0.0000 12.4112 0.0000
# 6 0.0000 0.0000 0.0000 0.0000 0.0000 23.7806
#
#
#
# Elastic Compliance Matrix: (Units=1/GPa)
#
#
# Indices 1 2 3 4 5 6 
#
# 1 0.011786 -0.007907 0.001452 0.000000 0.000000 0.000000
# 2 -0.007907 0.014490 0.000678 0.000000 0.000000 0.000000
# 3 0.001452 0.000678 0.051931 0.000000 0.000000 0.000000
# 4 0.000000 0.000000 0.000000 0.056041 0.000000 0.000000
# 5 0.000000 0.000000 0.000000 0.000000 0.080572 0.000000
# 6 0.000000 0.000000 0.000000 0.000000 0.000000 0.042051
#
#
# Mechanical properties :
#
#
# Convention : Reuss Voigt Hill
#
# Bulk Modulus (GPa) = 15.00320 43.91562 29.45941
# Shear Modulus (GPa) = 17.20330 24.02572 20.61451
#
# Velocity S-wave (km/s) = 3.13951 3.71017 3.43671
# Velocity P-wave (km/s) = 4.66240 6.59659 5.71196
#
# Compressibility (1/GPa) = 0.06665245
#
# Stress axis : x y z
#
# Youngs Moduli (GPa) = 84.84670 69.01420 19.25650
#
# Poissons Ratio (x) = 0.54568 -0.02796
# Poissons Ratio (y) = 0.67087 -0.01305
# Poissons Ratio (z) = -0.12320 -0.04678
#
# Static dielectric constant tensor:
#      x y z
#    x 1.598540 0.000000 0.000000 
#    y 0.000000 1.576130 0.000000 
#    z 0.000000 0.000000 1.646210 
# 
# From -- ./inp_files/4318.got.cif
#   From: 2010.05.17/outbox.cif.g08.bks.cpg/sg58_3_cif.got.tgz:4318.got - 2010.06.03 14:20:14.
