data_PCOD9440258
_publ_section_title
;
Structure prediction by ZEFSAII (Michael W. Deem and Ramdas Pophale) SiO2 
 PCOD9440258
Probable space group: P B C M
;
_chemical_formula_sum "Si O2"
_cell_formula_units_Z 40
_cell_length_a 14.135442
_cell_length_b 8.312533
_cell_length_c 15.905365
_cell_angle_alpha 90.000000
_cell_angle_beta 90.000000
_cell_angle_gamma 90.000000
_cell_volume 1868.901511
_symmetry_space_group_name_H-M "P B C M"
_symmetry_group_IT_number 57
_symmetry_cell_setting 'orthorhombic'
loop_
_space_group_symop_operation_xyz
x,y,z
-x,-y,1/2+z
x,1/2-y,-z
-x,1/2+y,1/2-z
-x,-y,-z
x,y,1/2-z
-x,1/2+y,z
x,1/2-y,1/2+z
loop_
_atom_site_type_symbol
_atom_site_label
_atom_site_fract_x
_atom_site_fract_y
_atom_site_fract_z
Si Si1 0.600658 0.947210 0.843592
Si Si2 0.865579 0.582954 0.750000
Si Si3 0.198525 0.570907 0.899353
Si Si4 0.430883 0.370978 0.421127
Si Si5 0.928310 0.952850 0.750000
Si Si6 0.234755 0.549864 0.086028
O O1 0.584448 0.009833 0.750000
O O2 0.583146 0.757306 0.846810
O O3 0.708255 0.978401 0.868698
O O4 0.528614 0.037949 0.905570
O O5 0.897527 0.767569 0.750000
O O6 0.807950 0.542805 0.665501
O O7 0.959673 0.474215 0.750000
O O8 0.115862 0.533880 0.833622
O O9 0.224587 0.759827 0.898033
O O10 0.182821 0.520393 0.996469
O O11 0.429676 0.250000 0.500000
O O12 0.343380 0.493872 0.424476
#
# Coordination Sequence:
#
# PCOD9440258 Si02
#       6
#     8   4   8   8   4   8
#     4  12  25  40  63  98 136 190 233 287 341 410
#     4  12  28  46  77 106 139 182 232 292 358 418
#     4  11  24  46  72 101 142 185 233 290 354 417
#     4  12  25  42  65  98 142 186 242 281 347 409
#     4  12  26  50  75 104 141 178 234 294 352 432
#     4  11  26  44  71 104 141 186 232 292 352 419
#
# _framework density 21.402947000000001
#
# number of rings (size 3 to 8) (size 9 to 14) (size 15 to 20)
#    0.000    0.400    3.000    5.400    5.600    0.800 
#    0.000    0.000    0.000    0.000    0.000    0.000 
#    0.000    0.000    0.000    0.000    0.000    0.000 
#
# Total GULP energy -223861.152365 kJ/mol
# GULP energy per Si atom -5596.528809 kJ/mol
# Density = 2.135423 g / cm^3
# Si number density = 21.402947 Si / 1000 Ang^3
#
#
#
# Elastic Constant Matrix: (Units=GPa)
#
#
# Indices 1 2 3 4 5 6 
#
# 1 70.5975 -8.2190 27.7351 0.0000 0.0000 0.0000
# 2 -8.2190 75.8108 19.1187 0.0000 0.0000 0.0000
# 3 27.7351 19.1187 135.5301 0.0000 0.0000 0.0000
# 4 0.0000 0.0000 0.0000 32.0713 0.0000 0.0000
# 5 0.0000 0.0000 0.0000 0.0000 21.9717 0.0000
# 6 0.0000 0.0000 0.0000 0.0000 0.0000 37.7485
#
#
#
# Elastic Compliance Matrix: (Units=1/GPa)
#
#
# Indices 1 2 3 4 5 6 
#
# 1 0.015896 0.002638 -0.003625 0.000000 0.000000 0.000000
# 2 0.002638 0.014115 -0.002531 0.000000 0.000000 0.000000
# 3 -0.003625 -0.002531 0.008477 0.000000 0.000000 0.000000
# 4 0.000000 0.000000 0.000000 0.031181 0.000000 0.000000
# 5 0.000000 0.000000 0.000000 0.000000 0.045513 0.000000
# 6 0.000000 0.000000 0.000000 0.000000 0.000000 0.026491
#
#
# Mechanical properties :
#
#
# Convention : Reuss Voigt Hill
#
# Bulk Modulus (GPa) = 31.79498 39.91198 35.85348
# Shear Modulus (GPa) = 31.40828 34.57853 32.99340
#
# Velocity S-wave (km/s) = 3.83492 4.02381 3.93050
# Velocity P-wave (km/s) = 5.87337 6.34637 6.11445
#
# Compressibility (1/GPa) = 0.03145151
#
# Stress axis : x y z
#
# Youngs Moduli (GPa) = 62.90878 70.84690 117.96219
#
# Poissons Ratio (x) = -0.18686 0.42762
# Poissons Ratio (y) = -0.16593 0.29855
# Poissons Ratio (z) = 0.22805 0.17931
#
# Static dielectric constant tensor:
#      x y z
#    x 1.712660 0.000000 0.000000 
#    y 0.000000 1.768230 0.000000 
#    z 0.000000 0.000000 1.840680 
# 
# From -- ./inp_files/18267.got.cif
#   From: 2010.05.17/outbox.cif.g08.bks.cpg/sg57_10_cif.got.tgz:18267.got - 2010.06.03 13:58:18.
