data_PCOD9440252
_publ_section_title
;
Structure prediction by ZEFSAII (Michael W. Deem and Ramdas Pophale) SiO2 
 PCOD9440252
Probable space group: P B C M
;
_chemical_formula_sum "Si O2"
_cell_formula_units_Z 36
_cell_length_a 7.622867
_cell_length_b 14.808837
_cell_length_c 16.407410
_cell_angle_alpha 90.000000
_cell_angle_beta 90.000000
_cell_angle_gamma 90.000000
_cell_volume 1852.163520
_symmetry_space_group_name_H-M "P B C M"
_symmetry_group_IT_number 57
_symmetry_cell_setting 'orthorhombic'
loop_
_space_group_symop_operation_xyz
x,y,z
-x,-y,1/2+z
x,1/2-y,-z
-x,1/2+y,1/2-z
-x,-y,-z
x,y,1/2-z
-x,1/2+y,z
x,1/2-y,1/2+z
loop_
_atom_site_type_symbol
_atom_site_label
_atom_site_fract_x
_atom_site_fract_y
_atom_site_fract_z
Si Si1 0.453370 0.004775 0.096200
Si Si2 0.271484 0.250000 0.000000
Si Si3 0.916488 0.922990 0.555611
Si Si4 0.752259 0.141982 0.155722
Si Si5 0.506261 0.300071 0.345690
O O1 0.475635 0.906102 0.135505
O O2 0.590916 0.076106 0.132479
O O3 0.500000 0.000000 0.000000
O O4 0.252406 0.037528 0.103114
O O5 0.158702 0.340348 0.996442
O O6 0.382536 0.258514 0.083617
O O7 0.925894 0.115920 0.391542
O O8 0.000000 0.000000 0.500000
O O9 0.788039 0.129765 0.250000
O O10 0.686429 0.244345 0.142546
O O11 0.453086 0.286647 0.250000
#
# Coordination Sequence:
#
# PCOD9440252 Si02
#       5
#     8   4   8   8   8
#     4  12  22  44  71  98 134 179 233 282 350 417
#     4  12  24  44  74 100 140 186 230 290 342 424
#     4  12  26  41  70 103 132 181 233 282 351 417
#     4  11  25  44  66  99 140 177 225 284 347 417
#     4  11  24  44  71 102 137 183 231 286 347 412
#
# _framework density 19.436729
#
# number of rings (size 3 to 8) (size 9 to 14) (size 15 to 20)
#    0.000    0.444    6.667    0.667    3.111    2.667 
#    0.000    0.000    0.000    0.000    0.000    0.000 
#    0.000    0.000    0.000    0.000    0.000    0.000 
#
# Total GULP energy -201141.036000 kJ/mol
# GULP energy per Si atom -5587.251000 kJ/mol
# Density = 1.939249 g / cm^3
# Si number density = 19.436729 Si / 1000 Ang^3
#
#
#
# Elastic Constant Matrix: (Units=GPa)
#
#
# Indices 1 2 3 4 5 6 
#
# 1 128.9809 30.1605 57.2096 0.0000 0.0000 0.0000
# 2 30.1605 100.9732 35.9950 0.0000 0.0000 0.0000
# 3 57.2096 35.9950 120.5459 0.0000 0.0000 0.0000
# 4 0.0000 0.0000 0.0000 33.8352 0.0000 0.0000
# 5 0.0000 0.0000 0.0000 0.0000 29.5317 0.0000
# 6 0.0000 0.0000 0.0000 0.0000 0.0000 35.4002
#
#
#
# Elastic Compliance Matrix: (Units=1/GPa)
#
#
# Indices 1 2 3 4 5 6 
#
# 1 0.010007 -0.001450 -0.004316 0.000000 0.000000 0.000000
# 2 -0.001450 0.011294 -0.002684 0.000000 0.000000 0.000000
# 3 -0.004316 -0.002684 0.011145 0.000000 0.000000 0.000000
# 4 0.000000 0.000000 0.000000 0.029555 0.000000 0.000000
# 5 0.000000 0.000000 0.000000 0.000000 0.033862 0.000000
# 6 0.000000 0.000000 0.000000 0.000000 0.000000 0.028248
#
#
# Mechanical properties :
#
#
# Convention : Reuss Voigt Hill
#
# Bulk Modulus (GPa) = 64.32934 66.35889 65.34412
# Shear Modulus (GPa) = 34.20136 34.89574 34.54855
#
# Velocity S-wave (km/s) = 4.19934 4.24175 4.22060
# Velocity P-wave (km/s) = 7.52869 7.62922 7.57913
#
# Compressibility (1/GPa) = 0.01554501
#
# Stress axis : x y z
#
# Youngs Moduli (GPa) = 99.93431 88.54557 89.72391
#
# Poissons Ratio (x) = 0.12843 0.38724
# Poissons Ratio (y) = 0.14494 0.24081
# Poissons Ratio (z) = 0.43131 0.23765
#
# Static dielectric constant tensor:
#      x y z
#    x 1.650450 0.000000 0.000000 
#    y 0.000000 1.674600 0.000000 
#    z 0.000000 0.000000 1.576600 
# 
# From -- ./inp_files/20656.got.cif
#   From: 2010.05.17/outbox.cif.g08.bks.cpg/sg57_11_cif.got.tgz:20656.got - 2010.06.03 13:58:18.
