data_PCOD9440730
_publ_section_title
;
Structure prediction by ZEFSAII (Michael W. Deem and Ramdas Pophale) SiO2 
 PCOD9440730
Probable space group: P N N M
;
_chemical_formula_sum "Si O2"
_cell_formula_units_Z 48
_cell_length_a 7.085860
_cell_length_b 24.232535
_cell_length_c 13.357368
_cell_angle_alpha 90.000000
_cell_angle_beta 90.000000
_cell_angle_gamma 90.000000
_cell_volume 2293.571626
_symmetry_space_group_name_H-M "P N N M"
_symmetry_group_IT_number 58
_symmetry_cell_setting 'orthorhombic'
loop_
_space_group_symop_operation_xyz
x,y,z
-x,-y,z
1/2+x,1/2-y,1/2-z
1/2-x,1/2+y,1/2-z
-x,-y,-z
x,y,-z
1/2-x,1/2+y,1/2+z
1/2+x,1/2-y,1/2+z
loop_
_atom_site_type_symbol
_atom_site_label
_atom_site_fract_x
_atom_site_fract_y
_atom_site_fract_z
Si Si1 0.595425 0.677577 0.118142
Si Si2 0.598063 0.374179 0.300958
Si Si3 0.166254 0.283070 0.619656
Si Si4 0.196906 0.400342 0.384037
Si Si5 0.278652 0.517681 0.382025
Si Si6 0.405804 0.740516 0.380136
O O1 0.503448 0.632997 0.192735
O O2 0.473448 0.732990 0.134566
O O3 0.624870 0.736940 0.349800
O O4 0.587480 0.662447 0.000000
O O5 0.420560 0.385525 0.375322
O O6 0.734204 0.426003 0.319162
O O7 0.679993 0.314968 0.332345
O O8 0.177721 0.290470 0.500000
O O9 0.111352 0.343860 0.658087
O O10 0.196924 0.298164 0.856915
O O11 0.145022 0.405664 0.500000
O O12 0.173859 0.462311 0.343389
O O13 0.500000 0.500000 0.378000
O O14 0.235281 0.527341 0.500000
O O15 0.389588 0.734856 0.500000
#
# Coordination Sequence:
#
# PCOD9440730 Si02
#       6
#     8   8   8   8   8   8
#     4  10  21  32  43  67 102 130 157 195 235 278
#     4  10  17  25  45  67  92 124 157 192 234 280
#     4   8  15  30  48  66  92 126 159 188 231 286
#     4   8  14  26  47  71  94 121 156 199 242 284
#     4   8  13  24  44  71  95 117 155 202 241 281
#     4   9  18  31  46  65  92 126 157 190 235 286
#
# _framework density 20.928059000000001
#
# number of rings (size 3 to 8) (size 9 to 14) (size 15 to 20)
#    0.000    3.167    0.000    3.500    4.667    0.000 
#    0.000    0.000    0.000    5.500    0.000   10.500 
#    0.000    5.333    0.000   77.333    0.000    0.167 
#
# Total GULP energy -267435.957356 kJ/mol
# GULP energy per Si atom -5571.582445 kJ/mol
# Density = 2.088043 g / cm^3
# Si number density = 20.928059 Si / 1000 Ang^3
#
#
#
# Elastic Constant Matrix: (Units=GPa)
#
#
# Indices 1 2 3 4 5 6 
#
# 1 54.1323 13.0747 10.2062 0.0000 0.0000 0.0000
# 2 13.0747 76.7660 57.3081 0.0000 0.0000 0.0000
# 3 10.2062 57.3081 107.9769 0.0000 0.0000 0.0000
# 4 0.0000 0.0000 0.0000 20.4155 0.0000 0.0000
# 5 0.0000 0.0000 0.0000 0.0000 6.3081 0.0000
# 6 0.0000 0.0000 0.0000 0.0000 0.0000 28.4269
#
#
#
# Elastic Compliance Matrix: (Units=1/GPa)
#
#
# Indices 1 2 3 4 5 6 
#
# 1 0.019267 -0.003183 -0.000132 0.000000 0.000000 0.000000
# 2 -0.003183 0.022101 -0.011429 0.000000 0.000000 0.000000
# 3 -0.000132 -0.011429 0.015340 0.000000 0.000000 0.000000
# 4 0.000000 0.000000 0.000000 0.048982 0.000000 0.000000
# 5 0.000000 0.000000 0.000000 0.000000 0.158525 0.000000
# 6 0.000000 0.000000 0.000000 0.000000 0.000000 0.035178
#
#
# Mechanical properties :
#
#
# Convention : Reuss Voigt Hill
#
# Bulk Modulus (GPa) = 36.73830 44.45035 40.59433
# Shear Modulus (GPa) = 14.79492 21.58253 18.18872
#
# Velocity S-wave (km/s) = 2.66172 3.21483 2.95126
# Velocity P-wave (km/s) = 5.19991 5.92164 5.57247
#
# Compressibility (1/GPa) = 0.02721955
#
# Stress axis : x y z
#
# Youngs Moduli (GPa) = 51.90238 45.24712 65.19086
#
# Poissons Ratio (x) = 0.14403 0.00858
# Poissons Ratio (y) = 0.16522 0.74507
# Poissons Ratio (z) = 0.00683 0.51713
#
# Static dielectric constant tensor:
#      x y z
#    x 1.857450 0.000000 0.000000 
#    y 0.000000 1.815840 0.000000 
#    z 0.000000 0.000000 1.781680 
# 
# From -- ./inp_files/15935.got.cif
#   From: 2010.05.17/outbox.cif.g08.bks.cpg/sg58_8_cif.got.tgz:15935.got - 2010.06.03 14:20:14.
