data_PCOD9440209
_publ_section_title
;
Structure prediction by ZEFSAII (Michael W. Deem and Ramdas Pophale) SiO2 
 PCOD9440209
Probable space group: P B C M
;
_chemical_formula_sum "Si O2"
_cell_formula_units_Z 32
_cell_length_a 7.247169
_cell_length_b 7.449071
_cell_length_c 22.406186
_cell_angle_alpha 90.000000
_cell_angle_beta 90.000000
_cell_angle_gamma 90.000000
_cell_volume 1209.590701
_symmetry_space_group_name_H-M "P B C M"
_symmetry_group_IT_number 57
_symmetry_cell_setting 'orthorhombic'
loop_
_space_group_symop_operation_xyz
x,y,z
-x,-y,1/2+z
x,1/2-y,-z
-x,1/2+y,1/2-z
-x,-y,-z
x,y,1/2-z
-x,1/2+y,z
x,1/2-y,1/2+z
loop_
_atom_site_type_symbol
_atom_site_label
_atom_site_fract_x
_atom_site_fract_y
_atom_site_fract_z
Si Si1 0.263953 0.295861 0.815533
Si Si2 0.273093 0.439255 0.472060
Si Si3 0.130394 0.580055 0.589732
Si Si4 0.663126 0.090652 0.145135
O O1 0.198360 0.351854 0.750000
O O2 0.169660 0.409362 0.868071
O O3 0.482922 0.337295 0.821692
O O4 0.248058 0.080693 0.822227
O O5 0.325441 0.250000 0.500000
O O6 0.243566 0.567227 0.528090
O O7 0.399150 0.511389 0.419217
O O8 0.075793 0.417406 0.437603
O O9 0.799683 0.247593 0.628623
#
# Coordination Sequence:
#
# PCOD9440209 Si02
#       4
#     8   8   8   8
#     4  12  27  48  70 103 151 201 252 299 354 435
#     4  11  23  47  76 110 150 183 237 310 378 439
#     4  11  24  46  75 108 149 192 237 306 375 436
#     4  12  25  45  76 107 144 195 244 298 370 431
#
# _framework density 26.45523
#
# number of rings (size 3 to 8) (size 9 to 14) (size 15 to 20)
#    0.000    0.500    5.000    4.500    0.000    2.000 
#    4.500    2.500    0.000    0.000    0.000    0.000 
#    0.000    0.000    0.000    0.000    0.000    0.000 
#
# Total GULP energy -179446.129588 kJ/mol
# GULP energy per Si atom -5607.691550 kJ/mol
# Density = 2.639502 g / cm^3
# Si number density = 26.455230 Si / 1000 Ang^3
#
#
#
# Elastic Constant Matrix: (Units=GPa)
#
#
# Indices 1 2 3 4 5 6 
#
# 1 89.1128 26.7956 22.2941 0.0000 0.0000 0.0000
# 2 26.7956 169.3107 44.9910 0.0000 0.0000 0.0000
# 3 22.2941 44.9910 177.3133 0.0000 0.0000 0.0000
# 4 0.0000 0.0000 0.0000 32.2931 0.0000 0.0000
# 5 0.0000 0.0000 0.0000 0.0000 23.0222 0.0000
# 6 0.0000 0.0000 0.0000 0.0000 0.0000 32.5301
#
#
#
# Elastic Compliance Matrix: (Units=1/GPa)
#
#
# Indices 1 2 3 4 5 6 
#
# 1 0.011979 -0.001604 -0.001099 0.000000 0.000000 0.000000
# 2 -0.001604 0.006548 -0.001460 0.000000 0.000000 0.000000
# 3 -0.001099 -0.001460 0.006148 0.000000 0.000000 0.000000
# 4 0.000000 0.000000 0.000000 0.030966 0.000000 0.000000
# 5 0.000000 0.000000 0.000000 0.000000 0.043436 0.000000
# 6 0.000000 0.000000 0.000000 0.000000 0.000000 0.030741
#
#
# Mechanical properties :
#
#
# Convention : Reuss Voigt Hill
#
# Bulk Modulus (GPa) = 61.16290 69.32201 65.24246
# Shear Modulus (GPa) = 34.82033 40.34616 37.58325
#
# Velocity S-wave (km/s) = 3.63188 3.90946 3.77322
# Velocity P-wave (km/s) = 6.38412 6.82926 6.61044
#
# Compressibility (1/GPa) = 0.01634978
#
# Stress axis : x y z
#
# Youngs Moduli (GPa) = 83.47964 152.71760 162.64500
#
# Poissons Ratio (x) = 0.24492 0.17878
# Poissons Ratio (y) = 0.13388 0.23744
# Poissons Ratio (z) = 0.09176 0.22294
#
# Static dielectric constant tensor:
#      x y z
#    x 2.139860 0.000000 0.000000 
#    y 0.000000 2.104110 0.000000 
#    z 0.000000 0.000000 2.017570 
# 
# From -- ./inp_files/26468.got.cif
#   From: 2010.05.17/outbox.cif.g08.bks.cpg/sg57_14_cif.got.tgz:26468.got - 2010.06.03 13:58:18.
