data_PCOD9440578
_publ_section_title
;
Structure prediction by ZEFSAII (Michael W. Deem and Ramdas Pophale) SiO2 
 PCOD9440578
Probable space group: P B C M
;
_chemical_formula_sum "Si O2"
_cell_formula_units_Z 64
_cell_length_a 24.000000
_cell_length_b 9.000000
_cell_length_c 15.000000
_cell_angle_alpha 90.000000
_cell_angle_beta 90.000000
_cell_angle_gamma 90.000000
_cell_volume 3240.000000
_symmetry_space_group_name_H-M "P B C M"
_symmetry_group_IT_number 57
_symmetry_cell_setting 'orthorhombic'
loop_
_space_group_symop_operation_xyz
x,y,z
-x,-y,1/2+z
x,1/2-y,-z
-x,1/2+y,1/2-z
-x,-y,-z
x,y,1/2-z
-x,1/2+y,z
x,1/2-y,1/2+z
loop_
_atom_site_type_symbol
_atom_site_label
_atom_site_fract_x
_atom_site_fract_y
_atom_site_fract_z
Si Si1 0.141620 0.424773 0.016403
Si Si2 0.309328 0.427617 0.644863
Si Si3 0.538796 0.667508 0.859178
Si Si4 0.659009 0.921905 0.355789
Si Si5 0.431643 0.002127 0.141414
Si Si6 0.746525 0.425574 0.983158
Si Si7 0.957597 0.854952 0.146699
Si Si8 0.928202 0.507624 0.146956
O O1 0.194662 0.512617 0.052339
O O2 0.089024 0.424688 0.083126
O O3 0.155330 0.250000 0.000000
O O4 0.121308 0.498037 0.923827
O O5 0.297120 0.450626 0.750000
O O6 0.321927 0.251301 0.633449
O O7 0.366748 0.513899 0.620153
O O8 0.264165 0.487197 0.576283
O O9 0.538489 0.668697 0.750000
O O10 0.593719 0.572753 0.883049
O O11 0.479086 0.609655 0.889757
O O12 0.549814 0.834647 0.889047
O O13 0.663001 0.956056 0.250000
O O14 0.697977 0.024506 0.415385
O O15 0.433155 0.002331 0.250000
O O16 0.746977 0.250000 0.000000
O O17 0.949160 0.900301 0.250000
O O18 0.950341 0.677530 0.141695
O O19 0.019896 0.903385 0.121992
O O20 0.912185 0.478715 0.250000
#
# Coordination Sequence:
#
# PCOD9440578 Si02
#       8
#     8   8   8   8   8   8   8   8
#     4  10  21  37  55  75 105 146 187 222 260 316
#     4   9  19  38  61  80 104 144 188 227 273 333
#     4   8  14  26  48  78 106 133 169 215 270 330
#     4   9  19  38  61  80 104 144 188 227 273 333
#     4   8  14  26  48  78 106 133 169 215 270 330
#     4  12  26  39  54  81 113 144 186 238 285 326
#     4   9  18  33  55  83 111 139 173 214 262 315
#     4   9  18  33  55  83 111 139 173 214 262 315
#
# _framework density 19.753086
#
# number of rings (size 3 to 8) (size 9 to 14) (size 15 to 20)
#    0.000    2.750    0.000    3.000    0.000    3.500 
#    0.000    5.625    0.000    0.000    0.000    0.000 
#    0.000    0.000    0.000    0.000    0.000    0.000 
#
# Total GULP energy -357251.093094 kJ/mol
# GULP energy per Si atom -5582.048330 kJ/mol
# Density = 1.970813 g / cm^3
# Si number density = 19.753086 Si / 1000 Ang^3
#
#
#
# Elastic Constant Matrix: (Units=GPa)
#
#
# Indices 1 2 3 4 5 6 
#
# 1 33.9866 -2.5249 -1.2190 0.0000 0.0000 0.0000
# 2 -2.5249 11.7795 2.6471 0.0000 0.0000 0.0000
# 3 -1.2190 2.6471 28.6712 0.0000 0.0000 0.0000
# 4 0.0000 0.0000 0.0000 20.3490 0.0000 0.0000
# 5 0.0000 0.0000 0.0000 0.0000 27.0783 0.0000
# 6 0.0000 0.0000 0.0000 0.0000 0.0000 30.5783
#
#
#
# Elastic Compliance Matrix: (Units=1/GPa)
#
#
# Indices 1 2 3 4 5 6 
#
# 1 0.029913 0.006256 0.000694 0.000000 0.000000 0.000000
# 2 0.006256 0.088000 -0.007859 0.000000 0.000000 0.000000
# 3 0.000694 -0.007859 0.035633 0.000000 0.000000 0.000000
# 4 0.000000 0.000000 0.000000 0.049143 0.000000 0.000000
# 5 0.000000 0.000000 0.000000 0.000000 0.036930 0.000000
# 6 0.000000 0.000000 0.000000 0.000000 0.000000 0.032703
#
#
# Mechanical properties :
#
#
# Convention : Reuss Voigt Hill
#
# Bulk Modulus (GPa) = 6.59069 8.02706 7.30888
# Shear Modulus (GPa) = 15.39807 20.63670 18.01739
#
# Velocity S-wave (km/s) = 2.79503 3.23574 3.02343
# Velocity P-wave (km/s) = 3.70945 4.24647 3.98702
#
# Compressibility (1/GPa) = 0.15172909
#
# Stress axis : x y z
#
# Youngs Moduli (GPa) = 33.43026 11.36361 28.06360
#
# Poissons Ratio (x) = -0.07109 -0.01948
# Poissons Ratio (y) = -0.20913 0.22055
# Poissons Ratio (z) = -0.02321 0.08930
#
# Static dielectric constant tensor:
#      x y z
#    x 1.681050 0.000000 0.000000 
#    y 0.000000 1.677640 0.000000 
#    z 0.000000 0.000000 1.710890 
# 
# From -- ./inp_files/19523.got.cif
#   From: 2010.05.17/outbox.ucp.g08.bks.cvg/sg57_10_cif.got.tgz:19523.got - 2010.06.11 16:39:23.
