data_PCOD9440454
_publ_section_title
;
Structure prediction by ZEFSAII (Michael W. Deem and Ramdas Pophale) SiO2 
 PCOD9440454
Probable space group: P B C M
;
_chemical_formula_sum "Si O2"
_cell_formula_units_Z 64
_cell_length_a 21.000000
_cell_length_b 18.000000
_cell_length_c 9.000000
_cell_angle_alpha 90.000000
_cell_angle_beta 90.000000
_cell_angle_gamma 90.000000
_cell_volume 3402.000000
_symmetry_space_group_name_H-M "P B C M"
_symmetry_group_IT_number 57
_symmetry_cell_setting 'orthorhombic'
loop_
_space_group_symop_operation_xyz
x,y,z
-x,-y,1/2+z
x,1/2-y,-z
-x,1/2+y,1/2-z
-x,-y,-z
x,y,1/2-z
-x,1/2+y,z
x,1/2-y,1/2+z
loop_
_atom_site_type_symbol
_atom_site_label
_atom_site_fract_x
_atom_site_fract_y
_atom_site_fract_z
Si Si1 0.817260 0.533712 0.083759
Si Si2 0.892173 0.316053 0.920858
Si Si3 0.063614 0.515791 0.082066
Si Si4 0.475006 0.571817 0.584652
Si Si5 0.315576 0.430003 0.572343
Si Si6 0.233111 0.636554 0.582794
Si Si7 0.647424 0.413089 0.925748
Si Si8 0.406324 0.178737 0.915149
O O1 0.835879 0.554868 0.250000
O O2 0.758014 0.581056 0.030220
O O3 0.788049 0.450147 0.089518
O O4 0.877676 0.529176 0.982568
O O5 0.881724 0.297663 0.750000
O O6 0.922739 0.396673 0.930207
O O7 0.929622 0.250000 0.000000
O O8 0.825783 0.324763 0.006107
O O9 0.055775 0.495125 0.250000
O O10 0.000000 0.500000 0.000000
O O11 0.500000 0.500000 0.500000
O O12 0.451226 0.552375 0.750000
O O13 0.419778 0.610225 0.491539
O O14 0.535114 0.623735 0.597785
O O15 0.318539 0.440494 0.750000
O O16 0.341261 0.504034 0.491716
O O17 0.354771 0.361021 0.516560
O O18 0.244364 0.662489 0.750000
O O19 0.296241 0.638165 0.485787
O O20 0.647529 0.416842 0.750000
O O21 0.381680 0.194887 0.750000
O O22 0.429669 0.250000 0.000000
#
# Coordination Sequence:
#
# PCOD9440454 Si02
#       8
#     8   8   8   8   8   8   8   8
#     4   8  16  30  50  77 105 134 168 211 261 308
#     4  10  20  34  53  79 109 145 185 225 271 326
#     4  10  20  33  53  81 113 148 185 226 268 317
#     4  11  22  36  55  79 105 139 184 231 279 333
#     4  10  19  33  55  79 105 136 173 220 270 320
#     4   9  17  31  50  74 104 137 172 216 264 312
#     4  11  20  31  51  79 107 136 175 223 271 321
#     4  11  24  39  56  78 106 140 179 225 282 340
#
# _framework density 18.812463000000001
#
# number of rings (size 3 to 8) (size 9 to 14) (size 15 to 20)
#    0.000    2.000    1.250    4.125    0.000    6.500 
#    0.000    0.625    0.000    2.250    0.000    3.500 
#    0.000    0.000    0.000    0.000    0.000    0.000 
#
# Total GULP energy -356548.942353 kJ/mol
# GULP energy per Si atom -5571.077224 kJ/mol
# Density = 1.876965 g / cm^3
# Si number density = 18.812463 Si / 1000 Ang^3
#
#
#
# Elastic Constant Matrix: (Units=GPa)
#
#
# Indices 1 2 3 4 5 6 
#
# 1 92.4584 4.9872 78.7965 0.0000 0.0000 0.0000
# 2 4.9872 18.7749 30.9549 0.0000 0.0000 0.0000
# 3 78.7965 30.9549 120.6699 0.0000 0.0000 0.0000
# 4 0.0000 0.0000 0.0000 15.7258 0.0000 0.0000
# 5 0.0000 0.0000 0.0000 0.0000 20.7577 0.0000
# 6 0.0000 0.0000 0.0000 0.0000 0.0000 -140.3578
#
#
#
# Elastic Compliance Matrix: (Units=1/GPa)
#
#
# Indices 1 2 3 4 5 6 
#
# 1 0.051004 0.071680 -0.051693 0.000000 0.000000 0.000000
# 2 0.071680 0.193037 -0.096325 0.000000 0.000000 0.000000
# 3 -0.051693 -0.096325 0.066752 0.000000 0.000000 0.000000
# 4 0.000000 0.000000 0.000000 0.063590 0.000000 0.000000
# 5 0.000000 0.000000 0.000000 0.000000 0.048175 0.000000
# 6 0.000000 0.000000 0.000000 0.000000 0.000000 -0.007125
#
#
# Mechanical properties :
#
#
# Convention : Reuss Voigt Hill
#
# Bulk Modulus (GPa) = 6.32446 51.26448 28.79447
# Shear Modulus (GPa) = 8.05392 -12.96390 -2.45499
#
# Velocity S-wave (km/s) = 2.07134 -2.62794 -1.14360
# Velocity P-wave (km/s) = 3.01492 4.25456 3.68721
#
# Compressibility (1/GPa) = 0.15811632
#
# Stress axis : x y z
#
# Youngs Moduli (GPa) = 19.60641 5.18034 14.98085
#
# Poissons Ratio (x) = -0.37132 0.77440
# Poissons Ratio (y) = -1.40538 1.44303
# Poissons Ratio (z) = 1.01351 0.49900
#
# Static dielectric constant tensor:
#      x y z
#    x 1.706230 0.000000 0.000000 
#    y 0.000000 1.618670 0.000000 
#    z 0.000000 0.000000 1.632350 
# 
# From -- ./inp_files/8387.got.cif
#   From: 2010.05.17/outbox.ucp.g08.bks.cvg/sg57_5_cif.got.tgz:8387.got - 2010.06.11 16:39:23.
