data_PCOD9440577
_publ_section_title
;
Structure prediction by ZEFSAII (Michael W. Deem and Ramdas Pophale) SiO2 
 PCOD9440577
Probable space group: P B C M
;
_chemical_formula_sum "Si O2"
_cell_formula_units_Z 64
_cell_length_a 24.000000
_cell_length_b 9.000000
_cell_length_c 15.000000
_cell_angle_alpha 90.000000
_cell_angle_beta 90.000000
_cell_angle_gamma 90.000000
_cell_volume 3240.000000
_symmetry_space_group_name_H-M "P B C M"
_symmetry_group_IT_number 57
_symmetry_cell_setting 'orthorhombic'
loop_
_space_group_symop_operation_xyz
x,y,z
-x,-y,1/2+z
x,1/2-y,-z
-x,1/2+y,1/2-z
-x,-y,-z
x,y,1/2-z
-x,1/2+y,z
x,1/2-y,1/2+z
loop_
_atom_site_type_symbol
_atom_site_label
_atom_site_fract_x
_atom_site_fract_y
_atom_site_fract_z
Si Si1 0.940472 0.926887 0.513198
Si Si2 0.243054 0.640156 0.145933
Si Si3 0.630804 0.579557 0.476281
Si Si4 0.845385 0.617357 0.353262
Si Si5 0.423331 0.986850 0.852102
Si Si6 0.465601 0.175584 0.148003
Si Si7 0.743139 0.460118 0.055317
Si Si8 0.869312 0.966618 0.154273
O O1 0.946046 0.750000 0.500000
O O2 0.902727 0.942169 0.602105
O O3 0.905307 0.992887 0.431944
O O4 0.000000 0.000000 0.500000
O O5 0.266019 0.624288 0.250000
O O6 0.247923 0.807353 0.109307
O O7 0.180123 0.583816 0.155577
O O8 0.259717 0.552988 0.053317
O O9 0.644500 0.750000 0.500000
O O10 0.619909 0.488979 0.567304
O O11 0.574002 0.588975 0.419889
O O12 0.681982 0.518367 0.420298
O O13 0.839570 0.570086 0.250000
O O14 0.793723 0.563721 0.413162
O O15 0.846950 0.797163 0.353896
O O16 0.402272 0.973432 0.750000
O O17 0.452686 0.149377 0.858930
O O18 0.470307 0.863574 0.867797
O O19 0.453280 0.130153 0.250000
O O20 0.899618 0.973814 0.250000
#
# Coordination Sequence:
#
# PCOD9440577 Si02
#       8
#     8   8   8   8   8   8   8   8
#     4  10  21  36  57  86 122 154 198 247 295 353
#     4  10  22  40  58  82 115 152 192 239 295 353
#     4  10  22  36  57  85 116 151 193 239 288 351
#     4  10  21  38  62  88 116 157 204 247 294 355
#     4   9  18  36  58  82 111 147 190 237 290 348
#     4   9  18  35  57  81 110 147 190 237 288 345
#     4  11  23  38  60  86 118 156 194 243 295 355
#     4   9  19  38  63  85 113 154 199 245 295 352
#
# _framework density 19.753086
#
# number of rings (size 3 to 8) (size 9 to 14) (size 15 to 20)
#    0.000    2.250    1.250    0.750    1.750    3.000 
#    4.500    0.000    0.000    0.000    0.000    0.000 
#    0.000    0.000    0.000    0.000    0.000    0.000 
#
# Total GULP energy -356521.703603 kJ/mol
# GULP energy per Si atom -5570.651619 kJ/mol
# Density = 1.970813 g / cm^3
# Si number density = 19.753086 Si / 1000 Ang^3
#
#
#
# Elastic Constant Matrix: (Units=GPa)
#
#
# Indices 1 2 3 4 5 6 
#
# 1 95.0233 31.1632 42.5155 0.0000 0.0000 0.0000
# 2 31.1632 11.4489 20.3167 0.0000 0.0000 0.0000
# 3 42.5155 20.3167 112.5060 0.0000 0.0000 0.0000
# 4 0.0000 0.0000 0.0000 20.8533 0.0000 0.0000
# 5 0.0000 0.0000 0.0000 0.0000 -2.9110 0.0000
# 6 0.0000 0.0000 0.0000 0.0000 0.0000 4.6413
#
#
#
# Elastic Compliance Matrix: (Units=1/GPa)
#
#
# Indices 1 2 3 4 5 6 
#
# 1 0.124049 -0.374464 0.020744 0.000000 0.000000 0.000000
# 2 -0.374464 1.258924 -0.085832 0.000000 0.000000 0.000000
# 3 0.020744 -0.085832 0.016549 0.000000 0.000000 0.000000
# 4 0.000000 0.000000 0.000000 0.047954 0.000000 0.000000
# 5 0.000000 0.000000 0.000000 0.000000 -0.343527 0.000000
# 6 0.000000 0.000000 0.000000 0.000000 0.000000 0.215456
#
#
# Mechanical properties :
#
#
# Convention : Reuss Voigt Hill
#
# Bulk Modulus (GPa) = 1.92153 45.21877 23.57015
# Shear Modulus (GPa) = 2.10794 12.84892 7.47843
#
# Velocity S-wave (km/s) = 1.03415 2.55321 1.94786
# Velocity P-wave (km/s) = 1.54946 5.62437 4.12519
#
# Compressibility (1/GPa) = 0.52041795
#
# Stress axis : x y z
#
# Youngs Moduli (GPa) = 8.06135 0.79433 60.42673
#
# Poissons Ratio (x) = 0.29745 -1.25352
# Poissons Ratio (y) = 3.01869 5.18654
# Poissons Ratio (z) = -0.16723 0.06818
#
# Static dielectric constant tensor:
#      x y z
#    x 1.702360 0.000000 0.000000 
#    y 0.000000 1.675630 0.000000 
#    z 0.000000 0.000000 1.736020 
# 
# From -- ./inp_files/19534.got.cif
#   From: 2010.05.17/outbox.ucp.g08.bks.cvg/sg57_10_cif.got.tgz:19534.got - 2010.06.11 16:39:23.
