data_PCOD9440574
_publ_section_title
;
Structure prediction by ZEFSAII (Michael W. Deem and Ramdas Pophale) SiO2 
 PCOD9440574
Probable space group: P B C M
;
_chemical_formula_sum "Si O2"
_cell_formula_units_Z 48
_cell_length_a 12.000000
_cell_length_b 12.000000
_cell_length_c 18.000000
_cell_angle_alpha 90.000000
_cell_angle_beta 90.000000
_cell_angle_gamma 90.000000
_cell_volume 2592.000000
_symmetry_space_group_name_H-M "P B C M"
_symmetry_group_IT_number 57
_symmetry_cell_setting 'orthorhombic'
loop_
_space_group_symop_operation_xyz
x,y,z
-x,-y,1/2+z
x,1/2-y,-z
-x,1/2+y,1/2-z
-x,-y,-z
x,y,1/2-z
-x,1/2+y,z
x,1/2-y,1/2+z
loop_
_atom_site_type_symbol
_atom_site_label
_atom_site_fract_x
_atom_site_fract_y
_atom_site_fract_z
Si Si1 0.174149 0.385939 0.839964
Si Si2 0.400350 0.975220 0.595115
Si Si3 0.228501 0.129132 0.661054
Si Si4 0.283868 0.731410 0.162189
Si Si5 0.081412 0.579615 0.160177
Si Si6 0.653047 0.455331 0.076568
O O1 0.187178 0.405743 0.750000
O O2 0.198553 0.256001 0.854483
O O3 0.255343 0.462548 0.888270
O O4 0.046242 0.409040 0.861574
O O5 0.364662 0.873875 0.648235
O O6 0.352381 0.948319 0.512977
O O7 0.340866 0.087498 0.622897
O O8 0.531438 0.995581 0.595633
O O9 0.240238 0.118494 0.750000
O O10 0.136197 0.037754 0.636943
O O11 0.280801 0.759815 0.250000
O O12 0.162747 0.681744 0.138744
O O13 0.323549 0.835571 0.113781
O O14 0.082828 0.580496 0.250000
#
# Coordination Sequence:
#
# PCOD9440574 Si02
#       6
#     8   8   8   8   8   8
#     4  10  21  35  59  93 119 149 199 245 284 343
#     4  10  23  42  58  81 120 159 193 236 298 350
#     4   9  19  37  60  83 115 155 193 241 291 339
#     4  10  21  39  64  88 114 150 195 244 292 345
#     4   8  17  35  59  86 118 152 188 239 299 342
#     4  11  24  38  60  86 117 158 195 238 290 353
#
# _framework density 18.518519000000001
#
# number of rings (size 3 to 8) (size 9 to 14) (size 15 to 20)
#    0.000    2.333    0.000    2.500    4.667    3.333 
#    0.000    3.333    7.333    0.000    0.000    0.000 
#    0.000    0.000    0.000    0.000    0.000    0.000 
#
# Total GULP energy -267792.804460 kJ/mol
# GULP energy per Si atom -5579.016760 kJ/mol
# Density = 1.847637 g / cm^3
# Si number density = 18.518519 Si / 1000 Ang^3
#
#
#
# Elastic Constant Matrix: (Units=GPa)
#
#
# Indices 1 2 3 4 5 6 
#
# 1 110.8664 34.6532 31.2335 0.0000 0.0000 0.0000
# 2 34.6532 66.7418 23.4096 0.0000 0.0000 0.0000
# 3 31.2335 23.4096 28.8390 0.0000 0.0000 0.0000
# 4 0.0000 0.0000 0.0000 22.9673 0.0000 0.0000
# 5 0.0000 0.0000 0.0000 0.0000 23.1753 0.0000
# 6 0.0000 0.0000 0.0000 0.0000 0.0000 10.7448
#
#
#
# Elastic Compliance Matrix: (Units=1/GPa)
#
#
# Indices 1 2 3 4 5 6 
#
# 1 0.013293 -0.002590 -0.012295 0.000000 0.000000 0.000000
# 2 -0.002590 0.021452 -0.014608 0.000000 0.000000 0.000000
# 3 -0.012295 -0.014608 0.059849 0.000000 0.000000 0.000000
# 4 0.000000 0.000000 0.000000 0.043540 0.000000 0.000000
# 5 0.000000 0.000000 0.000000 0.000000 0.043149 0.000000
# 6 0.000000 0.000000 0.000000 0.000000 0.000000 0.093068
#
#
# Mechanical properties :
#
#
# Convention : Reuss Voigt Hill
#
# Bulk Modulus (GPa) = 28.08344 42.78221 35.43282
# Shear Modulus (GPa) = 14.48413 19.18754 16.83584
#
# Velocity S-wave (km/s) = 2.79972 3.22239 3.01846
# Velocity P-wave (km/s) = 5.06450 6.08256 5.59673
#
# Compressibility (1/GPa) = 0.03560817
#
# Stress axis : x y z
#
# Youngs Moduli (GPa) = 75.22795 46.61678 16.70876
#
# Poissons Ratio (x) = 0.12072 0.20543
# Poissons Ratio (y) = 0.19480 0.24409
# Poissons Ratio (z) = 0.92490 0.68100
#
# Static dielectric constant tensor:
#      x y z
#    x 1.642890 0.000000 0.000000 
#    y 0.000000 1.617490 0.000000 
#    z 0.000000 0.000000 1.631710 
# 
# From -- ./inp_files/21786.got.cif
#   From: 2010.05.17/outbox.ucp.g08.bks.cvg/sg57_11_cif.got.tgz:21786.got - 2010.06.11 16:39:23.
