data_PCOD9440688
_publ_section_title
;
Structure prediction by ZEFSAII (Michael W. Deem and Ramdas Pophale) SiO2 
 PCOD9440688
Probable space group: P N N M
;
_chemical_formula_sum "Si O2"
_cell_formula_units_Z 56
_cell_length_a 25.542379
_cell_length_b 15.039819
_cell_length_c 7.381939
_cell_angle_alpha 90.000000
_cell_angle_beta 90.000000
_cell_angle_gamma 90.000000
_cell_volume 2835.792219
_symmetry_space_group_name_H-M "P N N M"
_symmetry_group_IT_number 58
_symmetry_cell_setting 'orthorhombic'
loop_
_space_group_symop_operation_xyz
x,y,z
-x,-y,z
1/2+x,1/2-y,1/2-z
1/2-x,1/2+y,1/2-z
-x,-y,-z
x,y,-z
1/2-x,1/2+y,1/2+z
1/2+x,1/2-y,1/2+z
loop_
_atom_site_type_symbol
_atom_site_label
_atom_site_fract_x
_atom_site_fract_y
_atom_site_fract_z
Si Si1 0.386993 0.147286 0.719628
Si Si2 0.288366 0.262748 0.281424
Si Si3 0.107940 0.303781 0.220811
Si Si4 0.500602 0.104405 0.721442
Si Si5 0.326982 0.972386 0.718324
Si Si6 0.181172 0.152129 0.216159
Si Si7 0.709896 0.535953 0.705251
O O1 0.387489 0.153418 0.500000
O O2 0.341161 0.213140 0.781547
O O3 0.447014 0.152899 0.778742
O O4 0.367642 0.048615 0.766863
O O5 0.289409 0.265576 0.500000
O O6 0.235516 0.207330 0.240062
O O7 0.289575 0.364742 0.213826
O O8 0.051797 0.341040 0.280200
O O9 0.150541 0.377818 0.272924
O O10 0.132252 0.210711 0.282490
O O11 0.106372 0.302109 0.000000
O O12 0.501598 0.102494 0.500000
O O13 0.500000 0.000000 0.776399
O O14 0.321256 0.973755 0.500000
O O15 0.270847 0.990277 0.799757
O O16 0.183840 0.051619 0.290047
O O17 0.175597 0.143370 0.000000
O O18 0.689438 0.545686 0.500000
#
# Coordination Sequence:
#
# PCOD9440688 Si02
#       7
#     8   8   8   8   8   8   8
#     4   9  16  25  40  63  90 114 140 178 219 258
#     4  10  19  30  44  64  89 118 147 178 217 259
#     4   9  16  25  40  63  90 114 140 178 219 258
#     4   9  14  22  38  63  89 109 136 180 226 255
#     4  10  16  25  44  68  89 111 145 183 210 252
#     4  10  19  30  44  64  89 118 147 178 217 259
#     4  10  20  30  41  62  93 122 144 173 218 264
#
# _framework density 19.747568000000001
#
# number of rings (size 3 to 8) (size 9 to 14) (size 15 to 20)
#    0.000    2.429    4.286    0.000    0.000    0.000 
#    0.000    0.000    0.000    0.857    0.000   11.000 
#    0.000    0.000    0.000    3.857    0.000    4.286 
#
# Total GULP energy -312278.278093 kJ/mol
# GULP energy per Si atom -5576.397823 kJ/mol
# Density = 1.970262 g / cm^3
# Si number density = 19.747568 Si / 1000 Ang^3
#
#
#
# Elastic Constant Matrix: (Units=GPa)
#
#
# Indices 1 2 3 4 5 6 
#
# 1 74.3549 4.4673 -6.2683 0.0000 0.0000 0.0000
# 2 4.4673 81.4843 0.7923 0.0000 0.0000 0.0000
# 3 -6.2683 0.7923 68.0559 0.0000 0.0000 0.0000
# 4 0.0000 0.0000 0.0000 1.0202 0.0000 0.0000
# 5 0.0000 0.0000 0.0000 0.0000 23.0096 0.0000
# 6 0.0000 0.0000 0.0000 0.0000 0.0000 33.2176
#
#
#
# Elastic Compliance Matrix: (Units=1/GPa)
#
#
# Indices 1 2 3 4 5 6 
#
# 1 0.013601 -0.000758 0.001262 0.000000 0.000000 0.000000
# 2 -0.000758 0.012316 -0.000213 0.000000 0.000000 0.000000
# 3 0.001262 -0.000213 0.014812 0.000000 0.000000 0.000000
# 4 0.000000 0.000000 0.000000 0.980210 0.000000 0.000000
# 5 0.000000 0.000000 0.000000 0.000000 0.043460 0.000000
# 6 0.000000 0.000000 0.000000 0.000000 0.000000 0.030105
#
#
# Mechanical properties :
#
#
# Convention : Reuss Voigt Hill
#
# Bulk Modulus (GPa) = 24.20713 24.65309 24.43011
# Shear Modulus (GPa) = 4.51389 26.44307 15.47848
#
# Velocity S-wave (km/s) = 1.51352 3.66328 2.80271
# Velocity P-wave (km/s) = 3.91653 5.51399 4.78243
#
# Compressibility (1/GPa) = 0.04131014
#
# Stress axis : x y z
#
# Youngs Moduli (GPa) = 73.52457 81.19569 67.51064
#
# Poissons Ratio (x) = 0.06154 -0.08517
# Poissons Ratio (y) = 0.05573 0.01439
# Poissons Ratio (z) = -0.09275 0.01731
#
# Static dielectric constant tensor:
#      x y z
#    x 1.673790 0.000000 0.000000 
#    y 0.000000 1.715990 0.000000 
#    z 0.000000 0.000000 1.809620 
# 
# From -- ./inp_files/10125.got.cif
#   From: 2010.05.17/outbox.cif.g08.bks.cpg/sg58_6_cif.got.tgz:10125.got - 2010.06.03 14:20:14.
