data_PCOD9440066
_publ_section_title
;
Structure prediction by ZEFSAII (Michael W. Deem and Ramdas Pophale) SiO2 
 PCOD9440066
Probable space group: P B C M
;
_chemical_formula_sum "Si O2"
_cell_formula_units_Z 48
_cell_length_a 14.850610
_cell_length_b 9.893776
_cell_length_c 17.028817
_cell_angle_alpha 90.000000
_cell_angle_beta 90.000000
_cell_angle_gamma 90.000000
_cell_volume 2502.020391
_symmetry_space_group_name_H-M "P B C M"
_symmetry_group_IT_number 57
_symmetry_cell_setting 'orthorhombic'
loop_
_space_group_symop_operation_xyz
x,y,z
-x,-y,1/2+z
x,1/2-y,-z
-x,1/2+y,1/2-z
-x,-y,-z
x,y,1/2-z
-x,1/2+y,z
x,1/2-y,1/2+z
loop_
_atom_site_type_symbol
_atom_site_label
_atom_site_fract_x
_atom_site_fract_y
_atom_site_fract_z
Si Si1 0.082224 0.241168 0.157276
Si Si2 0.263451 0.153825 0.424270
Si Si3 0.745524 0.397936 0.530253
Si Si4 0.054514 0.966359 0.578655
Si Si5 0.595739 0.042803 0.157228
Si Si6 0.541602 0.742470 0.594719
O O1 0.078341 0.249832 0.250000
O O2 0.178272 0.180486 0.130366
O O3 0.070183 0.390945 0.121848
O O4 0.004691 0.141016 0.126345
O O5 0.249508 0.250000 0.500000
O O6 0.359314 0.195508 0.388760
O O7 0.267511 0.004045 0.459567
O O8 0.720541 0.250000 0.500000
O O9 0.849184 0.404451 0.556235
O O10 0.684582 0.442544 0.603791
O O11 0.000000 0.000000 0.500000
O O12 0.613984 0.030891 0.250000
O O13 0.533511 0.171102 0.138248
O O14 0.544538 0.910524 0.124727
O O15 0.528624 0.750000 0.500000
#
# Coordination Sequence:
#
# PCOD9440066 Si02
#       6
#     8   8   8   8   8   8
#     4  12  25  41  66 101 135 169 218 278 334 385
#     4  11  21  45  68  94 123 173 228 261 324 404
#     4  12  25  43  70  98 128 174 227 271 326 397
#     4  12  23  44  69  95 131 178 221 268 326 404
#     4  12  26  43  66 100 138 172 218 278 338 384
#     4  11  23  43  70  95 128 177 224 269 321 404
#
# _framework density 19.184495999999999
#
# number of rings (size 3 to 8) (size 9 to 14) (size 15 to 20)
#    0.000    0.333    6.667    3.500    2.333    4.000 
#    0.000    0.833    0.000    0.000    0.000    0.000 
#    0.000    0.000    0.000    0.000    0.000    0.000 
#
# Total GULP energy -268597.707445 kJ/mol
# GULP energy per Si atom -5595.785572 kJ/mol
# Density = 1.914083 g / cm^3
# Si number density = 19.184496 Si / 1000 Ang^3
#
#
#
# Elastic Constant Matrix: (Units=GPa)
#
#
# Indices 1 2 3 4 5 6 
#
# 1 56.9279 -22.8421 0.7030 0.0000 0.0000 0.0000
# 2 -22.8421 87.0044 11.2365 0.0000 0.0000 0.0000
# 3 0.7030 11.2365 89.6129 0.0000 0.0000 0.0000
# 4 0.0000 0.0000 0.0000 22.5420 0.0000 0.0000
# 5 0.0000 0.0000 0.0000 0.0000 14.7772 0.0000
# 6 0.0000 0.0000 0.0000 0.0000 0.0000 24.6717
#
#
#
# Elastic Compliance Matrix: (Units=1/GPa)
#
#
# Indices 1 2 3 4 5 6 
#
# 1 0.019693 0.005276 -0.000816 0.000000 0.000000 0.000000
# 2 0.005276 0.013096 -0.001684 0.000000 0.000000 0.000000
# 3 -0.000816 -0.001684 0.011377 0.000000 0.000000 0.000000
# 4 0.000000 0.000000 0.000000 0.044362 0.000000 0.000000
# 5 0.000000 0.000000 0.000000 0.000000 0.067672 0.000000
# 6 0.000000 0.000000 0.000000 0.000000 0.000000 0.040532
#
#
# Mechanical properties :
#
#
# Convention : Reuss Voigt Hill
#
# Bulk Modulus (GPa) = 20.11352 23.52668 21.82010
# Shear Modulus (GPa) = 24.06721 28.69472 26.38097
#
# Velocity S-wave (km/s) = 3.54575 3.87166 3.71228
# Velocity P-wave (km/s) = 5.22209 5.68122 5.45649
#
# Compressibility (1/GPa) = 0.04971781
#
# Stress axis : x y z
#
# Youngs Moduli (GPa) = 50.77963 76.35842 87.89972
#
# Poissons Ratio (x) = -0.40283 0.07172
# Poissons Ratio (y) = -0.26789 0.14798
# Poissons Ratio (z) = 0.04144 0.12855
#
# Static dielectric constant tensor:
#      x y z
#    x 1.658500 0.000000 0.000000 
#    y 0.000000 1.709740 0.000000 
#    z 0.000000 0.000000 1.638140 
# 
# From -- ./inp_files/22423.got.cif
#   From: 2010.05.17/outbox.cif.g08.bks.cpg/sg57_12_cif.got.tgz:22423.got - 2010.06.03 13:58:18.
