data_PCOD9440640
_publ_section_title
;
Structure prediction by ZEFSAII (Michael W. Deem and Ramdas Pophale) SiO2 
 PCOD9440640
Probable space group: P B C M
;
_chemical_formula_sum "Si O2"
_cell_formula_units_Z 64
_cell_length_a 12.000000
_cell_length_b 30.000000
_cell_length_c 9.000000
_cell_angle_alpha 90.000000
_cell_angle_beta 90.000000
_cell_angle_gamma 90.000000
_cell_volume 3240.000000
_symmetry_space_group_name_H-M "P B C M"
_symmetry_group_IT_number 57
_symmetry_cell_setting 'orthorhombic'
loop_
_space_group_symop_operation_xyz
x,y,z
-x,-y,1/2+z
x,1/2-y,-z
-x,1/2+y,1/2-z
-x,-y,-z
x,y,1/2-z
-x,1/2+y,z
x,1/2-y,1/2+z
loop_
_atom_site_type_symbol
_atom_site_label
_atom_site_fract_x
_atom_site_fract_y
_atom_site_fract_z
Si Si1 0.813605 0.295626 0.423614
Si Si2 0.175858 0.294873 0.925343
Si Si3 0.333740 0.467576 0.071033
Si Si4 0.446211 0.939522 0.925789
Si Si5 0.980633 0.638574 0.921889
Si Si6 0.075221 0.038122 0.572586
Si Si7 0.415912 0.295557 0.073189
Si Si8 0.608804 0.343116 0.574684
O O1 0.853436 0.250000 0.500000
O O2 0.789861 0.287246 0.250000
O O3 0.903658 0.335140 0.432807
O O4 0.705075 0.312665 0.508883
O O5 0.188597 0.288391 0.750000
O O6 0.127510 0.250000 0.000000
O O7 0.294378 0.301685 0.003891
O O8 0.100828 0.336529 0.966046
O O9 0.335492 0.463291 0.250000
O O10 0.376090 0.517139 0.028098
O O11 0.205624 0.460349 0.022458
O O12 0.433445 0.437605 0.005071
O O13 0.468906 0.943585 0.750000
O O14 0.372405 0.895613 0.947314
O O15 0.940636 0.644069 0.750000
O O16 0.980679 0.586271 0.953636
O O17 0.078002 0.030437 0.750000
O O18 0.000000 0.000000 0.500000
O O19 0.411068 0.292279 0.250000
O O20 0.460525 0.250000 0.000000
O O21 0.497496 0.333069 0.015921
O O22 0.593548 0.334563 0.750000
#
# Coordination Sequence:
#
# PCOD9440640 Si02
#       8
#     8   8   8   8   8   8   8   8
#     4  11  24  42  63  87 120 161 208 256 311 368
#     4  11  22  38  62  92 124 160 201 248 304 364
#     4   9  19  38  61  87 120 158 199 245 303 360
#     4   9  20  37  59  88 120 155 197 246 295 360
#     4  10  23  42  62  90 124 161 208 258 307 368
#     4  10  23  41  63  91 125 162 205 254 307 364
#     4  11  22  38  59  84 119 157 194 238 295 355
#     4  11  23  38  59  88 122 155 201 251 302 363
#
# _framework density 19.753086
#
# number of rings (size 3 to 8) (size 9 to 14) (size 15 to 20)
#    0.000    1.750    0.000    4.500    3.500    4.000 
#    0.000    0.000    0.000    0.000    0.000    0.000 
#    0.000    0.000    0.000    0.000    0.000    0.000 
#
# Total GULP energy -357310.533649 kJ/mol
# GULP energy per Si atom -5582.977088 kJ/mol
# Density = 1.970813 g / cm^3
# Si number density = 19.753086 Si / 1000 Ang^3
#
#
#
# Elastic Constant Matrix: (Units=GPa)
#
#
# Indices 1 2 3 4 5 6 
#
# 1 74.4793 43.0476 37.5381 0.0000 0.0000 0.0000
# 2 43.0476 94.2967 53.1768 0.0000 0.0000 0.0000
# 3 37.5381 53.1768 113.1616 0.0000 0.0000 0.0000
# 4 0.0000 0.0000 0.0000 26.9694 0.0000 0.0000
# 5 0.0000 0.0000 0.0000 0.0000 107.8181 0.0000
# 6 0.0000 0.0000 0.0000 0.0000 0.0000 23.4541
#
#
#
# Elastic Compliance Matrix: (Units=1/GPa)
#
#
# Indices 1 2 3 4 5 6 
#
# 1 0.018971 -0.006954 -0.003025 0.000000 0.000000 0.000000
# 2 -0.006954 0.016978 -0.005671 0.000000 0.000000 0.000000
# 3 -0.003025 -0.005671 0.012505 0.000000 0.000000 0.000000
# 4 0.000000 0.000000 0.000000 0.037079 0.000000 0.000000
# 5 0.000000 0.000000 0.000000 0.000000 0.009275 0.000000
# 6 0.000000 0.000000 0.000000 0.000000 0.000000 0.042636
#
#
# Mechanical properties :
#
#
# Convention : Reuss Voigt Hill
#
# Bulk Modulus (GPa) = 58.30038 61.05140 59.67589
# Shear Modulus (GPa) = 28.65935 41.52666 35.09301
#
# Velocity S-wave (km/s) = 3.81317 4.59004 4.21953
# Velocity P-wave (km/s) = 6.99755 7.68542 7.34954
#
# Compressibility (1/GPa) = 0.01715255
#
# Stress axis : x y z
#
# Youngs Moduli (GPa) = 52.71291 58.90035 79.96559
#
# Poissons Ratio (x) = 0.40962 0.24189
# Poissons Ratio (y) = 0.36659 0.45351
# Poissons Ratio (z) = 0.15945 0.33404
#
# Static dielectric constant tensor:
#      x y z
#    x 1.700160 0.000000 0.000000 
#    y 0.000000 1.745240 0.000000 
#    z 0.000000 0.000000 1.666360 
# 
# From -- ./inp_files/3772.got.cif
#   From: 2010.05.17/outbox.ucp.g08.bks.cvg/sg57_2_cif.got.tgz:3772.got - 2010.06.11 16:39:23.
