data_PCOD9440165
_publ_section_title
;
Structure prediction by ZEFSAII (Michael W. Deem and Ramdas Pophale) SiO2 
 PCOD9440165
Probable space group: P B C M
;
_chemical_formula_sum "Si O2"
_cell_formula_units_Z 48
_cell_length_a 8.208852
_cell_length_b 10.249490
_cell_length_c 27.205914
_cell_angle_alpha 90.000000
_cell_angle_beta 90.000000
_cell_angle_gamma 90.000000
_cell_volume 2289.011648
_symmetry_space_group_name_H-M "P B C M"
_symmetry_group_IT_number 57
_symmetry_cell_setting 'orthorhombic'
loop_
_space_group_symop_operation_xyz
x,y,z
-x,-y,1/2+z
x,1/2-y,-z
-x,1/2+y,1/2-z
-x,-y,-z
x,y,1/2-z
-x,1/2+y,z
x,1/2-y,1/2+z
loop_
_atom_site_type_symbol
_atom_site_label
_atom_site_fract_x
_atom_site_fract_y
_atom_site_fract_z
Si Si1 0.673081 0.449422 0.599152
Si Si2 0.145374 0.715836 0.946133
Si Si3 0.833426 0.741543 0.305116
Si Si4 0.872135 0.041009 0.196015
Si Si5 0.628287 0.969770 0.955102
Si Si6 0.206966 0.271878 0.087708
O O1 0.717783 0.319959 0.569176
O O2 0.743713 0.432951 0.653270
O O3 0.484755 0.480017 0.593182
O O4 0.759297 0.577101 0.576258
O O5 0.228812 0.575351 0.950288
O O6 0.989065 0.736784 0.912067
O O7 0.082810 0.750000 0.000000
O O8 0.757095 0.729130 0.250000
O O9 0.733665 0.741953 0.356287
O O10 0.967909 0.628718 0.309309
O O11 0.911986 0.886801 0.305875
O O12 0.802510 0.068515 0.250000
O O13 0.709196 0.827398 0.950012
O O14 0.500000 0.000000 0.000000
#
# Coordination Sequence:
#
# PCOD9440165 Si02
#       6
#     8   8   8   8   8   8
#     4  11  23  41  63  92 130 173 209 263 331 384
#     4  12  25  42  66  93 125 168 225 263 310 384
#     4   9  18  35  62  95 129 164 212 273 323 375
#     4   9  18  35  61  93 129 167 211 267 326 385
#     4  12  27  45  63  91 133 173 212 265 332 383
#     4  11  25  41  67  95 129 169 225 268 315 388
#
# _framework density 20.969749
#
# number of rings (size 3 to 8) (size 9 to 14) (size 15 to 20)
#    0.000    1.333    3.333    2.000    4.667    1.333 
#    0.000    0.833    0.000    4.000    0.000    0.000 
#    0.000    0.000    0.000    0.000    0.000    0.000 
#
# Total GULP energy -267685.099216 kJ/mol
# GULP energy per Si atom -5576.772900 kJ/mol
# Density = 2.092202 g / cm^3
# Si number density = 20.969749 Si / 1000 Ang^3
#
#
#
# Elastic Constant Matrix: (Units=GPa)
#
#
# Indices 1 2 3 4 5 6 
#
# 1 34.5278 -4.5026 -4.8257 0.0000 0.0000 0.0000
# 2 -4.5026 77.4284 41.2706 0.0000 0.0000 0.0000
# 3 -4.8257 41.2706 83.3015 0.0000 0.0000 0.0000
# 4 0.0000 0.0000 0.0000 27.1438 0.0000 0.0000
# 5 0.0000 0.0000 0.0000 0.0000 20.7574 0.0000
# 6 0.0000 0.0000 0.0000 0.0000 0.0000 28.0188
#
#
#
# Elastic Compliance Matrix: (Units=1/GPa)
#
#
# Indices 1 2 3 4 5 6 
#
# 1 0.029265 0.001085 0.001158 0.000000 0.000000 0.000000
# 2 0.001085 0.017590 -0.008652 0.000000 0.000000 0.000000
# 3 0.001158 -0.008652 0.016358 0.000000 0.000000 0.000000
# 4 0.000000 0.000000 0.000000 0.036841 0.000000 0.000000
# 5 0.000000 0.000000 0.000000 0.000000 0.048175 0.000000
# 6 0.000000 0.000000 0.000000 0.000000 0.000000 0.035690
#
#
# Mechanical properties :
#
#
# Convention : Reuss Voigt Hill
#
# Bulk Modulus (GPa) = 19.84325 28.79359 24.31842
# Shear Modulus (GPa) = 23.41521 26.07172 24.74346
#
# Velocity S-wave (km/s) = 3.34521 3.52987 3.43878
# Velocity P-wave (km/s) = 4.94003 5.51128 5.23345
#
# Compressibility (1/GPa) = 0.05039496
#
# Stress axis : x y z
#
# Youngs Moduli (GPa) = 34.16999 56.85129 61.13195
#
# Poissons Ratio (x) = -0.06166 -0.07079
# Poissons Ratio (y) = -0.03706 0.52890
# Poissons Ratio (z) = -0.03957 0.49186
#
# Static dielectric constant tensor:
#      x y z
#    x 1.722170 0.000000 0.000000 
#    y 0.000000 1.769680 0.000000 
#    z 0.000000 0.000000 1.840230 
# 
# From -- ./inp_files/29461.got.cif
#   From: 2010.05.17/outbox.cif.g08.bks.cpg/sg57_15_cif.got.tgz:29461.got - 2010.06.03 13:58:18.
