data_PCOD9440204
_publ_section_title
;
Structure prediction by ZEFSAII (Michael W. Deem and Ramdas Pophale) SiO2 
 PCOD9440204
Probable space group: P B C M
;
_chemical_formula_sum "Si O2"
_cell_formula_units_Z 60
_cell_length_a 9.356087
_cell_length_b 11.121734
_cell_length_c 27.741238
_cell_angle_alpha 90.000000
_cell_angle_beta 90.000000
_cell_angle_gamma 90.000000
_cell_volume 2886.639789
_symmetry_space_group_name_H-M "P B C M"
_symmetry_group_IT_number 57
_symmetry_cell_setting 'orthorhombic'
loop_
_space_group_symop_operation_xyz
x,y,z
-x,-y,1/2+z
x,1/2-y,-z
-x,1/2+y,1/2-z
-x,-y,-z
x,y,1/2-z
-x,1/2+y,z
x,1/2-y,1/2+z
loop_
_atom_site_type_symbol
_atom_site_label
_atom_site_fract_x
_atom_site_fract_y
_atom_site_fract_z
Si Si1 0.108665 0.416423 0.305587
Si Si2 0.374143 0.510406 0.039514
Si Si3 0.179145 0.886876 0.040911
Si Si4 0.361602 0.725152 0.107735
Si Si5 0.925455 0.184227 0.160841
Si Si6 0.916525 0.750000 0.000000
Si Si7 0.161082 0.122655 0.409807
Si Si8 0.655423 0.673251 0.878319
O O1 0.150154 0.401193 0.250000
O O2 0.055058 0.555116 0.312244
O O3 0.244607 0.398626 0.341130
O O4 0.996939 0.306624 0.317781
O O5 0.416137 0.602685 0.082446
O O6 0.335904 0.390727 0.069305
O O7 0.500000 0.500000 0.000000
O O8 0.241370 0.559408 0.008529
O O9 0.288626 0.790752 0.062059
O O10 0.023770 0.836398 0.029262
O O11 0.171426 0.982105 0.084189
O O12 0.239401 0.702416 0.147171
O O13 0.488180 0.805315 0.129494
O O14 0.008351 0.159876 0.110876
O O15 0.826153 0.672782 0.036516
O O16 0.275833 0.193684 0.379025
#
# Coordination Sequence:
#
# PCOD9440204 Si02
#       8
#     8   8   8   8   8   4   8   8
#     4  11  25  49  76 105 133 169 227 298 366 429
#     4  12  22  37  61  91 138 185 228 269 324 395
#     4  12  22  36  58  89 133 176 232 273 317 390
#     4  12  23  42  63  97 134 183 223 274 334 409
#     4  11  23  45  75 102 137 176 225 286 362 419
#     4  12  22  36  54  88 132 176 226 274 314 390
#     4  11  24  37  60  92 130 177 225 274 330 397
#     4  11  26  42  66  94 132 179 226 281 345 408
#
# _framework density 20.785412999999998
#
# number of rings (size 3 to 8) (size 9 to 14) (size 15 to 20)
#    0.000    0.533    5.333    3.200    1.867    1.067 
#    0.000    1.333    0.000    0.000    0.000    0.000 
#    0.000    0.000    0.000    0.000    0.000    0.000 
#
# Total GULP energy -335018.841296 kJ/mol
# GULP energy per Si atom -5583.647355 kJ/mol
# Density = 2.073810 g / cm^3
# Si number density = 20.785413 Si / 1000 Ang^3
#
#
#
# Elastic Constant Matrix: (Units=GPa)
#
#
# Indices 1 2 3 4 5 6 
#
# 1 69.0282 28.9763 21.7534 0.0000 0.0000 0.0000
# 2 28.9763 108.8091 26.5800 0.0000 0.0000 0.0000
# 3 21.7534 26.5800 80.0476 0.0000 0.0000 0.0000
# 4 0.0000 0.0000 0.0000 19.3948 0.0000 0.0000
# 5 0.0000 0.0000 0.0000 0.0000 15.9995 0.0000
# 6 0.0000 0.0000 0.0000 0.0000 0.0000 22.7048
#
#
#
# Elastic Compliance Matrix: (Units=1/GPa)
#
#
# Indices 1 2 3 4 5 6 
#
# 1 0.017128 -0.003727 -0.003417 0.000000 0.000000 0.000000
# 2 -0.003727 0.010812 -0.002578 0.000000 0.000000 0.000000
# 3 -0.003417 -0.002578 0.014277 0.000000 0.000000 0.000000
# 4 0.000000 0.000000 0.000000 0.051560 0.000000 0.000000
# 5 0.000000 0.000000 0.000000 0.000000 0.062502 0.000000
# 6 0.000000 0.000000 0.000000 0.000000 0.000000 0.044044
#
#
# Mechanical properties :
#
#
# Convention : Reuss Voigt Hill
#
# Bulk Modulus (GPa) = 43.90798 45.83381 44.87090
# Shear Modulus (GPa) = 21.99182 23.65819 22.82500
#
# Velocity S-wave (km/s) = 3.25628 3.37740 3.31739
# Velocity P-wave (km/s) = 5.94206 6.10802 6.02561
#
# Compressibility (1/GPa) = 0.02277490
#
# Stress axis : x y z
#
# Youngs Moduli (GPa) = 58.38383 92.48598 70.04213
#
# Poissons Ratio (x) = 0.34465 0.23935
# Poissons Ratio (y) = 0.21757 0.18054
# Poissons Ratio (z) = 0.19951 0.23839
#
# Static dielectric constant tensor:
#      x y z
#    x 1.756710 0.000000 0.000000 
#    y 0.000000 1.704950 0.000000 
#    z 0.000000 0.000000 1.720310 
# 
# From -- ./inp_files/28410.got.cif
#   From: 2010.05.17/outbox.cif.g08.bks.cpg/sg57_15_cif.got.tgz:28410.got - 2010.06.03 13:58:18.
