data_PCOD9440219
_publ_section_title
;
Structure prediction by ZEFSAII (Michael W. Deem and Ramdas Pophale) SiO2 
 PCOD9440219
Probable space group: P B C M
;
_chemical_formula_sum "Si O2"
_cell_formula_units_Z 64
_cell_length_a 11.632308
_cell_length_b 7.727205
_cell_length_c 31.404363
_cell_angle_alpha 90.000000
_cell_angle_beta 90.000000
_cell_angle_gamma 90.000000
_cell_volume 2822.788345
_symmetry_space_group_name_H-M "P B C M"
_symmetry_group_IT_number 57
_symmetry_cell_setting 'orthorhombic'
loop_
_space_group_symop_operation_xyz
x,y,z
-x,-y,1/2+z
x,1/2-y,-z
-x,1/2+y,1/2-z
-x,-y,-z
x,y,1/2-z
-x,1/2+y,z
x,1/2-y,1/2+z
loop_
_atom_site_type_symbol
_atom_site_label
_atom_site_fract_x
_atom_site_fract_y
_atom_site_fract_z
Si Si1 0.673352 0.895868 0.298335
Si Si2 0.676766 0.676315 0.046483
Si Si3 0.562872 0.154872 0.411062
Si Si4 0.915940 0.131473 0.626017
Si Si5 0.238066 0.712789 0.701943
Si Si6 0.169460 0.261129 0.125551
Si Si7 0.766165 0.280630 0.452827
Si Si8 0.561923 0.088499 0.658067
O O1 0.695745 0.838673 0.250000
O O2 0.755650 0.819657 0.334338
O O3 0.543348 0.850566 0.312549
O O4 0.692664 0.104492 0.298889
O O5 0.544476 0.711092 0.059980
O O6 0.753203 0.763902 0.083250
O O7 0.703520 0.469900 0.047153
O O8 0.700125 0.750000 0.000000
O O9 0.669866 0.133963 0.442450
O O10 0.617783 0.286237 0.377047
O O11 0.501795 0.033863 0.376030
O O12 0.865070 0.221313 0.668270
O O13 0.862390 0.215088 0.583485
O O14 0.052736 0.131404 0.623341
O O15 0.870865 0.936380 0.629224
O O16 0.197080 0.685328 0.750000
O O17 0.329852 0.562811 0.688750
O O18 0.813277 0.250000 0.500000
#
# Coordination Sequence:
#
# PCOD9440219 Si02
#       8
#     8   8   8   8   8   8   8   8
#     4  11  24  41  65  97 129 169 214 261 320 385
#     4  11  25  41  63  98 131 169 217 267 326 388
#     4  12  22  39  66  93 134 174 212 257 320 378
#     4  11  24  46  67  93 123 167 215 269 327 383
#     4  11  24  42  65  96 132 169 214 265 321 386
#     4  11  25  45  69  92 126 166 217 269 326 387
#     4  11  25  42  64  95 131 171 217 267 324 388
#     4  12  21  40  65  94 132 172 209 257 316 380
#
# _framework density 22.672618
#
# number of rings (size 3 to 8) (size 9 to 14) (size 15 to 20)
#    0.000    0.750    5.000    2.250    1.750    4.500 
#    0.000    2.500    0.000    0.000    0.000    0.000 
#    0.000    0.000    0.000    0.000    0.000    0.000 
#
# Total GULP energy -357480.490844 kJ/mol
# GULP energy per Si atom -5585.632669 kJ/mol
# Density = 2.262101 g / cm^3
# Si number density = 22.672618 Si / 1000 Ang^3
#
#
#
# Elastic Constant Matrix: (Units=GPa)
#
#
# Indices 1 2 3 4 5 6 
#
# 1 111.5481 25.8818 64.6645 0.0000 0.0000 0.0000
# 2 25.8818 37.4644 38.0277 0.0000 0.0000 0.0000
# 3 64.6645 38.0277 221.5477 0.0000 0.0000 0.0000
# 4 0.0000 0.0000 0.0000 30.2155 0.0000 0.0000
# 5 0.0000 0.0000 0.0000 0.0000 21.5776 0.0000
# 6 0.0000 0.0000 0.0000 0.0000 0.0000 27.0270
#
#
#
# Elastic Compliance Matrix: (Units=1/GPa)
#
#
# Indices 1 2 3 4 5 6 
#
# 1 0.011681 -0.005581 -0.002451 0.000000 0.000000 0.000000
# 2 -0.005581 0.034990 -0.004377 0.000000 0.000000 0.000000
# 3 -0.002451 -0.004377 0.005980 0.000000 0.000000 0.000000
# 4 0.000000 0.000000 0.000000 0.033096 0.000000 0.000000
# 5 0.000000 0.000000 0.000000 0.000000 0.046344 0.000000
# 6 0.000000 0.000000 0.000000 0.000000 0.000000 0.037000
#
#
# Mechanical properties :
#
#
# Convention : Reuss Voigt Hill
#
# Bulk Modulus (GPa) = 35.92912 69.74536 52.83724
# Shear Modulus (GPa) = 24.60773 31.89645 28.25209
#
# Velocity S-wave (km/s) = 3.29804 3.75484 3.53383
# Velocity P-wave (km/s) = 5.51217 7.04465 6.32500
#
# Compressibility (1/GPa) = 0.02783258
#
# Stress axis : x y z
#
# Youngs Moduli (GPa) = 85.61064 28.57921 167.21112
#
# Poissons Ratio (x) = 0.15951 0.40989
# Poissons Ratio (y) = 0.47782 0.73187
# Poissons Ratio (z) = 0.20986 0.12509
#
# Static dielectric constant tensor:
#      x y z
#    x 1.804350 0.000000 0.000000 
#    y 0.000000 2.037940 0.000000 
#    z 0.000000 0.000000 1.837040 
# 
# From -- ./inp_files/29763.got.cif
#   From: 2010.05.17/outbox.cif.g08.bks.cpg/sg57_15_cif.got.tgz:29763.got - 2010.06.03 13:58:18.
