data_PCOD9440320
_publ_section_title
;
Structure prediction by ZEFSAII (Michael W. Deem and Ramdas Pophale) SiO2 
 PCOD9440320
Probable space group: P B C M
;
_chemical_formula_sum "Si O2"
_cell_formula_units_Z 32
_cell_length_a 12.121688
_cell_length_b 12.854566
_cell_length_c 9.937815
_cell_angle_alpha 90.000000
_cell_angle_beta 90.000000
_cell_angle_gamma 90.000000
_cell_volume 1548.500777
_symmetry_space_group_name_H-M "P B C M"
_symmetry_group_IT_number 57
_symmetry_cell_setting 'orthorhombic'
loop_
_space_group_symop_operation_xyz
x,y,z
-x,-y,1/2+z
x,1/2-y,-z
-x,1/2+y,1/2-z
-x,-y,-z
x,y,1/2-z
-x,1/2+y,z
x,1/2-y,1/2+z
loop_
_atom_site_type_symbol
_atom_site_label
_atom_site_fract_x
_atom_site_fract_y
_atom_site_fract_z
Si Si1 0.277549 0.250000 0.000000
Si Si2 0.072862 0.563139 0.250000
Si Si3 0.791509 0.369612 0.489753
Si Si4 0.393888 0.461535 0.915967
Si Si5 0.960072 0.133169 0.750000
Si Si6 0.877640 0.694475 0.250000
O O1 0.353822 0.147303 0.016074
O O2 0.194473 0.228533 0.123762
O O3 0.144032 0.598962 0.376249
O O4 0.067878 0.437944 0.250000
O O5 0.937135 0.581530 0.250000
O O6 0.750336 0.250000 0.500000
O O7 0.698257 0.451018 0.446378
O O8 0.885825 0.376064 0.379175
O O9 0.407040 0.450933 0.750000
O O10 0.500000 0.500000 0.000000
O O11 0.006174 0.248533 0.750000
#
# Coordination Sequence:
#
# PCOD9440320 Si02
#       6
#     4   4   8   8   4   4
#     4  12  26  50  74 112 154 190 252 310 366 458
#     4  12  24  40  70 109 150 202 242 287 362 437
#     4  12  24  47  71 111 151 191 249 305 366 446
#     4  12  30  53  81 109 143 197 253 323 388 439
#     4  12  22  42  68 105 150 196 240 291 356 439
#     4  12  22  42  72 110 152 198 236 292 366 438
#
# _framework density 20.665149
#
# number of rings (size 3 to 8) (size 9 to 14) (size 15 to 20)
#    0.000    0.000    5.000    5.250    5.250    0.000 
#    0.000    0.000    0.000    0.000    0.000    0.000 
#    0.000    0.000    0.000    0.000    0.000    0.000 
#
# Total GULP energy -178496.694654 kJ/mol
# GULP energy per Si atom -5578.021708 kJ/mol
# Density = 2.061811 g / cm^3
# Si number density = 20.665149 Si / 1000 Ang^3
#
#
#
# Elastic Constant Matrix: (Units=GPa)
#
#
# Indices 1 2 3 4 5 6 
#
# 1 94.7774 13.2069 12.6554 0.0000 0.0000 0.0000
# 2 13.2069 90.6405 -16.7041 0.0000 0.0000 0.0000
# 3 12.6554 -16.7041 94.2056 0.0000 0.0000 0.0000
# 4 0.0000 0.0000 0.0000 61.7901 0.0000 0.0000
# 5 0.0000 0.0000 0.0000 0.0000 115.9858 0.0000
# 6 0.0000 0.0000 0.0000 0.0000 0.0000 30.9173
#
#
#
# Elastic Compliance Matrix: (Units=1/GPa)
#
#
# Indices 1 2 3 4 5 6 
#
# 1 0.011068 -0.001950 -0.001833 0.000000 0.000000 0.000000
# 2 -0.001950 0.011749 0.002345 0.000000 0.000000 0.000000
# 3 -0.001833 0.002345 0.011277 0.000000 0.000000 0.000000
# 4 0.000000 0.000000 0.000000 0.016184 0.000000 0.000000
# 5 0.000000 0.000000 0.000000 0.000000 0.008622 0.000000
# 6 0.000000 0.000000 0.000000 0.000000 0.000000 0.032344
#
#
# Mechanical properties :
#
#
# Convention : Reuss Voigt Hill
#
# Bulk Modulus (GPa) = 32.03253 33.10444 32.56848
# Shear Modulus (GPa) = 47.83543 59.76965 53.80254
#
# Velocity S-wave (km/s) = 4.81644 5.38384 5.10802
# Velocity P-wave (km/s) = 6.81654 7.39607 7.11221
#
# Compressibility (1/GPa) = 0.03121827
#
# Stress axis : x y z
#
# Youngs Moduli (GPa) = 90.35447 85.11373 88.67513
#
# Poissons Ratio (x) = 0.16600 0.16251
# Poissons Ratio (y) = 0.17622 -0.20797
# Poissons Ratio (z) = 0.16558 -0.19962
#
# Static dielectric constant tensor:
#      x y z
#    x 1.759020 0.000000 0.000000 
#    y 0.000000 1.774540 0.000000 
#    z 0.000000 0.000000 1.700870 
# 
# From -- ./inp_files/2454.got.cif
#   From: 2010.05.17/outbox.cif.g08.bks.cpg/sg57_2_cif.got.tgz:2454.got - 2010.06.03 13:58:18.
