data_PCOD9440677
_publ_section_title
;
Structure prediction by ZEFSAII (Michael W. Deem and Ramdas Pophale) SiO2 
 PCOD9440677
Probable space group: P N N M
;
_chemical_formula_sum "Si O2"
_cell_formula_units_Z 56
_cell_length_a 12.079487
_cell_length_b 13.080334
_cell_length_c 14.648675
_cell_angle_alpha 90.000000
_cell_angle_beta 90.000000
_cell_angle_gamma 90.000000
_cell_volume 2314.545209
_symmetry_space_group_name_H-M "P N N M"
_symmetry_group_IT_number 58
_symmetry_cell_setting 'orthorhombic'
loop_
_space_group_symop_operation_xyz
x,y,z
-x,-y,z
1/2+x,1/2-y,1/2-z
1/2-x,1/2+y,1/2-z
-x,-y,-z
x,y,-z
1/2-x,1/2+y,1/2+z
1/2+x,1/2-y,1/2+z
loop_
_atom_site_type_symbol
_atom_site_label
_atom_site_fract_x
_atom_site_fract_y
_atom_site_fract_z
Si Si1 0.765356 0.306912 0.104653
Si Si2 0.572527 0.215069 0.213496
Si Si3 0.623311 0.502124 0.126020
Si Si4 0.633261 0.902568 0.781189
Si Si5 0.338321 0.477963 0.336488
Si Si6 0.526761 0.332138 0.603033
Si Si7 0.374323 0.280079 0.897308
O O1 0.689239 0.225951 0.161859
O O2 0.687047 0.404957 0.093345
O O3 0.849707 0.359942 0.177598
O O4 0.794927 0.276685 0.000000
O O5 0.499178 0.111267 0.204891
O O6 0.568111 0.256242 0.317084
O O7 0.489360 0.290584 0.157772
O O8 0.500000 0.500000 0.090578
O O9 0.619344 0.501657 0.234808
O O10 0.681054 0.609860 0.103123
O O11 0.707362 0.997444 0.817376
O O12 0.683314 0.809937 0.842803
O O13 0.394041 0.568410 0.394704
O O14 0.401845 0.374942 0.371273
O O15 0.529374 0.290307 0.500000
O O16 0.396341 0.247214 0.000000
#
# Coordination Sequence:
#
# PCOD9440677 Si02
#       7
#     8   8   8   8   8   8   8
#     4  11  20  33  54  76 103 141 175 215 265 312
#     4  10  19  35  45  77 107 134 177 216 256 315
#     4  11  15  27  51  74 104 128 164 218 257 310
#     4   9  21  31  48  71 109 140 169 213 256 320
#     4  10  15  32  44  73 103 131 171 208 257 316
#     4  11  19  29  50  71 101 140 170 213 266 313
#     4  10  19  30  46  70 103 138 166 204 261 315
#
# _framework density 24.194818000000001
#
# number of rings (size 3 to 8) (size 9 to 14) (size 15 to 20)
#    0.857    0.857    7.143    1.714    0.000    2.286 
#    0.000    0.000    0.000    0.000    0.000    9.000 
#    0.000   17.143    0.000    0.000    0.000    0.000 
#
# Total GULP energy -311740.190318 kJ/mol
# GULP energy per Si atom -5566.789113 kJ/mol
# Density = 2.413975 g / cm^3
# Si number density = 24.194818 Si / 1000 Ang^3
#
#
#
# Elastic Constant Matrix: (Units=GPa)
#
#
# Indices 1 2 3 4 5 6 
#
# 1 109.7470 2.7145 8.5480 0.0000 0.0000 0.0000
# 2 2.7145 63.9934 15.5288 0.0000 0.0000 0.0000
# 3 8.5480 15.5288 205.7642 0.0000 0.0000 0.0000
# 4 0.0000 0.0000 0.0000 11.4889 0.0000 0.0000
# 5 0.0000 0.0000 0.0000 0.0000 -6.6135 0.0000
# 6 0.0000 0.0000 0.0000 0.0000 0.0000 28.4758
#
#
#
# Elastic Compliance Matrix: (Units=1/GPa)
#
#
# Indices 1 2 3 4 5 6 
#
# 1 0.009147 -0.000301 -0.000357 0.000000 0.000000 0.000000
# 2 -0.000301 0.015928 -0.001190 0.000000 0.000000 0.000000
# 3 -0.000357 -0.001190 0.004965 0.000000 0.000000 0.000000
# 4 0.000000 0.000000 0.000000 0.087040 0.000000 0.000000
# 5 0.000000 0.000000 0.000000 0.000000 -0.151206 0.000000
# 6 0.000000 0.000000 0.000000 0.000000 0.000000 0.035117
#
#
# Mechanical properties :
#
#
# Convention : Reuss Voigt Hill
#
# Bulk Modulus (GPa) = 37.96005 48.12081 43.04043
# Shear Modulus (GPa) = 371.21926 30.18448 200.70187
#
# Velocity S-wave (km/s) = 12.40009 3.53591 9.11770
# Velocity P-wave (km/s) = 14.85732 6.04998 11.34333
#
# Compressibility (1/GPa) = 0.02634348
#
# Stress axis : x y z
#
# Youngs Moduli (GPa) = 109.32376 62.78236 201.42828
#
# Poissons Ratio (x) = 0.01892 0.07196
# Poissons Ratio (y) = 0.03294 0.23961
# Poissons Ratio (z) = 0.03906 0.07468
#
# Static dielectric constant tensor:
#      x y z
#    x 1.939350 0.000000 0.000000 
#    y 0.000000 2.020620 0.000000 
#    z 0.000000 0.000000 1.917320 
# 
# From -- ./inp_files/22405.got.cif
#   From: 2010.05.17/outbox.cif.g08.bks.cpg/sg58_12_cif.got.tgz:22405.got - 2010.06.03 14:20:14.
