data_PCOD9440675
_publ_section_title
;
Structure prediction by ZEFSAII (Michael W. Deem and Ramdas Pophale) SiO2 
 PCOD9440675
Probable space group: P N N M
;
_chemical_formula_sum "Si O2"
_cell_formula_units_Z 44
_cell_length_a 19.420902
_cell_length_b 7.322992
_cell_length_c 15.217907
_cell_angle_alpha 90.000000
_cell_angle_beta 90.000000
_cell_angle_gamma 90.000000
_cell_volume 2164.277189
_symmetry_space_group_name_H-M "P N N M"
_symmetry_group_IT_number 58
_symmetry_cell_setting 'orthorhombic'
loop_
_space_group_symop_operation_xyz
x,y,z
-x,-y,z
1/2+x,1/2-y,1/2-z
1/2-x,1/2+y,1/2-z
-x,-y,-z
x,y,-z
1/2-x,1/2+y,1/2+z
1/2+x,1/2-y,1/2+z
loop_
_atom_site_type_symbol
_atom_site_label
_atom_site_fract_x
_atom_site_fract_y
_atom_site_fract_z
Si Si1 0.327108 0.482206 0.692172
Si Si2 0.047394 0.747059 0.602889
Si Si3 0.674007 0.470203 0.500000
Si Si4 0.701335 0.235363 0.000000
Si Si5 0.314387 0.181689 0.832966
Si Si6 0.747605 0.122645 0.500000
Si Si7 0.902931 0.841264 0.652273
O O1 0.355675 0.470651 0.593409
O O2 0.327243 0.293895 0.744223
O O3 0.247550 0.544224 0.684946
O O4 0.368125 0.624975 0.753410
O O5 0.034860 0.718700 0.500000
O O6 0.110329 0.622118 0.634980
O O7 0.974977 0.734222 0.652144
O O8 0.074834 0.955534 0.617337
O O9 0.752631 0.553910 0.500000
O O10 0.680599 0.250358 0.500000
O O11 0.652382 0.261800 0.915975
O O12 0.754714 0.405530 0.000000
O O13 0.286920 0.313987 0.911442
#
# Coordination Sequence:
#
# PCOD9440675 Si02
#       7
#     8   8   4   4   8   4   8
#     4  10  20  32  47  74 104 141 175 217 262 313
#     4  10  15  28  51  84 104 130 178 222 274 333
#     4  10  24  32  47  74 113 136 181 227 251 311
#     4  12  16  32  54  76 105 138 169 219 272 326
#     4  10  18  32  52  74 106 138 173 220 271 320
#     4  10  18  33  50  77 102 138 171 214 275 317
#     4  10  17  27  53  80 100 138 179 213 267 329
#
# _framework density 20.330113000000001
#
# number of rings (size 3 to 8) (size 9 to 14) (size 15 to 20)
#    0.000    1.818    6.364    1.636    0.000    0.000 
#    0.000    0.000    0.000   22.909    0.000    0.000 
#    0.000    4.364    0.000    0.000    0.000    0.000 
#
# Total GULP energy -245598.416284 kJ/mol
# GULP energy per Si atom -5581.782188 kJ/mol
# Density = 2.028384 g / cm^3
# Si number density = 20.330113 Si / 1000 Ang^3
#
#
#
# Elastic Constant Matrix: (Units=GPa)
#
#
# Indices 1 2 3 4 5 6 
#
# 1 68.3642 12.4626 17.9522 0.0000 0.0000 0.0000
# 2 12.4626 55.4260 8.9991 0.0000 0.0000 0.0000
# 3 17.9522 8.9991 159.7942 0.0000 0.0000 0.0000
# 4 0.0000 0.0000 0.0000 7.5261 0.0000 0.0000
# 5 0.0000 0.0000 0.0000 0.0000 22.9655 0.0000
# 6 0.0000 0.0000 0.0000 0.0000 0.0000 17.9494
#
#
#
# Elastic Compliance Matrix: (Units=1/GPa)
#
#
# Indices 1 2 3 4 5 6 
#
# 1 0.015635 -0.003260 -0.001573 0.000000 0.000000 0.000000
# 2 -0.003260 0.018888 -0.000697 0.000000 0.000000 0.000000
# 3 -0.001573 -0.000697 0.006474 0.000000 0.000000 0.000000
# 4 0.000000 0.000000 0.000000 0.132871 0.000000 0.000000
# 5 0.000000 0.000000 0.000000 0.000000 0.043544 0.000000
# 6 0.000000 0.000000 0.000000 0.000000 0.000000 0.055712
#
#
# Mechanical properties :
#
#
# Convention : Reuss Voigt Hill
#
# Bulk Modulus (GPa) = 33.40431 40.26801 36.83616
# Shear Modulus (GPa) = 16.99736 25.96625 21.48181
#
# Velocity S-wave (km/s) = 2.89462 3.57771 3.25414
# Velocity P-wave (km/s) = 5.25722 6.07592 5.68134
#
# Compressibility (1/GPa) = 0.02993626
#
# Stress axis : x y z
#
# Youngs Moduli (GPa) = 63.95948 52.94261 154.46310
#
# Poissons Ratio (x) = 0.17260 0.24296
# Poissons Ratio (y) = 0.20852 0.10773
# Poissons Ratio (z) = 0.10060 0.03693
#
# Static dielectric constant tensor:
#      x y z
#    x 1.735690 0.000000 0.000000 
#    y 0.000000 1.825670 0.000000 
#    z 0.000000 0.000000 1.729930 
# 
# From -- ./inp_files/22721.got.cif
#   From: 2010.05.17/outbox.cif.g08.bks.cpg/sg58_12_cif.got.tgz:22721.got - 2010.06.03 14:20:14.
