data_PCOD9440315
_publ_section_title
;
Structure prediction by ZEFSAII (Michael W. Deem and Ramdas Pophale) SiO2 
 PCOD9440315
Probable space group: P B C M
;
_chemical_formula_sum "Si O2"
_cell_formula_units_Z 52
_cell_length_a 14.872152
_cell_length_b 9.268557
_cell_length_c 20.433111
_cell_angle_alpha 90.000000
_cell_angle_beta 90.000000
_cell_angle_gamma 90.000000
_cell_volume 2816.569258
_symmetry_space_group_name_H-M "P B C M"
_symmetry_group_IT_number 57
_symmetry_cell_setting 'orthorhombic'
loop_
_space_group_symop_operation_xyz
x,y,z
-x,-y,1/2+z
x,1/2-y,-z
-x,1/2+y,1/2-z
-x,-y,-z
x,y,1/2-z
-x,1/2+y,z
x,1/2-y,1/2+z
loop_
_atom_site_type_symbol
_atom_site_label
_atom_site_fract_x
_atom_site_fract_y
_atom_site_fract_z
Si Si1 0.524254 0.217498 0.323886
Si Si2 0.622571 0.571505 0.650354
Si Si3 0.193182 0.674890 0.821301
Si Si4 0.933435 0.141295 0.250000
Si Si5 0.778975 0.911872 0.250000
Si Si6 0.336330 0.668693 0.570070
Si Si7 0.596283 0.920876 0.003091
Si Si8 0.854809 0.904727 0.750000
O O1 0.548548 0.263484 0.250000
O O2 0.422964 0.273527 0.335097
O O3 0.581226 0.287774 0.382708
O O4 0.548577 0.048505 0.328679
O O5 0.714425 0.551389 0.689121
O O6 0.637768 0.550021 0.573995
O O7 0.239930 0.714033 0.750000
O O8 0.101334 0.764411 0.812166
O O9 0.250525 0.703304 0.884983
O O10 0.172134 0.506371 0.811296
O O11 0.038385 0.116531 0.250000
O O12 0.871714 0.999394 0.250000
O O13 0.803155 0.744222 0.250000
O O14 0.338802 0.750000 0.500000
O O15 0.345608 0.499772 0.552231
O O16 0.584846 0.750000 0.000000
O O17 0.500000 0.000000 0.000000
#
# Coordination Sequence:
#
# PCOD9440315 Si02
#       8
#     8   8   8   4   4   8   8   4
#     4  12  23  40  55  83 124 169 215 260 306 347
#     4  12  25  38  56  87 119 168 211 256 301 351
#     4   8  21  38  63  96 119 151 205 251 310 370
#     4   9  19  41  67  93 122 146 189 252 323 393
#     4  12  22  36  62  94 118 144 202 256 310 372
#     4  12  23  39  62  83 123 169 216 257 299 357
#     4  12  25  40  57  80 120 174 218 249 297 356
#     4   9  21  39  67  95 118 152 187 258 331 391
#
# _framework density 18.462177000000001
#
# number of rings (size 3 to 8) (size 9 to 14) (size 15 to 20)
#    0.923    0.000    4.615    3.692    2.154    0.000 
#    0.000    0.000    0.000    0.923    0.000    0.000 
#    0.000    0.000    0.000    0.000    0.000    0.000 
#
# Total GULP energy -289950.201140 kJ/mol
# GULP energy per Si atom -5575.965407 kJ/mol
# Density = 1.842016 g / cm^3
# Si number density = 18.462177 Si / 1000 Ang^3
#
#
#
# Elastic Constant Matrix: (Units=GPa)
#
#
# Indices 1 2 3 4 5 6 
#
# 1 57.9455 4.8602 33.4528 0.0000 0.0000 0.0000
# 2 4.8602 96.5514 21.6888 0.0000 0.0000 0.0000
# 3 33.4528 21.6888 136.2882 0.0000 0.0000 0.0000
# 4 0.0000 0.0000 0.0000 21.5354 0.0000 0.0000
# 5 0.0000 0.0000 0.0000 0.0000 6.6179 0.0000
# 6 0.0000 0.0000 0.0000 0.0000 0.0000 21.1256
#
#
#
# Elastic Compliance Matrix: (Units=1/GPa)
#
#
# Indices 1 2 3 4 5 6 
#
# 1 0.020108 0.000100 -0.004952 0.000000 0.000000 0.000000
# 2 0.000100 0.010742 -0.001734 0.000000 0.000000 0.000000
# 3 -0.004952 -0.001734 0.008829 0.000000 0.000000 0.000000
# 4 0.000000 0.000000 0.000000 0.046435 0.000000 0.000000
# 5 0.000000 0.000000 0.000000 0.000000 0.151106 0.000000
# 6 0.000000 0.000000 0.000000 0.000000 0.000000 0.047336
#
#
# Mechanical properties :
#
#
# Convention : Reuss Voigt Hill
#
# Bulk Modulus (GPa) = 37.72540 45.64320 41.68430
# Shear Modulus (GPa) = 16.30992 25.24133 20.77563
#
# Velocity S-wave (km/s) = 2.97547 3.70157 3.35820
# Velocity P-wave (km/s) = 5.68180 6.56087 6.13709
#
# Compressibility (1/GPa) = 0.02650734
#
# Stress axis : x y z
#
# Youngs Moduli (GPa) = 49.73195 93.09558 113.26671
#
# Poissons Ratio (x) = -0.00932 0.56084
# Poissons Ratio (y) = -0.00498 0.19640
# Poissons Ratio (z) = 0.24625 0.16143
#
# Static dielectric constant tensor:
#      x y z
#    x 1.618460 0.000000 0.000000 
#    y 0.000000 1.722210 0.000000 
#    z 0.000000 0.000000 1.647290 
# 
# From -- ./inp_files/25356.got.cif
#   From: 2010.05.17/outbox.cif.g08.bks.cpg/sg57_13_cif.got.tgz:25356.got - 2010.06.03 13:58:18.
