data_PCOD9440099
_publ_section_title
;
Structure prediction by ZEFSAII (Michael W. Deem and Ramdas Pophale) SiO2 
 PCOD9440099
Probable space group: P B C M
;
_chemical_formula_sum "Si O2"
_cell_formula_units_Z 40
_cell_length_a 26.274629
_cell_length_b 9.199728
_cell_length_c 8.631383
_cell_angle_alpha 90.000000
_cell_angle_beta 90.000000
_cell_angle_gamma 90.000000
_cell_volume 2086.373066
_symmetry_space_group_name_H-M "P B C M"
_symmetry_group_IT_number 57
_symmetry_cell_setting 'orthorhombic'
loop_
_space_group_symop_operation_xyz
x,y,z
-x,-y,1/2+z
x,1/2-y,-z
-x,1/2+y,1/2-z
-x,-y,-z
x,y,1/2-z
-x,1/2+y,z
x,1/2-y,1/2+z
loop_
_atom_site_type_symbol
_atom_site_label
_atom_site_fract_x
_atom_site_fract_y
_atom_site_fract_z
Si Si1 0.344135 0.413827 0.435240
Si Si2 0.452013 0.086657 0.064514
Si Si3 0.951441 0.086521 0.435297
Si Si4 0.145212 0.086744 0.064222
Si Si5 0.248371 0.587839 0.564295
O O1 0.337015 0.250000 0.500000
O O2 0.346841 0.407660 0.250000
O O3 0.397801 0.470683 0.502393
O O4 0.297553 0.512123 0.490280
O O5 0.451900 0.087036 0.250000
O O6 0.455606 0.250000 0.000000
O O7 0.500000 0.000000 0.000000
O O8 0.951517 0.250000 0.500000
O O9 0.953418 0.090000 0.250000
O O10 0.900929 0.003559 0.491002
O O11 0.000000 0.000000 0.500000
O O12 0.139146 0.089756 0.250000
O O13 0.198371 0.007134 0.027633
O O14 0.145327 0.250000 0.000000
O O15 0.242167 0.750000 0.500000
O O16 0.254101 0.592059 0.750000
#
# Coordination Sequence:
#
# PCOD9440099 Si02
#       5
#     8   8   8   8   8
#     4  11  22  39  62  88 119 157 200 246 298 357
#     4  11  22  39  61  88 120 156 199 246 299 357
#     4  12  25  43  66  93 127 164 206 253 305 360
#     4  11  24  42  65  93 125 162 205 250 302 360
#     4  11  24  41  62  90 123 159 200 249 302 358
#
# _framework density 19.172027
#
# number of rings (size 3 to 8) (size 9 to 14) (size 15 to 20)
#    0.000    0.800    0.000    9.600    0.000    7.200 
#    0.000    4.000    0.000    0.000    0.000    0.000 
#    0.000    0.000    0.000    0.000    0.000    0.000 
#
# Total GULP energy -223920.163201 kJ/mol
# GULP energy per Si atom -5598.004080 kJ/mol
# Density = 1.912839 g / cm^3
# Si number density = 19.172027 Si / 1000 Ang^3
#
#
#
# Elastic Constant Matrix: (Units=GPa)
#
#
# Indices 1 2 3 4 5 6 
#
# 1 203.9921 110.8159 114.4177 0.0000 0.0000 0.0000
# 2 110.8159 158.5272 82.5268 0.0000 0.0000 0.0000
# 3 114.4177 82.5268 187.3923 0.0000 0.0000 0.0000
# 4 0.0000 0.0000 0.0000 38.5692 0.0000 0.0000
# 5 0.0000 0.0000 0.0000 0.0000 33.3399 0.0000
# 6 0.0000 0.0000 0.0000 0.0000 0.0000 38.0617
#
#
#
# Elastic Compliance Matrix: (Units=1/GPa)
#
#
# Indices 1 2 3 4 5 6 
#
# 1 0.009593 -0.004744 -0.003768 0.000000 0.000000 0.000000
# 2 -0.004744 0.010531 -0.001741 0.000000 0.000000 0.000000
# 3 -0.003768 -0.001741 0.008404 0.000000 0.000000 0.000000
# 4 0.000000 0.000000 0.000000 0.025927 0.000000 0.000000
# 5 0.000000 0.000000 0.000000 0.000000 0.029994 0.000000
# 6 0.000000 0.000000 0.000000 0.000000 0.000000 0.026273
#
#
# Mechanical properties :
#
#
# Convention : Reuss Voigt Hill
#
# Bulk Modulus (GPa) = 124.67000 129.49251 127.08125
# Shear Modulus (GPa) = 37.34096 38.13759 37.73928
#
# Velocity S-wave (km/s) = 4.41804 4.46492 4.44154
# Velocity P-wave (km/s) = 9.54954 9.70926 9.62973
#
# Compressibility (1/GPa) = 0.00802118
#
# Stress axis : x y z
#
# Youngs Moduli (GPa) = 104.24646 94.96013 118.99597
#
# Poissons Ratio (x) = 0.45051 0.44835
# Poissons Ratio (y) = 0.49456 0.20717
# Poissons Ratio (z) = 0.39278 0.16533
#
# Static dielectric constant tensor:
#      x y z
#    x 1.650260 0.000000 0.000000 
#    y 0.000000 1.624100 0.000000 
#    z 0.000000 0.000000 1.639690 
# 
# From -- ./inp_files/8917.got.cif
#   From: 2010.05.17/outbox.cif.g08.bks.cpg/sg57_5_cif.got.tgz:8917.got - 2010.06.03 13:58:18.
