data_PCOD9440898
_publ_section_title
;
Structure prediction by ZEFSAII (Michael W. Deem and Ramdas Pophale) SiO2 
 PCOD9440898
Probable space group: P N N M
;
_chemical_formula_sum "Si O2"
_cell_formula_units_Z 56
_cell_length_a 18.791715
_cell_length_b 6.970304
_cell_length_c 21.644617
_cell_angle_alpha 90.000000
_cell_angle_beta 90.000000
_cell_angle_gamma 90.000000
_cell_volume 2835.097782
_symmetry_space_group_name_H-M "P N N M"
_symmetry_group_IT_number 58
_symmetry_cell_setting 'orthorhombic'
loop_
_space_group_symop_operation_xyz
x,y,z
-x,-y,z
1/2+x,1/2-y,1/2-z
1/2-x,1/2+y,1/2-z
-x,-y,-z
x,y,-z
1/2-x,1/2+y,1/2+z
1/2+x,1/2-y,1/2+z
loop_
_atom_site_type_symbol
_atom_site_label
_atom_site_fract_x
_atom_site_fract_y
_atom_site_fract_z
Si Si1 0.128667 0.769068 0.655188
Si Si2 0.418308 0.243885 0.292174
Si Si3 0.774471 0.286747 0.838574
Si Si4 0.073176 0.284009 0.226845
Si Si5 0.155555 0.144502 0.571673
Si Si6 0.726269 0.229317 0.299367
Si Si7 0.021758 0.225991 0.634269
O O1 0.105301 0.829254 0.725373
O O2 0.205572 0.671550 0.667789
O O3 0.055310 0.670083 0.632525
O O4 0.144234 0.943983 0.608737
O O5 0.356332 0.279044 0.341463
O O6 0.500524 0.287861 0.304695
O O7 0.419245 0.013132 0.281190
O O8 0.721390 0.251948 0.894675
O O9 0.744313 0.212335 0.773205
O O10 0.775801 0.517275 0.828268
O O11 0.145752 0.194471 0.200608
O O12 0.059740 0.255520 0.299711
O O13 0.168637 0.112507 0.500000
O O14 0.081400 0.255336 0.582856
O O15 0.000000 0.000000 0.631035
#
# Coordination Sequence:
#
# PCOD9440898 Si02
#       7
#     8   8   8   8   8   8   8
#     4   8  16  26  37  58  81 105 142 175 206 247
#     4   8  15  25  41  61  82 105 138 174 223 261
#     4   9  16  27  41  63  84 108 141 177 216 256
#     4   9  14  24  41  61  81 109 134 170 220 264
#     4  10  18  27  41  60  85 118 149 173 203 248
#     4   9  15  25  42  61  84 107 137 176 221 254
#     4   9  16  25  37  56  84 111 139 172 200 241
#
# _framework density 19.752406000000001
#
# number of rings (size 3 to 8) (size 9 to 14) (size 15 to 20)
#    0.000    3.143    1.429    0.000    0.000    2.571 
#    0.000    0.000    0.000    0.857    0.000   25.000 
#    0.000    0.000    0.000    1.286    0.286    5.143 
#
# Total GULP energy -311778.427587 kJ/mol
# GULP energy per Si atom -5567.471921 kJ/mol
# Density = 1.970745 g / cm^3
# Si number density = 19.752406 Si / 1000 Ang^3
#
#
#
# Elastic Constant Matrix: (Units=GPa)
#
#
# Indices 1 2 3 4 5 6 
#
# 1 223.6553 5.8943 71.6330 0.0000 0.0000 0.0000
# 2 5.8943 66.1902 12.9684 0.0000 0.0000 0.0000
# 3 71.6330 12.9684 73.5530 0.0000 0.0000 0.0000
# 4 0.0000 0.0000 0.0000 15.7404 0.0000 0.0000
# 5 0.0000 0.0000 0.0000 0.0000 16.4840 0.0000
# 6 0.0000 0.0000 0.0000 0.0000 0.0000 6.3689
#
#
#
# Elastic Compliance Matrix: (Units=1/GPa)
#
#
# Indices 1 2 3 4 5 6 
#
# 1 0.006528 0.000688 -0.006479 0.000000 0.000000 0.000000
# 2 0.000688 0.015721 -0.003442 0.000000 0.000000 0.000000
# 3 -0.006479 -0.003442 0.020512 0.000000 0.000000 0.000000
# 4 0.000000 0.000000 0.000000 0.063531 0.000000 0.000000
# 5 0.000000 0.000000 0.000000 0.000000 0.060665 0.000000
# 6 0.000000 0.000000 0.000000 0.000000 0.000000 0.157013
#
#
# Mechanical properties :
#
#
# Convention : Reuss Voigt Hill
#
# Bulk Modulus (GPa) = 41.15939 60.48777 50.82358
# Shear Modulus (GPa) = 14.26393 25.91218 20.08805
#
# Velocity S-wave (km/s) = 2.69017 3.62588 3.19249
# Velocity P-wave (km/s) = 5.52560 6.94397 6.27499
#
# Compressibility (1/GPa) = 0.02429579
#
# Stress axis : x y z
#
# Youngs Moduli (GPa) = 153.18218 63.60885 48.75084
#
# Poissons Ratio (x) = -0.04377 0.31586
# Poissons Ratio (y) = -0.10540 0.16780
# Poissons Ratio (z) = 0.99248 0.21894
#
# Static dielectric constant tensor:
#      x y z
#    x 1.827080 0.000000 0.000000 
#    y 0.000000 1.788480 0.000000 
#    z 0.000000 0.000000 1.609040 
# 
# From -- ./inp_files/30424.got.cif
#   From: 2010.05.17/outbox.cif.g08.bks.cpg/sg58_16_cif.got.tgz:30424.got - 2010.06.03 14:20:14.
