data_PCOD9440264
_publ_section_title
;
Structure prediction by ZEFSAII (Michael W. Deem and Ramdas Pophale) SiO2 
 PCOD9440264
Probable space group: P B C M
;
_chemical_formula_sum "Si O2"
_cell_formula_units_Z 32
_cell_length_a 6.227509
_cell_length_b 10.374832
_cell_length_c 22.107339
_cell_angle_alpha 90.000000
_cell_angle_beta 90.000000
_cell_angle_gamma 90.000000
_cell_volume 1428.341016
_symmetry_space_group_name_H-M "P B C M"
_symmetry_group_IT_number 57
_symmetry_cell_setting 'orthorhombic'
loop_
_space_group_symop_operation_xyz
x,y,z
-x,-y,1/2+z
x,1/2-y,-z
-x,1/2+y,1/2-z
-x,-y,-z
x,y,1/2-z
-x,1/2+y,z
x,1/2-y,1/2+z
loop_
_atom_site_type_symbol
_atom_site_label
_atom_site_fract_x
_atom_site_fract_y
_atom_site_fract_z
Si Si1 0.483359 0.621178 0.083920
Si Si2 0.160351 0.060049 0.178327
Si Si3 0.898882 0.282624 0.117850
Si Si4 0.192293 0.086817 0.973322
O O1 0.624488 0.604252 0.143670
O O2 0.331257 0.745620 0.089663
O O3 0.325067 0.501100 0.073384
O O4 0.640872 0.619552 0.026320
O O5 0.184124 0.059153 0.250000
O O6 0.980516 0.163810 0.158303
O O7 0.110868 0.916649 0.153858
O O8 0.069147 0.303856 0.064123
O O9 0.000000 0.000000 0.000000
#
# Coordination Sequence:
#
# PCOD9440264 Si02
#       4
#     8   8   8   8
#     4  11  26  48  77 114 154 203 253 313 396 467
#     4  12  29  51  77 108 154 210 265 322 379 462
#     4  12  26  52  76 117 154 202 260 320 399 461
#     4  11  24  49  76 114 158 194 251 322 394 468
#
# _framework density 22.403614000000001
#
# number of rings (size 3 to 8) (size 9 to 14) (size 15 to 20)
#    0.000    0.500    5.000    0.750    3.500    8.000 
#    0.000    0.000    0.000    0.000    0.000    0.000 
#    0.000    0.000    0.000    0.000    0.000    0.000 
#
# Total GULP energy -179360.137732 kJ/mol
# GULP energy per Si atom -5605.004304 kJ/mol
# Density = 2.235262 g / cm^3
# Si number density = 22.403614 Si / 1000 Ang^3
#
#
#
# Elastic Constant Matrix: (Units=GPa)
#
#
# Indices 1 2 3 4 5 6 
#
# 1 133.1812 63.3327 67.4188 0.0000 0.0000 0.0000
# 2 63.3327 145.7619 57.4184 0.0000 0.0000 0.0000
# 3 67.4188 57.4184 165.7929 0.0000 0.0000 0.0000
# 4 0.0000 0.0000 0.0000 30.2522 0.0000 0.0000
# 5 0.0000 0.0000 0.0000 0.0000 33.3380 0.0000
# 6 0.0000 0.0000 0.0000 0.0000 0.0000 68.0331
#
#
#
# Elastic Compliance Matrix: (Units=1/GPa)
#
#
# Indices 1 2 3 4 5 6 
#
# 1 0.010745 -0.003413 -0.003187 0.000000 0.000000 0.000000
# 2 -0.003413 0.009028 -0.001739 0.000000 0.000000 0.000000
# 3 -0.003187 -0.001739 0.007930 0.000000 0.000000 0.000000
# 4 0.000000 0.000000 0.000000 0.033055 0.000000 0.000000
# 5 0.000000 0.000000 0.000000 0.000000 0.029996 0.000000
# 6 0.000000 0.000000 0.000000 0.000000 0.000000 0.014699
#
#
# Mechanical properties :
#
#
# Convention : Reuss Voigt Hill
#
# Bulk Modulus (GPa) = 90.70457 91.23065 90.96761
# Shear Modulus (GPa) = 39.74332 43.42906 41.58619
#
# Velocity S-wave (km/s) = 4.21642 4.40760 4.31307
# Velocity P-wave (km/s) = 8.01740 8.16776 8.09293
#
# Compressibility (1/GPa) = 0.01102480
#
# Stress axis : x y z
#
# Youngs Moduli (GPa) = 93.06508 110.76080 126.10382
#
# Poissons Ratio (x) = 0.37804 0.40194
# Poissons Ratio (y) = 0.31764 0.21928
# Poissons Ratio (z) = 0.29664 0.19260
#
# Static dielectric constant tensor:
#      x y z
#    x 1.833090 0.000000 0.000000 
#    y 0.000000 1.926580 0.000000 
#    z 0.000000 0.000000 1.782980 
# 
# From -- ./inp_files/23338.got.cif
#   From: 2010.05.17/outbox.cif.g08.bks.cpg/sg57_12_cif.got.tgz:23338.got - 2010.06.03 13:58:18.
