data_PCOD9440076
_publ_section_title
;
Structure prediction by ZEFSAII (Michael W. Deem and Ramdas Pophale) SiO2 
 PCOD9440076
Probable space group: P B C M
;
_chemical_formula_sum "Si O2"
_cell_formula_units_Z 48
_cell_length_a 15.385174
_cell_length_b 19.696867
_cell_length_c 8.690359
_cell_angle_alpha 90.000000
_cell_angle_beta 90.000000
_cell_angle_gamma 90.000000
_cell_volume 2633.524011
_symmetry_space_group_name_H-M "P B C M"
_symmetry_group_IT_number 57
_symmetry_cell_setting 'orthorhombic'
loop_
_space_group_symop_operation_xyz
x,y,z
-x,-y,1/2+z
x,1/2-y,-z
-x,1/2+y,1/2-z
-x,-y,-z
x,y,1/2-z
-x,1/2+y,z
x,1/2-y,1/2+z
loop_
_atom_site_type_symbol
_atom_site_label
_atom_site_fract_x
_atom_site_fract_y
_atom_site_fract_z
Si Si1 0.540285 0.569520 0.065765
Si Si2 0.868997 0.675868 0.564343
Si Si3 0.611363 0.174383 0.065492
Si Si4 0.770135 0.413603 0.435032
Si Si5 0.731191 0.562079 0.934961
Si Si6 0.067708 0.824147 0.435414
O O1 0.546041 0.563656 0.250000
O O2 0.474796 0.630833 0.028266
O O3 0.500000 0.500000 0.000000
O O4 0.635617 0.579401 0.996771
O O5 0.846379 0.750000 0.500000
O O6 0.867716 0.678881 0.750000
O O7 0.801409 0.618346 0.515380
O O8 0.968572 0.660413 0.516145
O O9 0.620617 0.176430 0.250000
O O10 0.606666 0.250000 0.000000
O O11 0.692942 0.134433 0.994711
O O12 0.766672 0.416913 0.250000
O O13 0.757230 0.488230 0.502905
O O14 0.861540 0.379653 0.482582
O O15 0.728921 0.559900 0.750000
O O16 0.091064 0.750000 0.500000
O O17 0.069091 0.820399 0.250000
#
# Coordination Sequence:
#
# PCOD9440076 Si02
#       6
#     8   8   8   8   8   8
#     4  11  23  40  62  85 114 153 194 237 288 346
#     4   9  20  39  60  83 115 152 194 243 291 344
#     4  11  24  40  60  87 118 152 192 238 290 347
#     4  11  22  36  58  86 118 154 194 241 290 348
#     4  11  23  38  59  86 117 154 193 239 293 348
#     4   9  19  36  57  83 114 152 194 238 291 344
#
# _framework density 18.226528999999999
#
# number of rings (size 3 to 8) (size 9 to 14) (size 15 to 20)
#    0.000    1.667    1.667    2.500    0.000    7.333 
#    0.000    3.333    0.000    0.000    0.000    0.000 
#    0.000    0.000    0.000    0.000    0.000    0.000 
#
# Total GULP energy -268200.443898 kJ/mol
# GULP energy per Si atom -5587.509248 kJ/mol
# Density = 1.818504 g / cm^3
# Si number density = 18.226529 Si / 1000 Ang^3
#
#
#
# Elastic Constant Matrix: (Units=GPa)
#
#
# Indices 1 2 3 4 5 6 
#
# 1 158.3946 120.3174 50.3962 0.0000 0.0000 0.0000
# 2 120.3174 179.5944 52.7576 0.0000 0.0000 0.0000
# 3 50.3962 52.7576 42.7547 0.0000 0.0000 0.0000
# 4 0.0000 0.0000 0.0000 33.5012 0.0000 0.0000
# 5 0.0000 0.0000 0.0000 0.0000 28.0271 0.0000
# 6 0.0000 0.0000 0.0000 0.0000 0.0000 37.3960
#
#
#
# Elastic Compliance Matrix: (Units=1/GPa)
#
#
# Indices 1 2 3 4 5 6 
#
# 1 0.014393 -0.007308 -0.007948 0.000000 0.000000 0.000000
# 2 -0.007308 0.012444 -0.006742 0.000000 0.000000 0.000000
# 3 -0.007948 -0.006742 0.041078 0.000000 0.000000 0.000000
# 4 0.000000 0.000000 0.000000 0.029850 0.000000 0.000000
# 5 0.000000 0.000000 0.000000 0.000000 0.035680 0.000000
# 6 0.000000 0.000000 0.000000 0.000000 0.000000 0.026741
#
#
# Mechanical properties :
#
#
# Convention : Reuss Voigt Hill
#
# Bulk Modulus (GPa) = 41.80768 91.96511 66.88640
# Shear Modulus (GPa) = 23.56775 30.26971 26.91873
#
# Velocity S-wave (km/s) = 3.59980 4.07965 3.84721
# Velocity P-wave (km/s) = 6.34552 8.52981 7.51742
#
# Compressibility (1/GPa) = 0.02391905
#
# Stress axis : x y z
#
# Youngs Moduli (GPa) = 69.47727 80.35778 24.34421
#
# Poissons Ratio (x) = 0.58723 0.19349
# Poissons Ratio (y) = 0.50772 0.16413
# Poissons Ratio (z) = 0.55223 0.54178
#
# Static dielectric constant tensor:
#      x y z
#    x 1.622540 0.000000 0.000000 
#    y 0.000000 1.583960 0.000000 
#    z 0.000000 0.000000 1.616410 
# 
# From -- ./inp_files/4599.got.cif
#   From: 2010.05.17/outbox.cif.g08.bks.cpg/sg57_3_cif.got.tgz:4599.got - 2010.06.03 13:58:18.
