data_PCOD9440778
_publ_section_title
;
Structure prediction by ZEFSAII (Michael W. Deem and Ramdas Pophale) SiO2 
 PCOD9440778
Probable space group: P N N M
;
_chemical_formula_sum "Si O2"
_cell_formula_units_Z 56
_cell_length_a 8.175155
_cell_length_b 17.992096
_cell_length_c 22.551536
_cell_angle_alpha 90.000000
_cell_angle_beta 90.000000
_cell_angle_gamma 90.000000
_cell_volume 3317.064242
_symmetry_space_group_name_H-M "P N N M"
_symmetry_group_IT_number 58
_symmetry_cell_setting 'orthorhombic'
loop_
_space_group_symop_operation_xyz
x,y,z
-x,-y,z
1/2+x,1/2-y,1/2-z
1/2-x,1/2+y,1/2-z
-x,-y,-z
x,y,-z
1/2-x,1/2+y,1/2+z
1/2+x,1/2-y,1/2+z
loop_
_atom_site_type_symbol
_atom_site_label
_atom_site_fract_x
_atom_site_fract_y
_atom_site_fract_z
Si Si1 0.222204 0.802859 0.312224
Si Si2 0.311090 0.488538 0.295342
Si Si3 0.851671 0.822363 0.650693
Si Si4 0.320455 0.537886 0.931439
Si Si5 0.690702 0.851361 0.779560
Si Si6 0.312928 0.834275 0.814278
Si Si7 0.342231 0.954107 0.327638
O O1 0.270008 0.716657 0.316854
O O2 0.199090 0.812691 0.241433
O O3 0.351343 0.865111 0.332132
O O4 0.048249 0.821360 0.341063
O O5 0.500000 0.500000 0.308231
O O6 0.224233 0.567161 0.304596
O O7 0.236373 0.418017 0.330021
O O8 0.287542 0.469371 0.225037
O O9 0.815616 0.881497 0.599728
O O10 0.764563 0.847588 0.712690
O O11 0.804570 0.735589 0.641778
O O12 0.500000 0.500000 0.928005
O O13 0.208705 0.486640 0.890267
O O14 0.272596 0.541364 0.000000
O O15 0.496766 0.836577 0.786806
O O16 0.500000 0.000000 0.307365
#
# Coordination Sequence:
#
# PCOD9440778 Si02
#       7
#     8   8   8   8   8   8   8
#     4   9  18  29  43  67  93 126 162 187 243 293
#     4  11  19  29  44  69 100 130 159 188 238 300
#     4  10  18  32  47  66  98 125 162 203 241 285
#     4  11  22  35  52  70  93 132 177 208 241 282
#     4  10  17  28  46  66  96 127 156 195 234 296
#     4   9  19  28  44  71  94 127 162 189 239 299
#     4  11  20  32  48  68  95 130 167 202 244 278
#
# _framework density 16.882400000000001
#
# number of rings (size 3 to 8) (size 9 to 14) (size 15 to 20)
#    0.000    1.857    2.857    4.286    0.000    1.429 
#    0.000    0.000    0.000    0.000    0.000    0.000 
#    0.000   10.857    0.000    0.000    0.000    0.571 
#
# Total GULP energy -311922.595906 kJ/mol
# GULP energy per Si atom -5570.046355 kJ/mol
# Density = 1.684397 g / cm^3
# Si number density = 16.882400 Si / 1000 Ang^3
#
#
#
# Elastic Constant Matrix: (Units=GPa)
#
#
# Indices 1 2 3 4 5 6 
#
# 1 33.3221 19.2254 8.1779 0.0000 0.0000 0.0000
# 2 19.2254 181.9236 38.9219 0.0000 0.0000 0.0000
# 3 8.1779 38.9219 49.9148 0.0000 0.0000 0.0000
# 4 0.0000 0.0000 0.0000 16.0048 0.0000 0.0000
# 5 0.0000 0.0000 0.0000 0.0000 9.5592 0.0000
# 6 0.0000 0.0000 0.0000 0.0000 0.0000 23.8060
#
#
#
# Elastic Compliance Matrix: (Units=1/GPa)
#
#
# Indices 1 2 3 4 5 6 
#
# 1 0.032370 -0.002744 -0.003164 0.000000 0.000000 0.000000
# 2 -0.002744 0.006830 -0.004876 0.000000 0.000000 0.000000
# 3 -0.003164 -0.004876 0.024355 0.000000 0.000000 0.000000
# 4 0.000000 0.000000 0.000000 0.062481 0.000000 0.000000
# 5 0.000000 0.000000 0.000000 0.000000 0.104611 0.000000
# 6 0.000000 0.000000 0.000000 0.000000 0.000000 0.042006
#
#
# Mechanical properties :
#
#
# Convention : Reuss Voigt Hill
#
# Bulk Modulus (GPa) = 23.81706 44.20121 34.00913
# Shear Modulus (GPa) = 16.22234 23.12968 19.67601
#
# Velocity S-wave (km/s) = 3.10321 3.70543 3.41761
# Velocity P-wave (km/s) = 5.19404 6.67425 5.98012
#
# Compressibility (1/GPa) = 0.04198671
#
# Stress axis : x y z
#
# Youngs Moduli (GPa) = 30.89315 146.41180 41.05957
#
# Poissons Ratio (x) = 0.40174 0.12990
# Poissons Ratio (y) = 0.08477 0.20022
# Poissons Ratio (z) = 0.09774 0.71395
#
# Static dielectric constant tensor:
#      x y z
#    x 1.631540 0.000000 0.000000 
#    y 0.000000 1.674110 0.000000 
#    z 0.000000 0.000000 1.517090 
# 
# From -- ./inp_files/29073.got.cif
#   From: 2010.05.17/outbox.cif.g08.bks.cpg/sg58_15_cif.got.tgz:29073.got - 2010.06.03 14:20:14.
