data_PCOD9440395
_publ_section_title
;
Structure prediction by ZEFSAII (Michael W. Deem and Ramdas Pophale) SiO2 
 PCOD9440395
Probable space group: P B C M
;
_chemical_formula_sum "Si O2"
_cell_formula_units_Z 64
_cell_length_a 18.000000
_cell_length_b 24.000000
_cell_length_c 9.000000
_cell_angle_alpha 90.000000
_cell_angle_beta 90.000000
_cell_angle_gamma 90.000000
_cell_volume 3888.000000
_symmetry_space_group_name_H-M "P B C M"
_symmetry_group_IT_number 57
_symmetry_cell_setting 'orthorhombic'
loop_
_space_group_symop_operation_xyz
x,y,z
-x,-y,1/2+z
x,1/2-y,-z
-x,1/2+y,1/2-z
-x,-y,-z
x,y,1/2-z
-x,1/2+y,z
x,1/2-y,1/2+z
loop_
_atom_site_type_symbol
_atom_site_label
_atom_site_fract_x
_atom_site_fract_y
_atom_site_fract_z
Si Si1 0.402911 0.187323 0.569424
Si Si2 0.169637 0.473064 0.069095
Si Si3 0.874249 0.693274 0.926083
Si Si4 0.430101 0.810911 0.428070
Si Si5 0.150457 0.910186 0.069025
Si Si6 0.021244 0.412425 0.425497
Si Si7 0.735962 0.188346 0.929256
Si Si8 0.739665 0.628827 0.070202
O O1 0.396041 0.250000 0.500000
O O2 0.394401 0.190073 0.750000
O O3 0.487426 0.165823 0.534520
O O4 0.339169 0.148576 0.497701
O O5 0.172926 0.469819 0.250000
O O6 0.084911 0.455515 0.019420
O O7 0.183424 0.534558 0.007004
O O8 0.227330 0.428687 0.998707
O O9 0.858276 0.698712 0.750000
O O10 0.937272 0.646490 0.943181
O O11 0.900070 0.750000 0.000000
O O12 0.800715 0.673457 0.012879
O O13 0.430190 0.750000 0.500000
O O14 0.430057 0.806378 0.250000
O O15 0.347835 0.834003 0.468788
O O16 0.152671 0.914859 0.250000
O O17 0.199640 0.855792 0.029159
O O18 0.063417 0.908749 0.019081
O O19 0.014467 0.424177 0.250000
O O20 0.738441 0.194418 0.750000
O O21 0.745373 0.250000 0.000000
O O22 0.737207 0.626611 0.250000
#
# Coordination Sequence:
#
# PCOD9440395 Si02
#       8
#     8   8   8   8   8   8   8   8
#     4  10  18  29  47  72 101 130 162 198 236 282
#     4  10  20  35  52  71  96 126 163 204 245 288
#     4  10  19  32  47  67  98 134 168 200 240 288
#     4   8  15  28  46  69  97 129 160 192 233 279
#     4  10  19  33  53  75  98 126 161 201 244 288
#     4   8  17  32  49  69  95 127 163 204 243 282
#     4   9  18  32  51  75 103 131 159 194 237 286
#     4  11  21  33  49  70  96 127 163 201 243 288
#
# _framework density 16.460905
#
# number of rings (size 3 to 8) (size 9 to 14) (size 15 to 20)
#    0.000    2.500    0.000    3.750    0.000    1.500 
#    0.000    3.125    0.000    0.750    0.000    0.000 
#    0.000    0.000    0.000    0.000    0.000    0.000 
#
# Total GULP energy -356358.822610 kJ/mol
# GULP energy per Si atom -5568.106603 kJ/mol
# Density = 1.642344 g / cm^3
# Si number density = 16.460905 Si / 1000 Ang^3
#
#
#
# Elastic Constant Matrix: (Units=GPa)
#
#
# Indices 1 2 3 4 5 6 
#
# 1 134.5659 53.8935 32.5466 0.0000 0.0000 0.0000
# 2 53.8935 82.4564 31.2882 0.0000 0.0000 0.0000
# 3 32.5466 31.2882 67.3427 0.0000 0.0000 0.0000
# 4 0.0000 0.0000 0.0000 25.7565 0.0000 0.0000
# 5 0.0000 0.0000 0.0000 0.0000 20.3636 0.0000
# 6 0.0000 0.0000 0.0000 0.0000 0.0000 15.4986
#
#
#
# Elastic Compliance Matrix: (Units=1/GPa)
#
#
# Indices 1 2 3 4 5 6 
#
# 1 0.010341 -0.005903 -0.002255 0.000000 0.000000 0.000000
# 2 -0.005903 0.018093 -0.005553 0.000000 0.000000 0.000000
# 3 -0.002255 -0.005553 0.018519 0.000000 0.000000 0.000000
# 4 0.000000 0.000000 0.000000 0.038825 0.000000 0.000000
# 5 0.000000 0.000000 0.000000 0.000000 0.049107 0.000000
# 6 0.000000 0.000000 0.000000 0.000000 0.000000 0.064522
#
#
# Mechanical properties :
#
#
# Convention : Reuss Voigt Hill
#
# Bulk Modulus (GPa) = 51.20215 57.75797 54.48006
# Shear Modulus (GPa) = 21.42786 23.43284 22.43035
#
# Velocity S-wave (km/s) = 3.61188 3.77708 3.69541
# Velocity P-wave (km/s) = 6.96901 7.36111 7.16774
#
# Compressibility (1/GPa) = 0.01953043
#
# Stress axis : x y z
#
# Youngs Moduli (GPa) = 96.70313 55.26966 53.99729
#
# Poissons Ratio (x) = 0.32626 0.12177
# Poissons Ratio (y) = 0.57085 0.29986
# Poissons Ratio (z) = 0.21807 0.30693
#
# Static dielectric constant tensor:
#      x y z
#    x 1.588700 0.000000 0.000000 
#    y 0.000000 1.547480 0.000000 
#    z 0.000000 0.000000 1.546450 
# 
# From -- ./inp_files/7429.got.cif
#   From: 2010.05.17/outbox.ucp.g08.bks.cvg/sg57_4_cif.got.tgz:7429.got - 2010.06.11 16:39:23.
