data_PCOD9440979
_publ_section_title
;
Structure prediction by ZEFSAII (Michael W. Deem and Ramdas Pophale) SiO2 
 PCOD9440979
Probable space group: P N N M
;
_chemical_formula_sum "Si O2"
_cell_formula_units_Z 56
_cell_length_a 14.139628
_cell_length_b 29.971176
_cell_length_c 8.770785
_cell_angle_alpha 90.000000
_cell_angle_beta 90.000000
_cell_angle_gamma 90.000000
_cell_volume 3716.894488
_symmetry_space_group_name_H-M "P N N M"
_symmetry_group_IT_number 58
_symmetry_cell_setting 'orthorhombic'
loop_
_space_group_symop_operation_xyz
x,y,z
-x,-y,z
1/2+x,1/2-y,1/2-z
1/2-x,1/2+y,1/2-z
-x,-y,-z
x,y,-z
1/2-x,1/2+y,1/2+z
1/2+x,1/2-y,1/2+z
loop_
_atom_site_type_symbol
_atom_site_label
_atom_site_fract_x
_atom_site_fract_y
_atom_site_fract_z
Si Si1 0.701160 0.682717 0.816763
Si Si2 0.109391 0.270625 0.184627
Si Si3 0.718799 0.318484 0.684451
Si Si4 0.114670 0.997853 0.324214
Si Si5 0.395539 0.229731 0.683636
Si Si6 0.107343 0.904249 0.181913
Si Si7 0.885683 0.908439 0.183586
O O1 0.809038 0.694587 0.769956
O O2 0.637446 0.722109 0.745877
O O3 0.665302 0.635280 0.759331
O O4 0.695412 0.685246 0.000000
O O5 0.147264 0.221550 0.229569
O O6 0.002853 0.279244 0.236170
O O7 0.106844 0.270789 0.000000
O O8 0.725759 0.317612 0.500000
O O9 0.819719 0.305644 0.754026
O O10 0.676667 0.366082 0.730715
O O11 0.143076 0.994068 0.500000
O O12 0.147008 0.044661 0.253482
O O13 0.141202 0.953177 0.234081
O O14 0.000000 0.000000 0.317898
O O15 0.392603 0.230425 0.500000
O O16 0.995936 0.900414 0.225483
O O17 0.113232 0.900261 0.000000
O O18 0.882935 0.911955 0.000000
#
# Coordination Sequence:
#
# PCOD9440979 Si02
#       7
#     8   8   8   8   8   8   8
#     4  10  19  31  45  63  87 116 147 178 216 257
#     4   8  16  30  45  60  85 118 146 174 212 258
#     4   9  17  30  45  63  87 116 147 177 214 255
#     4   9  17  28  42  63  90 116 144 179 215 252
#     4  10  18  30  46  64  86 114 148 182 214 253
#     4  10  18  29  45  65  88 116 148 178 212 257
#     4   9  17  29  45  63  89 122 148 173 212 261
#
# _framework density 15.066341
#
# number of rings (size 3 to 8) (size 9 to 14) (size 15 to 20)
#    0.000    2.714    0.000    3.429    0.000    5.143 
#    0.000   10.000    0.000    0.000    0.000    1.000 
#    0.000    8.000    0.000    0.000    0.000    0.000 
#
# Total GULP energy -312050.520755 kJ/mol
# GULP energy per Si atom -5572.330728 kJ/mol
# Density = 1.503205 g / cm^3
# Si number density = 15.066341 Si / 1000 Ang^3
#
#
#
# Elastic Constant Matrix: (Units=GPa)
#
#
# Indices 1 2 3 4 5 6 
#
# 1 101.7465 62.9126 27.3724 0.0000 0.0000 0.0000
# 2 62.9126 132.6939 37.7638 0.0000 0.0000 0.0000
# 3 27.3724 37.7638 37.3789 0.0000 0.0000 0.0000
# 4 0.0000 0.0000 0.0000 26.5548 0.0000 0.0000
# 5 0.0000 0.0000 0.0000 0.0000 18.4622 0.0000
# 6 0.0000 0.0000 0.0000 0.0000 0.0000 23.1839
#
#
#
# Elastic Compliance Matrix: (Units=1/GPa)
#
#
# Indices 1 2 3 4 5 6 
#
# 1 0.014587 -0.005440 -0.005186 0.000000 0.000000 0.000000
# 2 -0.005440 0.012606 -0.008752 0.000000 0.000000 0.000000
# 3 -0.005186 -0.008752 0.039393 0.000000 0.000000 0.000000
# 4 0.000000 0.000000 0.000000 0.037658 0.000000 0.000000
# 5 0.000000 0.000000 0.000000 0.000000 0.054165 0.000000
# 6 0.000000 0.000000 0.000000 0.000000 0.000000 0.043133
#
#
# Mechanical properties :
#
#
# Convention : Reuss Voigt Hill
#
# Bulk Modulus (GPa) = 35.93271 58.65744 47.29508
# Shear Modulus (GPa) = 20.03393 23.22486 21.62939
#
# Velocity S-wave (km/s) = 3.65048 3.93046 3.79306
# Velocity P-wave (km/s) = 6.45519 7.72110 7.11635
#
# Compressibility (1/GPa) = 0.02782979
#
# Stress axis : x y z
#
# Youngs Moduli (GPa) = 68.55248 79.32551 25.38515
#
# Poissons Ratio (x) = 0.43155 0.13165
# Poissons Ratio (y) = 0.37294 0.22218
# Poissons Ratio (z) = 0.35551 0.69428
#
# Static dielectric constant tensor:
#      x y z
#    x 1.492290 0.000000 0.000000 
#    y 0.000000 1.486880 0.000000 
#    z 0.000000 0.000000 1.510230 
# 
# From -- ./inp_files/7123.got.cif
#   From: 2010.05.17/outbox.cif.g08.bks.cpg/sg58_4_cif.got.tgz:7123.got - 2010.06.03 14:20:14.
