data_PCOD9440121
_publ_section_title
;
Structure prediction by ZEFSAII (Michael W. Deem and Ramdas Pophale) SiO2 
 PCOD9440121
Probable space group: P B C M
;
_chemical_formula_sum "Si O2"
_cell_formula_units_Z 40
_cell_length_a 11.320323
_cell_length_b 9.586220
_cell_length_c 18.065367
_cell_angle_alpha 90.000000
_cell_angle_beta 90.000000
_cell_angle_gamma 90.000000
_cell_volume 1960.437490
_symmetry_space_group_name_H-M "P B C M"
_symmetry_group_IT_number 57
_symmetry_cell_setting 'orthorhombic'
loop_
_space_group_symop_operation_xyz
x,y,z
-x,-y,1/2+z
x,1/2-y,-z
-x,1/2+y,1/2-z
-x,-y,-z
x,y,1/2-z
-x,1/2+y,z
x,1/2-y,1/2+z
loop_
_atom_site_type_symbol
_atom_site_label
_atom_site_fract_x
_atom_site_fract_y
_atom_site_fract_z
Si Si1 0.862674 0.347513 0.572027
Si Si2 0.760501 0.847363 0.070827
Si Si3 0.488551 0.871279 0.054465
Si Si4 0.899759 0.859785 0.836574
Si Si5 0.275932 0.621129 0.663163
O O1 0.877781 0.250000 0.500000
O O2 0.799854 0.494495 0.555066
O O3 0.785680 0.257467 0.629377
O O4 0.987454 0.377314 0.611007
O O5 0.619819 0.837776 0.083508
O O6 0.832911 0.780810 0.138328
O O7 0.786307 0.750000 0.000000
O O8 0.396561 0.900702 0.118767
O O9 0.443784 0.750000 0.000000
O O10 0.500000 0.000000 0.000000
O O11 0.933239 0.853914 0.750000
O O12 0.810874 0.989351 0.847501
O O13 0.297178 0.637413 0.750000
#
# Coordination Sequence:
#
# PCOD9440121 Si02
#       5
#     8   8   8   8   8
#     4  12  24  41  67  94 123 164 212 259 313 377
#     4  11  24  42  65  93 124 163 211 258 310 374
#     4  11  22  41  66  91 124 165 212 261 312 376
#     4  11  25  43  62  90 129 167 205 257 317 375
#     4  11  24  42  64  94 130 165 208 263 319 374
#
# _framework density 20.403607999999998
#
# number of rings (size 3 to 8) (size 9 to 14) (size 15 to 20)
#    0.000    0.800    0.000    9.000    0.000    6.400 
#    0.000    6.000    0.000    0.000    0.000    0.000 
#    0.000    0.000    0.000    0.000    0.000    0.000 
#
# Total GULP energy -223997.851001 kJ/mol
# GULP energy per Si atom -5599.946275 kJ/mol
# Density = 2.035717 g / cm^3
# Si number density = 20.403608 Si / 1000 Ang^3
#
#
#
# Elastic Constant Matrix: (Units=GPa)
#
#
# Indices 1 2 3 4 5 6 
#
# 1 119.2988 29.4872 84.7512 0.0000 0.0000 0.0000
# 2 29.4872 141.6709 73.7067 0.0000 0.0000 0.0000
# 3 84.7512 73.7067 158.4173 0.0000 0.0000 0.0000
# 4 0.0000 0.0000 0.0000 26.5536 0.0000 0.0000
# 5 0.0000 0.0000 0.0000 0.0000 35.6501 0.0000
# 6 0.0000 0.0000 0.0000 0.0000 0.0000 29.6104
#
#
#
# Elastic Compliance Matrix: (Units=1/GPa)
#
#
# Indices 1 2 3 4 5 6 
#
# 1 0.013692 0.001268 -0.007915 0.000000 0.000000 0.000000
# 2 0.001268 0.009430 -0.005066 0.000000 0.000000 0.000000
# 3 -0.007915 -0.005066 0.012904 0.000000 0.000000 0.000000
# 4 0.000000 0.000000 0.000000 0.037660 0.000000 0.000000
# 5 0.000000 0.000000 0.000000 0.000000 0.028050 0.000000
# 6 0.000000 0.000000 0.000000 0.000000 0.000000 0.033772
#
#
# Mechanical properties :
#
#
# Convention : Reuss Voigt Hill
#
# Bulk Modulus (GPa) = 79.36367 88.36414 83.86391
# Shear Modulus (GPa) = 30.64969 33.79228 32.22099
#
# Velocity S-wave (km/s) = 3.87999 4.07405 3.97820
# Velocity P-wave (km/s) = 7.68464 8.09522 7.89260
#
# Compressibility (1/GPa) = 0.01260022
#
# Stress axis : x y z
#
# Youngs Moduli (GPa) = 73.03694 106.04020 77.49604
#
# Poissons Ratio (x) = -0.13447 0.61337
# Poissons Ratio (y) = -0.09262 0.39260
# Poissons Ratio (z) = 0.57808 0.53721
#
# Static dielectric constant tensor:
#      x y z
#    x 1.741160 0.000000 0.000000 
#    y 0.000000 1.705870 0.000000 
#    z 0.000000 0.000000 2.355890 
# 
# From -- ./inp_files/21573.got.cif
#   From: 2010.05.17/outbox.cif.g08.bks.cpg/sg57_11_cif.got.tgz:21573.got - 2010.06.03 13:58:18.
