data_PCOD9440418
_publ_section_title
;
Structure prediction by ZEFSAII (Michael W. Deem and Ramdas Pophale) SiO2 
 PCOD9440418
Probable space group: P B C M
;
_chemical_formula_sum "Si O2"
_cell_formula_units_Z 64
_cell_length_a 18.000000
_cell_length_b 27.000000
_cell_length_c 9.000000
_cell_angle_alpha 90.000000
_cell_angle_beta 90.000000
_cell_angle_gamma 90.000000
_cell_volume 4374.000000
_symmetry_space_group_name_H-M "P B C M"
_symmetry_group_IT_number 57
_symmetry_cell_setting 'orthorhombic'
loop_
_space_group_symop_operation_xyz
x,y,z
-x,-y,1/2+z
x,1/2-y,-z
-x,1/2+y,1/2-z
-x,-y,-z
x,y,1/2-z
-x,1/2+y,z
x,1/2-y,1/2+z
loop_
_atom_site_type_symbol
_atom_site_label
_atom_site_fract_x
_atom_site_fract_y
_atom_site_fract_z
Si Si1 0.762595 0.996674 0.074872
Si Si2 0.388540 0.503643 0.924358
Si Si3 0.898976 0.037210 0.918142
Si Si4 0.721532 0.801910 0.073596
Si Si5 0.456224 0.196763 0.926332
Si Si6 0.192656 0.107162 0.071359
Si Si7 0.520492 0.916904 0.426182
Si Si8 0.034168 0.425211 0.919559
O O1 0.763956 0.989324 0.250000
O O2 0.684039 0.015705 0.018033
O O3 0.776063 0.943985 0.994612
O O4 0.828515 0.032901 0.024231
O O5 0.371692 0.498332 0.750000
O O6 0.446828 0.548969 0.940601
O O7 0.420921 0.451124 0.984525
O O8 0.876512 0.048327 0.750000
O O9 0.934129 0.981674 0.918345
O O10 0.962852 0.073495 0.976242
O O11 0.734925 0.801473 0.250000
O O12 0.632765 0.807217 0.050426
O O13 0.744184 0.750000 0.000000
O O14 0.763880 0.847086 0.997366
O O15 0.470817 0.201341 0.750000
O O16 0.485677 0.141314 0.972703
O O17 0.479432 0.250000 0.000000
O O18 0.198901 0.106053 0.250000
O O19 0.104594 0.107572 0.034230
O O20 0.540975 0.916245 0.250000
O O21 0.013269 0.413349 0.750000
#
# Coordination Sequence:
#
# PCOD9440418 Si02
#       8
#     8   8   8   8   8   8   8   8
#     4  11  20  29  42  60  85 115 146 178 214 256
#     4  10  19  30  45  64  87 116 148 181 218 262
#     4   9  16  26  40  58  81 108 139 172 203 240
#     4  10  19  30  44  62  86 114 144 179 217 255
#     4   9  18  31  46  64  85 111 143 179 218 258
#     4  10  19  30  44  62  84 111 146 182 215 255
#     4   9  18  32  47  64  88 115 144 180 221 264
#     4   8  15  26  39  57  81 108 136 168 206 245
#
# _framework density 14.631916
#
# number of rings (size 3 to 8) (size 9 to 14) (size 15 to 20)
#    0.000    2.500    0.000    4.125    0.000    6.000 
#    0.000    0.000    0.000    0.000    0.000    0.000 
#    0.000    1.000    0.000    9.250    0.000    4.125 
#
# Total GULP energy -356420.766456 kJ/mol
# GULP energy per Si atom -5569.074476 kJ/mol
# Density = 1.459861 g / cm^3
# Si number density = 14.631916 Si / 1000 Ang^3
#
#
#
# Elastic Constant Matrix: (Units=GPa)
#
#
# Indices 1 2 3 4 5 6 
#
# 1 41.5261 16.6723 34.5699 0.0000 0.0000 0.0000
# 2 16.6723 75.4235 29.5130 0.0000 0.0000 0.0000
# 3 34.5699 29.5130 68.8076 0.0000 0.0000 0.0000
# 4 0.0000 0.0000 0.0000 23.3824 0.0000 0.0000
# 5 0.0000 0.0000 0.0000 0.0000 21.8247 0.0000
# 6 0.0000 0.0000 0.0000 0.0000 0.0000 18.8239
#
#
#
# Elastic Compliance Matrix: (Units=1/GPa)
#
#
# Indices 1 2 3 4 5 6 
#
# 1 0.041488 -0.001219 -0.020321 0.000000 0.000000 0.000000
# 2 -0.001219 0.015968 -0.006237 0.000000 0.000000 0.000000
# 3 -0.020321 -0.006237 0.027418 0.000000 0.000000 0.000000
# 4 0.000000 0.000000 0.000000 0.042767 0.000000 0.000000
# 5 0.000000 0.000000 0.000000 0.000000 0.045820 0.000000
# 6 0.000000 0.000000 0.000000 0.000000 0.000000 0.053124
#
#
# Mechanical properties :
#
#
# Convention : Reuss Voigt Hill
#
# Bulk Modulus (GPa) = 34.10620 38.58528 36.34574
# Shear Modulus (GPa) = 17.12842 19.80631 18.46736
#
# Velocity S-wave (km/s) = 3.42514 3.68317 3.55650
# Velocity P-wave (km/s) = 6.24518 6.67200 6.46211
#
# Compressibility (1/GPa) = 0.02932018
#
# Stress axis : x y z
#
# Youngs Moduli (GPa) = 24.10344 62.62394 36.47250
#
# Poissons Ratio (x) = 0.07635 0.74116
# Poissons Ratio (y) = 0.02939 0.22746
# Poissons Ratio (z) = 0.48981 0.39056
#
# Static dielectric constant tensor:
#      x y z
#    x 1.504730 0.000000 0.000000 
#    y 0.000000 1.463030 0.000000 
#    z 0.000000 0.000000 1.495570 
# 
# From -- ./inp_files/7498.got.cif
#   From: 2010.05.17/outbox.ucp.g08.bks.cvg/sg57_4_cif.got.tgz:7498.got - 2010.06.11 16:39:23.
