data_PCOD9440835
_publ_section_title
;
Structure prediction by ZEFSAII (Michael W. Deem and Ramdas Pophale) SiO2 
 PCOD9440835
Probable space group: P N N M
;
_chemical_formula_sum "Si O2"
_cell_formula_units_Z 52
_cell_length_a 9.096709
_cell_length_b 8.595226
_cell_length_c 25.369595
_cell_angle_alpha 90.000000
_cell_angle_beta 90.000000
_cell_angle_gamma 90.000000
_cell_volume 1983.604736
_symmetry_space_group_name_H-M "P N N M"
_symmetry_group_IT_number 58
_symmetry_cell_setting 'orthorhombic'
loop_
_space_group_symop_operation_xyz
x,y,z
-x,-y,z
1/2+x,1/2-y,1/2-z
1/2-x,1/2+y,1/2-z
-x,-y,-z
x,y,-z
1/2-x,1/2+y,1/2+z
1/2+x,1/2-y,1/2+z
loop_
_atom_site_type_symbol
_atom_site_label
_atom_site_fract_x
_atom_site_fract_y
_atom_site_fract_z
Si Si1 0.201617 0.943635 0.887324
Si Si2 0.608221 0.638795 0.275788
Si Si3 0.569498 0.286310 0.000000
Si Si4 0.690871 0.965095 0.700902
Si Si5 0.421038 0.691313 0.881749
Si Si6 0.823298 0.066370 0.000000
Si Si7 0.772754 0.686294 0.114366
Si Si8 0.781254 0.707162 0.000000
O O1 0.114907 0.879825 0.838166
O O2 0.363973 0.868845 0.883263
O O3 0.130220 0.882658 0.941861
O O4 0.206380 0.128528 0.884318
O O5 0.500000 0.500000 0.257481
O O6 0.602545 0.825559 0.270265
O O7 0.753485 0.579173 0.246731
O O8 0.609327 0.361936 0.056916
O O9 0.653493 0.122033 0.000000
O O10 0.395332 0.271218 0.000000
O O11 0.820801 0.881410 0.665004
O O12 0.637955 0.088317 0.656905
O O13 0.595459 0.669909 0.874477
O O14 0.841833 0.882281 0.000000
O O15 0.817101 0.632682 0.055752
#
# Coordination Sequence:
#
# PCOD9440835 Si02
#       8
#     8   8   4   8   8   4   8   4
#     4   9  18  32  54  81 113 154 197 236 283 334
#     4  11  24  43  61  83 112 144 187 242 294 353
#     4   8  13  23  42  76 116 151 185 217 278 354
#     4  11  23  38  58  80 108 147 187 236 295 354
#     4   9  17  29  51  82 118 154 184 229 285 345
#     4   8  13  26  47  75 110 149 194 239 274 325
#     4  10  17  31  52  84 120 153 193 235 282 342
#     4   8  15  23  44  77 117 156 185 230 285 329
#
# _framework density 26.214898000000002
#
# number of rings (size 3 to 8) (size 9 to 14) (size 15 to 20)
#    0.000    2.462    0.000    3.000    0.000    4.308 
#    0.000    8.077    0.000    0.000    0.000    3.231 
#    0.000    0.000    0.000    0.000    0.000    0.000 
#
# Total GULP energy -289993.593969 kJ/mol
# GULP energy per Si atom -5576.799884 kJ/mol
# Density = 2.615523 g / cm^3
# Si number density = 26.214898 Si / 1000 Ang^3
#
#
#
# Elastic Constant Matrix: (Units=GPa)
#
#
# Indices 1 2 3 4 5 6 
#
# 1 77.5850 31.8949 17.9393 0.0000 0.0000 0.0000
# 2 31.8949 146.7302 36.3116 0.0000 0.0000 0.0000
# 3 17.9393 36.3116 125.6695 0.0000 0.0000 0.0000
# 4 0.0000 0.0000 0.0000 33.1106 0.0000 0.0000
# 5 0.0000 0.0000 0.0000 0.0000 17.4303 0.0000
# 6 0.0000 0.0000 0.0000 0.0000 0.0000 36.1110
#
#
#
# Elastic Compliance Matrix: (Units=1/GPa)
#
#
# Indices 1 2 3 4 5 6 
#
# 1 0.014329 -0.002809 -0.001234 0.000000 0.000000 0.000000
# 2 -0.002809 0.007891 -0.001879 0.000000 0.000000 0.000000
# 3 -0.001234 -0.001879 0.008676 0.000000 0.000000 0.000000
# 4 0.000000 0.000000 0.000000 0.030202 0.000000 0.000000
# 5 0.000000 0.000000 0.000000 0.000000 0.057371 0.000000
# 6 0.000000 0.000000 0.000000 0.000000 0.000000 0.027692
#
#
# Mechanical properties :
#
#
# Convention : Reuss Voigt Hill
#
# Bulk Modulus (GPa) = 52.48712 58.03069 55.25890
# Shear Modulus (GPa) = 30.42152 34.91965 32.67058
#
# Velocity S-wave (km/s) = 3.41026 3.65369 3.53407
# Velocity P-wave (km/s) = 5.96421 6.32328 6.14637
#
# Compressibility (1/GPa) = 0.01905229
#
# Stress axis : x y z
#
# Youngs Moduli (GPa) = 69.78705 126.72793 115.25496
#
# Poissons Ratio (x) = 0.35604 0.14219
# Poissons Ratio (y) = 0.19606 0.21656
# Poissons Ratio (z) = 0.08610 0.23812
#
# Static dielectric constant tensor:
#      x y z
#    x 2.195400 0.000000 0.000000 
#    y 0.000000 2.061570 0.000000 
#    z 0.000000 0.000000 2.046550 
# 
# From -- ./inp_files/33556.got.cif
#   From: 2010.05.17/outbox.cif.g08.bks.cpg/sg58_17_cif.got.tgz:33556.got - 2010.06.03 14:20:14.
