data_PCOD9440206
_publ_section_title
;
Structure prediction by ZEFSAII (Michael W. Deem and Ramdas Pophale) SiO2 
 PCOD9440206
Probable space group: P B C M
;
_chemical_formula_sum "Si O2"
_cell_formula_units_Z 32
_cell_length_a 5.061445
_cell_length_b 12.465388
_cell_length_c 22.118508
_cell_angle_alpha 90.000000
_cell_angle_beta 90.000000
_cell_angle_gamma 90.000000
_cell_volume 1395.520277
_symmetry_space_group_name_H-M "P B C M"
_symmetry_group_IT_number 57
_symmetry_cell_setting 'orthorhombic'
loop_
_space_group_symop_operation_xyz
x,y,z
-x,-y,1/2+z
x,1/2-y,-z
-x,1/2+y,1/2-z
-x,-y,-z
x,y,1/2-z
-x,1/2+y,z
x,1/2-y,1/2+z
loop_
_atom_site_type_symbol
_atom_site_label
_atom_site_fract_x
_atom_site_fract_y
_atom_site_fract_z
Si Si1 0.189917 0.484066 0.905048
Si Si2 0.802800 0.857226 0.022470
Si Si3 0.002389 0.704945 0.180275
Si Si4 0.509639 0.669589 0.864025
O O1 0.058734 0.394687 0.863152
O O2 0.405121 0.547557 0.865322
O O3 0.982835 0.568569 0.934313
O O4 0.294705 0.423813 0.964843
O O5 0.570660 0.814157 0.065079
O O6 0.949790 0.750000 0.000000
O O7 0.006248 0.672521 0.250000
O O8 0.774102 0.794560 0.170102
O O9 0.277612 0.757225 0.161154
#
# Coordination Sequence:
#
# PCOD9440206 Si02
#       4
#     8   8   8   8
#     4  11  25  47  78 115 148 201 244 310 381 453
#     4  11  23  46  78 114 155 184 245 311 387 444
#     4  12  29  50  74 106 152 202 255 309 362 446
#     4  12  25  50  73 110 148 192 249 309 374 435
#
# _framework density 22.930515
#
# number of rings (size 3 to 8) (size 9 to 14) (size 15 to 20)
#    0.000    0.500    5.000    1.500    3.500    7.000 
#    0.000    0.000    0.000    0.000    0.000    0.000 
#    0.000    0.000    0.000    0.000    0.000    0.000 
#
# Total GULP energy -179008.121526 kJ/mol
# GULP energy per Si atom -5594.003798 kJ/mol
# Density = 2.287832 g / cm^3
# Si number density = 22.930515 Si / 1000 Ang^3
#
#
#
# Elastic Constant Matrix: (Units=GPa)
#
#
# Indices 1 2 3 4 5 6 
#
# 1 88.1263 7.0107 27.8102 0.0000 0.0000 0.0000
# 2 7.0107 69.9334 30.1709 0.0000 0.0000 0.0000
# 3 27.8102 30.1709 148.3714 0.0000 0.0000 0.0000
# 4 0.0000 0.0000 0.0000 21.7202 0.0000 0.0000
# 5 0.0000 0.0000 0.0000 0.0000 8.2883 0.0000
# 6 0.0000 0.0000 0.0000 0.0000 0.0000 -27.6717
#
#
#
# Elastic Compliance Matrix: (Units=1/GPa)
#
#
# Indices 1 2 3 4 5 6 
#
# 1 0.012065 -0.000256 -0.002209 0.000000 0.000000 0.000000
# 2 -0.000256 0.015680 -0.003140 0.000000 0.000000 0.000000
# 3 -0.002209 -0.003140 0.007793 0.000000 0.000000 0.000000
# 4 0.000000 0.000000 0.000000 0.046040 0.000000 0.000000
# 5 0.000000 0.000000 0.000000 0.000000 0.120651 0.000000
# 6 0.000000 0.000000 0.000000 0.000000 0.000000 -0.036138
#
#
# Mechanical properties :
#
#
# Convention : Reuss Voigt Hill
#
# Bulk Modulus (GPa) = 41.10954 48.49053 44.80003
# Shear Modulus (GPa) = 26.96705 16.56331 21.76518
#
# Velocity S-wave (km/s) = 3.43305 2.69053 3.08422
# Velocity P-wave (km/s) = 5.80356 5.55379 5.68005
#
# Compressibility (1/GPa) = 0.02432525
#
# Stress axis : x y z
#
# Youngs Moduli (GPa) = 82.88488 63.77612 128.32789
#
# Poissons Ratio (x) = 0.01635 0.28351
# Poissons Ratio (y) = 0.02125 0.40300
# Poissons Ratio (z) = 0.18312 0.20028
#
# Static dielectric constant tensor:
#      x y z
#    x 1.903360 0.000000 0.000000 
#    y 0.000000 1.899820 0.000000 
#    z 0.000000 0.000000 1.818380 
# 
# From -- ./inp_files/23342.got.cif
#   From: 2010.05.17/outbox.cif.g08.bks.cpg/sg57_12_cif.got.tgz:23342.got - 2010.06.03 13:58:18.
