data_PCOD9440587
_publ_section_title
;
Structure prediction by ZEFSAII (Michael W. Deem and Ramdas Pophale) SiO2 
 PCOD9440587
Probable space group: P B C M
;
_chemical_formula_sum "Si O2"
_cell_formula_units_Z 64
_cell_length_a 9.000000
_cell_length_b 21.000000
_cell_length_c 18.000000
_cell_angle_alpha 90.000000
_cell_angle_beta 90.000000
_cell_angle_gamma 90.000000
_cell_volume 3402.000000
_symmetry_space_group_name_H-M "P B C M"
_symmetry_group_IT_number 57
_symmetry_cell_setting 'orthorhombic'
loop_
_space_group_symop_operation_xyz
x,y,z
-x,-y,1/2+z
x,1/2-y,-z
-x,1/2+y,1/2-z
-x,-y,-z
x,y,1/2-z
-x,1/2+y,z
x,1/2-y,1/2+z
loop_
_atom_site_type_symbol
_atom_site_label
_atom_site_fract_x
_atom_site_fract_y
_atom_site_fract_z
Si Si1 0.677049 0.493497 0.417465
Si Si2 0.151059 0.123512 0.418499
Si Si3 0.338681 0.252225 0.910710
Si Si4 0.339514 0.747991 0.339373
Si Si5 0.832568 0.123962 0.838527
Si Si6 0.837503 0.378777 0.838364
Si Si7 0.332502 0.503083 0.404883
Si Si8 0.158121 0.126546 0.596575
O O1 0.747747 0.562279 0.402219
O O2 0.767878 0.438060 0.378201
O O3 0.506658 0.492443 0.391706
O O4 0.682732 0.484261 0.506613
O O5 0.234309 0.187583 0.393392
O O6 0.130366 0.127207 0.507623
O O7 0.993808 0.115432 0.379507
O O8 0.499107 0.258359 0.874609
O O9 0.261233 0.186858 0.886023
O O10 0.355433 0.250000 0.000000
O O11 0.352488 0.748133 0.250000
O O12 0.260199 0.813639 0.362021
O O13 0.239705 0.687518 0.360537
O O14 0.820278 0.117471 0.750000
O O15 0.003194 0.131705 0.861497
O O16 0.859889 0.378626 0.750000
O O17 0.732905 0.437208 0.861407
O O18 0.241293 0.439401 0.386240
#
# Coordination Sequence:
#
# PCOD9440587 Si02
#       8
#     8   8   8   8   8   8   8   8
#     4  10  21  38  59  83 113 147 183 230 284 330
#     4  10  21  37  58  85 114 144 183 230 278 328
#     4  10  21  38  62  88 110 142 189 232 274 330
#     4  10  23  40  56  80 114 148 183 228 280 328
#     4  11  23  38  57  82 113 150 189 227 273 331
#     4  11  23  38  57  82 113 150 189 227 273 331
#     4  10  21  38  59  83 113 147 183 230 284 330
#     4  10  21  37  58  85 114 144 183 230 278 328
#
# _framework density 18.812463000000001
#
# number of rings (size 3 to 8) (size 9 to 14) (size 15 to 20)
#    0.000    1.750    0.000    3.750    0.000    9.500 
#    0.000    0.000    0.000    0.000    0.000    0.000 
#    0.000    0.000    0.000    0.000    0.000    0.000 
#
# Total GULP energy -357752.404632 kJ/mol
# GULP energy per Si atom -5589.881322 kJ/mol
# Density = 1.876965 g / cm^3
# Si number density = 18.812463 Si / 1000 Ang^3
#
#
#
# Elastic Constant Matrix: (Units=GPa)
#
#
# Indices 1 2 3 4 5 6 
#
# 1 34.9406 -37.0026 0.9496 0.0000 0.0000 0.0000
# 2 -37.0026 52.5497 6.3363 0.0000 0.0000 0.0000
# 3 0.9496 6.3363 -1.1376 0.0000 0.0000 0.0000
# 4 0.0000 0.0000 0.0000 27.7486 0.0000 0.0000
# 5 0.0000 0.0000 0.0000 0.0000 192.5173 0.0000
# 6 0.0000 0.0000 0.0000 0.0000 0.0000 36.1845
#
#
#
# Elastic Compliance Matrix: (Units=1/GPa)
#
#
# Indices 1 2 3 4 5 6 
#
# 1 0.041180 0.014867 0.117182 0.000000 0.000000 0.000000
# 2 0.014867 0.016751 0.105714 0.000000 0.000000 0.000000
# 3 0.117182 0.105714 -0.192417 0.000000 0.000000 0.000000
# 4 0.000000 0.000000 0.000000 0.036038 0.000000 0.000000
# 5 0.000000 0.000000 0.000000 0.000000 0.005194 0.000000
# 6 0.000000 0.000000 0.000000 0.000000 0.000000 0.027636
#
#
# Mechanical properties :
#
#
# Convention : Reuss Voigt Hill
#
# Bulk Modulus (GPa) = 2.93220 2.99103 2.96161
# Shear Modulus (GPa) = -11.69690 59.02805 23.66558
#
# Velocity S-wave (km/s) = -2.49622 5.60760 3.55064
# Velocity P-wave (km/s) = 2.59733 6.59699 4.28802
#
# Compressibility (1/GPa) = 0.34104125
#
# Stress axis : x y z
#
# Youngs Moduli (GPa) = 24.28374 59.69630 -5.19705
#
# Poissons Ratio (x) = -0.88751 0.60900
# Poissons Ratio (y) = -0.36103 0.54940
# Poissons Ratio (z) = -2.84562 -6.31075
#
# Static dielectric constant tensor:
#      x y z
#    x 1.602550 0.000000 0.000000 
#    y 0.000000 1.625660 0.000000 
#    z 0.000000 0.000000 1.633210 
# 
# From -- ./inp_files/21404.got.cif
#   From: 2010.05.17/outbox.ucp.g08.bks.cvg/sg57_11_cif.got.tgz:21404.got - 2010.06.11 16:39:23.
