data_PCOD9440144
_publ_section_title
;
Structure prediction by ZEFSAII (Michael W. Deem and Ramdas Pophale) SiO2 
 PCOD9440144
Probable space group: P B C M
;
_chemical_formula_sum "Si O2"
_cell_formula_units_Z 64
_cell_length_a 17.951422
_cell_length_b 22.926564
_cell_length_c 8.669931
_cell_angle_alpha 90.000000
_cell_angle_beta 90.000000
_cell_angle_gamma 90.000000
_cell_volume 3568.235170
_symmetry_space_group_name_H-M "P B C M"
_symmetry_group_IT_number 57
_symmetry_cell_setting 'orthorhombic'
loop_
_space_group_symop_operation_xyz
x,y,z
-x,-y,1/2+z
x,1/2-y,-z
-x,1/2+y,1/2-z
-x,-y,-z
x,y,1/2-z
-x,1/2+y,z
x,1/2-y,1/2+z
loop_
_atom_site_type_symbol
_atom_site_label
_atom_site_fract_x
_atom_site_fract_y
_atom_site_fract_z
Si Si1 0.146832 0.583499 0.435660
Si Si2 0.422380 0.523937 0.066454
Si Si3 0.992795 0.934705 0.434349
Si Si4 0.326772 0.421510 0.933631
Si Si5 0.746608 0.310741 0.934966
Si Si6 0.827934 0.947896 0.435970
Si Si7 0.590367 0.347849 0.066474
Si Si8 0.569414 0.811440 0.934446
O O1 0.144181 0.582955 0.250000
O O2 0.064231 0.597812 0.497500
O O3 0.205862 0.632508 0.484620
O O4 0.168138 0.516942 0.482124
O O5 0.427668 0.532367 0.250000
O O6 0.500000 0.500000 0.000000
O O7 0.360620 0.476402 0.024416
O O8 0.405658 0.584900 0.985388
O O9 0.998677 0.936054 0.250000
O O10 0.907685 0.918476 0.473253
O O11 0.000000 0.000000 0.500000
O O12 0.334240 0.431111 0.750000
O O13 0.375643 0.364744 0.974219
O O14 0.240979 0.417603 0.981434
O O15 0.746100 0.309125 0.750000
O O16 0.777766 0.250000 0.000000
O O17 0.662597 0.317470 0.995448
O O18 0.818338 0.946404 0.250000
O O19 0.591285 0.342365 0.250000
O O20 0.512464 0.323549 0.002506
O O21 0.563661 0.808640 0.750000
O O22 0.596849 0.750000 0.000000
#
# Coordination Sequence:
#
# PCOD9440144 Si02
#       8
#     8   8   8   8   8   8   8   8
#     4   9  19  35  55  80 111 147 182 223 276 328
#     4  12  23  37  57  82 113 146 181 225 279 335
#     4   9  17  30  52  81 112 143 174 213 263 323
#     4  11  23  37  56  83 112 145 184 228 276 327
#     4  11  23  39  57  80 113 151 192 238 282 332
#     4   9  18  33  54  83 115 145 178 222 279 336
#     4  12  24  39  60  83 109 145 187 231 282 331
#     4  11  24  41  59  78 105 140 186 234 277 327
#
# _framework density 17.936036999999999
#
# number of rings (size 3 to 8) (size 9 to 14) (size 15 to 20)
#    0.000    1.500    1.250    5.625    0.000    6.000 
#    0.000    0.000    0.000    0.750    0.000    0.000 
#    0.000    0.000    0.000    0.000    0.000    0.000 
#
# Total GULP energy -357479.540535 kJ/mol
# GULP energy per Si atom -5585.617821 kJ/mol
# Density = 1.789521 g / cm^3
# Si number density = 17.936037 Si / 1000 Ang^3
#
#
#
# Elastic Constant Matrix: (Units=GPa)
#
#
# Indices 1 2 3 4 5 6 
#
# 1 120.1590 26.7931 25.6924 0.0000 0.0000 0.0000
# 2 26.7931 75.6816 17.0443 0.0000 0.0000 0.0000
# 3 25.6924 17.0443 46.1110 0.0000 0.0000 0.0000
# 4 0.0000 0.0000 0.0000 27.1136 0.0000 0.0000
# 5 0.0000 0.0000 0.0000 0.0000 32.1236 0.0000
# 6 0.0000 0.0000 0.0000 0.0000 0.0000 9.1735
#
#
#
# Elastic Compliance Matrix: (Units=1/GPa)
#
#
# Indices 1 2 3 4 5 6 
#
# 1 0.009849 -0.002455 -0.004580 0.000000 0.000000 0.000000
# 2 -0.002455 0.015025 -0.004186 0.000000 0.000000 0.000000
# 3 -0.004580 -0.004186 0.025786 0.000000 0.000000 0.000000
# 4 0.000000 0.000000 0.000000 0.036882 0.000000 0.000000
# 5 0.000000 0.000000 0.000000 0.000000 0.031130 0.000000
# 6 0.000000 0.000000 0.000000 0.000000 0.000000 0.109010
#
#
# Mechanical properties :
#
#
# Convention : Reuss Voigt Hill
#
# Bulk Modulus (GPa) = 35.43874 42.33459 38.88666
# Shear Modulus (GPa) = 19.26559 25.17694 22.22126
#
# Velocity S-wave (km/s) = 3.28094 3.75067 3.52364
# Velocity P-wave (km/s) = 5.84415 6.51238 6.18729
#
# Compressibility (1/GPa) = 0.02821771
#
# Stress axis : x y z
#
# Youngs Moduli (GPa) = 101.53167 66.55498 38.78069
#
# Poissons Ratio (x) = 0.16341 0.17762
# Poissons Ratio (y) = 0.24929 0.16233
# Poissons Ratio (z) = 0.46504 0.27858
#
# Static dielectric constant tensor:
#      x y z
#    x 1.623590 0.000000 0.000000 
#    y 0.000000 1.588020 0.000000 
#    z 0.000000 0.000000 1.614760 
# 
# From -- ./inp_files/7293.got.cif
#   From: 2010.05.17/outbox.cif.g08.bks.cpg/sg57_4_cif.got.tgz:7293.got - 2010.06.03 13:58:18.
