data_PCOD9440991
_publ_section_title
;
Structure prediction by ZEFSAII (Michael W. Deem and Ramdas Pophale) SiO2 
 PCOD9440991
Probable space group: P N N M
;
_chemical_formula_sum "Si O2"
_cell_formula_units_Z 64
_cell_length_a 28.952778
_cell_length_b 13.346540
_cell_length_c 7.298251
_cell_angle_alpha 90.000000
_cell_angle_beta 90.000000
_cell_angle_gamma 90.000000
_cell_volume 2820.185843
_symmetry_space_group_name_H-M "P N N M"
_symmetry_group_IT_number 58
_symmetry_cell_setting 'orthorhombic'
loop_
_space_group_symop_operation_xyz
x,y,z
-x,-y,z
1/2+x,1/2-y,1/2-z
1/2-x,1/2+y,1/2-z
-x,-y,-z
x,y,-z
1/2-x,1/2+y,1/2+z
1/2+x,1/2-y,1/2+z
loop_
_atom_site_type_symbol
_atom_site_label
_atom_site_fract_x
_atom_site_fract_y
_atom_site_fract_z
Si Si1 0.383268 0.040879 0.723486
Si Si2 0.705849 0.853953 0.281806
Si Si3 0.539098 0.802768 0.723021
Si Si4 0.939290 0.652288 0.223088
Si Si5 0.090862 0.126465 0.775934
Si Si6 0.806512 0.930696 0.782026
Si Si7 0.829110 0.142265 0.778434
Si Si8 0.935578 0.088158 0.220382
O O1 0.384164 0.038434 0.500000
O O2 0.406160 0.937081 0.785170
O O3 0.330881 0.062826 0.783306
O O4 0.415856 0.134563 0.778528
O O5 0.699904 0.851511 0.500000
O O6 0.689531 0.746788 0.208470
O O7 0.759544 0.872585 0.250743
O O8 0.540697 0.799108 0.500000
O O9 0.492704 0.860687 0.775350
O O10 0.536875 0.686461 0.784190
O O11 0.925236 0.764024 0.281631
O O12 0.937763 0.651616 0.000000
O O13 0.144287 0.111644 0.717152
O O14 0.061679 0.027661 0.717043
O O15 0.089225 0.125386 0.000000
O O16 0.801736 0.044632 0.714346
O O17 0.812198 0.935902 0.000000
O O18 0.882673 0.120552 0.740332
O O19 0.826137 0.146572 0.000000
O O20 0.942299 0.083710 0.000000
#
# Coordination Sequence:
#
# PCOD9440991 Si02
#       8
#     8   8   8   8   8   8   8   8
#     4   9  16  25  36  54  82 112 140 173 215 259
#     4  10  18  29  47  67  85 113 154 189 216 257
#     4   9  14  21  35  54  78 111 144 172 206 258
#     4   9  16  23  33  54  86 115 135 167 222 270
#     4   8  15  26  37  52  78 112 141 171 216 263
#     4   9  18  31  46  63  87 118 148 181 227 271
#     4   8  14  27  43  58  81 116 148 174 213 265
#     4   8  12  21  37  52  71 106 147 172 194 247
#
# _framework density 22.693541
#
# number of rings (size 3 to 8) (size 9 to 14) (size 15 to 20)
#    0.000    3.250    1.250    1.875    0.000    3.000 
#    0.000    4.375    0.000    0.000    0.000    0.000 
#    0.000    3.000    0.000    3.750    0.000    3.750 
#
# Total GULP energy -357045.485524 kJ/mol
# GULP energy per Si atom -5578.835711 kJ/mol
# Density = 2.264189 g / cm^3
# Si number density = 22.693541 Si / 1000 Ang^3
#
#
#
# Elastic Constant Matrix: (Units=GPa)
#
#
# Indices 1 2 3 4 5 6 
#
# 1 45.9008 11.5147 -3.8506 0.0000 0.0000 0.0000
# 2 11.5147 103.4095 -0.7813 0.0000 0.0000 0.0000
# 3 -3.8506 -0.7813 89.8605 0.0000 0.0000 0.0000
# 4 0.0000 0.0000 0.0000 -17.5356 0.0000 0.0000
# 5 0.0000 0.0000 0.0000 0.0000 -3.5489 0.0000
# 6 0.0000 0.0000 0.0000 0.0000 0.0000 27.9477
#
#
#
# Elastic Compliance Matrix: (Units=1/GPa)
#
#
# Indices 1 2 3 4 5 6 
#
# 1 0.022492 -0.002497 0.000942 0.000000 0.000000 0.000000
# 2 -0.002497 0.009948 -0.000021 0.000000 0.000000 0.000000
# 3 0.000942 -0.000021 0.011169 0.000000 0.000000 0.000000
# 4 0.000000 0.000000 0.000000 -0.057027 0.000000 0.000000
# 5 0.000000 0.000000 0.000000 0.000000 -0.281779 0.000000
# 6 0.000000 0.000000 0.000000 0.000000 0.000000 0.035781
#
#
# Mechanical properties :
#
#
# Convention : Reuss Voigt Hill
#
# Bulk Modulus (GPa) = 24.71770 28.10405 26.41088
# Shear Modulus (GPa) = -20.59484 16.85850 -1.86817
#
# Velocity S-wave (km/s) = -3.01577 2.72853 -0.90830
# Velocity P-wave (km/s) = 1.10042 4.72626 3.25013
#
# Compressibility (1/GPa) = 0.04045684
#
# Stress axis : x y z
#
# Youngs Moduli (GPa) = 44.46095 100.52054 89.53712
#
# Poissons Ratio (x) = 0.25103 -0.08435
# Poissons Ratio (y) = 0.11103 0.00184
# Poissons Ratio (z) = -0.04189 0.00206
#
# Static dielectric constant tensor:
#      x y z
#    x 1.822530 0.000000 0.000000 
#    y 0.000000 1.843080 0.000000 
#    z 0.000000 0.000000 1.860550 
# 
# From -- ./inp_files/14918.got.cif
#   From: 2010.05.17/outbox.cif.g08.bks.cpg/sg58_8_cif.got.tgz:14918.got - 2010.06.03 14:20:14.
