data_PCOD9440254
_publ_section_title
;
Structure prediction by ZEFSAII (Michael W. Deem and Ramdas Pophale) SiO2 
 PCOD9440254
Probable space group: P B C M
;
_chemical_formula_sum "Si O2"
_cell_formula_units_Z 40
_cell_length_a 15.749119
_cell_length_b 11.771805
_cell_length_c 9.635647
_cell_angle_alpha 90.000000
_cell_angle_beta 90.000000
_cell_angle_gamma 90.000000
_cell_volume 1786.406150
_symmetry_space_group_name_H-M "P B C M"
_symmetry_group_IT_number 57
_symmetry_cell_setting 'orthorhombic'
loop_
_space_group_symop_operation_xyz
x,y,z
-x,-y,1/2+z
x,1/2-y,-z
-x,1/2+y,1/2-z
-x,-y,-z
x,y,1/2-z
-x,1/2+y,z
x,1/2-y,1/2+z
loop_
_atom_site_type_symbol
_atom_site_label
_atom_site_fract_x
_atom_site_fract_y
_atom_site_fract_z
Si Si1 0.333980 0.350696 0.594042
Si Si2 0.139610 0.501277 0.250000
Si Si3 0.062293 0.972282 0.250000
Si Si4 0.415400 0.531623 0.086179
Si Si5 0.807510 0.268731 0.250000
Si Si6 0.853544 0.629624 0.025296
Si Si7 0.682123 0.250000 0.500000
O O1 0.371415 0.250000 0.500000
O O2 0.369583 0.356312 0.750000
O O3 0.347853 0.460238 0.501442
O O4 0.232986 0.335909 0.602588
O O5 0.165338 0.634658 0.250000
O O6 0.171000 0.435354 0.385298
O O7 0.038729 0.476854 0.250000
O O8 0.110441 0.851013 0.250000
O O9 0.093591 0.043044 0.382849
O O10 0.421896 0.503216 0.250000
O O11 0.380482 0.658499 0.069364
O O12 0.500000 0.500000 0.000000
O O13 0.746981 0.293629 0.381677
O O14 0.900094 0.750000 0.000000
#
# Coordination Sequence:
#
# PCOD9440254 Si02
#       7
#     8   4   4   8   4   8   4
#     4  11  24  44  74 105 143 191 244 300 365 450
#     4  12  27  44  71 106 150 193 258 322 388 454
#     4  12  25  46  71 106 146 195 252 326 390 452
#     4  12  28  48  78 112 155 192 246 308 375 450
#     4  12  26  48  78 108 150 208 266 318 380 472
#     4  11  25  43  72 101 144 191 248 309 386 463
#     4  12  28  50  78 110 150 204 258 306 380 462
#
# _framework density 22.391323
#
# number of rings (size 3 to 8) (size 9 to 14) (size 15 to 20)
#    0.000    0.400    2.000    6.000   12.600    0.000 
#    0.000    0.000    0.000    0.000    0.000    0.000 
#    0.000    0.000    0.000    0.000    0.000    0.000 
#
# Total GULP energy -223560.178721 kJ/mol
# GULP energy per Si atom -5589.004468 kJ/mol
# Density = 2.234036 g / cm^3
# Si number density = 22.391323 Si / 1000 Ang^3
#
#
#
# Elastic Constant Matrix: (Units=GPa)
#
#
# Indices 1 2 3 4 5 6 
#
# 1 91.2832 10.5245 28.1261 0.0000 0.0000 0.0000
# 2 10.5245 121.6701 41.5419 0.0000 0.0000 0.0000
# 3 28.1261 41.5419 207.0529 0.0000 0.0000 0.0000
# 4 0.0000 0.0000 0.0000 31.6102 0.0000 0.0000
# 5 0.0000 0.0000 0.0000 0.0000 60.1978 0.0000
# 6 0.0000 0.0000 0.0000 0.0000 0.0000 25.2736
#
#
#
# Elastic Compliance Matrix: (Units=1/GPa)
#
#
# Indices 1 2 3 4 5 6 
#
# 1 0.011461 -0.000494 -0.001458 0.000000 0.000000 0.000000
# 2 -0.000494 0.008845 -0.001707 0.000000 0.000000 0.000000
# 3 -0.001458 -0.001707 0.005370 0.000000 0.000000 0.000000
# 4 0.000000 0.000000 0.000000 0.031635 0.000000 0.000000
# 5 0.000000 0.000000 0.000000 0.000000 0.016612 0.000000
# 6 0.000000 0.000000 0.000000 0.000000 0.000000 0.039567
#
#
# Mechanical properties :
#
#
# Convention : Reuss Voigt Hill
#
# Bulk Modulus (GPa) = 54.47199 64.48791 59.47995
# Shear Modulus (GPa) = 39.39260 46.07057 42.73158
#
# Velocity S-wave (km/s) = 4.19893 4.54091 4.37326
# Velocity P-wave (km/s) = 6.92012 7.50707 7.21956
#
# Compressibility (1/GPa) = 0.01835806
#
# Stress axis : x y z
#
# Youngs Moduli (GPa) = 87.25232 113.06290 186.20957
#
# Poissons Ratio (x) = 0.05581 0.27146
# Poissons Ratio (y) = 0.04307 0.31795
# Poissons Ratio (z) = 0.12720 0.19305
#
# Static dielectric constant tensor:
#      x y z
#    x 2.269590 0.000000 0.000000 
#    y 0.000000 5.626150 0.000000 
#    z 0.000000 0.000000 1.880260 
# 
# From -- ./inp_files/6313.got.cif
#   From: 2010.05.17/outbox.cif.g08.bks.cpg/sg57_4_cif.got.tgz:6313.got - 2010.06.03 13:58:18.
