data_PCOD9440887
_publ_section_title
;
Structure prediction by ZEFSAII (Michael W. Deem and Ramdas Pophale) SiO2 
 PCOD9440887
Probable space group: P N N M
;
_chemical_formula_sum "Si O2"
_cell_formula_units_Z 48
_cell_length_a 17.446389
_cell_length_b 12.471089
_cell_length_c 9.802867
_cell_angle_alpha 90.000000
_cell_angle_beta 90.000000
_cell_angle_gamma 90.000000
_cell_volume 2132.863394
_symmetry_space_group_name_H-M "P N N M"
_symmetry_group_IT_number 58
_symmetry_cell_setting 'orthorhombic'
loop_
_space_group_symop_operation_xyz
x,y,z
-x,-y,z
1/2+x,1/2-y,1/2-z
1/2-x,1/2+y,1/2-z
-x,-y,-z
x,y,-z
1/2-x,1/2+y,1/2+z
1/2+x,1/2-y,1/2+z
loop_
_atom_site_type_symbol
_atom_site_label
_atom_site_fract_x
_atom_site_fract_y
_atom_site_fract_z
Si Si1 0.166696 0.140213 0.848858
Si Si2 0.028165 0.742411 0.342203
Si Si3 0.669375 0.906910 0.771175
Si Si4 0.068941 0.412260 0.157905
Si Si5 0.248037 0.277568 0.351362
Si Si6 0.606836 0.579861 0.664513
O O1 0.252480 0.088894 0.855867
O O2 0.184778 0.243423 0.757883
O O3 0.112712 0.045058 0.795908
O O4 0.141073 0.166440 0.000000
O O5 0.006903 0.761998 0.500000
O O6 0.101934 0.661730 0.341010
O O7 0.052828 0.848540 0.259141
O O8 0.965272 0.681242 0.251882
O O9 0.638395 0.020831 0.724232
O O10 0.697933 0.829790 0.648088
O O11 0.000000 0.500000 0.154339
O O12 0.083871 0.384394 0.000000
O O13 0.215045 0.297767 0.500000
O O14 0.308546 0.368796 0.314617
O O15 0.590330 0.587661 0.500000
#
# Coordination Sequence:
#
# PCOD9440887 Si02
#       6
#     8   8   8   8   8   8
#     4   9  17  27  41  58  79 107 136 168 204 236
#     4  10  18  26  38  58  81 106 135 170 200 229
#     4   8  16  25  41  55  79 104 136 162 199 235
#     4   9  16  26  39  54  76 108 138 160 192 242
#     4   8  15  26  40  56  77 104 134 164 194 231
#     4   9  17  29  41  55  79 111 139 162 199 246
#
# _framework density 22.504957000000001
#
# number of rings (size 3 to 8) (size 9 to 14) (size 15 to 20)
#    1.000    2.167    0.000    1.500    0.000    8.333 
#    0.000    0.000    0.000    0.000    0.000    0.000 
#    0.000    1.333    0.000   12.833    0.000    3.667 
#
# Total GULP energy -267533.407121 kJ/mol
# GULP energy per Si atom -5573.612648 kJ/mol
# Density = 2.245373 g / cm^3
# Si number density = 22.504957 Si / 1000 Ang^3
#
#
#
# Elastic Constant Matrix: (Units=GPa)
#
#
# Indices 1 2 3 4 5 6 
#
# 1 72.9757 35.9704 16.6763 0.0000 0.0000 0.0000
# 2 35.9704 87.5246 19.1851 0.0000 0.0000 0.0000
# 3 16.6763 19.1851 99.3976 0.0000 0.0000 0.0000
# 4 0.0000 0.0000 0.0000 -20.5524 0.0000 0.0000
# 5 0.0000 0.0000 0.0000 0.0000 -31.0252 0.0000
# 6 0.0000 0.0000 0.0000 0.0000 0.0000 49.8196
#
#
#
# Elastic Compliance Matrix: (Units=1/GPa)
#
#
# Indices 1 2 3 4 5 6 
#
# 1 0.017427 -0.006809 -0.001610 0.000000 0.000000 0.000000
# 2 -0.006809 0.014591 -0.001674 0.000000 0.000000 0.000000
# 3 -0.001610 -0.001674 0.010654 0.000000 0.000000 0.000000
# 4 0.000000 0.000000 0.000000 -0.048656 0.000000 0.000000
# 5 0.000000 0.000000 0.000000 0.000000 -0.032232 0.000000
# 6 0.000000 0.000000 0.000000 0.000000 0.000000 0.020072
#
#
# Mechanical properties :
#
#
# Convention : Reuss Voigt Hill
#
# Bulk Modulus (GPa) = 44.47134 44.84015 44.65575
# Shear Modulus (GPa) = 524.26845 12.18617 268.22731
#
# Velocity S-wave (km/s) = 15.27948 2.32951 10.92907
# Velocity P-wave (km/s) = 18.19580 5.21568 13.38451
#
# Compressibility (1/GPa) = 0.02248639
#
# Stress axis : x y z
#
# Youngs Moduli (GPa) = 57.38089 68.53668 93.86408
#
# Poissons Ratio (x) = 0.46669 0.15108
# Poissons Ratio (y) = 0.39073 0.15711
# Poissons Ratio (z) = 0.09236 0.11471
#
# Static dielectric constant tensor:
#      x y z
#    x 1.858940 0.000000 0.000000 
#    y 0.000000 1.866440 0.000000 
#    z 0.000000 0.000000 1.787340 
# 
# From -- ./inp_files/9775.got.cif
#   From: 2010.05.17/outbox.cif.g08.bks.cpg/sg58_5_cif.got.tgz:9775.got - 2010.06.03 14:20:14.
