data_PCOD9440841
_publ_section_title
;
Structure prediction by ZEFSAII (Michael W. Deem and Ramdas Pophale) SiO2 
 PCOD9440841
Probable space group: P N N M
;
_chemical_formula_sum "Si O2"
_cell_formula_units_Z 52
_cell_length_a 18.380514
_cell_length_b 7.565321
_cell_length_c 19.158566
_cell_angle_alpha 90.000000
_cell_angle_beta 90.000000
_cell_angle_gamma 90.000000
_cell_volume 2664.084597
_symmetry_space_group_name_H-M "P N N M"
_symmetry_group_IT_number 58
_symmetry_cell_setting 'orthorhombic'
loop_
_space_group_symop_operation_xyz
x,y,z
-x,-y,z
1/2+x,1/2-y,1/2-z
1/2-x,1/2+y,1/2-z
-x,-y,-z
x,y,-z
1/2-x,1/2+y,1/2+z
1/2+x,1/2-y,1/2+z
loop_
_atom_site_type_symbol
_atom_site_label
_atom_site_fract_x
_atom_site_fract_y
_atom_site_fract_z
Si Si1 0.085885 0.364686 0.350353
Si Si2 0.257914 0.644198 0.000000
Si Si3 0.071267 0.078997 0.249218
Si Si4 0.384094 0.388098 0.000000
Si Si5 0.413044 0.783721 0.000000
Si Si6 0.749873 0.771448 0.650390
Si Si7 0.724146 0.383274 0.299735
Si Si8 0.370921 0.257486 0.153916
O O1 0.042981 0.235596 0.299640
O O2 0.058371 0.363423 0.429054
O O3 0.163290 0.261233 0.355900
O O4 0.900561 0.436850 0.325617
O O5 0.300883 0.459830 0.000000
O O6 0.323840 0.791887 0.000000
O O7 0.221310 0.663604 0.924363
O O8 0.138957 0.164184 0.207243
O O9 0.104750 0.919108 0.296621
O O10 0.000000 0.000000 0.211809
O O11 0.573214 0.425966 0.000000
O O12 0.393740 0.292903 0.926269
O O13 0.721336 0.577655 0.668098
O O14 0.742447 0.885652 0.720739
O O15 0.782727 0.266004 0.341306
#
# Coordination Sequence:
#
# PCOD9440841 Si02
#       8
#     8   4   8   4   4   8   8   8
#     4   9  18  31  50  76 105 145 185 225 269 331
#     4   8  16  26  46  74 115 137 176 224 293 327
#     4  11  22  38  54  79 117 152 187 238 291 346
#     4  10  17  31  54  81 115 152 189 233 296 333
#     4   8  13  29  48  71 113 137 184 221 268 323
#     4   9  16  29  50  74 108 138 179 231 274 332
#     4  10  19  32  54  81 105 147 194 235 283 336
#     4  11  20  34  59  82 113 151 194 237 288 340
#
# _framework density 19.518899999999999
#
# number of rings (size 3 to 8) (size 9 to 14) (size 15 to 20)
#    0.462    1.846    3.077    1.385    0.000    2.462 
#    0.000    1.538    0.000    1.846    0.000    2.154 
#    0.000    1.231    0.000    0.000    0.000    0.000 
#
# Total GULP energy -289510.492511 kJ/mol
# GULP energy per Si atom -5567.509471 kJ/mol
# Density = 1.947447 g / cm^3
# Si number density = 19.518900 Si / 1000 Ang^3
#
#
#
# Elastic Constant Matrix: (Units=GPa)
#
#
# Indices 1 2 3 4 5 6 
#
# 1 71.6371 9.6174 2.6598 0.0000 0.0000 0.0000
# 2 9.6174 76.4679 -1.4555 0.0000 0.0000 0.0000
# 3 2.6598 -1.4555 49.4958 0.0000 0.0000 0.0000
# 4 0.0000 0.0000 0.0000 35.3225 0.0000 0.0000
# 5 0.0000 0.0000 0.0000 0.0000 -10.7800 0.0000
# 6 0.0000 0.0000 0.0000 0.0000 0.0000 28.7991
#
#
#
# Elastic Compliance Matrix: (Units=1/GPa)
#
#
# Indices 1 2 3 4 5 6 
#
# 1 0.014232 -0.001806 -0.000818 0.000000 0.000000 0.000000
# 2 -0.001806 0.013314 0.000489 0.000000 0.000000 0.000000
# 3 -0.000818 0.000489 0.020262 0.000000 0.000000 0.000000
# 4 0.000000 0.000000 0.000000 0.028311 0.000000 0.000000
# 5 0.000000 0.000000 0.000000 0.000000 -0.092764 0.000000
# 6 0.000000 0.000000 0.000000 0.000000 0.000000 0.034723
#
#
# Mechanical properties :
#
#
# Convention : Reuss Voigt Hill
#
# Bulk Modulus (GPa) = 22.96843 24.36048 23.66445
# Shear Modulus (GPa) = 135.64782 23.12024 79.38403
#
# Velocity S-wave (km/s) = 8.34545 3.44540 6.38425
# Velocity P-wave (km/s) = 10.23009 5.32309 8.15445
#
# Compressibility (1/GPa) = 0.04353802
#
# Stress axis : x y z
#
# Youngs Moduli (GPa) = 70.26411 75.11020 49.35338
#
# Poissons Ratio (x) = 0.13561 0.04037
# Poissons Ratio (y) = 0.12686 -0.02411
# Poissons Ratio (z) = 0.05747 -0.03669
#
# Static dielectric constant tensor:
#      x y z
#    x 1.806000 0.000000 0.000000 
#    y 0.000000 1.723240 0.000000 
#    z 0.000000 0.000000 1.735710 
# 
# From -- ./inp_files/27282.got.cif
#   From: 2010.05.17/outbox.cif.g08.bks.cpg/sg58_14_cif.got.tgz:27282.got - 2010.06.03 14:20:14.
