data_PCOD9440018
_publ_section_title
;
Structure prediction by ZEFSAII (Michael W. Deem and Ramdas Pophale) SiO2 
 PCOD9440018
Probable space group: P B C M
;
_chemical_formula_sum "Si O2"
_cell_formula_units_Z 64
_cell_length_a 23.539508
_cell_length_b 15.518777
_cell_length_c 8.560335
_cell_angle_alpha 90.000000
_cell_angle_beta 90.000000
_cell_angle_gamma 90.000000
_cell_volume 3127.127830
_symmetry_space_group_name_H-M "P B C M"
_symmetry_group_IT_number 57
_symmetry_cell_setting 'orthorhombic'
loop_
_space_group_symop_operation_xyz
x,y,z
-x,-y,1/2+z
x,1/2-y,-z
-x,1/2+y,1/2-z
-x,-y,-z
x,y,1/2-z
-x,1/2+y,z
x,1/2-y,1/2+z
loop_
_atom_site_type_symbol
_atom_site_label
_atom_site_fract_x
_atom_site_fract_y
_atom_site_fract_z
Si Si1 0.579313 0.080051 0.067186
Si Si2 0.308950 0.981227 0.066595
Si Si3 0.862972 0.844691 0.564114
Si Si4 0.458872 0.103041 0.436773
Si Si5 0.809723 0.016445 0.063795
Si Si6 0.015888 0.094361 0.935508
Si Si7 0.344961 0.164713 0.564431
Si Si8 0.098846 0.838031 0.936784
O O1 0.590295 0.092278 0.250000
O O2 0.522708 0.133263 0.021477
O O3 0.638946 0.081757 0.978419
O O4 0.556779 0.982906 0.033876
O O5 0.311479 0.997682 0.250000
O O6 0.317422 0.073109 0.979838
O O7 0.247523 0.949178 0.015044
O O8 0.849182 0.750000 0.500000
O O9 0.858767 0.844712 0.750000
O O10 0.824102 0.920865 0.495812
O O11 0.927294 0.868930 0.513412
O O12 0.458824 0.084536 0.250000
O O13 0.406016 0.162266 0.477850
O O14 0.802579 0.014789 0.250000
O O15 0.862093 0.079634 0.026829
O O16 0.024850 0.089989 0.750000
O O17 0.961397 0.151127 0.978490
O O18 0.000000 0.000000 0.000000
O O19 0.314063 0.250000 0.500000
O O20 0.351397 0.330355 0.250000
O O21 0.090934 0.834675 0.750000
O O22 0.125765 0.750000 0.000000
#
# Coordination Sequence:
#
# PCOD9440018 Si02
#       8
#     8   8   8   8   8   8   8   8
#     4   9  16  28  48  74 103 135 173 219 273 332
#     4  11  22  36  56  81 110 147 194 242 291 346
#     4  12  25  42  64  91 126 166 207 251 304 367
#     4   9  16  27  46  73 103 134 172 219 272 330
#     4  11  24  43  64  88 121 160 207 257 307 362
#     4  12  23  39  64  94 129 164 203 249 305 366
#     4  11  21  34  52  76 110 149 191 237 290 349
#     4  11  24  42  67  95 125 159 201 251 308 367
#
# _framework density 20.466065
#
# number of rings (size 3 to 8) (size 9 to 14) (size 15 to 20)
#    0.000    1.250    1.250    7.875    0.000    3.500 
#    0.000    2.500    0.000    0.750    0.000    3.500 
#    0.000    0.000    0.000    0.000    0.000    0.000 
#
# Total GULP energy -357531.855439 kJ/mol
# GULP energy per Si atom -5586.435241 kJ/mol
# Density = 2.041948 g / cm^3
# Si number density = 20.466065 Si / 1000 Ang^3
#
#
#
# Elastic Constant Matrix: (Units=GPa)
#
#
# Indices 1 2 3 4 5 6 
#
# 1 88.5381 -12.4452 12.1388 0.0000 0.0000 0.0000
# 2 -12.4452 53.1842 2.0558 0.0000 0.0000 0.0000
# 3 12.1388 2.0558 82.7054 0.0000 0.0000 0.0000
# 4 0.0000 0.0000 0.0000 26.0421 0.0000 0.0000
# 5 0.0000 0.0000 0.0000 0.0000 33.4253 0.0000
# 6 0.0000 0.0000 0.0000 0.0000 0.0000 6.1837
#
#
#
# Elastic Compliance Matrix: (Units=1/GPa)
#
#
# Indices 1 2 3 4 5 6 
#
# 1 0.011948 0.002866 -0.001825 0.000000 0.000000 0.000000
# 2 0.002866 0.019508 -0.000906 0.000000 0.000000 0.000000
# 3 -0.001825 -0.000906 0.012381 0.000000 0.000000 0.000000
# 4 0.000000 0.000000 0.000000 0.038399 0.000000 0.000000
# 5 0.000000 0.000000 0.000000 0.000000 0.029917 0.000000
# 6 0.000000 0.000000 0.000000 0.000000 0.000000 0.161715
#
#
# Mechanical properties :
#
#
# Convention : Reuss Voigt Hill
#
# Bulk Modulus (GPa) = 22.67102 25.32517 23.99810
# Shear Modulus (GPa) = 17.34298 27.97544 22.65921
#
# Velocity S-wave (km/s) = 2.91418 3.70120 3.33101
# Velocity P-wave (km/s) = 4.73547 5.53771 5.15223
#
# Compressibility (1/GPa) = 0.04410917
#
# Stress axis : x y z
#
# Youngs Moduli (GPa) = 83.69840 51.26023 80.76594
#
# Poissons Ratio (x) = -0.14693 0.14738
# Poissons Ratio (y) = -0.23991 0.07314
# Poissons Ratio (z) = 0.15274 0.04642
#
# Static dielectric constant tensor:
#      x y z
#    x 1.771490 0.000000 0.000000 
#    y 0.000000 1.871030 0.000000 
#    z 0.000000 0.000000 1.645690 
# 
# From -- ./inp_files/9358.got.cif
#   From: 2010.05.17/outbox.cif.g08.bks.cpg/sg57_5_cif.got.tgz:9358.got - 2010.06.03 13:58:18.
