data_PCOD9440799
_publ_section_title
;
Structure prediction by ZEFSAII (Michael W. Deem and Ramdas Pophale) SiO2 
 PCOD9440799
Probable space group: P N N M
;
_chemical_formula_sum "Si O2"
_cell_formula_units_Z 40
_cell_length_a 21.367132
_cell_length_b 13.064782
_cell_length_c 7.702563
_cell_angle_alpha 90.000000
_cell_angle_beta 90.000000
_cell_angle_gamma 90.000000
_cell_volume 2150.223775
_symmetry_space_group_name_H-M "P N N M"
_symmetry_group_IT_number 58
_symmetry_cell_setting 'orthorhombic'
loop_
_space_group_symop_operation_xyz
x,y,z
-x,-y,z
1/2+x,1/2-y,1/2-z
1/2-x,1/2+y,1/2-z
-x,-y,-z
x,y,-z
1/2-x,1/2+y,1/2+z
1/2+x,1/2-y,1/2+z
loop_
_atom_site_type_symbol
_atom_site_label
_atom_site_fract_x
_atom_site_fract_y
_atom_site_fract_z
Si Si1 0.300687 0.641476 0.212085
Si Si2 0.798642 0.084427 0.292764
Si Si3 0.433762 0.032386 0.700856
Si Si4 0.157941 0.356284 0.297985
Si Si5 0.660426 0.801222 0.291463
O O1 0.320810 0.527881 0.264624
O O2 0.340451 0.739614 0.270277
O O3 0.228640 0.659053 0.269391
O O4 0.300825 0.646083 0.000000
O O5 0.790553 0.081252 0.500000
O O6 0.729944 0.106712 0.215701
O O7 0.841822 0.181052 0.249013
O O8 0.446715 0.060357 0.500000
O O9 0.387034 0.935951 0.705290
O O10 0.500000 0.000000 0.780850
O O11 0.395101 0.127721 0.778285
O O12 0.139853 0.355845 0.500000
O O13 0.661300 0.812714 0.500000
#
# Coordination Sequence:
#
# PCOD9440799 Si02
#       5
#     8   8   8   8   8
#     4   8  15  28  46  67  97 127 150 194 245 286
#     4  10  17  29  49  72  98 128 160 195 244 300
#     4  10  20  35  53  70  96 134 169 203 244 291
#     4  10  19  31  47  71 100 128 160 200 246 288
#     4   9  17  31  46  68  99 126 158 201 247 285
#
# _framework density 18.602715
#
# number of rings (size 3 to 8) (size 9 to 14) (size 15 to 20)
#    0.000    2.600    2.000    2.400    0.000    1.200 
#    0.000    3.000    0.000    1.200    0.000    8.400 
#    0.000    0.000    0.000    0.000    0.000    0.000 
#
# Total GULP energy -222929.031709 kJ/mol
# GULP energy per Si atom -5573.225793 kJ/mol
# Density = 1.856037 g / cm^3
# Si number density = 18.602715 Si / 1000 Ang^3
#
#
#
# Elastic Constant Matrix: (Units=GPa)
#
#
# Indices 1 2 3 4 5 6 
#
# 1 44.3113 27.8007 -7.4461 0.0000 0.0000 0.0000
# 2 27.8007 148.6226 -15.2997 0.0000 0.0000 0.0000
# 3 -7.4461 -15.2997 31.5278 0.0000 0.0000 0.0000
# 4 0.0000 0.0000 0.0000 20.9786 0.0000 0.0000
# 5 0.0000 0.0000 0.0000 0.0000 11.0388 0.0000
# 6 0.0000 0.0000 0.0000 0.0000 0.0000 14.0463
#
#
#
# Elastic Compliance Matrix: (Units=1/GPa)
#
#
# Indices 1 2 3 4 5 6 
#
# 1 0.026035 -0.004460 0.003985 0.000000 0.000000 0.000000
# 2 -0.004460 0.007846 0.002754 0.000000 0.000000 0.000000
# 3 0.003985 0.002754 0.033996 0.000000 0.000000 0.000000
# 4 0.000000 0.000000 0.000000 0.047668 0.000000 0.000000
# 5 0.000000 0.000000 0.000000 0.000000 0.090589 0.000000
# 6 0.000000 0.000000 0.000000 0.000000 0.000000 0.071193
#
#
# Mechanical properties :
#
#
# Convention : Reuss Voigt Hill
#
# Bulk Modulus (GPa) = 13.80540 26.06349 19.93444
# Shear Modulus (GPa) = 16.83988 23.83988 20.33988
#
# Velocity S-wave (km/s) = 3.01198 3.58373 3.31022
# Velocity P-wave (km/s) = 4.41965 5.58257 5.03480
#
# Compressibility (1/GPa) = 0.07243542
#
# Stress axis : x y z
#
# Youngs Moduli (GPa) = 38.40941 127.44984 29.41548
#
# Poissons Ratio (x) = 0.56841 -0.11721
# Poissons Ratio (y) = 0.17130 -0.08102
# Poissons Ratio (z) = -0.15305 -0.35103
#
# Static dielectric constant tensor:
#      x y z
#    x 1.614030 0.000000 0.000000 
#    y 0.000000 1.688680 0.000000 
#    z 0.000000 0.000000 1.682600 
# 
# From -- ./inp_files/3811.got.cif
#   From: 2010.05.17/outbox.cif.g08.bks.cpg/sg58_2_cif.got.tgz:3811.got - 2010.06.03 14:20:14.
