data_PCOD9440521
_publ_section_title
;
Structure prediction by ZEFSAII (Michael W. Deem and Ramdas Pophale) SiO2 
 PCOD9440521
Probable space group: P B C M
;
_chemical_formula_sum "Si O2"
_cell_formula_units_Z 48
_cell_length_a 9.000000
_cell_length_b 30.000000
_cell_length_c 9.000000
_cell_angle_alpha 90.000000
_cell_angle_beta 90.000000
_cell_angle_gamma 90.000000
_cell_volume 2430.000000
_symmetry_space_group_name_H-M "P B C M"
_symmetry_group_IT_number 57
_symmetry_cell_setting 'orthorhombic'
loop_
_space_group_symop_operation_xyz
x,y,z
-x,-y,1/2+z
x,1/2-y,-z
-x,1/2+y,1/2-z
-x,-y,-z
x,y,1/2-z
-x,1/2+y,z
x,1/2-y,1/2+z
loop_
_atom_site_type_symbol
_atom_site_label
_atom_site_fract_x
_atom_site_fract_y
_atom_site_fract_z
Si Si1 0.670273 0.628578 0.920949
Si Si2 0.194685 0.848163 0.927402
Si Si3 0.550825 0.203082 0.929780
Si Si4 0.930847 0.798814 0.423822
Si Si5 0.176329 0.455060 0.571540
Si Si6 0.849785 0.057032 0.928650
O O1 0.647231 0.613827 0.750000
O O2 0.530614 0.656988 0.976265
O O3 0.786366 0.669757 0.916551
O O4 0.718894 0.585052 0.013030
O O5 0.214419 0.849587 0.750000
O O6 0.289896 0.808683 0.003409
O O7 0.216121 0.898062 0.996257
O O8 0.033592 0.830405 0.974971
O O9 0.547328 0.206304 0.750000
O O10 0.496943 0.250000 0.000000
O O11 0.912221 0.750000 0.500000
O O12 0.981238 0.793342 0.250000
O O13 0.158452 0.451435 0.750000
O O14 0.219189 0.507359 0.540716
O O15 0.018238 0.446944 0.490552
O O16 0.850927 0.063299 0.750000
#
# Coordination Sequence:
#
# PCOD9440521 Si02
#       6
#     8   8   8   8   8   8
#     4  10  22  39  61  87 119 157 198 243 298 352
#     4  12  24  39  60  88 117 156 201 247 298 353
#     4  11  24  43  63  86 118 161 202 245 298 356
#     4  11  22  37  58  86 117 151 192 247 297 351
#     4  10  20  34  59  91 122 156 195 241 296 354
#     4  10  20  36  58  88 123 157 195 243 296 353
#
# _framework density 19.753086
#
# number of rings (size 3 to 8) (size 9 to 14) (size 15 to 20)
#    0.000    1.333    1.667    4.500    0.000    4.000 
#    0.000    0.833    0.000    0.000    0.000    0.000 
#    0.000    0.000    0.000    0.000    0.000    0.000 
#
# Total GULP energy -267558.343043 kJ/mol
# GULP energy per Si atom -5574.132147 kJ/mol
# Density = 1.970813 g / cm^3
# Si number density = 19.753086 Si / 1000 Ang^3
#
#
#
# Elastic Constant Matrix: (Units=GPa)
#
#
# Indices 1 2 3 4 5 6 
#
# 1 12.8800 -4.9504 -5.9358 0.0000 0.0000 0.0000
# 2 -4.9504 152.1471 48.7073 0.0000 0.0000 0.0000
# 3 -5.9358 48.7073 90.6745 0.0000 0.0000 0.0000
# 4 0.0000 0.0000 0.0000 37.4691 0.0000 0.0000
# 5 0.0000 0.0000 0.0000 0.0000 12.4424 0.0000
# 6 0.0000 0.0000 0.0000 0.0000 0.0000 31.2771
#
#
#
# Elastic Compliance Matrix: (Units=1/GPa)
#
#
# Indices 1 2 3 4 5 6 
#
# 1 0.080213 0.001122 0.004648 0.000000 0.000000 0.000000
# 2 0.001122 0.007953 -0.004199 0.000000 0.000000 0.000000
# 3 0.004648 -0.004199 0.013588 0.000000 0.000000 0.000000
# 4 0.000000 0.000000 0.000000 0.026689 0.000000 0.000000
# 5 0.000000 0.000000 0.000000 0.000000 0.080370 0.000000
# 6 0.000000 0.000000 0.000000 0.000000 0.000000 0.031972
#
#
# Mechanical properties :
#
#
# Convention : Reuss Voigt Hill
#
# Bulk Modulus (GPa) = 9.53313 36.81599 23.17456
# Shear Modulus (GPa) = 18.34131 30.76311 24.55221
#
# Velocity S-wave (km/s) = 3.05048 3.95065 3.52938
# Velocity P-wave (km/s) = 4.15258 6.28401 5.32600
#
# Compressibility (1/GPa) = 0.10489731
#
# Stress axis : x y z
#
# Youngs Moduli (GPa) = 12.46679 125.73468 73.59323
#
# Poissons Ratio (x) = -0.14105 -0.34209
# Poissons Ratio (y) = -0.01399 0.30900
# Poissons Ratio (z) = -0.05795 0.52793
#
# Static dielectric constant tensor:
#      x y z
#    x 1.763970 0.000000 0.000000 
#    y 0.000000 1.672080 0.000000 
#    z 0.000000 0.000000 1.672090 
# 
# From -- ./inp_files/2098.got.cif
#   From: 2010.05.17/outbox.ucp.g08.bks.cvg/sg57_2_cif.got.tgz:2098.got - 2010.06.11 16:39:23.
