data_PCOD9440390
_publ_section_title
;
Structure prediction by ZEFSAII (Michael W. Deem and Ramdas Pophale) SiO2 
 PCOD9440390
Probable space group: P B C M
;
_chemical_formula_sum "Si O2"
_cell_formula_units_Z 64
_cell_length_a 15.000000
_cell_length_b 18.000000
_cell_length_c 15.000000
_cell_angle_alpha 90.000000
_cell_angle_beta 90.000000
_cell_angle_gamma 90.000000
_cell_volume 4050.000000
_symmetry_space_group_name_H-M "P B C M"
_symmetry_group_IT_number 57
_symmetry_cell_setting 'orthorhombic'
loop_
_space_group_symop_operation_xyz
x,y,z
-x,-y,1/2+z
x,1/2-y,-z
-x,1/2+y,1/2-z
-x,-y,-z
x,y,1/2-z
-x,1/2+y,z
x,1/2-y,1/2+z
loop_
_atom_site_type_symbol
_atom_site_label
_atom_site_fract_x
_atom_site_fract_y
_atom_site_fract_z
Si Si1 0.162828 0.747925 0.647647
Si Si2 0.457314 0.625899 0.146145
Si Si3 0.640311 0.224944 0.855441
Si Si4 0.649590 0.943505 0.855107
Si Si5 0.147459 0.076159 0.355636
Si Si6 0.000822 0.325403 0.545974
Si Si7 0.137928 0.589395 0.566526
Si Si8 0.338236 0.585487 0.518200
O O1 0.154397 0.767040 0.750000
O O2 0.264753 0.763549 0.620002
O O3 0.152378 0.659125 0.633281
O O4 0.085302 0.791466 0.597481
O O5 0.435334 0.606997 0.250000
O O6 0.435638 0.713330 0.135730
O O7 0.561148 0.606040 0.132335
O O8 0.393789 0.586108 0.073505
O O9 0.646521 0.202983 0.750000
O O10 0.631937 0.155981 0.921571
O O11 0.651151 0.966704 0.750000
O O12 0.747124 0.907479 0.872489
O O13 0.642891 0.013381 0.921119
O O14 0.133350 0.078237 0.250000
O O15 0.078395 0.132999 0.400689
O O16 0.131657 0.991544 0.389495
O O17 0.037737 0.250000 0.500000
O O18 0.952304 0.386612 0.483652
O O19 0.230049 0.588875 0.508880
#
# Coordination Sequence:
#
# PCOD9440390 Si02
#       8
#     8   8   8   8   8   8   8   8
#     4   9  16  28  46  71  97 121 149 185 230 279
#     4  10  19  30  44  67  96 122 147 184 230 276
#     4   9  17  28  46  71  97 120 147 184 230 278
#     4   9  19  33  49  68  90 117 157 199 227 257
#     4  10  19  33  51  68  87 121 162 195 226 267
#     4  10  19  30  45  68  97 124 149 185 231 278
#     4   9  18  30  48  71  96 118 148 193 234 271
#     4  10  17  30  50  70  91 121 152 185 230 280
#
# _framework density 15.802469
#
# number of rings (size 3 to 8) (size 9 to 14) (size 15 to 20)
#    0.000    2.500    0.000    3.000    0.000    5.000 
#    0.000    1.875    0.000    0.000    0.000    1.750 
#    0.000    0.000    0.000    0.000    0.000    0.000 
#
# Total GULP energy -356395.815498 kJ/mol
# GULP energy per Si atom -5568.684617 kJ/mol
# Density = 1.576650 g / cm^3
# Si number density = 15.802469 Si / 1000 Ang^3
#
#
#
# Elastic Constant Matrix: (Units=GPa)
#
#
# Indices 1 2 3 4 5 6 
#
# 1 114.3419 63.6622 58.2538 0.0000 0.0000 0.0000
# 2 63.6622 84.1197 40.6678 0.0000 0.0000 0.0000
# 3 58.2538 40.6678 76.9909 0.0000 0.0000 0.0000
# 4 0.0000 0.0000 0.0000 22.1837 0.0000 0.0000
# 5 0.0000 0.0000 0.0000 0.0000 28.0079 0.0000
# 6 0.0000 0.0000 0.0000 0.0000 0.0000 27.0744
#
#
#
# Elastic Compliance Matrix: (Units=1/GPa)
#
#
# Indices 1 2 3 4 5 6 
#
# 1 0.018870 -0.009909 -0.009044 0.000000 0.000000 0.000000
# 2 -0.009909 0.021168 -0.003684 0.000000 0.000000 0.000000
# 3 -0.009044 -0.003684 0.021777 0.000000 0.000000 0.000000
# 4 0.000000 0.000000 0.000000 0.045078 0.000000 0.000000
# 5 0.000000 0.000000 0.000000 0.000000 0.035704 0.000000
# 6 0.000000 0.000000 0.000000 0.000000 0.000000 0.036935
#
#
# Mechanical properties :
#
#
# Convention : Reuss Voigt Hill
#
# Bulk Modulus (GPa) = 60.45099 66.73557 63.59328
# Shear Modulus (GPa) = 21.70895 22.97778 22.34336
#
# Velocity S-wave (km/s) = 3.71046 3.81735 3.76429
# Velocity P-wave (km/s) = 7.52953 7.85827 7.69566
#
# Compressibility (1/GPa) = 0.01654233
#
# Stress axis : x y z
#
# Youngs Moduli (GPa) = 52.99375 47.24155 45.91952
#
# Poissons Ratio (x) = 0.46811 0.41529
# Poissons Ratio (y) = 0.52510 0.16916
# Poissons Ratio (z) = 0.47926 0.17403
#
# Static dielectric constant tensor:
#      x y z
#    x 1.525700 0.000000 0.000000 
#    y 0.000000 1.516620 0.000000 
#    z 0.000000 0.000000 1.553420 
# 
# From -- ./inp_files/17969.got.cif
#   From: 2010.05.17/outbox.ucp.g08.bks.cvg/sg57_9_cif.got.tgz:17969.got - 2010.06.11 16:39:23.
