data_PCOD9440127
_publ_section_title
;
Structure prediction by ZEFSAII (Michael W. Deem and Ramdas Pophale) SiO2 
 PCOD9440127
Probable space group: P B C M
;
_chemical_formula_sum "Si O2"
_cell_formula_units_Z 40
_cell_length_a 7.561667
_cell_length_b 13.613624
_cell_length_c 18.208129
_cell_angle_alpha 90.000000
_cell_angle_beta 90.000000
_cell_angle_gamma 90.000000
_cell_volume 1874.375596
_symmetry_space_group_name_H-M "P B C M"
_symmetry_group_IT_number 57
_symmetry_cell_setting 'orthorhombic'
loop_
_space_group_symop_operation_xyz
x,y,z
-x,-y,1/2+z
x,1/2-y,-z
-x,1/2+y,1/2-z
-x,-y,-z
x,y,1/2-z
-x,1/2+y,z
x,1/2-y,1/2+z
loop_
_atom_site_type_symbol
_atom_site_label
_atom_site_fract_x
_atom_site_fract_y
_atom_site_fract_z
Si Si1 0.179019 0.159238 0.046637
Si Si2 0.423092 0.803226 0.576234
Si Si3 0.643352 0.125680 0.664269
Si Si4 0.028915 0.020080 0.165192
Si Si5 0.688063 0.972413 0.413784
O O1 0.362810 0.196377 0.082818
O O2 0.060492 0.109028 0.108353
O O3 0.100685 0.250000 0.000000
O O4 0.237302 0.077565 0.987170
O O5 0.380447 0.750000 0.500000
O O6 0.337068 0.738496 0.640133
O O7 0.362197 0.914779 0.573674
O O8 0.598030 0.118473 0.750000
O O9 0.816276 0.059540 0.651921
O O10 0.485024 0.082846 0.614999
O O11 0.037906 0.051318 0.250000
O O12 0.842413 0.971046 0.146398
#
# Coordination Sequence:
#
# PCOD9440127 Si02
#       5
#     8   8   8   8   8
#     4  11  22  43  70 101 131 175 224 277 334 394
#     4  11  22  41  71  97 130 173 224 274 329 397
#     4  11  24  43  66  96 136 176 219 278 335 393
#     4  11  26  44  66 101 139 177 225 277 335 404
#     4  12  23  44  70  96 134 179 225 269 339 397
#
# _framework density 21.340439
#
# number of rings (size 3 to 8) (size 9 to 14) (size 15 to 20)
#    0.000    0.800    6.000    3.000    0.000    4.800 
#    0.000    2.000    0.000    0.000    0.000    0.000 
#    0.000    0.000    0.000    0.000    0.000    0.000 
#
# Total GULP energy -223916.811460 kJ/mol
# GULP energy per Si atom -5597.920287 kJ/mol
# Density = 2.129187 g / cm^3
# Si number density = 21.340439 Si / 1000 Ang^3
#
#
#
# Elastic Constant Matrix: (Units=GPa)
#
#
# Indices 1 2 3 4 5 6 
#
# 1 60.5669 11.4874 14.0323 0.0000 0.0000 0.0000
# 2 11.4874 125.6396 29.3492 0.0000 0.0000 0.0000
# 3 14.0323 29.3492 58.4781 0.0000 0.0000 0.0000
# 4 0.0000 0.0000 0.0000 33.9027 0.0000 0.0000
# 5 0.0000 0.0000 0.0000 0.0000 24.8122 0.0000
# 6 0.0000 0.0000 0.0000 0.0000 0.0000 -32.6422
#
#
#
# Elastic Compliance Matrix: (Units=1/GPa)
#
#
# Indices 1 2 3 4 5 6 
#
# 1 0.017537 -0.000703 -0.003855 0.000000 0.000000 0.000000
# 2 -0.000703 0.009045 -0.004371 0.000000 0.000000 0.000000
# 3 -0.003855 -0.004371 0.020219 0.000000 0.000000 0.000000
# 4 0.000000 0.000000 0.000000 0.029496 0.000000 0.000000
# 5 0.000000 0.000000 0.000000 0.000000 0.040303 0.000000
# 6 0.000000 0.000000 0.000000 0.000000 0.000000 -0.030635
#
#
# Mechanical properties :
#
#
# Convention : Reuss Voigt Hill
#
# Bulk Modulus (GPa) = 34.55071 39.38029 36.96550
# Shear Modulus (GPa) = 44.06453 17.86894 30.96673
#
# Velocity S-wave (km/s) = 4.54898 2.89680 3.81344
# Velocity P-wave (km/s) = 6.61939 5.44812 6.06211
#
# Compressibility (1/GPa) = 0.02894297
#
# Stress axis : x y z
#
# Youngs Moduli (GPa) = 57.02165 110.56424 49.45814
#
# Poissons Ratio (x) = 0.07771 0.19068
# Poissons Ratio (y) = 0.04008 0.21616
# Poissons Ratio (z) = 0.21984 0.48324
#
# Static dielectric constant tensor:
#      x y z
#    x 1.776210 0.000000 0.000000 
#    y 0.000000 1.782120 0.000000 
#    z 0.000000 0.000000 1.746470 
# 
# From -- ./inp_files/20514.got.cif
#   From: 2010.05.17/outbox.cif.g08.bks.cpg/sg57_11_cif.got.tgz:20514.got - 2010.06.03 13:58:18.
