data_PCOD9440070
_publ_section_title
;
Structure prediction by ZEFSAII (Michael W. Deem and Ramdas Pophale) SiO2 
 PCOD9440070
Probable space group: P B C M
;
_chemical_formula_sum "Si O2"
_cell_formula_units_Z 48
_cell_length_a 8.445359
_cell_length_b 14.569304
_cell_length_c 19.960920
_cell_angle_alpha 90.000000
_cell_angle_beta 90.000000
_cell_angle_gamma 90.000000
_cell_volume 2456.051533
_symmetry_space_group_name_H-M "P B C M"
_symmetry_group_IT_number 57
_symmetry_cell_setting 'orthorhombic'
loop_
_space_group_symop_operation_xyz
x,y,z
-x,-y,1/2+z
x,1/2-y,-z
-x,1/2+y,1/2-z
-x,-y,-z
x,y,1/2-z
-x,1/2+y,z
x,1/2-y,1/2+z
loop_
_atom_site_type_symbol
_atom_site_label
_atom_site_fract_x
_atom_site_fract_y
_atom_site_fract_z
Si Si1 0.381951 0.892839 0.176994
Si Si2 0.064649 0.722386 0.827505
Si Si3 0.213363 0.216296 0.928735
Si Si4 0.586799 0.967615 0.432374
Si Si5 0.417943 0.207842 0.321859
Si Si6 0.258696 0.593354 0.173305
O O1 0.375677 0.937948 0.250000
O O2 0.216576 0.843167 0.163439
O O3 0.442478 0.958388 0.120025
O O4 0.511882 0.811344 0.180114
O O5 0.014702 0.713285 0.750000
O O6 0.127132 0.827140 0.837055
O O7 0.928736 0.694294 0.878355
O O8 0.328824 0.130551 0.942853
O O9 0.310940 0.293762 0.887433
O O10 0.152718 0.250000 0.000000
O O11 0.500000 0.000000 0.500000
O O12 0.717661 0.027049 0.390562
O O13 0.336363 0.190443 0.250000
O O14 0.573103 0.145968 0.325034
O O15 0.236257 0.554278 0.250000
#
# Coordination Sequence:
#
# PCOD9440070 Si02
#       6
#     8   8   8   8   8   8
#     4   8  16  33  56  78 100 135 181 221 260 315
#     4   9  19  37  59  80 104 139 182 224 270 327
#     4  11  22  35  52  77 111 149 184 217 264 329
#     4  11  22  35  54  81 113 145 181 227 274 321
#     4   8  15  31  55  77  98 131 178 223 261 313
#     4   9  18  35  58  81 104 133 175 228 278 319
#
# _framework density 19.543565000000001
#
# number of rings (size 3 to 8) (size 9 to 14) (size 15 to 20)
#    0.000    2.667    0.000    4.000    0.000    3.333 
#    0.000    6.667    0.000    4.000    0.000    0.000 
#    0.000    0.000    0.000    0.000    0.000    0.000 
#
# Total GULP energy -267297.417183 kJ/mol
# GULP energy per Si atom -5568.696191 kJ/mol
# Density = 1.949908 g / cm^3
# Si number density = 19.543565 Si / 1000 Ang^3
#
#
#
# Elastic Constant Matrix: (Units=GPa)
#
#
# Indices 1 2 3 4 5 6 
#
# 1 56.7505 -2.6659 40.9331 0.0000 0.0000 0.0000
# 2 -2.6659 35.9428 29.6001 0.0000 0.0000 0.0000
# 3 40.9331 29.6001 132.0636 0.0000 0.0000 0.0000
# 4 0.0000 0.0000 0.0000 18.6128 0.0000 0.0000
# 5 0.0000 0.0000 0.0000 0.0000 27.0893 0.0000
# 6 0.0000 0.0000 0.0000 0.0000 0.0000 13.8975
#
#
#
# Elastic Compliance Matrix: (Units=1/GPa)
#
#
# Indices 1 2 3 4 5 6 
#
# 1 0.025458 0.010285 -0.010196 0.000000 0.000000 0.000000
# 2 0.010285 0.038275 -0.011767 0.000000 0.000000 0.000000
# 3 -0.010196 -0.011767 0.013370 0.000000 0.000000 0.000000
# 4 0.000000 0.000000 0.000000 0.053726 0.000000 0.000000
# 5 0.000000 0.000000 0.000000 0.000000 0.036915 0.000000
# 6 0.000000 0.000000 0.000000 0.000000 0.000000 0.071956
#
#
# Mechanical properties :
#
#
# Convention : Reuss Voigt Hill
#
# Bulk Modulus (GPa) = 18.60544 40.05463 29.33003
# Shear Modulus (GPa) = 17.79543 22.37923 20.08733
#
# Velocity S-wave (km/s) = 3.02081 3.38760 3.20945
# Velocity P-wave (km/s) = 4.65915 5.98670 5.36415
#
# Compressibility (1/GPa) = 0.05374773
#
# Stress axis : x y z
#
# Youngs Moduli (GPa) = 39.27987 26.12671 74.79612
#
# Poissons Ratio (x) = -0.26871 0.76262
# Poissons Ratio (y) = -0.40399 0.88010
# Poissons Ratio (z) = 0.40050 0.30742
#
# Static dielectric constant tensor:
#      x y z
#    x 1.666000 0.000000 0.000000 
#    y 0.000000 1.724190 0.000000 
#    z 0.000000 0.000000 1.788750 
# 
# From -- ./inp_files/20955.got.cif
#   From: 2010.05.17/outbox.cif.g08.bks.cpg/sg57_11_cif.got.tgz:20955.got - 2010.06.03 13:58:18.
