data_PCOD9440735
_publ_section_title
;
Structure prediction by ZEFSAII (Michael W. Deem and Ramdas Pophale) SiO2 
 PCOD9440735
Probable space group: P N N M
;
_chemical_formula_sum "Si O2"
_cell_formula_units_Z 64
_cell_length_a 27.079744
_cell_length_b 18.883920
_cell_length_c 9.045389
_cell_angle_alpha 90.000000
_cell_angle_beta 90.000000
_cell_angle_gamma 90.000000
_cell_volume 4625.556125
_symmetry_space_group_name_H-M "P N N M"
_symmetry_group_IT_number 58
_symmetry_cell_setting 'orthorhombic'
loop_
_space_group_symop_operation_xyz
x,y,z
-x,-y,z
1/2+x,1/2-y,1/2-z
1/2-x,1/2+y,1/2-z
-x,-y,-z
x,y,-z
1/2-x,1/2+y,1/2+z
1/2+x,1/2-y,1/2+z
loop_
_atom_site_type_symbol
_atom_site_label
_atom_site_fract_x
_atom_site_fract_y
_atom_site_fract_z
Si Si1 0.742038 0.418836 0.321314
Si Si2 0.746800 0.583495 0.677101
Si Si3 0.645633 0.665237 0.324107
Si Si4 0.555518 0.419625 0.179197
Si Si5 0.304190 0.209818 0.830188
Si Si6 0.651461 0.335005 0.177950
Si Si7 0.943215 0.082970 0.321281
Si Si8 0.800676 0.706481 0.170223
O O1 0.735261 0.412654 0.500000
O O2 0.748923 0.500904 0.284065
O O3 0.788945 0.369249 0.282911
O O4 0.694257 0.386149 0.241681
O O5 0.752276 0.590463 0.500000
O O6 0.692847 0.615566 0.715646
O O7 0.787719 0.631810 0.755626
O O8 0.640589 0.664402 0.500000
O O9 0.659415 0.743725 0.268148
O O10 0.597227 0.633656 0.248772
O O11 0.598825 0.367085 0.225810
O O12 0.499715 0.400761 0.224406
O O13 0.566273 0.500960 0.222980
O O14 0.555172 0.419844 0.000000
O O15 0.251519 0.250881 0.827282
O O16 0.321543 0.209106 0.000000
O O17 0.662172 0.257005 0.241327
O O18 0.654238 0.334084 0.000000
O O19 0.940342 0.086787 0.500000
O O20 0.815598 0.698836 0.000000
#
# Coordination Sequence:
#
# PCOD9440735 Si02
#       8
#     8   8   8   8   8   8   8   8
#     4   9  17  28  41  59  82 106 134 165 198 236
#     4   9  17  28  41  58  82 108 132 164 201 235
#     4  10  18  26  38  58  81 104 132 164 199 233
#     4   8  16  28  42  59  77 102 136 169 196 229
#     4   8  15  27  40  53  73 104 135 160 189 229
#     4  10  17  26  41  59  79 105 137 167 199 235
#     4   9  16  29  44  56  76 105 136 167 197 229
#     4   9  17  28  40  56  78 104 135 166 196 234
#
# _framework density 13.836175000000001
#
# number of rings (size 3 to 8) (size 9 to 14) (size 15 to 20)
#    0.000    3.000    0.000    3.375    0.000    4.000 
#    0.000    3.125    0.000    0.000    0.000    0.000 
#    0.000    1.000    0.000   11.500    0.000    4.500 
#
# Total GULP energy -356344.356415 kJ/mol
# GULP energy per Si atom -5567.880569 kJ/mol
# Density = 1.380468 g / cm^3
# Si number density = 13.836175 Si / 1000 Ang^3
#
#
#
# Elastic Constant Matrix: (Units=GPa)
#
#
# Indices 1 2 3 4 5 6 
#
# 1 86.6524 58.2653 37.1926 0.0000 0.0000 0.0000
# 2 58.2653 111.4932 39.8638 0.0000 0.0000 0.0000
# 3 37.1926 39.8638 37.2207 0.0000 0.0000 0.0000
# 4 0.0000 0.0000 0.0000 18.4130 0.0000 0.0000
# 5 0.0000 0.0000 0.0000 0.0000 16.8666 0.0000
# 6 0.0000 0.0000 0.0000 0.0000 0.0000 25.6176
#
#
#
# Elastic Compliance Matrix: (Units=1/GPa)
#
#
# Indices 1 2 3 4 5 6 
#
# 1 0.022447 -0.006014 -0.015989 0.000000 0.000000 0.000000
# 2 -0.006014 0.016146 -0.011284 0.000000 0.000000 0.000000
# 3 -0.015989 -0.011284 0.054929 0.000000 0.000000 0.000000
# 4 0.000000 0.000000 0.000000 0.054310 0.000000 0.000000
# 5 0.000000 0.000000 0.000000 0.000000 0.059289 0.000000
# 6 0.000000 0.000000 0.000000 0.000000 0.000000 0.039036
#
#
# Mechanical properties :
#
#
# Convention : Reuss Voigt Hill
#
# Bulk Modulus (GPa) = 37.10738 56.22331 46.66535
# Shear Modulus (GPa) = 15.54188 18.84908 17.19548
#
# Velocity S-wave (km/s) = 3.35517 3.69494 3.52915
# Velocity P-wave (km/s) = 6.47201 7.67637 7.09977
#
# Compressibility (1/GPa) = 0.02694881
#
# Stress axis : x y z
#
# Youngs Moduli (GPa) = 44.54995 61.93394 18.20541
#
# Poissons Ratio (x) = 0.37245 0.29109
# Poissons Ratio (y) = 0.26791 0.20542
# Poissons Ratio (z) = 0.71231 0.69884
#
# Static dielectric constant tensor:
#      x y z
#    x 1.437000 0.000000 0.000000 
#    y 0.000000 1.457790 0.000000 
#    z 0.000000 0.000000 1.462140 
# 
# From -- ./inp_files/8544.got.cif
#   From: 2010.05.17/outbox.cif.g08.bks.cpg/sg58_5_cif.got.tgz:8544.got - 2010.06.03 14:20:14.
