data_PCOD9440889
_publ_section_title
;
Structure prediction by ZEFSAII (Michael W. Deem and Ramdas Pophale) SiO2 
 PCOD9440889
Probable space group: P N N M
;
_chemical_formula_sum "Si O2"
_cell_formula_units_Z 64
_cell_length_a 19.283354
_cell_length_b 22.816742
_cell_length_c 7.338951
_cell_angle_alpha 90.000000
_cell_angle_beta 90.000000
_cell_angle_gamma 90.000000
_cell_volume 3229.015976
_symmetry_space_group_name_H-M "P N N M"
_symmetry_group_IT_number 58
_symmetry_cell_setting 'orthorhombic'
loop_
_space_group_symop_operation_xyz
x,y,z
-x,-y,z
1/2+x,1/2-y,1/2-z
1/2-x,1/2+y,1/2-z
-x,-y,-z
x,y,-z
1/2-x,1/2+y,1/2+z
1/2+x,1/2-y,1/2+z
loop_
_atom_site_type_symbol
_atom_site_label
_atom_site_fract_x
_atom_site_fract_y
_atom_site_fract_z
Si Si1 0.578280 0.516244 0.722283
Si Si2 0.873966 0.265999 0.788461
Si Si3 0.427215 0.352640 0.277520
Si Si4 0.079791 0.193489 0.777516
Si Si5 0.967660 0.684881 0.788309
Si Si6 0.523610 0.935617 0.723194
Si Si7 0.673714 0.410703 0.283469
Si Si8 0.828995 0.386620 0.217840
O O1 0.500000 0.500000 0.774885
O O2 0.579645 0.516474 0.500000
O O3 0.593226 0.582555 0.781028
O O4 0.630976 0.466452 0.786245
O O5 0.879060 0.200725 0.711846
O O6 0.953379 0.290030 0.784284
O O7 0.830425 0.319700 0.709377
O O8 0.853547 0.259531 0.000000
O O9 0.426312 0.351417 0.500000
O O10 0.506758 0.337476 0.227482
O O11 0.141122 0.150681 0.716023
O O12 0.077391 0.261064 0.712644
O O13 0.080354 0.196411 0.000000
O O14 0.975300 0.618938 0.714704
O O15 0.947636 0.678456 0.000000
O O16 0.522336 0.934707 0.500000
O O17 0.602445 0.920792 0.780995
O O18 0.500000 0.000000 0.780501
O O19 0.662175 0.409819 0.500000
O O20 0.755280 0.415093 0.253032
O O21 0.837178 0.382054 0.000000
#
# Coordination Sequence:
#
# PCOD9440889 Si02
#       8
#     8   8   8   8   8   8   8   8
#     4   9  14  21  35  60  88 109 135 174 211 238
#     4   7  11  20  36  56  74  95 127 166 201 233
#     4   8  11  18  35  58  80  98 128 175 210 226
#     4   8  12  19  33  56  81 100 123 165 209 235
#     4   7  10  17  32  56  79  93 117 164 210 235
#     4   8  13  23  42  64  80  99 136 182 215 240
#     4  10  18  26  40  62  87 113 138 165 204 254
#     4   9  17  29  43  60  83 109 138 171 211 253
#
# _framework density 19.82028
#
# number of rings (size 3 to 8) (size 9 to 14) (size 15 to 20)
#    0.000    3.750    1.250    3.000    0.000    0.000 
#    0.000    0.000    2.750    0.750    0.000    7.875 
#    0.000    0.000    0.000    0.000    0.000    0.000 
#
# Total GULP energy -356335.529392 kJ/mol
# GULP energy per Si atom -5567.742647 kJ/mol
# Density = 1.977517 g / cm^3
# Si number density = 19.820280 Si / 1000 Ang^3
#
#
#
# Elastic Constant Matrix: (Units=GPa)
#
#
# Indices 1 2 3 4 5 6 
#
# 1 76.1444 76.0107 0.0264 0.0000 0.0000 0.0000
# 2 76.0107 220.8305 10.9622 0.0000 0.0000 0.0000
# 3 0.0264 10.9622 73.9225 0.0000 0.0000 0.0000
# 4 0.0000 0.0000 0.0000 -18.7275 0.0000 0.0000
# 5 0.0000 0.0000 0.0000 0.0000 -2.0403 0.0000
# 6 0.0000 0.0000 0.0000 0.0000 0.0000 27.7171
#
#
#
# Elastic Compliance Matrix: (Units=1/GPa)
#
#
# Indices 1 2 3 4 5 6 
#
# 1 0.020084 -0.006964 0.001026 0.000000 0.000000 0.000000
# 2 -0.006964 0.006977 -0.001032 0.000000 0.000000 0.000000
# 3 0.001026 -0.001032 0.013680 0.000000 0.000000 0.000000
# 4 0.000000 0.000000 0.000000 -0.053397 0.000000 0.000000
# 5 0.000000 0.000000 0.000000 0.000000 -0.490113 0.000000
# 6 0.000000 0.000000 0.000000 0.000000 0.000000 0.036079
#
#
# Mechanical properties :
#
#
# Convention : Reuss Voigt Hill
#
# Bulk Modulus (GPa) = 37.31310 60.54399 48.92855
# Shear Modulus (GPa) = -11.26594 20.31639 4.52523
#
# Velocity S-wave (km/s) = -2.38671 3.20508 1.51264
# Velocity P-wave (km/s) = 3.35729 6.65654 5.27167
#
# Compressibility (1/GPa) = 0.02680024
#
# Stress axis : x y z
#
# Youngs Moduli (GPa) = 49.78988 143.33541 73.09746
#
# Poissons Ratio (x) = 0.99819 -0.07497
# Poissons Ratio (y) = 0.34674 0.07544
# Poissons Ratio (z) = -0.05106 0.14794
#
# Static dielectric constant tensor:
#      x y z
#    x 1.659600 0.000000 0.000000 
#    y 0.000000 1.744450 0.000000 
#    z 0.000000 0.000000 1.784090 
# 
# From -- ./inp_files/16692.got.cif
#   From: 2010.05.17/outbox.cif.g08.bks.cpg/sg58_9_cif.got.tgz:16692.got - 2010.06.03 14:20:14.
