data_PCOD9440409
_publ_section_title
;
Structure prediction by ZEFSAII (Michael W. Deem and Ramdas Pophale) SiO2 
 PCOD9440409
Probable space group: P B C M
;
_chemical_formula_sum "Si O2"
_cell_formula_units_Z 64
_cell_length_a 24.000000
_cell_length_b 9.000000
_cell_length_c 15.000000
_cell_angle_alpha 90.000000
_cell_angle_beta 90.000000
_cell_angle_gamma 90.000000
_cell_volume 3240.000000
_symmetry_space_group_name_H-M "P B C M"
_symmetry_group_IT_number 57
_symmetry_cell_setting 'orthorhombic'
loop_
_space_group_symop_operation_xyz
x,y,z
-x,-y,1/2+z
x,1/2-y,-z
-x,1/2+y,1/2-z
-x,-y,-z
x,y,1/2-z
-x,1/2+y,z
x,1/2-y,1/2+z
loop_
_atom_site_type_symbol
_atom_site_label
_atom_site_fract_x
_atom_site_fract_y
_atom_site_fract_z
Si Si1 0.041486 0.129347 0.922059
Si Si2 0.819113 0.551652 0.352914
Si Si3 0.921584 0.113613 0.944875
Si Si4 0.640499 0.072402 0.017102
Si Si5 0.236006 0.926128 0.984723
Si Si6 0.571609 0.015472 0.854091
Si Si7 0.543677 0.134735 0.146146
Si Si8 0.840188 0.896822 0.151320
O O1 0.093065 0.127024 0.855430
O O2 0.978067 0.149609 0.889032
O O3 0.051041 0.250000 0.000000
O O4 0.051783 0.976784 0.973572
O O5 0.812987 0.511045 0.250000
O O6 0.876576 0.479136 0.390442
O O7 0.771715 0.491727 0.416939
O O8 0.819199 0.729051 0.361418
O O9 0.896087 0.250000 0.000000
O O10 0.702298 0.031230 0.048975
O O11 0.590597 0.054766 0.087347
O O12 0.643757 0.250000 0.000000
O O13 0.621271 0.997697 0.924607
O O14 0.188221 0.997557 0.922010
O O15 0.231479 0.750000 0.000000
O O16 0.586331 0.990150 0.750000
O O17 0.551880 0.187827 0.862449
O O18 0.518563 0.914594 0.878592
O O19 0.551079 0.095600 0.250000
O O20 0.826186 0.952350 0.250000
#
# Coordination Sequence:
#
# PCOD9440409 Si02
#       8
#     8   8   8   8   8   8   8   8
#     4  10  18  35  60  83 116 150 181 226 285 345
#     4  11  23  40  60  82 114 154 192 233 288 350
#     4  10  20  34  59  89 113 146 185 231 283 334
#     4   9  19  34  55  78 105 142 183 225 275 330
#     4  11  23  41  60  83 112 145 195 251 290 329
#     4   9  17  31  52  79 111 143 175 214 264 323
#     4   9  17  31  52  79 111 143 175 216 266 322
#     4  11  23  40  62  83 111 154 193 229 287 355
#
# _framework density 19.753086
#
# number of rings (size 3 to 8) (size 9 to 14) (size 15 to 20)
#    0.000    2.000    2.500    1.125    0.000    2.000 
#    0.000    5.000    0.000    3.000    0.000    0.000 
#    0.000    0.000    0.000    0.000    0.000    0.000 
#
# Total GULP energy -356567.397076 kJ/mol
# GULP energy per Si atom -5571.365579 kJ/mol
# Density = 1.970813 g / cm^3
# Si number density = 19.753086 Si / 1000 Ang^3
#
#
#
# Elastic Constant Matrix: (Units=GPa)
#
#
# Indices 1 2 3 4 5 6 
#
# 1 73.4032 5.5176 14.9972 0.0000 0.0000 0.0000
# 2 5.5176 34.8059 27.3260 0.0000 0.0000 0.0000
# 3 14.9972 27.3260 63.3743 0.0000 0.0000 0.0000
# 4 0.0000 0.0000 0.0000 11.7620 0.0000 0.0000
# 5 0.0000 0.0000 0.0000 0.0000 39.5105 0.0000
# 6 0.0000 0.0000 0.0000 0.0000 0.0000 24.4548
#
#
#
# Elastic Compliance Matrix: (Units=1/GPa)
#
#
# Indices 1 2 3 4 5 6 
#
# 1 0.014324 0.000590 -0.003644 0.000000 0.000000 0.000000
# 2 0.000590 0.043459 -0.018878 0.000000 0.000000 0.000000
# 3 -0.003644 -0.018878 0.024782 0.000000 0.000000 0.000000
# 4 0.000000 0.000000 0.000000 0.085019 0.000000 0.000000
# 5 0.000000 0.000000 0.000000 0.000000 0.025310 0.000000
# 6 0.000000 0.000000 0.000000 0.000000 0.000000 0.040892
#
#
# Mechanical properties :
#
#
# Convention : Reuss Voigt Hill
#
# Bulk Modulus (GPa) = 25.84011 29.69612 27.76812
# Shear Modulus (GPa) = 17.20880 23.39497 20.30189
#
# Velocity S-wave (km/s) = 2.95480 3.44520 3.20938
# Velocity P-wave (km/s) = 4.97505 5.55807 5.27462
#
# Compressibility (1/GPa) = 0.03869953
#
# Stress axis : x y z
#
# Youngs Moduli (GPa) = 69.81509 23.01037 40.35224
#
# Poissons Ratio (x) = -0.01359 0.14705
# Poissons Ratio (y) = -0.04122 0.76179
# Poissons Ratio (z) = 0.25442 0.43440
#
# Static dielectric constant tensor:
#      x y z
#    x 1.789850 0.000000 0.000000 
#    y 0.000000 1.770500 0.000000 
#    z 0.000000 0.000000 1.700470 
# 
# From -- ./inp_files/19509.got.cif
#   From: 2010.05.17/outbox.ucp.g08.bks.cvg/sg57_10_cif.got.tgz:19509.got - 2010.06.11 16:39:23.
