data_PCOD9440381
_publ_section_title
;
Structure prediction by ZEFSAII (Michael W. Deem and Ramdas Pophale) SiO2 
 PCOD9440381
Probable space group: P B C M
;
_chemical_formula_sum "Si O2"
_cell_formula_units_Z 64
_cell_length_a 28.001152
_cell_length_b 5.199460
_cell_length_c 22.233121
_cell_angle_alpha 90.000000
_cell_angle_beta 90.000000
_cell_angle_gamma 90.000000
_cell_volume 3236.939424
_symmetry_space_group_name_H-M "P B C M"
_symmetry_group_IT_number 57
_symmetry_cell_setting 'orthorhombic'
loop_
_space_group_symop_operation_xyz
x,y,z
-x,-y,1/2+z
x,1/2-y,-z
-x,1/2+y,1/2-z
-x,-y,-z
x,y,1/2-z
-x,1/2+y,z
x,1/2-y,1/2+z
loop_
_atom_site_type_symbol
_atom_site_label
_atom_site_fract_x
_atom_site_fract_y
_atom_site_fract_z
Si Si1 0.387607 0.427061 0.682979
Si Si2 0.864352 0.177670 0.676495
Si Si3 0.028136 0.692364 0.176761
Si Si4 0.274870 0.539852 0.683401
Si Si5 0.526636 0.214365 0.177803
Si Si6 0.298516 0.698858 0.936890
Si Si7 0.636267 0.693726 0.563398
Si Si8 0.809264 0.675323 0.677987
O O1 0.401991 0.327203 0.750000
O O2 0.331538 0.491898 0.687442
O O3 0.420150 0.675062 0.669455
O O4 0.391159 0.243937 0.625417
O O5 0.864689 0.169824 0.750000
O O6 0.918191 0.241167 0.657507
O O7 0.843846 0.904524 0.656035
O O8 0.828781 0.403832 0.656260
O O9 0.028838 0.690596 0.250000
O O10 0.008392 0.415847 0.157928
O O11 0.259360 0.637338 0.750000
O O12 0.269911 0.716986 0.625065
O O13 0.244361 0.283620 0.670163
O O14 0.521372 0.196437 0.250000
O O15 0.491736 0.441465 0.154847
O O16 0.321974 0.413851 0.938167
O O17 0.340353 0.912555 0.935641
O O18 0.272386 0.750000 0.000000
O O19 0.609955 0.750000 0.500000
O O20 0.814950 0.663183 0.750000
#
# Coordination Sequence:
#
# PCOD9440381 Si02
#       8
#     8   8   8   8   8   8   8   8
#     4   9  18  32  52  75  96 120 155 198 234 268
#     4   9  16  26  37  51  77 112 145 179 224 271
#     4   9  15  22  34  51  69  96 143 193 221 247
#     4   9  18  31  48  72  97 121 156 197 229 266
#     4   9  18  32  48  67  92 120 148 182 231 284
#     4   9  18  32  48  67  93 124 156 189 229 274
#     4   9  18  32  49  69  94 122 149 183 230 278
#     4   9  17  27  38  54  81 114 142 173 220 273
#
# _framework density 19.771764999999998
#
# number of rings (size 3 to 8) (size 9 to 14) (size 15 to 20)
#    0.000    3.000    0.000    0.750    0.000    7.500 
#    0.000    7.500    0.000    0.750    0.000    0.000 
#    0.000    0.000    0.000    0.000    0.000   12.500 
#
# Total GULP energy -356466.484441 kJ/mol
# GULP energy per Si atom -5569.788819 kJ/mol
# Density = 1.972676 g / cm^3
# Si number density = 19.771765 Si / 1000 Ang^3
#
#
#
# Elastic Constant Matrix: (Units=GPa)
#
#
# Indices 1 2 3 4 5 6 
#
# 1 81.4755 -0.6524 2.9473 0.0000 0.0000 0.0000
# 2 -0.6524 64.4284 13.6157 0.0000 0.0000 0.0000
# 3 2.9473 13.6157 105.4519 0.0000 0.0000 0.0000
# 4 0.0000 0.0000 0.0000 -18.1860 0.0000 0.0000
# 5 0.0000 0.0000 0.0000 0.0000 1.8410 0.0000
# 6 0.0000 0.0000 0.0000 0.0000 0.0000 22.7410
#
#
#
# Elastic Compliance Matrix: (Units=1/GPa)
#
#
# Indices 1 2 3 4 5 6 
#
# 1 0.012289 0.000203 -0.000370 0.000000 0.000000 0.000000
# 2 0.000203 0.015960 -0.002066 0.000000 0.000000 0.000000
# 3 -0.000370 -0.002066 0.009760 0.000000 0.000000 0.000000
# 4 0.000000 0.000000 0.000000 -0.054987 0.000000 0.000000
# 5 0.000000 0.000000 0.000000 0.000000 0.543171 0.000000
# 6 0.000000 0.000000 0.000000 0.000000 0.000000 0.043973
#
#
# Mechanical properties :
#
#
# Convention : Reuss Voigt Hill
#
# Bulk Modulus (GPa) = 29.81360 31.46413 30.63887
# Shear Modulus (GPa) = 8.53514 16.97556 12.75535
#
# Velocity S-wave (km/s) = 2.07995 2.93332 2.54270
# Velocity P-wave (km/s) = 4.56945 5.23648 4.91430
#
# Compressibility (1/GPa) = 0.03354173
#
# Stress axis : x y z
#
# Youngs Moduli (GPa) = 81.37608 62.65725 102.45761
#
# Poissons Ratio (x) = -0.01269 0.03787
# Poissons Ratio (y) = -0.01648 0.21171
# Poissons Ratio (z) = 0.03008 0.12947
#
# Static dielectric constant tensor:
#      x y z
#    x 1.726380 0.000000 0.000000 
#    y 0.000000 1.744560 0.000000 
#    z 0.000000 0.000000 1.735890 
# 
# From -- ./inp_files/27706.got.cif
#   From: 2010.05.17/outbox.cif.g08.bks.cpg/sg57_14_cif.got.tgz:27706.got - 2010.06.03 13:58:18.
