data_PCOD9440518
_publ_section_title
;
Structure prediction by ZEFSAII (Michael W. Deem and Ramdas Pophale) SiO2 
 PCOD9440518
Probable space group: P B C M
;
_chemical_formula_sum "Si O2"
_cell_formula_units_Z 64
_cell_length_a 21.000000
_cell_length_b 18.000000
_cell_length_c 9.000000
_cell_angle_alpha 90.000000
_cell_angle_beta 90.000000
_cell_angle_gamma 90.000000
_cell_volume 3402.000000
_symmetry_space_group_name_H-M "P B C M"
_symmetry_group_IT_number 57
_symmetry_cell_setting 'orthorhombic'
loop_
_space_group_symop_operation_xyz
x,y,z
-x,-y,1/2+z
x,1/2-y,-z
-x,1/2+y,1/2-z
-x,-y,-z
x,y,1/2-z
-x,1/2+y,z
x,1/2-y,1/2+z
loop_
_atom_site_type_symbol
_atom_site_label
_atom_site_fract_x
_atom_site_fract_y
_atom_site_fract_z
Si Si1 0.129114 0.823921 0.574024
Si Si2 0.400394 0.175590 0.919591
Si Si3 0.506239 0.579073 0.426211
Si Si4 0.065856 0.521786 0.427018
Si Si5 0.748756 0.118464 0.577675
Si Si6 0.752286 0.675976 0.580814
Si Si7 0.608269 0.169512 0.928178
Si Si8 0.813950 0.959842 0.577954
O O1 0.103538 0.750000 0.500000
O O2 0.127405 0.818235 0.750000
O O3 0.088964 0.895864 0.527082
O O4 0.201818 0.836160 0.521760
O O5 0.423920 0.170374 0.750000
O O6 0.324388 0.177402 0.915343
O O7 0.423732 0.250000 0.000000
O O8 0.426180 0.110333 0.020764
O O9 0.500000 0.500000 0.500000
O O10 0.501134 0.576975 0.250000
O O11 0.451242 0.629655 0.496507
O O12 0.061146 0.519596 0.250000
O O13 0.122345 0.469457 0.483410
O O14 0.000000 0.500000 0.500000
O O15 0.757204 0.141652 0.750000
O O16 0.675062 0.128284 0.540041
O O17 0.771575 0.033875 0.563982
O O18 0.774889 0.750000 0.500000
O O19 0.775107 0.671228 0.750000
O O20 0.774261 0.607429 0.484827
O O21 0.599968 0.173024 0.750000
O O22 0.614033 0.250000 0.000000
O O23 0.830543 0.950375 0.750000
#
# Coordination Sequence:
#
# PCOD9440518 Si02
#       8
#     8   8   8   8   8   8   8   8
#     4  10  20  34  56  85 117 151 189 233 280 333
#     4  10  21  39  61  85 111 147 189 235 289 345
#     4  12  26  42  59  81 110 147 189 239 290 346
#     4  10  21  38  59  85 116 154 196 238 284 337
#     4   9  20  36  57  85 116 151 188 230 281 336
#     4  10  21  37  59  87 116 149 190 238 289 343
#     4  11  23  40  59  84 115 151 190 233 285 342
#     4  10  20  36  59  87 118 153 190 234 285 338
#
# _framework density 18.812463000000001
#
# number of rings (size 3 to 8) (size 9 to 14) (size 15 to 20)
#    0.000    1.750    0.000    4.125    1.750    5.500 
#    0.000    0.625    0.000    1.500    0.000    0.000 
#    0.000    0.000    0.000    0.000    0.000    0.000 
#
# Total GULP energy -357292.444197 kJ/mol
# GULP energy per Si atom -5582.694441 kJ/mol
# Density = 1.876965 g / cm^3
# Si number density = 18.812463 Si / 1000 Ang^3
#
#
#
# Elastic Constant Matrix: (Units=GPa)
#
#
# Indices 1 2 3 4 5 6 
#
# 1 36.6486 7.1887 28.5034 0.0000 0.0000 0.0000
# 2 7.1887 56.7937 42.9932 0.0000 0.0000 0.0000
# 3 28.5034 42.9932 72.3105 0.0000 0.0000 0.0000
# 4 0.0000 0.0000 0.0000 30.1138 0.0000 0.0000
# 5 0.0000 0.0000 0.0000 0.0000 31.3869 0.0000
# 6 0.0000 0.0000 0.0000 0.0000 0.0000 -2.1929
#
#
#
# Elastic Compliance Matrix: (Units=1/GPa)
#
#
# Indices 1 2 3 4 5 6 
#
# 1 0.044715 0.013971 -0.025933 0.000000 0.000000 0.000000
# 2 0.013971 0.036384 -0.027140 0.000000 0.000000 0.000000
# 3 -0.025933 -0.027140 0.040188 0.000000 0.000000 0.000000
# 4 0.000000 0.000000 0.000000 0.033207 0.000000 0.000000
# 5 0.000000 0.000000 0.000000 0.000000 0.031860 0.000000
# 6 0.000000 0.000000 0.000000 0.000000 0.000000 -0.456027
#
#
# Mechanical properties :
#
#
# Convention : Reuss Voigt Hill
#
# Bulk Modulus (GPa) = 23.21026 35.90260 29.55643
# Shear Modulus (GPa) = -28.23144 17.66606 -5.28269
#
# Velocity S-wave (km/s) = -3.87806 3.06774 -1.67755
# Velocity P-wave (km/s) = 2.77272 5.62796 3.46309
#
# Compressibility (1/GPa) = 0.04308440
#
# Stress axis : x y z
#
# Youngs Moduli (GPa) = 22.36399 27.48430 24.88308
#
# Poissons Ratio (x) = -0.38399 0.64528
# Poissons Ratio (y) = -0.31246 0.67533
# Poissons Ratio (z) = 0.57996 0.74593
#
# Static dielectric constant tensor:
#      x y z
#    x 1.653990 0.000000 0.000000 
#    y 0.000000 1.628430 0.000000 
#    z 0.000000 0.000000 1.629750 
# 
# From -- ./inp_files/8567.got.cif
#   From: 2010.05.17/outbox.ucp.g08.bks.cvg/sg57_5_cif.got.tgz:8567.got - 2010.06.11 16:39:23.
