data_PCOD9440003
_publ_section_title
;
Structure prediction by ZEFSAII (Michael W. Deem and Ramdas Pophale) SiO2 
 PCOD9440003
Probable space group: P B C M
;
_chemical_formula_sum "Si O2"
_cell_formula_units_Z 64
_cell_length_a 24.168570
_cell_length_b 17.933057
_cell_length_c 8.328353
_cell_angle_alpha 90.000000
_cell_angle_beta 90.000000
_cell_angle_gamma 90.000000
_cell_volume 3609.644304
_symmetry_space_group_name_H-M "P B C M"
_symmetry_group_IT_number 57
_symmetry_cell_setting 'orthorhombic'
loop_
_space_group_symop_operation_xyz
x,y,z
-x,-y,1/2+z
x,1/2-y,-z
-x,1/2+y,1/2-z
-x,-y,-z
x,y,1/2-z
-x,1/2+y,z
x,1/2-y,1/2+z
loop_
_atom_site_type_symbol
_atom_site_label
_atom_site_fract_x
_atom_site_fract_y
_atom_site_fract_z
Si Si1 0.631644 0.055884 0.054421
Si Si2 0.935100 0.666591 0.556281
Si Si3 0.542539 0.166490 0.059061
Si Si4 0.680514 0.670125 0.942800
Si Si5 0.035078 0.571301 0.557924
Si Si6 0.741355 0.519924 0.946316
Si Si7 0.133065 0.019164 0.556416
Si Si8 0.430596 0.096059 0.943510
O O1 0.633324 0.057343 0.250000
O O2 0.599030 0.128397 0.996819
O O3 0.694233 0.038806 0.000999
O O4 0.593478 0.984728 0.011184
O O5 0.921328 0.750000 0.500000
O O6 0.933443 0.666668 0.750000
O O7 0.894755 0.598250 0.502458
O O8 0.997528 0.641599 0.505663
O O9 0.545453 0.167780 0.250000
O O10 0.534821 0.250000 0.000000
O O11 0.489750 0.117029 0.011506
O O12 0.680086 0.669004 0.750000
O O13 0.718317 0.601099 0.995162
O O14 0.617496 0.653587 0.996349
O O15 0.700013 0.750000 0.000000
O O16 0.037150 0.572259 0.750000
O O17 0.095512 0.551239 0.493384
O O18 0.000000 0.500000 0.500000
O O19 0.741996 0.518525 0.750000
O O20 0.804069 0.510368 0.001154
O O21 0.133058 0.022180 0.750000
O O22 0.434054 0.098275 0.750000
#
# Coordination Sequence:
#
# PCOD9440003 Si02
#       8
#     8   8   8   8   8   8   8   8
#     4   8  16  31  50  69  89 118 155 192 229 274
#     4   9  18  29  43  68  98 124 148 178 218 264
#     4  11  21  31  46  69  93 117 149 190 238 287
#     4   9  17  28  43  63  90 122 152 185 224 270
#     4   9  17  30  47  68  94 122 154 188 221 259
#     4   8  15  30  49  66  87 119 157 190 221 266
#     4   9  17  30  49  71  92 119 157 193 226 267
#     4   9  17  31  49  68  90 117 151 190 234 281
#
# _framework density 17.730278999999999
#
# number of rings (size 3 to 8) (size 9 to 14) (size 15 to 20)
#    0.000    3.000    0.000    3.750    0.000    4.500 
#    0.000    1.250    0.000    4.500    0.000    3.500 
#    0.000    0.000    0.000    0.000    0.000    0.000 
#
# Total GULP energy -356376.110565 kJ/mol
# GULP energy per Si atom -5568.376728 kJ/mol
# Density = 1.768992 g / cm^3
# Si number density = 17.730279 Si / 1000 Ang^3
#
#
#
# Elastic Constant Matrix: (Units=GPa)
#
#
# Indices 1 2 3 4 5 6 
#
# 1 144.3290 32.0301 15.4362 0.0000 0.0000 0.0000
# 2 32.0301 30.8317 6.7521 0.0000 0.0000 0.0000
# 3 15.4362 6.7521 7.9274 0.0000 0.0000 0.0000
# 4 0.0000 0.0000 0.0000 15.6601 0.0000 0.0000
# 5 0.0000 0.0000 0.0000 0.0000 16.0224 0.0000
# 6 0.0000 0.0000 0.0000 0.0000 0.0000 12.5034
#
#
#
# Elastic Compliance Matrix: (Units=1/GPa)
#
#
# Indices 1 2 3 4 5 6 
#
# 1 0.009994 -0.007525 -0.013052 0.000000 0.000000 0.000000
# 2 -0.007525 0.045536 -0.024134 0.000000 0.000000 0.000000
# 3 -0.013052 -0.024134 0.172114 0.000000 0.000000 0.000000
# 4 0.000000 0.000000 0.000000 0.063856 0.000000 0.000000
# 5 0.000000 0.000000 0.000000 0.000000 0.062413 0.000000
# 6 0.000000 0.000000 0.000000 0.000000 0.000000 0.079978
#
#
# Mechanical properties :
#
#
# Convention : Reuss Voigt Hill
#
# Bulk Modulus (GPa) = 7.23458 32.39167 19.81313
# Shear Modulus (GPa) = 8.78137 17.42851 13.10494
#
# Velocity S-wave (km/s) = 2.22789 3.13865 2.72164
# Velocity P-wave (km/s) = 3.27219 5.60746 4.59080
#
# Compressibility (1/GPa) = 0.13822497
#
# Stress axis : x y z
#
# Youngs Moduli (GPa) = 100.05585 21.96049 5.81009
#
# Poissons Ratio (x) = 0.16524 0.07583
# Poissons Ratio (y) = 0.75287 0.14022
# Poissons Ratio (z) = 1.30593 0.52998
#
# Static dielectric constant tensor:
#      x y z
#    x 1.635920 0.000000 0.000000 
#    y 0.000000 1.602100 0.000000 
#    z 0.000000 0.000000 1.616360 
# 
# From -- ./inp_files/9548.got.cif
#   From: 2010.05.17/outbox.cif.g08.bks.cpg/sg57_5_cif.got.tgz:9548.got - 2010.06.03 13:58:18.
