data_PCOD9440856
_publ_section_title
;
Structure prediction by ZEFSAII (Michael W. Deem and Ramdas Pophale) SiO2 
 PCOD9440856
Probable space group: P N N M
;
_chemical_formula_sum "Si O2"
_cell_formula_units_Z 48
_cell_length_a 15.985803
_cell_length_b 9.088668
_cell_length_c 15.031096
_cell_angle_alpha 90.000000
_cell_angle_beta 90.000000
_cell_angle_gamma 90.000000
_cell_volume 2183.862770
_symmetry_space_group_name_H-M "P N N M"
_symmetry_group_IT_number 58
_symmetry_cell_setting 'orthorhombic'
loop_
_space_group_symop_operation_xyz
x,y,z
-x,-y,z
1/2+x,1/2-y,1/2-z
1/2-x,1/2+y,1/2-z
-x,-y,-z
x,y,-z
1/2-x,1/2+y,1/2+z
1/2+x,1/2-y,1/2+z
loop_
_atom_site_type_symbol
_atom_site_label
_atom_site_fract_x
_atom_site_fract_y
_atom_site_fract_z
Si Si1 0.115801 0.113268 0.602940
Si Si2 0.299879 0.250376 0.355903
Si Si3 0.202104 0.494267 0.405614
Si Si4 0.063749 0.374768 0.285467
Si Si5 0.380215 0.955322 0.601254
Si Si6 0.199115 0.821304 0.647562
O O1 0.090349 0.124612 0.500000
O O2 0.210569 0.178119 0.615161
O O3 0.059882 0.215565 0.667870
O O4 0.128097 0.942297 0.627724
O O5 0.291937 0.414003 0.397340
O O6 0.368826 0.131687 0.384623
O O7 0.304167 0.275422 0.250720
O O8 0.163920 0.444830 0.500000
O O9 0.151634 0.439559 0.320197
O O10 0.197206 0.667872 0.403200
O O11 0.065313 0.380120 0.178830
O O12 0.000000 0.500000 0.317545
O O13 0.405743 0.925903 0.500000
O O14 0.287436 0.891746 0.619379
#
# Coordination Sequence:
#
# PCOD9440856 Si02
#       6
#     8   8   8   8   8   8
#     4  10  20  35  55  82 116 146 176 226 282 333
#     4  10  17  32  55  83 113 142 167 219 284 336
#     4  11  20  33  57  87 113 139 177 224 280 347
#     4  11  23  39  56  76 105 156 201 231 267 322
#     4  11  21  36  57  83 112 144 182 231 285 329
#     4  11  18  34  57  88 118 139 170 224 288 344
#
# _framework density 21.979403999999999
#
# number of rings (size 3 to 8) (size 9 to 14) (size 15 to 20)
#    0.000    1.333    5.000    6.500    0.000    1.667 
#    0.000    0.833    0.000    2.000    0.000    1.167 
#    0.000    0.000    0.000    0.000    0.000    0.000 
#
# Total GULP energy -267628.057736 kJ/mol
# GULP energy per Si atom -5575.584536 kJ/mol
# Density = 2.192938 g / cm^3
# Si number density = 21.979404 Si / 1000 Ang^3
#
#
#
# Elastic Constant Matrix: (Units=GPa)
#
#
# Indices 1 2 3 4 5 6 
#
# 1 28.0909 9.1313 7.5158 0.0000 0.0000 0.0000
# 2 9.1313 139.5802 41.5769 0.0000 0.0000 0.0000
# 3 7.5158 41.5769 190.6596 0.0000 0.0000 0.0000
# 4 0.0000 0.0000 0.0000 -4.1366 0.0000 0.0000
# 5 0.0000 0.0000 0.0000 0.0000 -2.1337 0.0000
# 6 0.0000 0.0000 0.0000 0.0000 0.0000 17.2578
#
#
#
# Elastic Compliance Matrix: (Units=1/GPa)
#
#
# Indices 1 2 3 4 5 6 
#
# 1 0.036544 -0.002098 -0.000983 0.000000 0.000000 0.000000
# 2 -0.002098 0.007782 -0.001614 0.000000 0.000000 0.000000
# 3 -0.000983 -0.001614 0.005636 0.000000 0.000000 0.000000
# 4 0.000000 0.000000 0.000000 -0.241746 0.000000 0.000000
# 5 0.000000 0.000000 0.000000 0.000000 -0.468673 0.000000
# 6 0.000000 0.000000 0.000000 0.000000 0.000000 0.057945
#
#
# Mechanical properties :
#
#
# Convention : Reuss Voigt Hill
#
# Bulk Modulus (GPa) = 24.64802 52.75320 38.70061
# Shear Modulus (GPa) = -8.62667 22.20461 6.78897
#
# Velocity S-wave (km/s) = -1.98328 3.18189 1.75940
# Velocity P-wave (km/s) = 2.44825 6.12801 4.66618
#
# Compressibility (1/GPa) = 0.04057122
#
# Stress axis : x y z
#
# Youngs Moduli (GPa) = 27.36451 128.49389 177.43846
#
# Poissons Ratio (x) = 0.26956 0.17444
# Poissons Ratio (y) = 0.05741 0.28646
# Poissons Ratio (z) = 0.02690 0.20744
#
# Static dielectric constant tensor:
#      x y z
#    x 1.850990 0.000000 0.000000 
#    y 0.000000 1.893420 0.000000 
#    z 0.000000 0.000000 1.893210 
# 
# From -- ./inp_files/19977.got.cif
#   From: 2010.05.17/outbox.cif.g08.bks.cpg/sg58_10_cif.got.tgz:19977.got - 2010.06.03 14:20:14.
