data_PCOD9440451
_publ_section_title
;
Structure prediction by ZEFSAII (Michael W. Deem and Ramdas Pophale) SiO2 
 PCOD9440451
Probable space group: P B C M
;
_chemical_formula_sum "Si O2"
_cell_formula_units_Z 48
_cell_length_a 9.000000
_cell_length_b 9.000000
_cell_length_c 30.000000
_cell_angle_alpha 90.000000
_cell_angle_beta 90.000000
_cell_angle_gamma 90.000000
_cell_volume 2430.000000
_symmetry_space_group_name_H-M "P B C M"
_symmetry_group_IT_number 57
_symmetry_cell_setting 'orthorhombic'
loop_
_space_group_symop_operation_xyz
x,y,z
-x,-y,1/2+z
x,1/2-y,-z
-x,1/2+y,1/2-z
-x,-y,-z
x,y,1/2-z
-x,1/2+y,z
x,1/2-y,1/2+z
loop_
_atom_site_type_symbol
_atom_site_label
_atom_site_fract_x
_atom_site_fract_y
_atom_site_fract_z
Si Si1 0.611495 0.321568 0.873140
Si Si2 0.681262 0.846288 0.357112
Si Si3 0.055504 0.379076 0.072992
Si Si4 0.095797 0.308672 0.800575
Si Si5 0.860114 0.111303 0.846749
Si Si6 0.184108 0.655708 0.040488
O O1 0.444601 0.265881 0.873349
O O2 0.628230 0.484144 0.851690
O O3 0.701013 0.185916 0.850769
O O4 0.695458 0.338990 0.920281
O O5 0.808836 0.842930 0.394571
O O6 0.759412 0.786797 0.312726
O O7 0.126971 0.487859 0.036466
O O8 0.929981 0.447778 0.106601
O O9 0.965897 0.242855 0.053519
O O10 0.051541 0.291242 0.750000
O O11 0.128579 0.477976 0.812547
O O12 0.964464 0.246475 0.831247
O O13 0.247203 0.750000 0.000000
#
# Coordination Sequence:
#
# PCOD9440451 Si02
#       6
#     8   8   8   8   8   8
#     4  10  21  37  57  76 105 146 181 214 262 324
#     4  10  20  37  55  76 105 143 182 213 261 325
#     4   9  18  33  54  76 104 140 174 209 258 318
#     4  11  21  35  56  84 109 135 175 225 265 305
#     4  10  19  35  57  79 107 143 177 211 260 319
#     4  10  19  33  53  81 107 133 174 224 263 303
#
# _framework density 19.753086
#
# number of rings (size 3 to 8) (size 9 to 14) (size 15 to 20)
#    0.000    2.000    0.000    7.000    0.000    1.333 
#    0.000    9.167    0.000    0.000    0.000    0.000 
#    0.000    0.000    0.000    0.000    0.000    0.000 
#
# Total GULP energy -267358.883483 kJ/mol
# GULP energy per Si atom -5569.976739 kJ/mol
# Density = 1.970813 g / cm^3
# Si number density = 19.753086 Si / 1000 Ang^3
#
#
#
# Elastic Constant Matrix: (Units=GPa)
#
#
# Indices 1 2 3 4 5 6 
#
# 1 -0.3606 -41.7765 -29.7422 0.0000 0.0000 0.0000
# 2 -41.7765 2.3731 -20.7234 0.0000 0.0000 0.0000
# 3 -29.7422 -20.7234 13.9863 0.0000 0.0000 0.0000
# 4 0.0000 0.0000 0.0000 14.1333 0.0000 0.0000
# 5 0.0000 0.0000 0.0000 0.0000 3.0402 0.0000
# 6 0.0000 0.0000 0.0000 0.0000 0.0000 128.5874
#
#
#
# Elastic Compliance Matrix: (Units=1/GPa)
#
#
# Indices 1 2 3 4 5 6 
#
# 1 0.005089 -0.015420 -0.012025 0.000000 0.000000 0.000000
# 2 -0.015420 0.011425 -0.015861 0.000000 0.000000 0.000000
# 3 -0.012025 -0.015861 0.022425 0.000000 0.000000 0.000000
# 4 0.000000 0.000000 0.000000 0.070755 0.000000 0.000000
# 5 0.000000 0.000000 0.000000 0.000000 0.328928 0.000000
# 6 0.000000 0.000000 0.000000 0.000000 0.000000 0.007777
#
#
# Mechanical properties :
#
#
# Convention : Reuss Voigt Hill
#
# Bulk Modulus (GPa) = -20.97632 -18.72061 -19.84847
# Shear Modulus (GPa) = 9.66891 36.36822 23.01857
#
# Velocity S-wave (km/s) = 2.21484 4.29551 3.41737
# Velocity P-wave (km/s) = 2.02525 3.88638 2.34546
#
# Compressibility (1/GPa) = -0.04767279
#
# Stress axis : x y z
#
# Youngs Moduli (GPa) = 196.49559 87.52389 44.59299
#
# Poissons Ratio (x) = 1.34960 0.53623
# Poissons Ratio (y) = 3.02991 0.70731
# Poissons Ratio (z) = 2.36287 1.38825
#
# Static dielectric constant tensor:
#      x y z
#    x 1.672160 0.000000 0.000000 
#    y 0.000000 1.723040 0.000000 
#    z 0.000000 0.000000 1.760530 
# 
# From -- ./inp_files/29446.got.cif
#   From: 2010.05.17/outbox.ucp.g08.bks.cvg/sg57_15_cif.got.tgz:29446.got - 2010.06.11 16:39:23.
