data_PCOD9440187
_publ_section_title
;
Structure prediction by ZEFSAII (Michael W. Deem and Ramdas Pophale) SiO2 
 PCOD9440187
Probable space group: P B C M
;
_chemical_formula_sum "Si O2"
_cell_formula_units_Z 40
_cell_length_a 5.251699
_cell_length_b 18.226648
_cell_length_c 18.768960
_cell_angle_alpha 90.000000
_cell_angle_beta 90.000000
_cell_angle_gamma 90.000000
_cell_volume 1796.581163
_symmetry_space_group_name_H-M "P B C M"
_symmetry_group_IT_number 57
_symmetry_cell_setting 'orthorhombic'
loop_
_space_group_symop_operation_xyz
x,y,z
-x,-y,1/2+z
x,1/2-y,-z
-x,1/2+y,1/2-z
-x,-y,-z
x,y,1/2-z
-x,1/2+y,z
x,1/2-y,1/2+z
loop_
_atom_site_type_symbol
_atom_site_label
_atom_site_fract_x
_atom_site_fract_y
_atom_site_fract_z
Si Si1 0.723019 0.087462 0.250000
Si Si2 0.600304 0.308468 0.881290
Si Si3 0.300479 0.945074 0.533057
Si Si4 0.886948 0.727621 0.916302
Si Si5 0.978665 0.565901 0.608417
Si Si6 0.779528 0.010904 0.750000
O O1 0.680316 0.141580 0.184159
O O2 0.500950 0.024769 0.250000
O O3 0.003655 0.052347 0.250000
O O4 0.587845 0.367599 0.944905
O O5 0.823925 0.250287 0.896911
O O6 0.323351 0.274185 0.874349
O O7 0.110326 0.930154 0.468779
O O8 0.500000 0.000000 0.500000
O O9 0.181358 0.990738 0.598917
O O10 0.837292 0.643677 0.892557
O O11 0.854322 0.750000 0.000000
O O12 0.159153 0.555977 0.677243
#
# Coordination Sequence:
#
# PCOD9440187 Si02
#       6
#     4   8   8   8   8   4
#     4  12  26  48  72 104 144 193 243 296 358 436
#     4  12  26  45  73 101 145 192 238 290 366 430
#     4  11  23  43  73 102 134 192 243 297 344 431
#     4  12  26  46  71 108 147 189 235 306 359 429
#     4  11  26  43  71 107 143 186 245 295 368 419
#     4  12  26  46  72 106 144 185 241 312 350 430
#
# _framework density 22.264510000000001
#
# number of rings (size 3 to 8) (size 9 to 14) (size 15 to 20)
#    0.000    0.400    4.000    4.200    5.600    1.600 
#    0.000    0.000    0.000    0.000    0.000    0.000 
#    0.000    0.000    0.000    0.000    0.000    0.000 
#
# Total GULP energy -223554.965907 kJ/mol
# GULP energy per Si atom -5588.874148 kJ/mol
# Density = 2.221383 g / cm^3
# Si number density = 22.264510 Si / 1000 Ang^3
#
#
#
# Elastic Constant Matrix: (Units=GPa)
#
#
# Indices 1 2 3 4 5 6 
#
# 1 47.2362 3.6830 -17.9068 0.0000 0.0000 0.0000
# 2 3.6830 93.0873 16.0025 0.0000 0.0000 0.0000
# 3 -17.9068 16.0025 62.5855 0.0000 0.0000 0.0000
# 4 0.0000 0.0000 0.0000 31.9189 0.0000 0.0000
# 5 0.0000 0.0000 0.0000 0.0000 20.6722 0.0000
# 6 0.0000 0.0000 0.0000 0.0000 0.0000 44.2233
#
#
#
# Elastic Compliance Matrix: (Units=1/GPa)
#
#
# Indices 1 2 3 4 5 6 
#
# 1 0.024186 -0.002245 0.007494 0.000000 0.000000 0.000000
# 2 -0.002245 0.011445 -0.003569 0.000000 0.000000 0.000000
# 3 0.007494 -0.003569 0.019035 0.000000 0.000000 0.000000
# 4 0.000000 0.000000 0.000000 0.031329 0.000000 0.000000
# 5 0.000000 0.000000 0.000000 0.000000 0.048374 0.000000
# 6 0.000000 0.000000 0.000000 0.000000 0.000000 0.022613
#
#
# Mechanical properties :
#
#
# Convention : Reuss Voigt Hill
#
# Bulk Modulus (GPa) = 17.23353 22.94071 20.08712
# Shear Modulus (GPa) = 28.90776 32.77156 30.83966
#
# Velocity S-wave (km/s) = 3.60721 3.84072 3.72580
# Velocity P-wave (km/s) = 5.01063 5.47670 5.24884
#
# Compressibility (1/GPa) = 0.05802642
#
# Stress axis : x y z
#
# Youngs Moduli (GPa) = 41.34584 87.37492 52.53516
#
# Poissons Ratio (x) = 0.19618 -0.39371
# Poissons Ratio (y) = 0.09283 0.18749
# Poissons Ratio (z) = -0.30985 0.31182
#
# Static dielectric constant tensor:
#      x y z
#    x 1.789910 0.000000 0.000000 
#    y 0.000000 1.791600 0.000000 
#    z 0.000000 0.000000 1.897170 
# 
# From -- ./inp_files/20038.got.cif
#   From: 2010.05.17/outbox.cif.g08.bks.cpg/sg57_11_cif.got.tgz:20038.got - 2010.06.03 13:58:18.
