data_PCOD9440901
_publ_section_title
;
Structure prediction by ZEFSAII (Michael W. Deem and Ramdas Pophale) SiO2 
 PCOD9440901
Probable space group: P N N M
;
_chemical_formula_sum "Si O2"
_cell_formula_units_Z 56
_cell_length_a 13.883249
_cell_length_b 33.270568
_cell_length_c 7.832046
_cell_angle_alpha 90.000000
_cell_angle_beta 90.000000
_cell_angle_gamma 90.000000
_cell_volume 3617.650085
_symmetry_space_group_name_H-M "P N N M"
_symmetry_group_IT_number 58
_symmetry_cell_setting 'orthorhombic'
loop_
_space_group_symop_operation_xyz
x,y,z
-x,-y,z
1/2+x,1/2-y,1/2-z
1/2-x,1/2+y,1/2-z
-x,-y,-z
x,y,-z
1/2-x,1/2+y,1/2+z
1/2+x,1/2-y,1/2+z
loop_
_atom_site_type_symbol
_atom_site_label
_atom_site_fract_x
_atom_site_fract_y
_atom_site_fract_z
Si Si1 0.401499 0.229891 0.791440
Si Si2 0.312208 0.313326 0.801868
Si Si3 0.882497 0.954243 0.500000
Si Si4 0.384616 0.775161 0.200378
Si Si5 0.203134 0.191599 0.206387
Si Si6 0.613286 0.602695 0.689726
Si Si7 0.116693 0.953891 0.500000
Si Si8 0.882750 0.894392 0.799793
O O1 0.373291 0.275084 0.735758
O O2 0.507537 0.217648 0.733660
O O3 0.313065 0.201246 0.741363
O O4 0.403190 0.230850 0.000000
O O5 0.201498 0.299317 0.788603
O O6 0.334784 0.354567 0.708458
O O7 0.337717 0.319559 0.000000
O O8 0.854034 0.929509 0.669312
O O9 0.999625 0.955320 0.500000
O O10 0.848627 0.000245 0.500000
O O11 0.361017 0.727872 0.221735
O O12 0.380861 0.785109 0.000000
O O13 0.165650 0.147698 0.252718
O O14 0.198289 0.194639 0.000000
O O15 0.627942 0.586234 0.500000
O O16 0.645346 0.571487 0.833737
O O17 0.498634 0.610216 0.712155
O O18 0.860245 0.902481 0.000000
#
# Coordination Sequence:
#
# PCOD9440901 Si02
#       8
#     8   8   4   8   8   8   4   8
#     4   8  16  28  42  58  84 120 152 187 227 263
#     4  10  18  30  44  60  87 122 153 187 229 264
#     4   9  18  30  48  64  95 119 155 181 232 272
#     4  10  18  27  41  62  84 115 156 192 224 261
#     4   9  17  30  43  59  85 118 152 188 227 261
#     4  10  18  29  46  68  90 119 155 185 220 270
#     4   9  18  32  44  68  91 125 145 191 228 270
#     4   9  18  29  46  68  91 120 153 187 220 267
#
# _framework density 15.479663
#
# number of rings (size 3 to 8) (size 9 to 14) (size 15 to 20)
#    0.000    2.714    0.714    2.571    1.000    0.571 
#    0.000    9.286    0.000    0.000    0.000    0.000 
#    0.000    2.286    0.000    8.571    0.000    0.286 
#
# Total GULP energy -312129.741690 kJ/mol
# GULP energy per Si atom -5573.745387 kJ/mol
# Density = 1.544443 g / cm^3
# Si number density = 15.479663 Si / 1000 Ang^3
#
#
#
# Elastic Constant Matrix: (Units=GPa)
#
#
# Indices 1 2 3 4 5 6 
#
# 1 48.1780 19.8485 14.0498 0.0000 0.0000 0.0000
# 2 19.8485 107.9779 46.5537 0.0000 0.0000 0.0000
# 3 14.0498 46.5537 63.4317 0.0000 0.0000 0.0000
# 4 0.0000 0.0000 0.0000 17.9399 0.0000 0.0000
# 5 0.0000 0.0000 0.0000 0.0000 12.3629 0.0000
# 6 0.0000 0.0000 0.0000 0.0000 0.0000 15.6272
#
#
#
# Elastic Compliance Matrix: (Units=1/GPa)
#
#
# Indices 1 2 3 4 5 6 
#
# 1 0.022813 -0.002948 -0.002890 0.000000 0.000000 0.000000
# 2 -0.002948 0.013929 -0.009570 0.000000 0.000000 0.000000
# 3 -0.002890 -0.009570 0.023429 0.000000 0.000000 0.000000
# 4 0.000000 0.000000 0.000000 0.055742 0.000000 0.000000
# 5 0.000000 0.000000 0.000000 0.000000 0.080887 0.000000
# 6 0.000000 0.000000 0.000000 0.000000 0.000000 0.063991
#
#
# Mechanical properties :
#
#
# Convention : Reuss Voigt Hill
#
# Bulk Modulus (GPa) = 34.06401 42.27685 38.17043
# Shear Modulus (GPa) = 16.58978 18.46171 17.52574
#
# Velocity S-wave (km/s) = 3.27726 3.45721 3.36844
# Velocity P-wave (km/s) = 6.03108 6.58080 6.31193
#
# Compressibility (1/GPa) = 0.02935650
#
# Stress axis : x y z
#
# Youngs Moduli (GPa) = 43.83370 71.79301 42.68305
#
# Poissons Ratio (x) = 0.21163 0.12334
# Poissons Ratio (y) = 0.12921 0.40847
# Poissons Ratio (z) = 0.12667 0.68704
#
# Static dielectric constant tensor:
#      x y z
#    x 1.511040 0.000000 0.000000 
#    y 0.000000 1.488190 0.000000 
#    z 0.000000 0.000000 1.549690 
# 
# From -- ./inp_files/7074.got.cif
#   From: 2010.05.17/outbox.cif.g08.bks.cpg/sg58_4_cif.got.tgz:7074.got - 2010.06.03 14:20:14.
