data_PCOD9440546
_publ_section_title
;
Structure prediction by ZEFSAII (Michael W. Deem and Ramdas Pophale) SiO2 
 PCOD9440546
Probable space group: P B C M
;
_chemical_formula_sum "Si O2"
_cell_formula_units_Z 48
_cell_length_a 30.000000
_cell_length_b 9.000000
_cell_length_c 9.000000
_cell_angle_alpha 90.000000
_cell_angle_beta 90.000000
_cell_angle_gamma 90.000000
_cell_volume 2430.000000
_symmetry_space_group_name_H-M "P B C M"
_symmetry_group_IT_number 57
_symmetry_cell_setting 'orthorhombic'
loop_
_space_group_symop_operation_xyz
x,y,z
-x,-y,1/2+z
x,1/2-y,-z
-x,1/2+y,1/2-z
-x,-y,-z
x,y,1/2-z
-x,1/2+y,z
x,1/2-y,1/2+z
loop_
_atom_site_type_symbol
_atom_site_label
_atom_site_fract_x
_atom_site_fract_y
_atom_site_fract_z
Si Si1 0.963655 0.402979 0.581981
Si Si2 0.785909 0.587836 0.071054
Si Si3 0.295972 0.600145 0.578380
Si Si4 0.876137 0.597953 0.920512
Si Si5 0.616958 0.591491 0.423438
Si Si6 0.540160 0.089885 0.072569
O O1 0.958324 0.250000 0.500000
O O2 0.978421 0.377201 0.750000
O O3 0.917029 0.487797 0.581107
O O4 0.000000 0.500000 0.500000
O O5 0.784064 0.597939 0.250000
O O6 0.749067 0.471659 0.017517
O O7 0.777705 0.750000 0.000000
O O8 0.834244 0.540464 0.013504
O O9 0.310277 0.750000 0.500000
O O10 0.288389 0.637250 0.750000
O O11 0.333944 0.476480 0.571110
O O12 0.862399 0.628815 0.750000
O O13 0.890296 0.750000 0.000000
O O14 0.615710 0.750000 0.500000
O O15 0.602803 0.598018 0.250000
O O16 0.585132 0.486887 0.518259
O O17 0.536834 0.094781 0.250000
O O18 0.538655 0.250000 0.000000
O O19 0.500000 0.000000 0.000000
#
# Coordination Sequence:
#
# PCOD9440546 Si02
#       6
#     8   8   8   8   8   8
#     4  11  24  40  60  85 115 150 191 236 288 344
#     4  10  20  36  58  85 114 150 192 236 284 341
#     4  10  23  39  58  85 118 154 195 240 291 345
#     4  10  21  37  58  85 114 149 189 234 285 341
#     4  11  23  41  63  90 121 157 199 245 296 351
#     4  12  25  43  65  92 124 160 200 245 295 350
#
# _framework density 19.753086
#
# number of rings (size 3 to 8) (size 9 to 14) (size 15 to 20)
#    0.000    1.333    0.000    6.500    0.000    8.667 
#    0.000    3.333    0.000    0.000    0.000    0.000 
#    0.000    0.000    0.000    0.000    0.000    0.000 
#
# Total GULP energy -268150.674121 kJ/mol
# GULP energy per Si atom -5586.472378 kJ/mol
# Density = 1.970813 g / cm^3
# Si number density = 19.753086 Si / 1000 Ang^3
#
#
#
# Elastic Constant Matrix: (Units=GPa)
#
#
# Indices 1 2 3 4 5 6 
#
# 1 28.3146 56.7985 40.8523 0.0000 0.0000 0.0000
# 2 56.7985 91.9961 61.3326 0.0000 0.0000 0.0000
# 3 40.8523 61.3326 153.4238 0.0000 0.0000 0.0000
# 4 0.0000 0.0000 0.0000 29.2193 0.0000 0.0000
# 5 0.0000 0.0000 0.0000 0.0000 25.8721 0.0000
# 6 0.0000 0.0000 0.0000 0.0000 0.0000 42.5113
#
#
#
# Elastic Compliance Matrix: (Units=1/GPa)
#
#
# Indices 1 2 3 4 5 6 
#
# 1 -0.146367 0.087778 0.003883 0.000000 0.000000 0.000000
# 2 0.087778 -0.037822 -0.008253 0.000000 0.000000 0.000000
# 3 0.003883 -0.008253 0.008783 0.000000 0.000000 0.000000
# 4 0.000000 0.000000 0.000000 0.034224 0.000000 0.000000
# 5 0.000000 0.000000 0.000000 0.000000 0.038652 0.000000
# 6 0.000000 0.000000 0.000000 0.000000 0.000000 0.023523
#
#
# Mechanical properties :
#
#
# Convention : Reuss Voigt Hill
#
# Bulk Modulus (GPa) = -116.42439 65.74459 -25.33990
# Shear Modulus (GPa) = -20.10555 27.17059 3.53252
#
# Velocity S-wave (km/s) = -3.19383 3.71281 1.33874
# Velocity P-wave (km/s) = 8.52458 7.19273 3.23520
#
# Compressibility (1/GPa) = -0.00858927
#
# Stress axis : x y z
#
# Youngs Moduli (GPa) = -6.83213 -26.43943 113.85411
#
# Poissons Ratio (x) = 2.32081 -0.44211
# Poissons Ratio (y) = 0.59971 0.93965
# Poissons Ratio (z) = 0.02653 -0.21821
#
# Static dielectric constant tensor:
#      x y z
#    x 1.692620 0.000000 0.000000 
#    y 0.000000 1.626100 0.000000 
#    z 0.000000 0.000000 1.678350 
# 
# From -- ./inp_files/9968.got.cif
#   From: 2010.05.17/outbox.ucp.g08.bks.cvg/sg57_5_cif.got.tgz:9968.got - 2010.06.11 16:39:23.
