data_PCOD9440859
_publ_section_title
;
Structure prediction by ZEFSAII (Michael W. Deem and Ramdas Pophale) SiO2 
 PCOD9440859
Probable space group: P N N M
;
_chemical_formula_sum "Si O2"
_cell_formula_units_Z 56
_cell_length_a 8.394423
_cell_length_b 13.985241
_cell_length_c 20.872950
_cell_angle_alpha 90.000000
_cell_angle_beta 90.000000
_cell_angle_gamma 90.000000
_cell_volume 2450.443183
_symmetry_space_group_name_H-M "P N N M"
_symmetry_group_IT_number 58
_symmetry_cell_setting 'orthorhombic'
loop_
_space_group_symop_operation_xyz
x,y,z
-x,-y,z
1/2+x,1/2-y,1/2-z
1/2-x,1/2+y,1/2-z
-x,-y,-z
x,y,-z
1/2-x,1/2+y,1/2+z
1/2+x,1/2-y,1/2+z
loop_
_atom_site_type_symbol
_atom_site_label
_atom_site_fract_x
_atom_site_fract_y
_atom_site_fract_z
Si Si1 0.821229 0.530087 0.500000
Si Si2 0.874168 0.180182 0.572192
Si Si3 0.329964 0.043061 0.773752
Si Si4 0.332225 0.361248 0.788556
Si Si5 0.976526 0.285927 0.806363
Si Si6 0.223816 0.121465 0.098658
Si Si7 0.032340 0.884298 0.000000
Si Si8 0.009890 0.389692 0.071788
O O1 0.767966 0.476369 0.435938
O O2 0.721692 0.627751 0.500000
O O3 0.000000 0.500000 0.500000
O O4 0.946321 0.164304 0.500000
O O5 0.927838 0.142405 0.643188
O O6 0.848329 0.294416 0.582241
O O7 0.697310 0.134708 0.567905
O O8 0.230282 0.964362 0.734628
O O9 0.500000 0.000000 0.799684
O O10 0.391309 0.128996 0.731110
O O11 0.224464 0.091081 0.828667
O O12 0.421972 0.309343 0.729928
O O13 0.167230 0.302137 0.800705
O O14 0.934080 0.315211 0.878964
O O15 0.061632 0.151061 0.062429
O O16 0.000000 0.000000 0.000000
O O17 0.000000 0.500000 0.094854
O O18 0.942468 0.384578 0.000000
#
# Coordination Sequence:
#
# PCOD9440859 Si02
#       8
#     4   8   8   8   8   8   4   8
#     4  10  20  36  54  80 118 157 196 231 299 365
#     4  10  17  32  58  83 110 151 197 245 299 355
#     4  10  20  35  57  82 119 160 194 246 304 365
#     4  10  21  36  56  85 114 157 198 246 307 356
#     4  10  19  37  57  83 120 151 198 250 300 368
#     4  10  17  33  54  79 115 154 195 241 291 356
#     4   8  18  34  50  82 112 147 194 238 288 348
#     4   9  18  33  57  88 118 153 198 248 307 359
#
# _framework density 22.853010999999999
#
# number of rings (size 3 to 8) (size 9 to 14) (size 15 to 20)
#    0.000    2.429    2.857    2.571    0.000    0.000 
#   15.429    0.714    0.000    0.857    0.000    0.000 
#    0.000   12.571    0.000    0.000    0.000    0.000 
#
# Total GULP energy -311800.583304 kJ/mol
# GULP energy per Si atom -5567.867559 kJ/mol
# Density = 2.280100 g / cm^3
# Si number density = 22.853011 Si / 1000 Ang^3
#
#
#
# Elastic Constant Matrix: (Units=GPa)
#
#
# Indices 1 2 3 4 5 6 
#
# 1 48.7926 -1.7268 34.1521 0.0000 0.0000 0.0000
# 2 -1.7268 52.5799 46.0343 0.0000 0.0000 0.0000
# 3 34.1521 46.0343 167.2446 0.0000 0.0000 0.0000
# 4 0.0000 0.0000 0.0000 6.6998 0.0000 0.0000
# 5 0.0000 0.0000 0.0000 0.0000 130.2734 0.0000
# 6 0.0000 0.0000 0.0000 0.0000 0.0000 18.5629
#
#
#
# Elastic Compliance Matrix: (Units=1/GPa)
#
#
# Indices 1 2 3 4 5 6 
#
# 1 0.025829 0.007201 -0.007257 0.000000 0.000000 0.000000
# 2 0.007201 0.027065 -0.008920 0.000000 0.000000 0.000000
# 3 -0.007257 -0.008920 0.009916 0.000000 0.000000 0.000000
# 4 0.000000 0.000000 0.000000 0.149259 0.000000 0.000000
# 5 0.000000 0.000000 0.000000 0.000000 0.007676 0.000000
# 6 0.000000 0.000000 0.000000 0.000000 0.000000 0.053871
#
#
# Mechanical properties :
#
#
# Convention : Reuss Voigt Hill
#
# Bulk Modulus (GPa) = 22.29177 47.28181 34.78679
# Shear Modulus (GPa) = 16.31214 43.78437 30.04825
#
# Velocity S-wave (km/s) = 2.67457 4.38186 3.63002
# Velocity P-wave (km/s) = 4.39470 6.80701 5.72926
#
# Compressibility (1/GPa) = 0.04485960
#
# Stress axis : x y z
#
# Youngs Moduli (GPa) = 38.71621 36.94816 100.84298
#
# Poissons Ratio (x) = -0.26608 0.73178
# Poissons Ratio (y) = -0.27881 0.89954
# Poissons Ratio (z) = 0.28095 0.32959
#
# Static dielectric constant tensor:
#      x y z
#    x 5.981020 0.000000 0.000000 
#    y 0.000000 1.874660 0.000000 
#    z 0.000000 0.000000 1.939640 
# 
# From -- ./inp_files/28994.got.cif
#   From: 2010.05.17/outbox.cif.g08.bks.cpg/sg58_15_cif.got.tgz:28994.got - 2010.06.03 14:20:14.
