data_PCOD9440608
_publ_section_title
;
Structure prediction by ZEFSAII (Michael W. Deem and Ramdas Pophale) SiO2 
 PCOD9440608
Probable space group: P B C M
;
_chemical_formula_sum "Si O2"
_cell_formula_units_Z 48
_cell_length_a 9.000000
_cell_length_b 30.000000
_cell_length_c 9.000000
_cell_angle_alpha 90.000000
_cell_angle_beta 90.000000
_cell_angle_gamma 90.000000
_cell_volume 2430.000000
_symmetry_space_group_name_H-M "P B C M"
_symmetry_group_IT_number 57
_symmetry_cell_setting 'orthorhombic'
loop_
_space_group_symop_operation_xyz
x,y,z
-x,-y,1/2+z
x,1/2-y,-z
-x,1/2+y,1/2-z
-x,-y,-z
x,y,1/2-z
-x,1/2+y,z
x,1/2-y,1/2+z
loop_
_atom_site_type_symbol
_atom_site_label
_atom_site_fract_x
_atom_site_fract_y
_atom_site_fract_z
Si Si1 0.580475 0.543956 0.069047
Si Si2 0.087936 0.042429 0.929869
Si Si3 0.941138 0.359802 0.081762
Si Si4 0.778152 0.797156 0.417003
Si Si5 0.524524 0.861264 0.070488
Si Si6 0.281837 0.701213 0.073295
O O1 0.577044 0.542563 0.250000
O O2 0.500000 0.500000 0.000000
O O3 0.749778 0.544229 0.006443
O O4 0.508417 0.590544 0.008468
O O5 0.102627 0.037007 0.750000
O O6 0.005817 0.090719 0.951439
O O7 0.000000 0.000000 0.000000
O O8 0.872536 0.362788 0.250000
O O9 0.063905 0.320954 0.091984
O O10 0.837819 0.338014 0.957089
O O11 0.777660 0.750000 0.500000
O O12 0.723586 0.787447 0.250000
O O13 0.679777 0.838324 0.474780
O O14 0.518517 0.867673 0.250000
O O15 0.416563 0.821992 0.014847
O O16 0.306268 0.706975 0.250000
O O17 0.248258 0.750000 0.000000
#
# Coordination Sequence:
#
# PCOD9440608 Si02
#       6
#     8   8   8   8   8   8
#     4  12  26  45  70 100 133 173 220 271 331 397
#     4  11  24  45  70  99 135 173 220 272 332 398
#     4  10  22  43  66  92 129 173 215 268 326 386
#     4  10  21  38  63  93 124 163 208 259 319 381
#     4  11  23  44  68  94 131 172 216 271 329 391
#     4  12  26  43  64  96 133 177 225 272 326 390
#
# _framework density 19.753086
#
# number of rings (size 3 to 8) (size 9 to 14) (size 15 to 20)
#    0.000    1.000    1.667    5.000    2.333    6.000 
#    0.000    0.000    0.000    0.000    0.000    0.000 
#    0.000    0.000    0.000    0.000    0.000    0.000 
#
# Total GULP energy -267673.939845 kJ/mol
# GULP energy per Si atom -5576.540413 kJ/mol
# Density = 1.970813 g / cm^3
# Si number density = 19.753086 Si / 1000 Ang^3
#
#
#
# Elastic Constant Matrix: (Units=GPa)
#
#
# Indices 1 2 3 4 5 6 
#
# 1 36.2383 6.0505 15.3457 0.0000 0.0000 0.0000
# 2 6.0505 166.8522 63.2151 0.0000 0.0000 0.0000
# 3 15.3457 63.2151 129.7957 0.0000 0.0000 0.0000
# 4 0.0000 0.0000 0.0000 46.2109 0.0000 0.0000
# 5 0.0000 0.0000 0.0000 0.0000 28.6301 0.0000
# 6 0.0000 0.0000 0.0000 0.0000 0.0000 41.2240
#
#
#
# Elastic Compliance Matrix: (Units=1/GPa)
#
#
# Indices 1 2 3 4 5 6 
#
# 1 0.029062 0.000304 -0.003584 0.000000 0.000000 0.000000
# 2 0.000304 0.007353 -0.003617 0.000000 0.000000 0.000000
# 3 -0.003584 -0.003617 0.009890 0.000000 0.000000 0.000000
# 4 0.000000 0.000000 0.000000 0.021640 0.000000 0.000000
# 5 0.000000 0.000000 0.000000 0.000000 0.034928 0.000000
# 6 0.000000 0.000000 0.000000 0.000000 0.000000 0.024258
#
#
# Mechanical properties :
#
#
# Convention : Reuss Voigt Hill
#
# Bulk Modulus (GPa) = 30.75929 55.78985 43.27457
# Shear Modulus (GPa) = 32.94650 39.76466 36.35558
#
# Velocity S-wave (km/s) = 4.08844 4.49161 4.29476
# Velocity P-wave (km/s) = 6.15572 7.42996 6.82265
#
# Compressibility (1/GPa) = 0.03251050
#
# Stress axis : x y z
#
# Youngs Moduli (GPa) = 34.40908 136.00536 101.11488
#
# Poissons Ratio (x) = -0.04135 0.36240
# Poissons Ratio (y) = -0.01046 0.36573
# Poissons Ratio (z) = 0.12332 0.49192
#
# Static dielectric constant tensor:
#      x y z
#    x 1.869230 0.000000 0.000000 
#    y 0.000000 1.642960 0.000000 
#    z 0.000000 0.000000 1.698690 
# 
# From -- ./inp_files/2115.got.cif
#   From: 2010.05.17/outbox.ucp.g08.bks.cvg/sg57_2_cif.got.tgz:2115.got - 2010.06.11 16:39:23.
