data_PCOD9440054
_publ_section_title
;
Structure prediction by ZEFSAII (Michael W. Deem and Ramdas Pophale) SiO2 
 PCOD9440054
Probable space group: P B C M
;
_chemical_formula_sum "Si O2"
_cell_formula_units_Z 48
_cell_length_a 9.891464
_cell_length_b 17.115055
_cell_length_c 14.301482
_cell_angle_alpha 90.000000
_cell_angle_beta 90.000000
_cell_angle_gamma 90.000000
_cell_volume 2421.140083
_symmetry_space_group_name_H-M "P B C M"
_symmetry_group_IT_number 57
_symmetry_cell_setting 'orthorhombic'
loop_
_space_group_symop_operation_xyz
x,y,z
-x,-y,1/2+z
x,1/2-y,-z
-x,1/2+y,1/2-z
-x,-y,-z
x,y,1/2-z
-x,1/2+y,z
x,1/2-y,1/2+z
loop_
_atom_site_type_symbol
_atom_site_label
_atom_site_fract_x
_atom_site_fract_y
_atom_site_fract_z
Si Si1 0.949378 0.827046 0.054009
Si Si2 0.575527 0.702522 0.250000
Si Si3 0.747161 0.120939 0.949884
Si Si4 0.159866 0.202269 0.750000
Si Si5 0.655321 0.546538 0.750000
Si Si6 0.721611 0.542028 0.543556
Si Si7 0.520685 0.666213 0.458704
Si Si8 0.611375 0.358472 0.250000
O O1 0.933394 0.802512 0.160865
O O2 0.851059 0.900877 0.039634
O O3 0.102773 0.848687 0.031716
O O4 0.903258 0.750000 0.000000
O O5 0.732700 0.727810 0.250000
O O6 0.547447 0.660699 0.348362
O O7 0.478629 0.779292 0.250000
O O8 0.699224 0.137143 0.843974
O O9 0.636761 0.159932 0.017434
O O10 0.740078 0.029195 0.973433
O O11 0.257152 0.126488 0.750000
O O12 0.694574 0.510573 0.649406
O O13 0.498670 0.571424 0.750000
O O14 0.596676 0.597264 0.513958
O O15 0.568725 0.750000 0.500000
#
# Coordination Sequence:
#
# PCOD9440054 Si02
#       8
#     8   4   8   4   4   8   8   4
#     4  11  23  42  66  90 127 172 222 267 326 394
#     4  11  22  38  68  98 128 164 224 276 319 382
#     4  12  25  40  62  99 132 170 209 274 340 387
#     4   9  19  40  63  94 114 174 218 260 317 395
#     4   9  18  37  65  86 124 171 207 255 325 391
#     4  11  23  42  66  93 129 172 223 267 324 400
#     4  12  22  40  65  96 128 169 220 271 325 389
#     4  11  21  39  64  88 134 167 207 255 337 396
#
# _framework density 19.825371000000001
#
# number of rings (size 3 to 8) (size 9 to 14) (size 15 to 20)
#    0.000    1.000    3.333    5.500    0.000    1.333 
#    0.000    1.667    0.000    0.000    0.000    0.000 
#    0.000    0.000    0.000    0.000    0.000    0.000 
#
# Total GULP energy -268262.401566 kJ/mol
# GULP energy per Si atom -5588.800033 kJ/mol
# Density = 1.978025 g / cm^3
# Si number density = 19.825371 Si / 1000 Ang^3
#
#
#
# Elastic Constant Matrix: (Units=GPa)
#
#
# Indices 1 2 3 4 5 6 
#
# 1 105.9160 11.4994 5.5796 0.0000 0.0000 0.0000
# 2 11.4994 67.3766 15.6171 0.0000 0.0000 0.0000
# 3 5.5796 15.6171 96.5908 0.0000 0.0000 0.0000
# 4 0.0000 0.0000 0.0000 18.1772 0.0000 0.0000
# 5 0.0000 0.0000 0.0000 0.0000 23.6131 0.0000
# 6 0.0000 0.0000 0.0000 0.0000 0.0000 20.1124
#
#
#
# Elastic Compliance Matrix: (Units=1/GPa)
#
#
# Indices 1 2 3 4 5 6 
#
# 1 0.009628 -0.001573 -0.000302 0.000000 0.000000 0.000000
# 2 -0.001573 0.015677 -0.002444 0.000000 0.000000 0.000000
# 3 -0.000302 -0.002444 0.010766 0.000000 0.000000 0.000000
# 4 0.000000 0.000000 0.000000 0.055014 0.000000 0.000000
# 5 0.000000 0.000000 0.000000 0.000000 0.042349 0.000000
# 6 0.000000 0.000000 0.000000 0.000000 0.000000 0.049721
#
#
# Mechanical properties :
#
#
# Convention : Reuss Voigt Hill
#
# Bulk Modulus (GPa) = 36.45279 37.25285 36.85282
# Shear Modulus (GPa) = 24.88348 28.19303 26.53825
#
# Velocity S-wave (km/s) = 3.54663 3.77512 3.66266
# Velocity P-wave (km/s) = 5.93282 6.15088 6.04283
#
# Compressibility (1/GPa) = 0.02743274
#
# Stress axis : x y z
#
# Youngs Moduli (GPa) = 103.86205 63.78803 92.88923
#
# Poissons Ratio (x) = 0.10036 0.02803
# Poissons Ratio (y) = 0.16341 0.22700
# Poissons Ratio (z) = 0.03134 0.15589
#
# Static dielectric constant tensor:
#      x y z
#    x 1.676860 0.000000 0.000000 
#    y 0.000000 1.704280 0.000000 
#    z 0.000000 0.000000 1.679270 
# 
# From -- ./inp_files/16447.got.cif
#   From: 2010.05.17/outbox.cif.g08.bks.cpg/sg57_9_cif.got.tgz:16447.got - 2010.06.03 13:58:18.
