data_PCOD9440947
_publ_section_title
;
Structure prediction by ZEFSAII (Michael W. Deem and Ramdas Pophale) SiO2 
 PCOD9440947
Probable space group: P N N M
;
_chemical_formula_sum "Si O2"
_cell_formula_units_Z 48
_cell_length_a 9.691909
_cell_length_b 21.890946
_cell_length_c 14.685348
_cell_angle_alpha 90.000000
_cell_angle_beta 90.000000
_cell_angle_gamma 90.000000
_cell_volume 3115.717689
_symmetry_space_group_name_H-M "P N N M"
_symmetry_group_IT_number 58
_symmetry_cell_setting 'orthorhombic'
loop_
_space_group_symop_operation_xyz
x,y,z
-x,-y,z
1/2+x,1/2-y,1/2-z
1/2-x,1/2+y,1/2-z
-x,-y,-z
x,y,-z
1/2-x,1/2+y,1/2+z
1/2+x,1/2-y,1/2+z
loop_
_atom_site_type_symbol
_atom_site_label
_atom_site_fract_x
_atom_site_fract_y
_atom_site_fract_z
Si Si1 0.152838 0.529086 0.892396
Si Si2 0.183446 0.657776 0.206136
Si Si3 0.820029 0.291467 0.602701
Si Si4 0.962692 0.819210 0.607420
Si Si5 0.202173 0.907973 0.610362
Si Si6 0.420896 0.805624 0.606323
O O1 0.166631 0.590097 0.834587
O O2 0.261693 0.476806 0.863529
O O3 0.000000 0.500000 0.884498
O O4 0.173804 0.542961 0.000000
O O5 0.175820 0.661650 0.314759
O O6 0.327181 0.683629 0.167914
O O7 0.057582 0.697079 0.165220
O O8 0.829597 0.316410 0.500000
O O9 0.678164 0.252824 0.610189
O O10 0.940951 0.240714 0.613371
O O11 0.927090 0.827062 0.500000
O O12 0.058645 0.876585 0.636976
O O13 0.202999 0.906423 0.500000
O O14 0.326681 0.862820 0.637863
O O15 0.457350 0.816217 0.500000
#
# Coordination Sequence:
#
# PCOD9440947 Si02
#       6
#     8   8   8   8   8   8
#     4  10  18  28  45  73 101 122 149 184 229 287
#     4  12  19  27  48  74  93 118 162 195 220 271
#     4   9  20  35  46  61  94 130 156 189 237 274
#     4   9  18  31  47  71  99 120 145 191 241 278
#     4   8  15  29  44  64 100 129 137 165 234 294
#     4   9  16  29  48  67  90 121 149 182 229 284
#
# _framework density 15.405761
#
# number of rings (size 3 to 8) (size 9 to 14) (size 15 to 20)
#    0.000    2.500    1.667    4.500    0.000    0.667 
#    0.000    2.500    0.000    0.500    0.000    2.333 
#    0.000    0.000    0.000    0.000    0.000    0.000 
#
# Total GULP energy -267531.884104 kJ/mol
# GULP energy per Si atom -5573.580919 kJ/mol
# Density = 1.537070 g / cm^3
# Si number density = 15.405761 Si / 1000 Ang^3
#
#
#
# Elastic Constant Matrix: (Units=GPa)
#
#
# Indices 1 2 3 4 5 6 
#
# 1 83.7668 6.8606 38.7723 0.0000 0.0000 0.0000
# 2 6.8606 44.9243 38.6572 0.0000 0.0000 0.0000
# 3 38.7723 38.6572 99.0511 0.0000 0.0000 0.0000
# 4 0.0000 0.0000 0.0000 18.4739 0.0000 0.0000
# 5 0.0000 0.0000 0.0000 0.0000 9.2283 0.0000
# 6 0.0000 0.0000 0.0000 0.0000 0.0000 7.2842
#
#
#
# Elastic Compliance Matrix: (Units=1/GPa)
#
#
# Indices 1 2 3 4 5 6 
#
# 1 0.015084 0.004181 -0.007536 0.000000 0.000000 0.000000
# 2 0.004181 0.034674 -0.015169 0.000000 0.000000 0.000000
# 3 -0.007536 -0.015169 0.018966 0.000000 0.000000 0.000000
# 4 0.000000 0.000000 0.000000 0.054130 0.000000 0.000000
# 5 0.000000 0.000000 0.000000 0.000000 0.108362 0.000000
# 6 0.000000 0.000000 0.000000 0.000000 0.000000 0.137283
#
#
# Mechanical properties :
#
#
# Convention : Reuss Voigt Hill
#
# Bulk Modulus (GPa) = 31.57001 44.03585 37.80293
# Shear Modulus (GPa) = 12.01616 16.56075 14.28846
#
# Velocity S-wave (km/s) = 2.79584 3.28223 3.04875
# Velocity P-wave (km/s) = 5.56409 6.55821 6.08150
#
# Compressibility (1/GPa) = 0.03167564
#
# Stress axis : x y z
#
# Youngs Moduli (GPa) = 66.29700 28.83989 52.72611
#
# Poissons Ratio (x) = -0.12059 0.39735
# Poissons Ratio (y) = -0.27721 0.79981
# Poissons Ratio (z) = 0.49963 0.43748
#
# Static dielectric constant tensor:
#      x y z
#    x 1.535560 0.000000 0.000000 
#    y 0.000000 1.514980 0.000000 
#    z 0.000000 0.000000 1.494670 
# 
# From -- ./inp_files/13037.got.cif
#   From: 2010.05.17/outbox.cif.g08.bks.cpg/sg58_7_cif.got.tgz:13037.got - 2010.06.03 14:20:14.
