data_PCOD9440056
_publ_section_title
;
Structure prediction by ZEFSAII (Michael W. Deem and Ramdas Pophale) SiO2 
 PCOD9440056
Probable space group: P B C M
;
_chemical_formula_sum "Si O2"
_cell_formula_units_Z 48
_cell_length_a 8.563606
_cell_length_b 17.844094
_cell_length_c 15.076192
_cell_angle_alpha 90.000000
_cell_angle_beta 90.000000
_cell_angle_gamma 90.000000
_cell_volume 2303.789740
_symmetry_space_group_name_H-M "P B C M"
_symmetry_group_IT_number 57
_symmetry_cell_setting 'orthorhombic'
loop_
_space_group_symop_operation_xyz
x,y,z
-x,-y,1/2+z
x,1/2-y,-z
-x,1/2+y,1/2-z
-x,-y,-z
x,y,1/2-z
-x,1/2+y,z
x,1/2-y,1/2+z
loop_
_atom_site_type_symbol
_atom_site_label
_atom_site_fract_x
_atom_site_fract_y
_atom_site_fract_z
Si Si1 0.479589 0.461995 0.594582
Si Si2 0.977124 0.618382 0.250000
Si Si3 0.985901 0.617739 0.945703
Si Si4 0.979659 0.132979 0.750000
Si Si5 0.267779 0.501468 0.750000
Si Si6 0.198650 0.255975 0.250000
Si Si7 0.291531 0.310667 0.562999
Si Si8 0.167247 0.542961 0.405407
O O1 0.500000 0.500000 0.500000
O O2 0.374778 0.508362 0.663517
O O3 0.391696 0.384315 0.578302
O O4 0.656131 0.451853 0.626983
O O5 0.059512 0.584929 0.335155
O O6 0.804157 0.582301 0.250000
O O7 0.963840 0.707659 0.250000
O O8 0.045382 0.656503 0.854740
O O9 0.888462 0.543022 0.916863
O O10 0.868366 0.664806 0.009763
O O11 0.130103 0.585348 0.002518
O O12 0.164156 0.155490 0.750000
O O13 0.880555 0.056340 0.750000
O O14 0.270229 0.229459 0.342260
O O15 0.371494 0.250000 0.500000
#
# Coordination Sequence:
#
# PCOD9440056 Si02
#       8
#     8   4   8   4   4   4   8   8
#     4  12  24  42  67 100 141 178 225 278 354 416
#     4  12  21  40  69  94 127 172 230 275 332 399
#     4  11  21  39  67  98 127 169 231 287 332 385
#     4  12  24  38  64 102 130 172 232 294 325 397
#     4  12  23  42  69 102 142 179 223 292 344 404
#     4  12  24  42  66  96 135 175 229 277 341 410
#     4  12  24  44  67  99 137 186 222 282 356 420
#     4  11  22  38  68 102 130 165 228 289 326 406
#
# _framework density 20.835235000000001
#
# number of rings (size 3 to 8) (size 9 to 14) (size 15 to 20)
#    0.000    0.333    8.333    1.500    0.000    0.000 
#    0.000    5.000    0.000    0.000    0.000    0.000 
#    0.000    0.000    0.000    0.000    0.000    0.000 
#
# Total GULP energy -267500.711220 kJ/mol
# GULP energy per Si atom -5572.931484 kJ/mol
# Density = 2.078781 g / cm^3
# Si number density = 20.835235 Si / 1000 Ang^3
#
#
#
# Elastic Constant Matrix: (Units=GPa)
#
#
# Indices 1 2 3 4 5 6 
#
# 1 73.7332 22.3710 31.2107 0.0000 0.0000 0.0000
# 2 22.3710 59.3698 35.5246 0.0000 0.0000 0.0000
# 3 31.2107 35.5246 166.8506 0.0000 0.0000 0.0000
# 4 0.0000 0.0000 0.0000 37.8921 0.0000 0.0000
# 5 0.0000 0.0000 0.0000 0.0000 29.8553 0.0000
# 6 0.0000 0.0000 0.0000 0.0000 0.0000 24.1372
#
#
#
# Elastic Compliance Matrix: (Units=1/GPa)
#
#
# Indices 1 2 3 4 5 6 
#
# 1 0.015842 -0.004809 -0.001940 0.000000 0.000000 0.000000
# 2 -0.004809 0.020763 -0.003521 0.000000 0.000000 0.000000
# 3 -0.001940 -0.003521 0.007106 0.000000 0.000000 0.000000
# 4 0.000000 0.000000 0.000000 0.026391 0.000000 0.000000
# 5 0.000000 0.000000 0.000000 0.000000 0.033495 0.000000
# 6 0.000000 0.000000 0.000000 0.000000 0.000000 0.041430
#
#
# Mechanical properties :
#
#
# Convention : Reuss Voigt Hill
#
# Bulk Modulus (GPa) = 43.15623 53.12961 48.14292
# Shear Modulus (GPa) = 28.85347 32.43342 30.64344
#
# Velocity S-wave (km/s) = 3.72538 3.94974 3.83920
# Velocity P-wave (km/s) = 6.26599 6.80851 6.54288
#
# Compressibility (1/GPa) = 0.02317163
#
# Stress axis : x y z
#
# Youngs Moduli (GPa) = 63.12138 48.16375 140.72875
#
# Poissons Ratio (x) = 0.23162 0.27295
# Poissons Ratio (y) = 0.30355 0.49551
# Poissons Ratio (z) = 0.12243 0.16959
#
# Static dielectric constant tensor:
#      x y z
#    x 1.882770 0.000000 0.000000 
#    y 0.000000 1.765270 0.000000 
#    z 0.000000 0.000000 1.814430 
# 
# From -- ./inp_files/16610.got.cif
#   From: 2010.05.17/outbox.cif.g08.bks.cpg/sg57_9_cif.got.tgz:16610.got - 2010.06.03 13:58:18.
