data_PCOD9440886
_publ_section_title
;
Structure prediction by ZEFSAII (Michael W. Deem and Ramdas Pophale) SiO2 
 PCOD9440886
Probable space group: P N N M
;
_chemical_formula_sum "Si O2"
_cell_formula_units_Z 48
_cell_length_a 5.453201
_cell_length_b 19.287695
_cell_length_c 17.878567
_cell_angle_alpha 90.000000
_cell_angle_beta 90.000000
_cell_angle_gamma 90.000000
_cell_volume 1880.461914
_symmetry_space_group_name_H-M "P N N M"
_symmetry_group_IT_number 58
_symmetry_cell_setting 'orthorhombic'
loop_
_space_group_symop_operation_xyz
x,y,z
-x,-y,z
1/2+x,1/2-y,1/2-z
1/2-x,1/2+y,1/2-z
-x,-y,-z
x,y,-z
1/2-x,1/2+y,1/2+z
1/2+x,1/2-y,1/2+z
loop_
_atom_site_type_symbol
_atom_site_label
_atom_site_fract_x
_atom_site_fract_y
_atom_site_fract_z
Si Si1 0.952605 0.596668 0.204108
Si Si2 0.468753 0.724445 0.854725
Si Si3 0.463744 0.736356 0.320491
Si Si4 0.546477 0.427872 0.874584
Si Si5 0.695775 0.920985 0.864687
Si Si6 0.694507 0.579044 0.415905
O O1 0.947110 0.679468 0.195868
O O2 0.168465 0.571407 0.149245
O O3 0.065630 0.579279 0.284312
O O4 0.678459 0.568990 0.187081
O O5 0.458947 0.706863 0.764208
O O6 0.216622 0.765354 0.865472
O O7 0.484797 0.652424 0.900106
O O8 0.707021 0.771687 0.862491
O O9 0.500000 0.500000 0.917297
O O10 0.472105 0.893577 0.914555
O O11 0.973977 0.890481 0.864464
O O12 0.756646 0.999192 0.891756
O O13 0.597069 0.583175 0.500000
#
# Coordination Sequence:
#
# PCOD9440886 Si02
#       6
#     8   8   8   8   8   8
#     4  10  19  26  35  52  65  83  98 131 172 194
#     4   8  14  25  36  46  58  85 103 125 147 182
#     4   8  14  25  37  46  61  77 107 124 149 192
#     4  10  19  25  34  48  70  84 103 126 161 204
#     4  10  18  26  37  48  61  77 101 131 159 191
#     4  10  19  29  38  46  59  84 108 127 151 196
#
# _framework density 25.525642999999999
#
# number of rings (size 3 to 8) (size 9 to 14) (size 15 to 20)
#    0.000    2.667    0.000    4.000    7.000    0.000 
#    0.000    0.000    0.000    0.000    0.000    0.000 
#    0.000    0.000    0.000    0.000    0.000    0.000 
#
# Total GULP energy -267546.824993 kJ/mol
# GULP energy per Si atom -5573.892187 kJ/mol
# Density = 2.546755 g / cm^3
# Si number density = 25.525643 Si / 1000 Ang^3
#
#
#
# Elastic Constant Matrix: (Units=GPa)
#
#
# Indices 1 2 3 4 5 6 
#
# 1 258.3424 37.6154 17.1380 0.0000 0.0000 0.0000
# 2 37.6154 83.7285 -6.2635 0.0000 0.0000 0.0000
# 3 17.1380 -6.2635 45.4577 0.0000 0.0000 0.0000
# 4 0.0000 0.0000 0.0000 -10.7332 0.0000 0.0000
# 5 0.0000 0.0000 0.0000 0.0000 10.9458 0.0000
# 6 0.0000 0.0000 0.0000 0.0000 0.0000 60.3491
#
#
#
# Elastic Compliance Matrix: (Units=1/GPa)
#
#
# Indices 1 2 3 4 5 6 
#
# 1 0.004299 -0.002074 -0.001907 0.000000 0.000000 0.000000
# 2 -0.002074 0.013068 0.002583 0.000000 0.000000 0.000000
# 3 -0.001907 0.002583 0.023073 0.000000 0.000000 0.000000
# 4 0.000000 0.000000 0.000000 -0.093169 0.000000 0.000000
# 5 0.000000 0.000000 0.000000 0.000000 0.091359 0.000000
# 6 0.000000 0.000000 0.000000 0.000000 0.000000 0.016570
#
#
# Mechanical properties :
#
#
# Convention : Reuss Voigt Hill
#
# Bulk Modulus (GPa) = 26.56430 53.83427 40.19928
# Shear Modulus (GPa) = 70.87578 34.71491 52.79535
#
# Velocity S-wave (km/s) = 5.27511 3.69182 4.55282
# Velocity P-wave (km/s) = 6.89434 6.26967 6.58941
#
# Compressibility (1/GPa) = 0.03764450
#
# Stress axis : x y z
#
# Youngs Moduli (GPa) = 232.59519 76.52065 43.34041
#
# Poissons Ratio (x) = 0.15871 0.08264
# Poissons Ratio (y) = 0.48243 -0.11193
# Poissons Ratio (z) = 0.44348 -0.19762
#
# Static dielectric constant tensor:
#      x y z
#    x 2.217750 0.000000 0.000000 
#    y 0.000000 2.463390 0.000000 
#    z 0.000000 0.000000 1.983610 
# 
# From -- ./inp_files/31069.got.cif
#   From: 2010.05.17/outbox.cif.g08.bks.cpg/sg58_16_cif.got.tgz:31069.got - 2010.06.03 14:20:14.
