data_PCOD9440363
_publ_section_title
;
Structure prediction by ZEFSAII (Michael W. Deem and Ramdas Pophale) SiO2 
 PCOD9440363
Probable space group: P B C M
;
_chemical_formula_sum "Si O2"
_cell_formula_units_Z 32
_cell_length_a 4.969442
_cell_length_b 14.044865
_cell_length_c 18.313899
_cell_angle_alpha 90.000000
_cell_angle_beta 90.000000
_cell_angle_gamma 90.000000
_cell_volume 1278.221182
_symmetry_space_group_name_H-M "P B C M"
_symmetry_group_IT_number 57
_symmetry_cell_setting 'orthorhombic'
loop_
_space_group_symop_operation_xyz
x,y,z
-x,-y,1/2+z
x,1/2-y,-z
-x,1/2+y,1/2-z
-x,-y,-z
x,y,1/2-z
-x,1/2+y,z
x,1/2-y,1/2+z
loop_
_atom_site_type_symbol
_atom_site_label
_atom_site_fract_x
_atom_site_fract_y
_atom_site_fract_z
Si Si1 0.390988 0.276586 0.368009
Si Si2 0.882190 0.150334 0.374652
Si Si3 0.983486 0.556008 0.828149
Si Si4 0.345203 0.593107 0.527859
O O1 0.672688 0.229047 0.345157
O O2 0.448951 0.326924 0.445292
O O3 0.179657 0.191216 0.367858
O O4 0.245386 0.363439 0.327737
O O5 0.821615 0.367366 0.540000
O O6 0.857062 0.048673 0.336559
O O7 0.130669 0.560387 0.750000
O O8 0.166311 0.570590 0.900371
O O9 0.500000 0.500000 0.500000
#
# Coordination Sequence:
#
# PCOD9440363 Si02
#       4
#     8   8   8   8
#     4  12  28  49  82 118 154 205 269 336 397 472
#     4  12  28  48  84 117 155 210 274 331 393 476
#     4  12  30  53  76 117 171 212 264 336 413 481
#     4  12  26  50  86 117 159 209 279 327 400 464
#
# _framework density 25.034791999999999
#
# number of rings (size 3 to 8) (size 9 to 14) (size 15 to 20)
#    0.000    0.000    5.000    3.000    7.000    3.000 
#    0.000    0.000    0.000    0.000    0.000    0.000 
#    0.000    0.000    0.000    0.000    0.000    0.000 
#
# Total GULP energy -179336.108457 kJ/mol
# GULP energy per Si atom -5604.253389 kJ/mol
# Density = 2.497781 g / cm^3
# Si number density = 25.034792 Si / 1000 Ang^3
#
#
#
# Elastic Constant Matrix: (Units=GPa)
#
#
# Indices 1 2 3 4 5 6 
#
# 1 84.0816 12.7388 26.7087 0.0000 0.0000 0.0000
# 2 12.7388 147.0253 34.3702 0.0000 0.0000 0.0000
# 3 26.7087 34.3702 158.1928 0.0000 0.0000 0.0000
# 4 0.0000 0.0000 0.0000 -69.1536 0.0000 0.0000
# 5 0.0000 0.0000 0.0000 0.0000 12.7150 0.0000
# 6 0.0000 0.0000 0.0000 0.0000 0.0000 38.1201
#
#
#
# Elastic Compliance Matrix: (Units=1/GPa)
#
#
# Indices 1 2 3 4 5 6 
#
# 1 0.012622 -0.000627 -0.001995 0.000000 0.000000 0.000000
# 2 -0.000627 0.007197 -0.001458 0.000000 0.000000 0.000000
# 3 -0.001995 -0.001458 0.006975 0.000000 0.000000 0.000000
# 4 0.000000 0.000000 0.000000 -0.014461 0.000000 0.000000
# 5 0.000000 0.000000 0.000000 0.000000 0.078647 0.000000
# 6 0.000000 0.000000 0.000000 0.000000 0.000000 0.026233
#
#
# Mechanical properties :
#
#
# Convention : Reuss Voigt Hill
#
# Bulk Modulus (GPa) = 53.66540 59.65946 56.66243
# Shear Modulus (GPa) = 37.99857 17.36843 27.68350
#
# Velocity S-wave (km/s) = 3.90016 2.63681 3.32897
# Velocity P-wave (km/s) = 6.46255 5.75784 6.12035
#
# Compressibility (1/GPa) = 0.01863398
#
# Stress axis : x y z
#
# Youngs Moduli (GPa) = 79.22752 138.95319 143.37133
#
# Poissons Ratio (x) = 0.08716 0.28599
# Poissons Ratio (y) = 0.04970 0.20899
# Poissons Ratio (z) = 0.15804 0.20255
#
# Static dielectric constant tensor:
#      x y z
#    x 1.964300 0.000000 0.000000 
#    y 0.000000 1.960790 0.000000 
#    z 0.000000 0.000000 2.001880 
# 
# From -- ./inp_files/25984.got.cif
#   From: 2010.05.17/outbox.cif.g08.bks.cpg/sg57_13_cif.got.tgz:25984.got - 2010.06.03 13:58:18.
