data_PCOD9440022
_publ_section_title
;
Structure prediction by ZEFSAII (Michael W. Deem and Ramdas Pophale) SiO2 
 PCOD9440022
Probable space group: P B C M
;
_chemical_formula_sum "Si O2"
_cell_formula_units_Z 32
_cell_length_a 21.637357
_cell_length_b 9.309133
_cell_length_c 8.609641
_cell_angle_alpha 90.000000
_cell_angle_beta 90.000000
_cell_angle_gamma 90.000000
_cell_volume 1734.197232
_symmetry_space_group_name_H-M "P B C M"
_symmetry_group_IT_number 57
_symmetry_cell_setting 'orthorhombic'
loop_
_space_group_symop_operation_xyz
x,y,z
-x,-y,1/2+z
x,1/2-y,-z
-x,1/2+y,1/2-z
-x,-y,-z
x,y,1/2-z
-x,1/2+y,z
x,1/2-y,1/2+z
loop_
_atom_site_type_symbol
_atom_site_label
_atom_site_fract_x
_atom_site_fract_y
_atom_site_fract_z
Si Si1 0.814235 0.586808 0.563535
Si Si2 0.321776 0.087985 0.937119
Si Si3 0.057776 0.087509 0.064756
Si Si4 0.558055 0.088977 0.063021
O O1 0.812610 0.750000 0.500000
O O2 0.819968 0.588231 0.750000
O O3 0.746397 0.528301 0.519913
O O4 0.876548 0.522558 0.491929
O O5 0.322984 0.096761 0.750000
O O6 0.378608 0.989593 0.987779
O O7 0.328567 0.250000 0.000000
O O8 0.056729 0.091383 0.250000
O O9 0.054312 0.250000 0.000000
O O10 0.000000 0.000000 0.000000
O O11 0.556177 0.090600 0.250000
O O12 0.555816 0.250000 0.000000
O O13 0.500000 0.000000 0.000000
#
# Coordination Sequence:
#
# PCOD9440022 Si02
#       4
#     8   8   8   8
#     4   9  16  30  51  76 104 137 175 219 265 318
#     4   9  19  34  55  80 107 137 175 219 267 318
#     4  11  21  35  54  79 108 142 181 224 269 319
#     4  11  23  39  57  81 110 144 181 222 267 317
#
# _framework density 18.452342999999999
#
# number of rings (size 3 to 8) (size 9 to 14) (size 15 to 20)
#    0.000    2.000    0.000    6.000    0.000    5.000 
#    0.000    1.250    0.000    3.000    0.000    0.000 
#    0.000    0.000    0.000    0.000    0.000    0.000 
#
# Total GULP energy -178543.824773 kJ/mol
# GULP energy per Si atom -5579.494524 kJ/mol
# Density = 1.841034 g / cm^3
# Si number density = 18.452343 Si / 1000 Ang^3
#
#
#
# Elastic Constant Matrix: (Units=GPa)
#
#
# Indices 1 2 3 4 5 6 
#
# 1 235.7493 84.6015 67.5255 0.0000 0.0000 0.0000
# 2 84.6015 82.1030 29.7845 0.0000 0.0000 0.0000
# 3 67.5255 29.7845 95.0394 0.0000 0.0000 0.0000
# 4 0.0000 0.0000 0.0000 26.9351 0.0000 0.0000
# 5 0.0000 0.0000 0.0000 0.0000 31.6140 0.0000
# 6 0.0000 0.0000 0.0000 0.0000 0.0000 34.1199
#
#
#
# Elastic Compliance Matrix: (Units=1/GPa)
#
#
# Indices 1 2 3 4 5 6 
#
# 1 0.007549 -0.006581 -0.003301 0.000000 0.000000 0.000000
# 2 -0.006581 0.019480 -0.001429 0.000000 0.000000 0.000000
# 3 -0.003301 -0.001429 0.013315 0.000000 0.000000 0.000000
# 4 0.000000 0.000000 0.000000 0.037126 0.000000 0.000000
# 5 0.000000 0.000000 0.000000 0.000000 0.031632 0.000000
# 6 0.000000 0.000000 0.000000 0.000000 0.000000 0.029308
#
#
# Mechanical properties :
#
#
# Convention : Reuss Voigt Hill
#
# Bulk Modulus (GPa) = 56.42825 86.30163 71.36494
# Shear Modulus (GPa) = 29.95092 33.93248 31.94170
#
# Velocity S-wave (km/s) = 4.03320 4.29292 4.16509
# Velocity P-wave (km/s) = 7.23436 8.45244 7.86701
#
# Compressibility (1/GPa) = 0.01772162
#
# Stress axis : x y z
#
# Youngs Moduli (GPa) = 132.46604 51.33550 75.10235
#
# Poissons Ratio (x) = 0.33785 0.24792
# Poissons Ratio (y) = 0.87180 0.10730
# Poissons Ratio (z) = 0.43729 0.07335
#
# Static dielectric constant tensor:
#      x y z
#    x 1.690450 0.000000 0.000000 
#    y 0.000000 1.600880 0.000000 
#    z 0.000000 0.000000 1.622080 
# 
# From -- ./inp_files/7539.got.cif
#   From: 2010.05.17/outbox.cif.g08.bks.cpg/sg57_4_cif.got.tgz:7539.got - 2010.06.03 13:58:18.
