data_PCOD9440132
_publ_section_title
;
Structure prediction by ZEFSAII (Michael W. Deem and Ramdas Pophale) SiO2 
 PCOD9440132
Probable space group: P B C M
;
_chemical_formula_sum "Si O2"
_cell_formula_units_Z 48
_cell_length_a 14.467427
_cell_length_b 9.408368
_cell_length_c 16.321361
_cell_angle_alpha 90.000000
_cell_angle_beta 90.000000
_cell_angle_gamma 90.000000
_cell_volume 2221.580049
_symmetry_space_group_name_H-M "P B C M"
_symmetry_group_IT_number 57
_symmetry_cell_setting 'orthorhombic'
loop_
_space_group_symop_operation_xyz
x,y,z
-x,-y,1/2+z
x,1/2-y,-z
-x,1/2+y,1/2-z
-x,-y,-z
x,y,1/2-z
-x,1/2+y,z
x,1/2-y,1/2+z
loop_
_atom_site_type_symbol
_atom_site_label
_atom_site_fract_x
_atom_site_fract_y
_atom_site_fract_z
Si Si1 0.474731 0.525875 0.594983
Si Si2 0.207210 0.880535 0.553254
Si Si3 0.100653 0.301764 0.905874
Si Si4 0.294720 0.374362 0.561802
Si Si5 0.612143 0.189951 0.155275
Si Si6 0.960582 0.987023 0.345154
O O1 0.500000 0.500000 0.500000
O O2 0.380264 0.438500 0.610191
O O3 0.451099 0.688202 0.614362
O O4 0.557899 0.458542 0.645914
O O5 0.169016 0.750000 0.500000
O O6 0.292124 0.821399 0.606851
O O7 0.128796 0.947439 0.609976
O O8 0.249912 0.000641 0.493698
O O9 0.209170 0.314360 0.885922
O O10 0.049450 0.449631 0.891104
O O11 0.048946 0.181708 0.854470
O O12 0.096031 0.250000 0.000000
O O13 0.326393 0.250000 0.500000
O O14 0.627097 0.224297 0.250000
O O15 0.963948 0.025693 0.250000
#
# Coordination Sequence:
#
# PCOD9440132 Si02
#       6
#     8   8   8   8   8   8
#     4  12  23  44  70  98 130 180 228 273 324 414
#     4  12  23  44  70  98 129 178 230 271 327 407
#     4  11  24  44  68  99 130 178 231 272 329 412
#     4  11  22  42  71  99 122 169 234 272 319 389
#     4  12  26  43  64 101 140 173 218 283 344 392
#     4  12  26  44  67 100 139 177 219 288 348 390
#
# _framework density 21.606245999999999
#
# number of rings (size 3 to 8) (size 9 to 14) (size 15 to 20)
#    0.000    0.333    6.667    4.000    2.333    0.000 
#    0.000    3.333    0.000    0.000    0.000    0.000 
#    0.000    0.000    0.000    0.000    0.000    0.000 
#
# Total GULP energy -268764.410946 kJ/mol
# GULP energy per Si atom -5599.258561 kJ/mol
# Density = 2.155707 g / cm^3
# Si number density = 21.606246 Si / 1000 Ang^3
#
#
#
# Elastic Constant Matrix: (Units=GPa)
#
#
# Indices 1 2 3 4 5 6 
#
# 1 71.1776 -9.6289 -1.5855 0.0000 0.0000 0.0000
# 2 -9.6289 64.7940 -0.3620 0.0000 0.0000 0.0000
# 3 -1.5855 -0.3620 57.9903 0.0000 0.0000 0.0000
# 4 0.0000 0.0000 0.0000 27.4359 0.0000 0.0000
# 5 0.0000 0.0000 0.0000 0.0000 10.0258 0.0000
# 6 0.0000 0.0000 0.0000 0.0000 0.0000 40.5332
#
#
#
# Elastic Compliance Matrix: (Units=1/GPa)
#
#
# Indices 1 2 3 4 5 6 
#
# 1 0.014347 0.002134 0.000406 0.000000 0.000000 0.000000
# 2 0.002134 0.015752 0.000157 0.000000 0.000000 0.000000
# 3 0.000406 0.000157 0.017256 0.000000 0.000000 0.000000
# 4 0.000000 0.000000 0.000000 0.036449 0.000000 0.000000
# 5 0.000000 0.000000 0.000000 0.000000 0.099743 0.000000
# 6 0.000000 0.000000 0.000000 0.000000 0.000000 0.024671
#
#
# Mechanical properties :
#
#
# Convention : Reuss Voigt Hill
#
# Bulk Modulus (GPa) = 18.95794 18.97878 18.96836
# Shear Modulus (GPa) = 22.68532 29.30155 25.99343
#
# Velocity S-wave (km/s) = 3.24380 3.68660 3.47227
# Velocity P-wave (km/s) = 4.77734 5.18887 4.98735
#
# Compressibility (1/GPa) = 0.05274834
#
# Stress axis : x y z
#
# Youngs Moduli (GPa) = 69.70032 63.48567 57.94977
#
# Poissons Ratio (x) = -0.13550 -0.02350
# Poissons Ratio (y) = -0.14877 -0.00908
# Poissons Ratio (z) = -0.02827 -0.00995
#
# Static dielectric constant tensor:
#      x y z
#    x 1.776230 0.000000 0.000000 
#    y 0.000000 1.817100 0.000000 
#    z 0.000000 0.000000 1.763920 
# 
# From -- ./inp_files/22412.got.cif
#   From: 2010.05.17/outbox.cif.g08.bks.cpg/sg57_12_cif.got.tgz:22412.got - 2010.06.03 13:58:18.
