data_PCOD9440652
_publ_section_title
;
Structure prediction by ZEFSAII (Michael W. Deem and Ramdas Pophale) SiO2 
 PCOD9440652
Probable space group: P B C M
;
_chemical_formula_sum "Si O2"
_cell_formula_units_Z 64
_cell_length_a 12.000000
_cell_length_b 30.000000
_cell_length_c 9.000000
_cell_angle_alpha 90.000000
_cell_angle_beta 90.000000
_cell_angle_gamma 90.000000
_cell_volume 3240.000000
_symmetry_space_group_name_H-M "P B C M"
_symmetry_group_IT_number 57
_symmetry_cell_setting 'orthorhombic'
loop_
_space_group_symop_operation_xyz
x,y,z
-x,-y,1/2+z
x,1/2-y,-z
-x,1/2+y,1/2-z
-x,-y,-z
x,y,1/2-z
-x,1/2+y,z
x,1/2-y,1/2+z
loop_
_atom_site_type_symbol
_atom_site_label
_atom_site_fract_x
_atom_site_fract_y
_atom_site_fract_z
Si Si1 0.091820 0.293340 0.424875
Si Si2 0.989631 0.612712 0.930647
Si Si3 0.172798 0.034115 0.574959
Si Si4 0.386998 0.895074 0.575367
Si Si5 0.806334 0.442642 0.425795
Si Si6 0.687888 0.813987 0.921227
Si Si7 0.354756 0.082261 0.417533
Si Si8 0.571766 0.295728 0.927500
O O1 0.042229 0.250000 0.500000
O O2 0.076734 0.291109 0.250000
O O3 0.222365 0.295841 0.465006
O O4 0.041254 0.338904 0.486902
O O5 0.980403 0.614140 0.750000
O O6 0.112299 0.597443 0.970240
O O7 0.906271 0.573902 0.980014
O O8 0.158582 0.028934 0.750000
O O9 0.296737 0.050231 0.534063
O O10 0.149829 0.988021 0.495409
O O11 0.357123 0.895991 0.750000
O O12 0.312878 0.929183 0.485758
O O13 0.514396 0.910618 0.563838
O O14 0.378726 0.843472 0.522714
O O15 0.807194 0.446988 0.250000
O O16 0.713594 0.801047 0.750000
O O17 0.692419 0.867613 0.929315
O O18 0.561516 0.799948 0.954961
O O19 0.332254 0.065615 0.250000
O O20 0.585599 0.293389 0.750000
O O21 0.613059 0.250000 0.000000
#
# Coordination Sequence:
#
# PCOD9440652 Si02
#       8
#     8   8   8   8   8   8   8   8
#     4  11  21  35  54  81 114 148 183 224 274 331
#     4   9  21  40  59  81 114 147 183 233 280 325
#     4  11  21  37  61  88 114 144 182 229 286 340
#     4   9  20  39  57  79 114 151 187 232 279 329
#     4  11  23  40  60  82 108 146 192 237 282 332
#     4   9  17  31  51  80 114 147 179 220 272 326
#     4   9  18  34  57  84 117 149 181 224 274 328
#     4   9  18  32  52  78 110 145 184 228 275 327
#
# _framework density 19.753086
#
# number of rings (size 3 to 8) (size 9 to 14) (size 15 to 20)
#    0.000    2.250    1.250    3.375    0.000    3.000 
#    0.000    7.500    0.000    3.000    0.000    0.000 
#    0.000    0.000    0.000    0.000    0.000    0.000 
#
# Total GULP energy -356953.399377 kJ/mol
# GULP energy per Si atom -5577.396865 kJ/mol
# Density = 1.970813 g / cm^3
# Si number density = 19.753086 Si / 1000 Ang^3
#
#
#
# Elastic Constant Matrix: (Units=GPa)
#
#
# Indices 1 2 3 4 5 6 
#
# 1 14.9019 21.8053 18.3585 0.0000 0.0000 0.0000
# 2 21.8053 64.5150 19.3300 0.0000 0.0000 0.0000
# 3 18.3585 19.3300 27.6317 0.0000 0.0000 0.0000
# 4 0.0000 0.0000 0.0000 33.0039 0.0000 0.0000
# 5 0.0000 0.0000 0.0000 0.0000 -8.9524 0.0000
# 6 0.0000 0.0000 0.0000 0.0000 0.0000 19.1282
#
#
#
# Elastic Compliance Matrix: (Units=1/GPa)
#
#
# Indices 1 2 3 4 5 6 
#
# 1 0.885519 -0.155639 -0.479461 0.000000 0.000000 0.000000
# 2 -0.155639 0.046966 0.070551 0.000000 0.000000 0.000000
# 3 -0.479461 0.070551 0.305390 0.000000 0.000000 0.000000
# 4 0.000000 0.000000 0.000000 0.030299 0.000000 0.000000
# 5 0.000000 0.000000 0.000000 0.000000 -0.111702 0.000000
# 6 0.000000 0.000000 0.000000 0.000000 0.000000 0.052279
#
#
# Mechanical properties :
#
#
# Convention : Reuss Voigt Hill
#
# Bulk Modulus (GPa) = 9.19307 25.11512 17.15410
# Shear Modulus (GPa) = 2.10606 11.80627 6.95616
#
# Velocity S-wave (km/s) = 1.03369 2.44743 1.87862
# Velocity P-wave (km/s) = 2.46754 4.55287 3.66179
#
# Compressibility (1/GPa) = 0.10877761
#
# Stress axis : x y z
#
# Youngs Moduli (GPa) = 1.12928 21.29212 3.27450
#
# Poissons Ratio (x) = 3.31388 1.57000
# Poissons Ratio (y) = 0.17576 -0.23102
# Poissons Ratio (z) = 0.54145 -1.50218
#
# Static dielectric constant tensor:
#      x y z
#    x 1.697440 0.000000 0.000000 
#    y 0.000000 1.719500 0.000000 
#    z 0.000000 0.000000 1.675000 
# 
# From -- ./inp_files/3724.got.cif
#   From: 2010.05.17/outbox.ucp.g08.bks.cvg/sg57_2_cif.got.tgz:3724.got - 2010.06.11 16:39:23.
