data_PCOD9440803
_publ_section_title
;
Structure prediction by ZEFSAII (Michael W. Deem and Ramdas Pophale) SiO2 
 PCOD9440803
Probable space group: P N N M
;
_chemical_formula_sum "Si O2"
_cell_formula_units_Z 64
_cell_length_a 19.760005
_cell_length_b 23.728637
_cell_length_c 8.804092
_cell_angle_alpha 90.000000
_cell_angle_beta 90.000000
_cell_angle_gamma 90.000000
_cell_volume 4128.044923
_symmetry_space_group_name_H-M "P N N M"
_symmetry_group_IT_number 58
_symmetry_cell_setting 'orthorhombic'
loop_
_space_group_symop_operation_xyz
x,y,z
-x,-y,z
1/2+x,1/2-y,1/2-z
1/2-x,1/2+y,1/2-z
-x,-y,-z
x,y,-z
1/2-x,1/2+y,1/2+z
1/2+x,1/2-y,1/2+z
loop_
_atom_site_type_symbol
_atom_site_label
_atom_site_fract_x
_atom_site_fract_y
_atom_site_fract_z
Si Si1 0.727391 0.841079 0.683438
Si Si2 0.139457 0.562680 0.319245
Si Si3 0.641568 0.274721 0.182297
Si Si4 0.000628 0.249098 0.183012
Si Si5 0.851951 0.227122 0.184410
Si Si6 0.362048 0.938801 0.318211
Si Si7 0.722437 0.160913 0.183509
Si Si8 0.505216 0.881223 0.317053
O O1 0.724433 0.846570 0.500000
O O2 0.699045 0.896870 0.759370
O O3 0.803039 0.821629 0.726472
O O4 0.678808 0.788274 0.725446
O O5 0.139163 0.561222 0.500000
O O6 0.145950 0.500064 0.253504
O O7 0.069406 0.589642 0.259190
O O8 0.567738 0.279264 0.252481
O O9 0.674074 0.213964 0.223911
O O10 0.636845 0.275690 0.000000
O O11 0.929262 0.222938 0.235606
O O12 0.000123 0.315425 0.225726
O O13 0.002915 0.246765 0.000000
O O14 0.797831 0.179990 0.231775
O O15 0.852258 0.226275 0.000000
O O16 0.358955 0.942731 0.500000
O O17 0.306410 0.894928 0.258495
O O18 0.435792 0.913096 0.277766
O O19 0.721345 0.155500 0.000000
O O20 0.514215 0.883757 0.500000
#
# Coordination Sequence:
#
# PCOD9440803 Si02
#       8
#     8   8   8   8   8   8   8   8
#     4   9  17  34  52  67  94 132 165 195 239 296
#     4  12  24  34  48  71  96 127 168 213 245 275
#     4   9  18  30  49  73  99 128 158 198 247 287
#     4  10  17  29  50  73  99 132 166 196 232 288
#     4   8  15  29  50  70  93 128 162 193 240 290
#     4  11  22  35  50  68  94 133 170 200 239 289
#     4   9  17  31  49  70  95 124 161 204 241 280
#     4  10  20  34  49  67  97 136 171 197 230 287
#
# _framework density 15.503708
#
# number of rings (size 3 to 8) (size 9 to 14) (size 15 to 20)
#    0.000    2.250    2.500    3.375    0.000    3.500 
#    0.000    2.500    0.000    0.000    0.000    0.875 
#    0.000    7.000    0.000    0.000    0.000    0.000 
#
# Total GULP energy -356980.431513 kJ/mol
# GULP energy per Si atom -5577.819242 kJ/mol
# Density = 1.546842 g / cm^3
# Si number density = 15.503708 Si / 1000 Ang^3
#
#
#
# Elastic Constant Matrix: (Units=GPa)
#
#
# Indices 1 2 3 4 5 6 
#
# 1 155.4126 69.4452 38.0202 0.0000 0.0000 0.0000
# 2 69.4452 89.4245 32.9836 0.0000 0.0000 0.0000
# 3 38.0202 32.9836 25.9625 0.0000 0.0000 0.0000
# 4 0.0000 0.0000 0.0000 -18.8823 0.0000 0.0000
# 5 0.0000 0.0000 0.0000 0.0000 24.6188 0.0000
# 6 0.0000 0.0000 0.0000 0.0000 0.0000 19.9403
#
#
#
# Elastic Compliance Matrix: (Units=1/GPa)
#
#
# Indices 1 2 3 4 5 6 
#
# 1 0.011071 -0.004926 -0.009955 0.000000 0.000000 0.000000
# 2 -0.004926 0.023235 -0.022305 0.000000 0.000000 0.000000
# 3 -0.009955 -0.022305 0.081432 0.000000 0.000000 0.000000
# 4 0.000000 0.000000 0.000000 -0.052960 0.000000 0.000000
# 5 0.000000 0.000000 0.000000 0.000000 0.040619 0.000000
# 6 0.000000 0.000000 0.000000 0.000000 0.000000 0.050150
#
#
# Mechanical properties :
#
#
# Convention : Reuss Voigt Hill
#
# Bulk Modulus (GPa) = 24.17395 61.29974 42.73685
# Shear Modulus (GPa) = 20.68627 13.82540 17.25583
#
# Velocity S-wave (km/s) = 3.65674 2.98945 3.33980
# Velocity P-wave (km/s) = 5.78405 7.17916 6.51903
#
# Compressibility (1/GPa) = 0.04136685
#
# Stress axis : x y z
#
# Youngs Moduli (GPa) = 90.32769 43.03891 12.28022
#
# Poissons Ratio (x) = 0.21199 0.12225
# Poissons Ratio (y) = 0.44492 0.27391
# Poissons Ratio (z) = 0.89918 0.95998
#
# Static dielectric constant tensor:
#      x y z
#    x 1.524700 0.000000 0.000000 
#    y 0.000000 1.490210 0.000000 
#    z 0.000000 0.000000 1.520620 
# 
# From -- ./inp_files/8483.got.cif
#   From: 2010.05.17/outbox.cif.g08.bks.cpg/sg58_5_cif.got.tgz:8483.got - 2010.06.03 14:20:14.
