data_PCOD9440768
_publ_section_title
;
Structure prediction by ZEFSAII (Michael W. Deem and Ramdas Pophale) SiO2 
 PCOD9440768
Probable space group: P N N M
;
_chemical_formula_sum "Si O2"
_cell_formula_units_Z 40
_cell_length_a 13.232999
_cell_length_b 16.109206
_cell_length_c 8.089247
_cell_angle_alpha 90.000000
_cell_angle_beta 90.000000
_cell_angle_gamma 90.000000
_cell_volume 1724.409915
_symmetry_space_group_name_H-M "P N N M"
_symmetry_group_IT_number 58
_symmetry_cell_setting 'orthorhombic'
loop_
_space_group_symop_operation_xyz
x,y,z
-x,-y,z
1/2+x,1/2-y,1/2-z
1/2-x,1/2+y,1/2-z
-x,-y,-z
x,y,-z
1/2-x,1/2+y,1/2+z
1/2+x,1/2-y,1/2+z
loop_
_atom_site_type_symbol
_atom_site_label
_atom_site_fract_x
_atom_site_fract_y
_atom_site_fract_z
Si Si1 0.302823 0.865150 0.797756
Si Si2 0.498934 0.383917 0.189557
Si Si3 0.164818 0.009731 0.810883
Si Si4 0.979981 0.406270 0.300808
Si Si5 0.630655 0.759335 0.303525
O O1 0.417949 0.859355 0.745899
O O2 0.230744 0.789617 0.744967
O O3 0.256835 0.954441 0.742988
O O4 0.300582 0.867286 0.000000
O O5 0.424879 0.440218 0.301250
O O6 0.613868 0.411261 0.223709
O O7 0.462673 0.291351 0.223534
O O8 0.475997 0.404408 0.000000
O O9 0.186269 0.031691 0.000000
O O10 0.974701 0.407262 0.500000
O O11 0.000000 0.500000 0.245833
O O12 0.883403 0.355358 0.240077
O O13 0.625518 0.750254 0.500000
#
# Coordination Sequence:
#
# PCOD9440768 Si02
#       5
#     8   8   8   8   8
#     4   8  17  35  58  82 114 154 190 233 292 350
#     4  10  17  27  47  78 113 145 187 237 287 334
#     4   9  15  27  48  75 112 151 186 226 286 348
#     4  10  21  40  63  86 117 154 193 243 298 349
#     4  10  20  37  59  82 113 153 195 239 291 352
#
# _framework density 23.196341
#
# number of rings (size 3 to 8) (size 9 to 14) (size 15 to 20)
#    0.000    2.600    0.000    5.400    0.000    0.400 
#    3.600    6.000    0.000    0.000    0.000    0.000 
#    0.000    0.000    0.000    0.000    0.000    0.000 
#
# Total GULP energy -223157.894386 kJ/mol
# GULP energy per Si atom -5578.947360 kJ/mol
# Density = 2.314355 g / cm^3
# Si number density = 23.196341 Si / 1000 Ang^3
#
#
#
# Elastic Constant Matrix: (Units=GPa)
#
#
# Indices 1 2 3 4 5 6 
#
# 1 73.3380 31.3143 0.8310 0.0000 0.0000 0.0000
# 2 31.3143 104.2023 6.3057 0.0000 0.0000 0.0000
# 3 0.8310 6.3057 42.1728 0.0000 0.0000 0.0000
# 4 0.0000 0.0000 0.0000 17.9321 0.0000 0.0000
# 5 0.0000 0.0000 0.0000 0.0000 5.6174 0.0000
# 6 0.0000 0.0000 0.0000 0.0000 0.0000 28.9069
#
#
#
# Elastic Compliance Matrix: (Units=1/GPa)
#
#
# Indices 1 2 3 4 5 6 
#
# 1 0.015649 -0.004727 0.000398 0.000000 0.000000 0.000000
# 2 -0.004727 0.011112 -0.001568 0.000000 0.000000 0.000000
# 3 0.000398 -0.001568 0.023939 0.000000 0.000000 0.000000
# 4 0.000000 0.000000 0.000000 0.055766 0.000000 0.000000
# 5 0.000000 0.000000 0.000000 0.000000 0.178018 0.000000
# 6 0.000000 0.000000 0.000000 0.000000 0.000000 0.034594
#
#
# Mechanical properties :
#
#
# Convention : Reuss Voigt Hill
#
# Bulk Modulus (GPa) = 25.70277 32.95722 29.33000
# Shear Modulus (GPa) = 14.54163 22.57541 18.55852
#
# Velocity S-wave (km/s) = 2.50650 3.12305 2.83161
# Velocity P-wave (km/s) = 4.41376 5.21952 4.83346
#
# Compressibility (1/GPa) = 0.03890631
#
# Stress axis : x y z
#
# Youngs Moduli (GPa) = 63.90047 89.99158 41.77351
#
# Poissons Ratio (x) = 0.42539 -0.01664
# Poissons Ratio (y) = 0.30206 0.06552
# Poissons Ratio (z) = -0.02546 0.14114
#
# Static dielectric constant tensor:
#      x y z
#    x 1.915630 0.000000 0.000000 
#    y 0.000000 1.927690 0.000000 
#    z 0.000000 0.000000 1.815700 
# 
# From -- ./inp_files/5563.got.cif
#   From: 2010.05.17/outbox.cif.g08.bks.cpg/sg58_3_cif.got.tgz:5563.got - 2010.06.03 14:20:14.
