data_PCOD9440106
_publ_section_title
;
Structure prediction by ZEFSAII (Michael W. Deem and Ramdas Pophale) SiO2 
 PCOD9440106
Probable space group: P B C M
;
_chemical_formula_sum "Si O2"
_cell_formula_units_Z 56
_cell_length_a 13.988778
_cell_length_b 8.062919
_cell_length_c 21.193294
_cell_angle_alpha 90.000000
_cell_angle_beta 90.000000
_cell_angle_gamma 90.000000
_cell_volume 2390.399767
_symmetry_space_group_name_H-M "P B C M"
_symmetry_group_IT_number 57
_symmetry_cell_setting 'orthorhombic'
loop_
_space_group_symop_operation_xyz
x,y,z
-x,-y,1/2+z
x,1/2-y,-z
-x,1/2+y,1/2-z
-x,-y,-z
x,y,1/2-z
-x,1/2+y,z
x,1/2-y,1/2+z
loop_
_atom_site_type_symbol
_atom_site_label
_atom_site_fract_x
_atom_site_fract_y
_atom_site_fract_z
Si Si1 0.090314 0.585398 0.250000
Si Si2 0.796536 0.593575 0.115906
Si Si3 0.862969 0.083064 0.115640
Si Si4 0.550215 0.086145 0.677579
Si Si5 0.022493 0.277984 0.069694
Si Si6 0.353628 0.278443 0.322023
Si Si7 0.870849 0.025070 0.750000
Si Si8 0.684766 0.217972 0.928775
O O1 0.134719 0.513404 0.313598
O O2 0.116794 0.778363 0.250000
O O3 0.976354 0.556671 0.250000
O O4 0.895937 0.644967 0.085923
O O5 0.729457 0.754158 0.127132
O O6 0.814835 0.527533 0.186977
O O7 0.743586 0.455328 0.075000
O O8 0.761557 0.142380 0.091136
O O9 0.933637 0.244873 0.115551
O O10 0.921842 0.950112 0.075476
O O11 0.563819 0.148644 0.750000
O O12 0.437160 0.091196 0.664421
O O13 0.604947 0.192786 0.624921
O O14 0.592526 0.900972 0.676158
O O15 0.984670 0.250000 0.000000
O O16 0.320209 0.305368 0.250000
O O17 0.650305 0.250000 0.000000
#
# Coordination Sequence:
#
# PCOD9440106 Si02
#       8
#     4   8   8   8   8   8   4   8
#     4  12  24  38  62  93 121 156 202 263 311 359
#     4  11  22  39  64  88 120 166 202 257 308 375
#     4  12  24  39  62  86 123 160 205 258 310 365
#     4   9  20  37  63  89 119 155 199 254 307 371
#     4  12  25  42  59  86 123 169 209 248 302 374
#     4   9  18  36  61  87 118 153 198 246 315 366
#     4  12  22  40  62  87 129 158 208 253 319 357
#     4  11  23  41  62  89 121 166 211 254 311 374
#
# _framework density 23.427043999999999
#
# number of rings (size 3 to 8) (size 9 to 14) (size 15 to 20)
#    0.000    1.143    3.571    3.429    2.000    1.143 
#    0.000    3.571    0.000    0.000    0.000    0.000 
#    0.000    0.000    0.000    0.000    0.000    0.000 
#
# Total GULP energy -313510.797774 kJ/mol
# GULP energy per Si atom -5598.407103 kJ/mol
# Density = 2.337372 g / cm^3
# Si number density = 23.427044 Si / 1000 Ang^3
#
#
#
# Elastic Constant Matrix: (Units=GPa)
#
#
# Indices 1 2 3 4 5 6 
#
# 1 53.7437 5.5877 17.0410 0.0000 0.0000 0.0000
# 2 5.5877 50.2335 -3.1680 0.0000 0.0000 0.0000
# 3 17.0410 -3.1680 104.1276 0.0000 0.0000 0.0000
# 4 0.0000 0.0000 0.0000 24.7242 0.0000 0.0000
# 5 0.0000 0.0000 0.0000 0.0000 22.1521 0.0000
# 6 0.0000 0.0000 0.0000 0.0000 0.0000 40.7775
#
#
#
# Elastic Compliance Matrix: (Units=1/GPa)
#
#
# Indices 1 2 3 4 5 6 
#
# 1 0.019916 -0.002426 -0.003333 0.000000 0.000000 0.000000
# 2 -0.002426 0.020241 0.001013 0.000000 0.000000 0.000000
# 3 -0.003333 0.001013 0.010180 0.000000 0.000000 0.000000
# 4 0.000000 0.000000 0.000000 0.040446 0.000000 0.000000
# 5 0.000000 0.000000 0.000000 0.000000 0.045142 0.000000
# 6 0.000000 0.000000 0.000000 0.000000 0.000000 0.024523
#
#
# Mechanical properties :
#
#
# Convention : Reuss Voigt Hill
#
# Bulk Modulus (GPa) = 24.48300 27.44734 25.96517
# Shear Modulus (GPa) = 27.23975 30.10702 28.67339
#
# Velocity S-wave (km/s) = 3.41361 3.58877 3.50229
# Velocity P-wave (km/s) = 5.10004 5.37717 5.24043
#
# Compressibility (1/GPa) = 0.04084467
#
# Stress axis : x y z
#
# Youngs Moduli (GPa) = 50.21114 49.40537 98.23281
#
# Poissons Ratio (x) = 0.11984 0.32742
# Poissons Ratio (y) = 0.12179 -0.09949
# Poissons Ratio (z) = 0.16736 -0.05004
#
# Static dielectric constant tensor:
#      x y z
#    x 1.863190 0.000000 0.000000 
#    y 0.000000 1.972800 0.000000 
#    z 0.000000 0.000000 1.861700 
# 
# From -- ./inp_files/25432.got.cif
#   From: 2010.05.17/outbox.cif.g08.bks.cpg/sg57_13_cif.got.tgz:25432.got - 2010.06.03 13:58:18.
