data_PCOD9440136
_publ_section_title
;
Structure prediction by ZEFSAII (Michael W. Deem and Ramdas Pophale) SiO2 
 PCOD9440136
Probable space group: P B C M
;
_chemical_formula_sum "Si O2"
_cell_formula_units_Z 56
_cell_length_a 14.198543
_cell_length_b 11.589457
_cell_length_c 16.714848
_cell_angle_alpha 90.000000
_cell_angle_beta 90.000000
_cell_angle_gamma 90.000000
_cell_volume 2750.485128
_symmetry_space_group_name_H-M "P B C M"
_symmetry_group_IT_number 57
_symmetry_cell_setting 'orthorhombic'
loop_
_space_group_symop_operation_xyz
x,y,z
-x,-y,1/2+z
x,1/2-y,-z
-x,1/2+y,1/2-z
-x,-y,-z
x,y,1/2-z
-x,1/2+y,z
x,1/2-y,1/2+z
loop_
_atom_site_type_symbol
_atom_site_label
_atom_site_fract_x
_atom_site_fract_y
_atom_site_fract_z
Si Si1 0.198101 0.631240 0.342496
Si Si2 0.284776 0.395845 0.388122
Si Si3 0.016066 0.624528 0.454162
Si Si4 0.157899 0.190126 0.156884
Si Si5 0.346543 0.700184 0.910761
Si Si6 0.545123 0.733514 0.158752
Si Si7 0.673001 0.930071 0.926902
O O1 0.168904 0.637124 0.250000
O O2 0.268019 0.523162 0.355548
O O3 0.256439 0.743516 0.368300
O O4 0.110294 0.613096 0.401367
O O5 0.194149 0.318486 0.365272
O O6 0.378040 0.335371 0.353078
O O7 0.295904 0.397048 0.483760
O O8 0.024751 0.750000 0.500000
O O9 0.926880 0.645782 0.396954
O O10 0.000000 0.500000 0.500000
O O11 0.134867 0.184946 0.250000
O O12 0.248823 0.114205 0.134970
O O13 0.440660 0.727700 0.861854
O O14 0.336308 0.564787 0.919693
O O15 0.354326 0.750000 0.000000
O O16 0.551212 0.692333 0.250000
O O17 0.577670 0.635041 0.097115
#
# Coordination Sequence:
#
# PCOD9440136 Si02
#       7
#     8   8   8   8   8   8   8
#     4  12  26  44  68 104 140 177 222 288 352 406
#     4  11  22  44  72  97 134 178 232 281 340 415
#     4  12  27  47  74 102 138 184 233 280 347 424
#     4  11  23  43  71 103 134 175 226 286 343 407
#     4  12  26  44  66  96 139 181 228 277 342 409
#     4  11  25  42  66 100 135 180 231 284 338 398
#     4  11  23  43  69  98 133 179 230 280 340 412
#
# _framework density 20.360045
#
# number of rings (size 3 to 8) (size 9 to 14) (size 15 to 20)
#    0.000    0.571    1.429    9.000    4.000    3.429 
#    0.000    1.429    0.000    0.000    0.000    0.000 
#    0.000    0.000    0.000    0.000    0.000    0.000 
#
# Total GULP energy -313261.969235 kJ/mol
# GULP energy per Si atom -5593.963736 kJ/mol
# Density = 2.031370 g / cm^3
# Si number density = 20.360045 Si / 1000 Ang^3
#
#
#
# Elastic Constant Matrix: (Units=GPa)
#
#
# Indices 1 2 3 4 5 6 
#
# 1 72.8402 -3.2166 27.1794 0.0000 0.0000 0.0000
# 2 -3.2166 52.3783 21.5460 0.0000 0.0000 0.0000
# 3 27.1794 21.5460 137.8766 0.0000 0.0000 0.0000
# 4 0.0000 0.0000 0.0000 9.7255 0.0000 0.0000
# 5 0.0000 0.0000 0.0000 0.0000 -12.1258 0.0000
# 6 0.0000 0.0000 0.0000 0.0000 0.0000 17.5513
#
#
#
# Elastic Compliance Matrix: (Units=1/GPa)
#
#
# Indices 1 2 3 4 5 6 
#
# 1 0.015073 0.002295 -0.003330 0.000000 0.000000 0.000000
# 2 0.002295 0.020753 -0.003696 0.000000 0.000000 0.000000
# 3 -0.003330 -0.003696 0.008487 0.000000 0.000000 0.000000
# 4 0.000000 0.000000 0.000000 0.102822 0.000000 0.000000
# 5 0.000000 0.000000 0.000000 0.000000 -0.082469 0.000000
# 6 0.000000 0.000000 0.000000 0.000000 0.000000 0.056976
#
#
# Mechanical properties :
#
#
# Convention : Reuss Voigt Hill
#
# Bulk Modulus (GPa) = 28.69263 39.34588 34.01925
# Shear Modulus (GPa) = 35.03389 17.53597 26.28493
#
# Velocity S-wave (km/s) = 4.15265 2.93796 3.59695
# Velocity P-wave (km/s) = 6.09228 5.55660 5.83060
#
# Compressibility (1/GPa) = 0.03485215
#
# Stress axis : x y z
#
# Youngs Moduli (GPa) = 66.34570 48.18579 117.83010
#
# Poissons Ratio (x) = -0.11061 0.39237
# Poissons Ratio (y) = -0.15229 0.43545
# Poissons Ratio (z) = 0.22093 0.17807
#
# Static dielectric constant tensor:
#      x y z
#    x 1.706350 0.000000 0.000000 
#    y 0.000000 1.770630 0.000000 
#    z 0.000000 0.000000 1.713440 
# 
# From -- ./inp_files/18492.got.cif
#   From: 2010.05.17/outbox.cif.g08.bks.cpg/sg57_10_cif.got.tgz:18492.got - 2010.06.03 13:58:18.
