data_PCOD9440065
_publ_section_title
;
Structure prediction by ZEFSAII (Michael W. Deem and Ramdas Pophale) SiO2 
 PCOD9440065
Probable space group: P B C M
;
_chemical_formula_sum "Si O2"
_cell_formula_units_Z 32
_cell_length_a 10.133292
_cell_length_b 14.279845
_cell_length_c 10.503621
_cell_angle_alpha 90.000000
_cell_angle_beta 90.000000
_cell_angle_gamma 90.000000
_cell_volume 1519.893276
_symmetry_space_group_name_H-M "P B C M"
_symmetry_group_IT_number 57
_symmetry_cell_setting 'orthorhombic'
loop_
_space_group_symop_operation_xyz
x,y,z
-x,-y,1/2+z
x,1/2-y,-z
-x,1/2+y,1/2-z
-x,-y,-z
x,y,1/2-z
-x,1/2+y,z
x,1/2-y,1/2+z
loop_
_atom_site_type_symbol
_atom_site_label
_atom_site_fract_x
_atom_site_fract_y
_atom_site_fract_z
Si Si1 0.430270 0.750000 0.000000
Si Si2 0.879764 0.480075 0.750000
Si Si3 0.788093 0.093235 0.985446
Si Si4 0.148055 0.304052 0.250000
Si Si5 0.183594 0.453076 0.750000
Si Si6 0.601318 0.785205 0.750000
Si Si7 0.990165 0.750000 0.000000
O O1 0.335730 0.662108 0.967529
O O2 0.515189 0.780477 0.877672
O O3 0.798075 0.452398 0.624814
O O4 0.904678 0.590793 0.750000
O O5 0.025290 0.432809 0.750000
O O6 0.915583 0.160847 0.983153
O O7 0.794099 0.016084 0.875897
O O8 0.305228 0.305946 0.250000
O O9 0.099162 0.251361 0.375618
O O10 0.293842 0.371253 0.750000
#
# Coordination Sequence:
#
# PCOD9440065 Si02
#       7
#     4   4   8   4   4   4   4
#     4  11  27  52  68  96 139 197 242 266 342 423
#     4  12  25  42  71 114 138 171 230 295 361 411
#     4  11  24  45  74  99 139 185 229 283 346 419
#     4  12  26  40  69 103 146 178 225 289 358 407
#     4  12  25  44  71 112 140 170 233 301 352 407
#     4  12  28  44  69  97 140 187 236 291 337 405
#     4  11  21  44  70 102 139 183 218 282 360 425
#
# _framework density 21.054109
#
# number of rings (size 3 to 8) (size 9 to 14) (size 15 to 20)
#    0.000    0.500    2.500    5.250    7.000    5.000 
#    4.500    0.000    0.000    0.000    0.000    0.000 
#    0.000    0.000    0.000    0.000    0.000    0.000 
#
# Total GULP energy -178991.899538 kJ/mol
# GULP energy per Si atom -5593.496861 kJ/mol
# Density = 2.100619 g / cm^3
# Si number density = 21.054109 Si / 1000 Ang^3
#
#
#
# Elastic Constant Matrix: (Units=GPa)
#
#
# Indices 1 2 3 4 5 6 
#
# 1 85.4489 25.4630 36.8466 0.0000 0.0000 0.0000
# 2 25.4630 85.4723 45.9068 0.0000 0.0000 0.0000
# 3 36.8466 45.9068 169.7891 0.0000 0.0000 0.0000
# 4 0.0000 0.0000 0.0000 40.3051 0.0000 0.0000
# 5 0.0000 0.0000 0.0000 0.0000 14.1842 0.0000
# 6 0.0000 0.0000 0.0000 0.0000 0.0000 30.3659
#
#
#
# Elastic Compliance Matrix: (Units=1/GPa)
#
#
# Indices 1 2 3 4 5 6 
#
# 1 0.013484 -0.002861 -0.002153 0.000000 0.000000 0.000000
# 2 -0.002861 0.014294 -0.003244 0.000000 0.000000 0.000000
# 3 -0.002153 -0.003244 0.007234 0.000000 0.000000 0.000000
# 4 0.000000 0.000000 0.000000 0.024811 0.000000 0.000000
# 5 0.000000 0.000000 0.000000 0.000000 0.070501 0.000000
# 6 0.000000 0.000000 0.000000 0.000000 0.000000 0.032932
#
#
# Mechanical properties :
#
#
# Convention : Reuss Voigt Hill
#
# Bulk Modulus (GPa) = 54.06272 61.90481 57.98377
# Shear Modulus (GPa) = 26.89099 32.47061 29.68080
#
# Velocity S-wave (km/s) = 3.57772 3.93140 3.75872
# Velocity P-wave (km/s) = 6.54221 7.07633 6.81450
#
# Compressibility (1/GPa) = 0.01849703
#
# Stress axis : x y z
#
# Youngs Moduli (GPa) = 74.16405 69.95809 138.23766
#
# Poissons Ratio (x) = 0.20013 0.29758
# Poissons Ratio (y) = 0.21216 0.44844
# Poissons Ratio (z) = 0.15965 0.22694
#
# Static dielectric constant tensor:
#      x y z
#    x 1.729310 0.000000 0.000000 
#    y 0.000000 1.785620 0.000000 
#    z 0.000000 0.000000 1.746450 
# 
# From -- ./inp_files/2481.got.cif
#   From: 2010.05.17/outbox.cif.g08.bks.cpg/sg57_2_cif.got.tgz:2481.got - 2010.06.03 13:58:18.
