data_PCOD9440654
_publ_section_title
;
Structure prediction by ZEFSAII (Michael W. Deem and Ramdas Pophale) SiO2 
 PCOD9440654
Probable space group: P B C M
;
_chemical_formula_sum "Si O2"
_cell_formula_units_Z 48
_cell_length_a 15.000000
_cell_length_b 18.000000
_cell_length_c 9.000000
_cell_angle_alpha 90.000000
_cell_angle_beta 90.000000
_cell_angle_gamma 90.000000
_cell_volume 2430.000000
_symmetry_space_group_name_H-M "P B C M"
_symmetry_group_IT_number 57
_symmetry_cell_setting 'orthorhombic'
loop_
_space_group_symop_operation_xyz
x,y,z
-x,-y,1/2+z
x,1/2-y,-z
-x,1/2+y,1/2-z
-x,-y,-z
x,y,1/2-z
-x,1/2+y,z
x,1/2-y,1/2+z
loop_
_atom_site_type_symbol
_atom_site_label
_atom_site_fract_x
_atom_site_fract_y
_atom_site_fract_z
Si Si1 0.515163 0.870966 0.250000
Si Si2 0.452656 0.301270 0.750000
Si Si3 0.089048 0.033790 0.571655
Si Si4 0.698179 0.168875 0.750000
Si Si5 0.731763 0.057278 0.993507
Si Si6 0.364897 0.406494 0.511477
Si Si7 0.341472 0.841042 0.750000
Si Si8 0.816036 0.668600 0.067170
O O1 0.557900 0.787361 0.250000
O O2 0.408372 0.856052 0.250000
O O3 0.559757 0.914196 0.386718
O O4 0.409836 0.345546 0.615859
O O5 0.556635 0.317481 0.750000
O O6 0.080783 0.044590 0.750000
O O7 0.109013 0.110274 0.483496
O O8 0.175340 0.980284 0.543291
O O9 0.000000 0.000000 0.500000
O O10 0.745135 0.125124 0.882200
O O11 0.704840 0.258628 0.750000
O O12 0.669225 0.988303 0.938283
O O13 0.680362 0.103397 0.117682
O O14 0.271144 0.364821 0.482342
O O15 0.804375 0.668570 0.250000
O O16 0.831885 0.750000 0.000000
#
# Coordination Sequence:
#
# PCOD9440654 Si02
#       8
#     4   4   8   4   8   8   4   8
#     4  11  23  37  55  89 128 182 225 274 321 382
#     4  11  21  37  57  87 130 174 223 268 323 378
#     4  11  25  46  75 101 131 169 209 267 339 410
#     4  11  25  41  64  87 127 178 228 274 329 379
#     4  11  24  42  65  94 125 164 221 269 337 399
#     4  11  23  35  59  91 129 171 221 272 330 384
#     4  11  23  43  62  87 127 174 222 278 319 385
#     4  11  23  40  67 101 139 175 216 268 331 398
#
# _framework density 19.753086
#
# number of rings (size 3 to 8) (size 9 to 14) (size 15 to 20)
#    0.000    1.000    1.667    5.000    9.333    6.667 
#    0.000    1.667    0.000    0.000    0.000    0.000 
#    0.000    0.000    0.000    0.000    0.000    0.000 
#
# Total GULP energy -267330.049999 kJ/mol
# GULP energy per Si atom -5569.376042 kJ/mol
# Density = 1.970813 g / cm^3
# Si number density = 19.753086 Si / 1000 Ang^3
#
#
#
# Elastic Constant Matrix: (Units=GPa)
#
#
# Indices 1 2 3 4 5 6 
#
# 1 68.2573 33.7629 5.9465 0.0000 0.0000 0.0000
# 2 33.7629 151.4976 -5.5212 0.0000 0.0000 0.0000
# 3 5.9465 -5.5212 41.1285 0.0000 0.0000 0.0000
# 4 0.0000 0.0000 0.0000 41.0319 0.0000 0.0000
# 5 0.0000 0.0000 0.0000 0.0000 26.3767 0.0000
# 6 0.0000 0.0000 0.0000 0.0000 0.0000 35.7123
#
#
#
# Elastic Compliance Matrix: (Units=1/GPa)
#
#
# Indices 1 2 3 4 5 6 
#
# 1 0.016814 -0.003855 -0.002948 0.000000 0.000000 0.000000
# 2 -0.003855 0.007517 0.001566 0.000000 0.000000 0.000000
# 3 -0.002948 0.001566 0.024951 0.000000 0.000000 0.000000
# 4 0.000000 0.000000 0.000000 0.024371 0.000000 0.000000
# 5 0.000000 0.000000 0.000000 0.000000 0.037912 0.000000
# 6 0.000000 0.000000 0.000000 0.000000 0.000000 0.028002
#
#
# Mechanical properties :
#
#
# Convention : Reuss Voigt Hill
#
# Bulk Modulus (GPa) = 25.76783 36.58444 31.17614
# Shear Modulus (GPa) = 30.67935 35.73718 33.20827
#
# Velocity S-wave (km/s) = 3.94527 4.25808 4.10465
# Velocity P-wave (km/s) = 5.81608 6.53728 6.18720
#
# Compressibility (1/GPa) = 0.03880807
#
# Stress axis : x y z
#
# Youngs Moduli (GPa) = 59.47428 133.03352 40.07915
#
# Poissons Ratio (x) = 0.51280 0.11817
# Poissons Ratio (y) = 0.22925 -0.06278
# Poissons Ratio (z) = 0.17536 -0.20838
#
# Static dielectric constant tensor:
#      x y z
#    x 1.689800 0.000000 0.000000 
#    y 0.000000 1.649890 0.000000 
#    z 0.000000 0.000000 1.522010 
# 
# From -- ./inp_files/4776.got.cif
#   From: 2010.05.17/outbox.ucp.g08.bks.cvg/sg57_3_cif.got.tgz:4776.got - 2010.06.11 16:39:23.
