data_PCOD9440434
_publ_section_title
;
Structure prediction by ZEFSAII (Michael W. Deem and Ramdas Pophale) SiO2 
 PCOD9440434
Probable space group: P B C M
;
_chemical_formula_sum "Si O2"
_cell_formula_units_Z 56
_cell_length_a 21.000000
_cell_length_b 15.000000
_cell_length_c 9.000000
_cell_angle_alpha 90.000000
_cell_angle_beta 90.000000
_cell_angle_gamma 90.000000
_cell_volume 2835.000000
_symmetry_space_group_name_H-M "P B C M"
_symmetry_group_IT_number 57
_symmetry_cell_setting 'orthorhombic'
loop_
_space_group_symop_operation_xyz
x,y,z
-x,-y,1/2+z
x,1/2-y,-z
-x,1/2+y,1/2-z
-x,-y,-z
x,y,1/2-z
-x,1/2+y,z
x,1/2-y,1/2+z
loop_
_atom_site_type_symbol
_atom_site_label
_atom_site_fract_x
_atom_site_fract_y
_atom_site_fract_z
Si Si1 0.856183 0.025793 0.571589
Si Si2 0.627480 0.035621 0.074475
Si Si3 0.752279 0.153491 0.425872
Si Si4 0.966262 0.157816 0.927366
Si Si5 0.883935 0.656911 0.928026
Si Si6 0.528516 0.342381 0.424621
Si Si7 0.624091 0.658865 0.924847
O O1 0.852971 0.018514 0.750000
O O2 0.802910 0.091428 0.508550
O O3 0.923138 0.073831 0.530146
O O4 0.850955 0.929450 0.496733
O O5 0.612536 0.026834 0.250000
O O6 0.684127 0.105771 0.057590
O O7 0.648587 0.937255 0.021351
O O8 0.566210 0.075148 0.993205
O O9 0.751714 0.250000 0.500000
O O10 0.766834 0.159751 0.250000
O O11 0.961933 0.167777 0.750000
O O12 0.040570 0.147193 0.965811
O O13 0.942809 0.250000 0.000000
O O14 0.877287 0.659430 0.750000
O O15 0.862355 0.750000 0.000000
O O16 0.550076 0.250000 0.500000
O O17 0.540914 0.337643 0.250000
O O18 0.452515 0.348353 0.446907
O O19 0.636954 0.667053 0.750000
O O20 0.646465 0.750000 0.000000
#
# Coordination Sequence:
#
# PCOD9440434 Si02
#       7
#     8   8   8   8   8   8   8
#     4  11  22  37  57  82 111 146 187 228 273 326
#     4  10  21  37  56  78 108 144 184 227 272 320
#     4  11  24  41  59  80 108 143 182 227 273 321
#     4   9  19  33  53  82 114 146 180 222 273 327
#     4  10  20  36  57  83 114 146 181 224 273 326
#     4  10  19  31  52  81 112 143 177 218 270 327
#     4   9  19  35  54  80 111 142 176 220 270 323
#
# _framework density 19.753086
#
# number of rings (size 3 to 8) (size 9 to 14) (size 15 to 20)
#    0.000    2.000    0.000    3.429    0.000    6.286 
#    0.000    0.714    0.000    1.714    0.000    0.000 
#    0.000    0.000    0.000    0.000    0.000    0.000 
#
# Total GULP energy -312819.574656 kJ/mol
# GULP energy per Si atom -5586.063833 kJ/mol
# Density = 1.970813 g / cm^3
# Si number density = 19.753086 Si / 1000 Ang^3
#
#
#
# Elastic Constant Matrix: (Units=GPa)
#
#
# Indices 1 2 3 4 5 6 
#
# 1 4.0586 22.1172 32.1778 0.0000 0.0000 0.0000
# 2 22.1172 186.9570 65.9518 0.0000 0.0000 0.0000
# 3 32.1778 65.9518 57.2598 0.0000 0.0000 0.0000
# 4 0.0000 0.0000 0.0000 39.5496 0.0000 0.0000
# 5 0.0000 0.0000 0.0000 0.0000 12.9899 0.0000
# 6 0.0000 0.0000 0.0000 0.0000 0.0000 18.2224
#
#
#
# Elastic Compliance Matrix: (Units=1/GPa)
#
#
# Indices 1 2 3 4 5 6 
#
# 1 -0.062358 -0.008396 0.044714 0.000000 0.000000 0.000000
# 2 -0.008396 0.007879 -0.004356 0.000000 0.000000 0.000000
# 3 0.044714 -0.004356 -0.002645 0.000000 0.000000 0.000000
# 4 0.000000 0.000000 0.000000 0.025285 0.000000 0.000000
# 5 0.000000 0.000000 0.000000 0.000000 0.076983 0.000000
# 6 0.000000 0.000000 0.000000 0.000000 0.000000 0.054878
#
#
# Mechanical properties :
#
#
# Convention : Reuss Voigt Hill
#
# Bulk Modulus (GPa) = 147.11855 54.30766 100.71311
# Shear Modulus (GPa) = 130.32999 22.68761 76.50880
#
# Velocity S-wave (km/s) = 8.13159 3.39272 6.23030
# Velocity P-wave (km/s) = 12.75947 6.54983 10.14161
#
# Compressibility (1/GPa) = 0.00679724
#
# Stress axis : x y z
#
# Youngs Moduli (GPa) = -16.03634 126.92051 -378.00650
#
# Poissons Ratio (x) = 1.06568 16.90219
# Poissons Ratio (y) = -0.13465 -1.64678
# Poissons Ratio (z) = 0.71705 0.55293
#
# Static dielectric constant tensor:
#      x y z
#    x 1.707010 0.000000 0.000000 
#    y 0.000000 1.697590 0.000000 
#    z 0.000000 0.000000 1.657820 
# 
# From -- ./inp_files/8028.got.cif
#   From: 2010.05.17/outbox.ucp.g08.bks.cvg/sg57_5_cif.got.tgz:8028.got - 2010.06.11 16:39:23.
