data_PCOD9440075
_publ_section_title
;
Structure prediction by ZEFSAII (Michael W. Deem and Ramdas Pophale) SiO2 
 PCOD9440075
Probable space group: P B C M
;
_chemical_formula_sum "Si O2"
_cell_formula_units_Z 36
_cell_length_a 7.868319
_cell_length_b 15.863154
_cell_length_c 14.126654
_cell_angle_alpha 90.000000
_cell_angle_beta 90.000000
_cell_angle_gamma 90.000000
_cell_volume 1763.237475
_symmetry_space_group_name_H-M "P B C M"
_symmetry_group_IT_number 57
_symmetry_cell_setting 'orthorhombic'
loop_
_space_group_symop_operation_xyz
x,y,z
-x,-y,1/2+z
x,1/2-y,-z
-x,1/2+y,1/2-z
-x,-y,-z
x,y,1/2-z
-x,1/2+y,z
x,1/2-y,1/2+z
loop_
_atom_site_type_symbol
_atom_site_label
_atom_site_fract_x
_atom_site_fract_y
_atom_site_fract_z
Si Si1 0.724916 0.940477 0.449135
Si Si2 0.798880 0.611615 0.353107
Si Si3 0.782850 0.250000 0.500000
Si Si4 0.051559 0.199295 0.858012
Si Si5 0.566026 0.390885 0.921025
O O1 0.826033 0.941523 0.550426
O O2 0.811856 0.871736 0.383619
O O3 0.536000 0.908662 0.480245
O O4 0.693245 0.031633 0.405144
O O5 0.860430 0.581059 0.250000
O O6 0.869490 0.706281 0.368691
O O7 0.593246 0.615450 0.351572
O O8 0.669217 0.306346 0.568091
O O9 0.901313 0.193270 0.566417
O O10 0.994679 0.190648 0.750000
#
# Coordination Sequence:
#
# PCOD9440075 Si02
#       5
#     8   8   4   8   8
#     4   9  18  40  54  83 108 144 186 224 284 315
#     4   9  17  35  59  81 105 144 187 220 269 330
#     4  12  20  38  56  80 120 138 186 226 278 328
#     4  11  22  36  57  78 112 154 183 217 274 341
#     4   9  20  33  63  80 110 145 177 241 278 316
#
# _framework density 20.416989000000001
#
# number of rings (size 3 to 8) (size 9 to 14) (size 15 to 20)
#    1.333    0.889    2.222    1.333    0.000    2.667 
#    0.000    2.222    0.000    0.000    0.000    0.000 
#    0.000    0.000    0.000    0.000    0.000    0.000 
#
# Total GULP energy -200435.724491 kJ/mol
# GULP energy per Si atom -5567.659014 kJ/mol
# Density = 2.037052 g / cm^3
# Si number density = 20.416989 Si / 1000 Ang^3
#
#
#
# Elastic Constant Matrix: (Units=GPa)
#
#
# Indices 1 2 3 4 5 6 
#
# 1 12.1060 -2.1920 -0.5431 0.0000 0.0000 0.0000
# 2 -2.1920 23.3424 -16.7145 0.0000 0.0000 0.0000
# 3 -0.5431 -16.7145 66.2055 0.0000 0.0000 0.0000
# 4 0.0000 0.0000 0.0000 14.1784 0.0000 0.0000
# 5 0.0000 0.0000 0.0000 0.0000 1.7109 0.0000
# 6 0.0000 0.0000 0.0000 0.0000 0.0000 111.1357
#
#
#
# Elastic Compliance Matrix: (Units=1/GPa)
#
#
# Indices 1 2 3 4 5 6 
#
# 1 0.084617 0.010306 0.003296 0.000000 0.000000 0.000000
# 2 0.010306 0.053549 0.013604 0.000000 0.000000 0.000000
# 3 0.003296 0.013604 0.018566 0.000000 0.000000 0.000000
# 4 0.000000 0.000000 0.000000 0.070530 0.000000 0.000000
# 5 0.000000 0.000000 0.000000 0.000000 0.584482 0.000000
# 6 0.000000 0.000000 0.000000 0.000000 0.000000 0.008998
#
#
# Mechanical properties :
#
#
# Convention : Reuss Voigt Hill
#
# Bulk Modulus (GPa) = 4.73607 6.97275 5.85441
# Shear Modulus (GPa) = 5.97578 33.47859 19.72718
#
# Velocity S-wave (km/s) = 1.71266 4.05377 3.11177
# Velocity P-wave (km/s) = 2.49713 5.03322 3.97297
#
# Compressibility (1/GPa) = 0.21114573
#
# Stress axis : x y z
#
# Youngs Moduli (GPa) = 11.81789 18.67432 53.86190
#
# Poissons Ratio (x) = -0.19247 -0.17754
# Poissons Ratio (y) = -0.12180 -0.73273
# Poissons Ratio (z) = -0.03895 -0.25404
#
# Static dielectric constant tensor:
#      x y z
#    x 1.727830 0.000000 0.000000 
#    y 0.000000 1.744710 0.000000 
#    z 0.000000 0.000000 1.736790 
# 
# From -- ./inp_files/15808.got.cif
#   From: 2010.05.17/outbox.cif.g08.bks.cpg/sg57_8_cif.got.tgz:15808.got - 2010.06.03 13:58:18.
