data_PCOD9440275
_publ_section_title
;
Structure prediction by ZEFSAII (Michael W. Deem and Ramdas Pophale) SiO2 
 PCOD9440275
Probable space group: P B C M
;
_chemical_formula_sum "Si O2"
_cell_formula_units_Z 44
_cell_length_a 4.865484
_cell_length_b 13.174774
_cell_length_c 26.582201
_cell_angle_alpha 90.000000
_cell_angle_beta 90.000000
_cell_angle_gamma 90.000000
_cell_volume 1703.963001
_symmetry_space_group_name_H-M "P B C M"
_symmetry_group_IT_number 57
_symmetry_cell_setting 'orthorhombic'
loop_
_space_group_symop_operation_xyz
x,y,z
-x,-y,1/2+z
x,1/2-y,-z
-x,1/2+y,1/2-z
-x,-y,-z
x,y,1/2-z
-x,1/2+y,z
x,1/2-y,1/2+z
loop_
_atom_site_type_symbol
_atom_site_label
_atom_site_fract_x
_atom_site_fract_y
_atom_site_fract_z
Si Si1 0.321621 0.842279 0.304751
Si Si2 0.279756 0.485210 0.086554
Si Si3 0.210948 0.408718 0.947229
Si Si4 0.567205 0.250000 0.500000
Si Si5 0.960568 0.224961 0.596817
Si Si6 0.823619 0.515983 0.804860
O O1 0.271674 0.794042 0.250000
O O2 0.631998 0.882513 0.306297
O O3 0.220708 0.782013 0.353056
O O4 0.135785 0.944825 0.306134
O O5 0.592586 0.501852 0.071709
O O6 0.148688 0.374925 0.092018
O O7 0.243971 0.535038 0.142137
O O8 0.091555 0.545540 0.046738
O O9 0.162516 0.321085 0.905740
O O10 0.366960 0.346234 0.990291
O O11 0.761117 0.234216 0.548323
O O12 0.772028 0.467650 0.750000
#
# Coordination Sequence:
#
# PCOD9440275 Si02
#       6
#     8   8   8   4   8   8
#     4   9  19  37  70 102 133 183 233 280 353 430
#     4  11  25  44  76 101 139 195 235 290 368 437
#     4  12  27  47  69 107 140 179 252 293 356 440
#     4  12  28  50  68 102 148 194 234 328 352 420
#     4  11  26  49  73 101 151 186 238 307 368 426
#     4   9  18  37  66 105 139 178 233 285 346 422
#
# _framework density 25.822154000000001
#
# number of rings (size 3 to 8) (size 9 to 14) (size 15 to 20)
#    0.000    1.455    1.818    2.727    7.636    1.455 
#    0.000    1.818    0.000    1.091    0.000    0.000 
#    0.000    0.000    0.000    0.000    0.000    0.000 
#
# Total GULP energy -246279.816360 kJ/mol
# GULP energy per Si atom -5597.268554 kJ/mol
# Density = 2.576338 g / cm^3
# Si number density = 25.822154 Si / 1000 Ang^3
#
#
#
# Elastic Constant Matrix: (Units=GPa)
#
#
# Indices 1 2 3 4 5 6 
#
# 1 110.9068 20.7514 30.3062 0.0000 0.0000 0.0000
# 2 20.7514 87.7035 5.5287 0.0000 0.0000 0.0000
# 3 30.3062 5.5287 211.8545 0.0000 0.0000 0.0000
# 4 0.0000 0.0000 0.0000 21.7736 0.0000 0.0000
# 5 0.0000 0.0000 0.0000 0.0000 41.1772 0.0000
# 6 0.0000 0.0000 0.0000 0.0000 0.0000 40.5963
#
#
#
# Elastic Compliance Matrix: (Units=1/GPa)
#
#
# Indices 1 2 3 4 5 6 
#
# 1 0.009802 -0.002235 -0.001344 0.000000 0.000000 0.000000
# 2 -0.002235 0.011930 0.000008 0.000000 0.000000 0.000000
# 3 -0.001344 0.000008 0.004912 0.000000 0.000000 0.000000
# 4 0.000000 0.000000 0.000000 0.045927 0.000000 0.000000
# 5 0.000000 0.000000 0.000000 0.000000 0.024285 0.000000
# 6 0.000000 0.000000 0.000000 0.000000 0.000000 0.024633
#
#
# Mechanical properties :
#
#
# Convention : Reuss Voigt Hill
#
# Bulk Modulus (GPa) = 51.27085 58.18193 54.72639
# Shear Modulus (GPa) = 37.00110 44.30133 40.65122
#
# Velocity S-wave (km/s) = 3.78950 4.14651 3.97202
# Velocity P-wave (km/s) = 6.24864 6.74577 6.50196
#
# Compressibility (1/GPa) = 0.01950426
#
# Stress axis : x y z
#
# Youngs Moduli (GPa) = 102.02110 83.82065 203.57290
#
# Poissons Ratio (x) = 0.18730 0.27357
# Poissons Ratio (y) = 0.22797 -0.00169
# Poissons Ratio (z) = 0.13710 -0.00070
#
# Static dielectric constant tensor:
#      x y z
#    x 1.947580 0.000000 0.000000 
#    y 0.000000 2.044700 0.000000 
#    z 0.000000 0.000000 2.133100 
# 
# From -- ./inp_files/27894.got.cif
#   From: 2010.05.17/outbox.cif.g08.bks.cpg/sg57_14_cif.got.tgz:27894.got - 2010.06.03 13:58:18.
