data_PCOD9440506
_publ_section_title
;
Structure prediction by ZEFSAII (Michael W. Deem and Ramdas Pophale) SiO2 
 PCOD9440506
Probable space group: P B C M
;
_chemical_formula_sum "Si O2"
_cell_formula_units_Z 64
_cell_length_a 15.000000
_cell_length_b 24.000000
_cell_length_c 9.000000
_cell_angle_alpha 90.000000
_cell_angle_beta 90.000000
_cell_angle_gamma 90.000000
_cell_volume 3240.000000
_symmetry_space_group_name_H-M "P B C M"
_symmetry_group_IT_number 57
_symmetry_cell_setting 'orthorhombic'
loop_
_space_group_symop_operation_xyz
x,y,z
-x,-y,1/2+z
x,1/2-y,-z
-x,1/2+y,1/2-z
-x,-y,-z
x,y,1/2-z
-x,1/2+y,z
x,1/2-y,1/2+z
loop_
_atom_site_type_symbol
_atom_site_label
_atom_site_fract_x
_atom_site_fract_y
_atom_site_fract_z
Si Si1 0.352856 0.606790 0.924436
Si Si2 0.986487 0.170464 0.068473
Si Si3 0.217565 0.693220 0.428779
Si Si4 0.517696 0.560246 0.073839
Si Si5 0.818675 0.801421 0.574815
Si Si6 0.757108 0.022855 0.082238
Si Si7 0.041148 0.551312 0.079447
Si Si8 0.725737 0.582234 0.423367
O O1 0.357109 0.617634 0.750000
O O2 0.282651 0.646543 0.006544
O O3 0.449430 0.603705 0.999217
O O4 0.309840 0.546652 0.960378
O O5 0.985872 0.171993 0.250000
O O6 0.886999 0.188849 0.024697
O O7 0.993439 0.107760 0.012864
O O8 0.079552 0.195264 0.016916
O O9 0.251354 0.750000 0.500000
O O10 0.220586 0.692368 0.250000
O O11 0.500934 0.556377 0.250000
O O12 0.619825 0.578332 0.052435
O O13 0.500000 0.500000 0.000000
O O14 0.771109 0.750000 0.500000
O O15 0.824358 0.792442 0.750000
O O16 0.765715 0.857578 0.549980
O O17 0.721828 0.029024 0.250000
O O18 0.852133 0.052566 0.075456
O O19 0.771969 0.959682 0.036881
O O20 0.013519 0.549199 0.250000
O O21 0.000000 0.500000 0.000000
O O22 0.744178 0.567526 0.250000
#
# Coordination Sequence:
#
# PCOD9440506 Si02
#       8
#     8   8   8   8   8   8   8   8
#     4  12  24  39  60  88 121 160 200 244 302 362
#     4   9  18  35  58  82 117 157 196 240 293 348
#     4  11  22  40  62  88 121 159 203 251 299 356
#     4  11  22  38  62  92 122 156 198 247 303 366
#     4  10  21  39  61  85 117 157 199 245 292 346
#     4  11  21  35  58  86 120 156 194 245 300 354
#     4  10  20  34  51  79 116 159 198 240 298 355
#     4  10  22  39  61  88 120 156 196 243 303 364
#
# _framework density 19.753086
#
# number of rings (size 3 to 8) (size 9 to 14) (size 15 to 20)
#    0.000    1.500    2.500    3.375    0.000    3.000 
#    0.000    1.875    0.000    1.500    0.000    0.000 
#    0.000    0.000    0.000    0.000    0.000    0.000 
#
# Total GULP energy -356779.139658 kJ/mol
# GULP energy per Si atom -5574.674057 kJ/mol
# Density = 1.970813 g / cm^3
# Si number density = 19.753086 Si / 1000 Ang^3
#
#
#
# Elastic Constant Matrix: (Units=GPa)
#
#
# Indices 1 2 3 4 5 6 
#
# 1 71.6262 46.3968 36.7853 0.0000 0.0000 0.0000
# 2 46.3968 100.3112 44.6665 0.0000 0.0000 0.0000
# 3 36.7853 44.6665 51.1931 0.0000 0.0000 0.0000
# 4 0.0000 0.0000 0.0000 26.1125 0.0000 0.0000
# 5 0.0000 0.0000 0.0000 0.0000 17.8100 0.0000
# 6 0.0000 0.0000 0.0000 0.0000 0.0000 -154.5605
#
#
#
# Elastic Compliance Matrix: (Units=1/GPa)
#
#
# Indices 1 2 3 4 5 6 
#
# 1 0.023890 -0.005570 -0.012306 0.000000 0.000000 0.000000
# 2 -0.005570 0.017601 -0.011355 0.000000 0.000000 0.000000
# 3 -0.012306 -0.011355 0.038284 0.000000 0.000000 0.000000
# 4 0.000000 0.000000 0.000000 0.038296 0.000000 0.000000
# 5 0.000000 0.000000 0.000000 0.000000 0.056148 0.000000
# 6 0.000000 0.000000 0.000000 0.000000 0.000000 -0.006470
#
#
# Mechanical properties :
#
#
# Convention : Reuss Voigt Hill
#
# Bulk Modulus (GPa) = 46.92077 53.20307 50.06192
# Shear Modulus (GPa) = 21.43016 -15.77550 2.82733
#
# Velocity S-wave (km/s) = 3.29736 -2.82908 1.19768
# Velocity P-wave (km/s) = 6.18886 4.03992 5.22604
#
# Compressibility (1/GPa) = 0.02131252
#
# Stress axis : x y z
#
# Youngs Moduli (GPa) = 41.85936 56.81369 26.12046
#
# Poissons Ratio (x) = 0.31644 0.32145
# Poissons Ratio (y) = 0.23315 0.29660
# Poissons Ratio (z) = 0.51513 0.64513
#
# Static dielectric constant tensor:
#      x y z
#    x 1.695130 0.000000 0.000000 
#    y 0.000000 1.913050 0.000000 
#    z 0.000000 0.000000 1.664300 
# 
# From -- ./inp_files/5552.got.cif
#   From: 2010.05.17/outbox.ucp.g08.bks.cvg/sg57_3_cif.got.tgz:5552.got - 2010.06.11 16:39:23.
