data_PCOD9440124
_publ_section_title
;
Structure prediction by ZEFSAII (Michael W. Deem and Ramdas Pophale) SiO2 
 PCOD9440124
Probable space group: P B C M
;
_chemical_formula_sum "Si O2"
_cell_formula_units_Z 48
_cell_length_a 12.264841
_cell_length_b 8.782495
_cell_length_c 21.754228
_cell_angle_alpha 90.000000
_cell_angle_beta 90.000000
_cell_angle_gamma 90.000000
_cell_volume 2343.276351
_symmetry_space_group_name_H-M "P B C M"
_symmetry_group_IT_number 57
_symmetry_cell_setting 'orthorhombic'
loop_
_space_group_symop_operation_xyz
x,y,z
-x,-y,1/2+z
x,1/2-y,-z
-x,1/2+y,1/2-z
-x,-y,-z
x,y,1/2-z
-x,1/2+y,z
x,1/2-y,1/2+z
loop_
_atom_site_type_symbol
_atom_site_label
_atom_site_fract_x
_atom_site_fract_y
_atom_site_fract_z
Si Si1 0.754242 0.005258 0.880707
Si Si2 0.143114 0.508351 0.750000
Si Si3 0.857598 0.000900 0.380943
Si Si4 0.900915 0.372881 0.750000
Si Si5 0.316014 0.809796 0.569670
Si Si6 0.059350 0.311507 0.931324
Si Si7 0.447381 0.124324 0.046181
O O1 0.850360 0.942363 0.923870
O O2 0.642731 0.935804 0.907427
O O3 0.789378 0.970101 0.811359
O O4 0.740401 0.185329 0.887562
O O5 0.115558 0.690135 0.750000
O O6 0.029459 0.416325 0.750000
O O7 0.902000 0.830722 0.389915
O O8 0.850401 0.048785 0.310248
O O9 0.744641 0.032384 0.416612
O O10 0.946741 0.114520 0.410385
O O11 0.300981 0.750000 0.500000
O O12 0.445208 0.814050 0.580464
O O13 0.051619 0.250000 0.000000
O O14 0.399699 0.250000 0.000000
O O15 0.500000 0.000000 0.000000
#
# Coordination Sequence:
#
# PCOD9440124 Si02
#       7
#     8   4   8   4   8   8   8
#     4  12  24  43  67 101 134 181 228 285 339 410
#     4  12  26  46  69  97 140 188 235 282 333 416
#     4  12  24  41  65  99 134 179 230 276 341 415
#     4  12  24  46  69  91 138 186 231 268 333 410
#     4  11  22  41  68  99 137 174 224 282 348 406
#     4  12  25  40  65  98 141 170 222 287 352 407
#     4  11  23  43  72 100 134 178 226 283 351 415
#
# _framework density 20.484141000000001
#
# number of rings (size 3 to 8) (size 9 to 14) (size 15 to 20)
#    0.000    0.333    6.667    4.500    2.333    0.000 
#    0.000    1.667    0.000    0.000    0.000    0.000 
#    0.000    0.000    0.000    0.000    0.000    0.000 
#
# Total GULP energy -268588.386002 kJ/mol
# GULP energy per Si atom -5595.591375 kJ/mol
# Density = 2.043752 g / cm^3
# Si number density = 20.484141 Si / 1000 Ang^3
#
#
#
# Elastic Constant Matrix: (Units=GPa)
#
#
# Indices 1 2 3 4 5 6 
#
# 1 91.6797 7.9475 23.0591 0.0000 0.0000 0.0000
# 2 7.9475 70.6652 1.0354 0.0000 0.0000 0.0000
# 3 23.0591 1.0354 87.8808 0.0000 0.0000 0.0000
# 4 0.0000 0.0000 0.0000 30.6436 0.0000 0.0000
# 5 0.0000 0.0000 0.0000 0.0000 15.6901 0.0000
# 6 0.0000 0.0000 0.0000 0.0000 0.0000 31.2010
#
#
#
# Elastic Compliance Matrix: (Units=1/GPa)
#
#
# Indices 1 2 3 4 5 6 
#
# 1 0.011793 -0.001281 -0.003079 0.000000 0.000000 0.000000
# 2 -0.001281 0.014293 0.000168 0.000000 0.000000 0.000000
# 3 -0.003079 0.000168 0.012185 0.000000 0.000000 0.000000
# 4 0.000000 0.000000 0.000000 0.032633 0.000000 0.000000
# 5 0.000000 0.000000 0.000000 0.000000 0.063734 0.000000
# 6 0.000000 0.000000 0.000000 0.000000 0.000000 0.032050
#
#
# Mechanical properties :
#
#
# Convention : Reuss Voigt Hill
#
# Bulk Modulus (GPa) = 33.46100 34.92332 34.19216
# Shear Modulus (GPa) = 27.02172 30.05252 28.53712
#
# Velocity S-wave (km/s) = 3.63596 3.83444 3.73652
# Velocity P-wave (km/s) = 5.83073 6.05722 5.94505
#
# Compressibility (1/GPa) = 0.02988554
#
# Stress axis : x y z
#
# Youngs Moduli (GPa) = 84.79529 69.96489 82.06776
#
# Poissons Ratio (x) = 0.08964 0.25271
# Poissons Ratio (y) = 0.10864 -0.01377
# Poissons Ratio (z) = 0.26111 -0.01174
#
# Static dielectric constant tensor:
#      x y z
#    x 1.748200 0.000000 0.000000 
#    y 0.000000 1.794620 0.000000 
#    z 0.000000 0.000000 1.722620 
# 
# From -- ./inp_files/27150.got.cif
#   From: 2010.05.17/outbox.cif.g08.bks.cpg/sg57_14_cif.got.tgz:27150.got - 2010.06.03 13:58:18.
