data_PCOD9440659
_publ_section_title
;
Structure prediction by ZEFSAII (Michael W. Deem and Ramdas Pophale) SiO2 
 PCOD9440659
Probable space group: P B C M
;
_chemical_formula_sum "Si O2"
_cell_formula_units_Z 40
_cell_length_a 12.000000
_cell_length_b 18.000000
_cell_length_c 9.000000
_cell_angle_alpha 90.000000
_cell_angle_beta 90.000000
_cell_angle_gamma 90.000000
_cell_volume 1944.000000
_symmetry_space_group_name_H-M "P B C M"
_symmetry_group_IT_number 57
_symmetry_cell_setting 'orthorhombic'
loop_
_space_group_symop_operation_xyz
x,y,z
-x,-y,1/2+z
x,1/2-y,-z
-x,1/2+y,1/2-z
-x,-y,-z
x,y,1/2-z
-x,1/2+y,z
x,1/2-y,1/2+z
loop_
_atom_site_type_symbol
_atom_site_label
_atom_site_fract_x
_atom_site_fract_y
_atom_site_fract_z
Si Si1 0.677928 0.670119 0.574589
Si Si2 0.888738 0.830619 0.928079
Si Si3 0.744725 0.333633 0.575762
Si Si4 0.508671 0.081157 0.425888
Si Si5 0.066579 0.930272 0.427133
O O1 0.660033 0.750000 0.500000
O O2 0.703536 0.675647 0.750000
O O3 0.775730 0.629760 0.481140
O O4 0.568440 0.626561 0.537654
O O5 0.902683 0.831233 0.750000
O O6 0.875487 0.750000 0.000000
O O7 0.986908 0.863964 0.022876
O O8 0.748669 0.250000 0.500000
O O9 0.779408 0.324864 0.750000
O O10 0.623738 0.372347 0.573935
O O11 0.819544 0.397659 0.496007
O O12 0.474057 0.078223 0.250000
O O13 0.500000 0.000000 0.500000
O O14 0.075277 0.941352 0.250000
O O15 0.000000 0.000000 0.500000
#
# Coordination Sequence:
#
# PCOD9440659 Si02
#       5
#     8   8   8   8   8
#     4  11  22  39  64  94 129 168 215 266 323 390
#     4  11  22  40  65  94 128 168 214 265 323 389
#     4  11  25  46  71 100 135 179 230 280 336 405
#     4  11  25  43  66  96 134 175 222 275 334 397
#     4  12  26  44  67  96 133 174 219 273 333 396
#
# _framework density 20.576132000000001
#
# number of rings (size 3 to 8) (size 9 to 14) (size 15 to 20)
#    0.000    0.800    0.000    9.000    2.800    4.800 
#    0.000    0.000    0.000    0.000    0.000    0.000 
#    0.000    0.000    0.000    0.000    0.000    0.000 
#
# Total GULP energy -222803.964584 kJ/mol
# GULP energy per Si atom -5570.099115 kJ/mol
# Density = 2.052930 g / cm^3
# Si number density = 20.576132 Si / 1000 Ang^3
#
#
#
# Elastic Constant Matrix: (Units=GPa)
#
#
# Indices 1 2 3 4 5 6 
#
# 1 42.2517 -18.7275 -13.5540 0.0000 0.0000 0.0000
# 2 -18.7275 29.6600 -9.9849 0.0000 0.0000 0.0000
# 3 -13.5540 -9.9849 133.3378 0.0000 0.0000 0.0000
# 4 0.0000 0.0000 0.0000 28.5043 0.0000 0.0000
# 5 0.0000 0.0000 0.0000 0.0000 33.3184 0.0000
# 6 0.0000 0.0000 0.0000 0.0000 0.0000 25.6146
#
#
#
# Elastic Compliance Matrix: (Units=1/GPa)
#
#
# Indices 1 2 3 4 5 6 
#
# 1 0.036506 0.024928 0.005578 0.000000 0.000000 0.000000
# 2 0.024928 0.051609 0.006399 0.000000 0.000000 0.000000
# 3 0.005578 0.006399 0.008546 0.000000 0.000000 0.000000
# 4 0.000000 0.000000 0.000000 0.035082 0.000000 0.000000
# 5 0.000000 0.000000 0.000000 0.000000 0.030013 0.000000
# 6 0.000000 0.000000 0.000000 0.000000 0.000000 0.039040
#
#
# Mechanical properties :
#
#
# Convention : Reuss Voigt Hill
#
# Bulk Modulus (GPa) = 5.86619 13.41296 9.63958
# Shear Modulus (GPa) = 27.20173 33.98852 30.59512
#
# Velocity S-wave (km/s) = 3.63988 4.06870 3.86025
# Velocity P-wave (km/s) = 4.53014 5.34839 4.95618
#
# Compressibility (1/GPa) = 0.17046843
#
# Stress axis : x y z
#
# Youngs Moduli (GPa) = 27.39292 19.37644 117.01553
#
# Poissons Ratio (x) = -0.48301 -0.65266
# Poissons Ratio (y) = -0.68284 -0.74874
# Poissons Ratio (z) = -0.15279 -0.12398
#
# Static dielectric constant tensor:
#      x y z
#    x 2.184190 0.000000 0.000000 
#    y 0.000000 1.482910 0.000000 
#    z 0.000000 0.000000 1.689360 
# 
# From -- ./inp_files/2670.got.cif
#   From: 2010.05.17/outbox.ucp.g08.bks.cvg/sg57_2_cif.got.tgz:2670.got - 2010.06.11 16:39:23.
