data_PCOD9440243
_publ_section_title
;
Structure prediction by ZEFSAII (Michael W. Deem and Ramdas Pophale) SiO2 
 PCOD9440243
Probable space group: P B C M
;
_chemical_formula_sum "Si O2"
_cell_formula_units_Z 36
_cell_length_a 7.429052
_cell_length_b 19.955658
_cell_length_c 10.580964
_cell_angle_alpha 90.000000
_cell_angle_beta 90.000000
_cell_angle_gamma 90.000000
_cell_volume 1568.645064
_symmetry_space_group_name_H-M "P B C M"
_symmetry_group_IT_number 57
_symmetry_cell_setting 'orthorhombic'
loop_
_space_group_symop_operation_xyz
x,y,z
-x,-y,1/2+z
x,1/2-y,-z
-x,1/2+y,1/2-z
-x,-y,-z
x,y,1/2-z
-x,1/2+y,z
x,1/2-y,1/2+z
loop_
_atom_site_type_symbol
_atom_site_label
_atom_site_fract_x
_atom_site_fract_y
_atom_site_fract_z
Si Si1 0.062571 0.821044 0.750000
Si Si2 0.408095 0.444067 0.886013
Si Si3 0.632027 0.206935 0.750000
Si Si4 0.066739 0.113287 0.513525
Si Si5 0.797687 0.798435 0.250000
Si Si6 0.693807 0.412454 0.060910
O O1 0.242105 0.773036 0.750000
O O2 0.028991 0.858701 0.884745
O O3 0.894636 0.771422 0.750000
O O4 0.354645 0.418296 0.750000
O O5 0.248023 0.424607 0.978651
O O6 0.416459 0.524767 0.882229
O O7 0.596008 0.411362 0.925987
O O8 0.416334 0.213487 0.750000
O O9 0.675230 0.158309 0.869205
O O10 0.130462 0.164283 0.623348
O O11 0.903262 0.069797 0.569124
#
# Coordination Sequence:
#
# PCOD9440243 Si02
#       6
#     4   8   4   8   4   8
#     4  12  28  47  71  99 138 187 243 290 345 412
#     4  11  24  43  71 108 144 180 232 292 356 420
#     4  12  24  47  72  97 141 187 231 285 358 418
#     4  12  25  48  72 102 138 185 237 291 348 419
#     4  12  26  46  71 100 137 186 232 291 347 414
#     4  11  24  44  71 104 141 185 226 291 355 430
#
# _framework density 22.949743000000002
#
# number of rings (size 3 to 8) (size 9 to 14) (size 15 to 20)
#    0.000    0.444    6.667    1.333    1.556    1.778 
#    4.000    0.000    0.000    0.000    0.000    0.000 
#    0.000    0.000    0.000    0.000    0.000    0.000 
#
# Total GULP energy -200838.081037 kJ/mol
# GULP energy per Si atom -5578.835584 kJ/mol
# Density = 2.289751 g / cm^3
# Si number density = 22.949743 Si / 1000 Ang^3
#
#
#
# Elastic Constant Matrix: (Units=GPa)
#
#
# Indices 1 2 3 4 5 6 
#
# 1 180.8841 23.1499 9.9659 0.0000 0.0000 0.0000
# 2 23.1499 59.7106 18.1223 0.0000 0.0000 0.0000
# 3 9.9659 18.1223 79.0255 0.0000 0.0000 0.0000
# 4 0.0000 0.0000 0.0000 6.7404 0.0000 0.0000
# 5 0.0000 0.0000 0.0000 0.0000 2.4492 0.0000
# 6 0.0000 0.0000 0.0000 0.0000 0.0000 44.4198
#
#
#
# Elastic Compliance Matrix: (Units=1/GPa)
#
#
# Indices 1 2 3 4 5 6 
#
# 1 0.005821 -0.002186 -0.000233 0.000000 0.000000 0.000000
# 2 -0.002186 0.018821 -0.004040 0.000000 0.000000 0.000000
# 3 -0.000233 -0.004040 0.013610 0.000000 0.000000 0.000000
# 4 0.000000 0.000000 0.000000 0.148358 0.000000 0.000000
# 5 0.000000 0.000000 0.000000 0.000000 0.408300 0.000000
# 6 0.000000 0.000000 0.000000 0.000000 0.000000 0.022512
#
#
# Mechanical properties :
#
#
# Convention : Reuss Voigt Hill
#
# Bulk Modulus (GPa) = 39.47322 46.89961 43.18642
# Shear Modulus (GPa) = 7.82735 28.61404 18.22069
#
# Velocity S-wave (km/s) = 1.84880 3.53485 2.82075
# Velocity P-wave (km/s) = 4.66847 6.09429 5.42840
#
# Compressibility (1/GPa) = 0.02533363
#
# Stress axis : x y z
#
# Youngs Moduli (GPa) = 171.79134 53.13127 73.47503
#
# Poissons Ratio (x) = 0.11615 0.01710
# Poissons Ratio (y) = 0.37557 0.29687
# Poissons Ratio (z) = 0.03998 0.21467
#
# Static dielectric constant tensor:
#      x y z
#    x 1.806360 0.000000 0.000000 
#    y 0.000000 1.874180 0.000000 
#    z 0.000000 0.000000 2.110850 
# 
# From -- ./inp_files/1376.got.cif
#   From: 2010.05.17/outbox.cif.g08.bks.cpg/sg57_1_cif.got.tgz:1376.got - 2010.06.03 13:58:18.
