data_PCOD9440104
_publ_section_title
;
Structure prediction by ZEFSAII (Michael W. Deem and Ramdas Pophale) SiO2 
 PCOD9440104
Probable space group: P B C M
;
_chemical_formula_sum "Si O2"
_cell_formula_units_Z 40
_cell_length_a 26.013340
_cell_length_b 9.329936
_cell_length_c 8.602735
_cell_angle_alpha 90.000000
_cell_angle_beta 90.000000
_cell_angle_gamma 90.000000
_cell_volume 2087.907849
_symmetry_space_group_name_H-M "P B C M"
_symmetry_group_IT_number 57
_symmetry_cell_setting 'orthorhombic'
loop_
_space_group_symop_operation_xyz
x,y,z
-x,-y,1/2+z
x,1/2-y,-z
-x,1/2+y,1/2-z
-x,-y,-z
x,y,1/2-z
-x,1/2+y,z
x,1/2-y,1/2+z
loop_
_atom_site_type_symbol
_atom_site_label
_atom_site_fract_x
_atom_site_fract_y
_atom_site_fract_z
Si Si1 0.451812 0.411083 0.563763
Si Si2 0.048196 0.910563 0.563796
Si Si3 0.350090 0.589772 0.936900
Si Si4 0.856987 0.589884 0.063620
Si Si5 0.744262 0.590593 0.936090
O O1 0.452010 0.250000 0.500000
O O2 0.500000 0.500000 0.500000
O O3 0.454731 0.406453 0.750000
O O4 0.399369 0.493232 0.519933
O O5 0.044869 0.750000 0.500000
O O6 0.047501 0.910576 0.750000
O O7 0.100103 0.984486 0.502483
O O8 0.000000 0.000000 0.500000
O O9 0.346071 0.592531 0.750000
O O10 0.356759 0.750000 0.000000
O O11 0.299391 0.517570 0.007789
O O12 0.858000 0.591500 0.250000
O O13 0.867467 0.750000 0.000000
O O14 0.800043 0.550575 0.004284
O O15 0.746935 0.595635 0.750000
O O16 0.732247 0.750000 0.000000
#
# Coordination Sequence:
#
# PCOD9440104 Si02
#       5
#     8   8   8   8   8
#     4  11  24  41  64  91 123 159 201 248 301 359
#     4  12  25  43  64  91 123 160 203 250 302 359
#     4  11  24  41  61  89 122 160 202 250 301 357
#     4  11  22  40  64  92 124 161 202 249 301 359
#     4  11  22  39  63  91 122 160 202 249 300 358
#
# _framework density 19.157933
#
# number of rings (size 3 to 8) (size 9 to 14) (size 15 to 20)
#    0.000    0.800    0.000    9.600    0.000    7.200 
#    0.000    4.000    0.000    0.000    0.000    0.000 
#    0.000    0.000    0.000    0.000    0.000    0.000 
#
# Total GULP energy -223946.826139 kJ/mol
# GULP energy per Si atom -5598.670653 kJ/mol
# Density = 1.911433 g / cm^3
# Si number density = 19.157933 Si / 1000 Ang^3
#
#
#
# Elastic Constant Matrix: (Units=GPa)
#
#
# Indices 1 2 3 4 5 6 
#
# 1 150.6947 136.5308 80.8904 0.0000 0.0000 0.0000
# 2 136.5308 188.5211 83.1706 0.0000 0.0000 0.0000
# 3 80.8904 83.1706 178.5646 0.0000 0.0000 0.0000
# 4 0.0000 0.0000 0.0000 40.0653 0.0000 0.0000
# 5 0.0000 0.0000 0.0000 0.0000 34.6813 0.0000
# 6 0.0000 0.0000 0.0000 0.0000 0.0000 43.9019
#
#
#
# Elastic Compliance Matrix: (Units=1/GPa)
#
#
# Indices 1 2 3 4 5 6 
#
# 1 0.020488 -0.013522 -0.002983 0.000000 0.000000 0.000000
# 2 -0.013522 0.015601 -0.001141 0.000000 0.000000 0.000000
# 3 -0.002983 -0.001141 0.007483 0.000000 0.000000 0.000000
# 4 0.000000 0.000000 0.000000 0.024959 0.000000 0.000000
# 5 0.000000 0.000000 0.000000 0.000000 0.028834 0.000000
# 6 0.000000 0.000000 0.000000 0.000000 0.000000 0.022778
#
#
# Mechanical properties :
#
#
# Convention : Reuss Voigt Hill
#
# Bulk Modulus (GPa) = 120.77261 124.32934 122.55097
# Shear Modulus (GPa) = 31.60667 38.20896 34.90781
#
# Velocity S-wave (km/s) = 4.06617 4.47074 4.27325
# Velocity P-wave (km/s) = 9.23160 9.57538 9.40506
#
# Compressibility (1/GPa) = 0.00828002
#
# Stress axis : x y z
#
# Youngs Moduli (GPa) = 48.80880 64.10023 133.63721
#
# Poissons Ratio (x) = 0.86675 0.39865
# Poissons Ratio (y) = 0.65999 0.15246
# Poissons Ratio (z) = 0.14560 0.07313
#
# Static dielectric constant tensor:
#      x y z
#    x 1.642890 0.000000 0.000000 
#    y 0.000000 1.623890 0.000000 
#    z 0.000000 0.000000 1.639270 
# 
# From -- ./inp_files/8906.got.cif
#   From: 2010.05.17/outbox.cif.g08.bks.cpg/sg57_5_cif.got.tgz:8906.got - 2010.06.03 13:58:18.
