data_PCOD9440749
_publ_section_title
;
Structure prediction by ZEFSAII (Michael W. Deem and Ramdas Pophale) SiO2 
 PCOD9440749
Probable space group: P N N M
;
_chemical_formula_sum "Si O2"
_cell_formula_units_Z 48
_cell_length_a 15.555806
_cell_length_b 9.675009
_cell_length_c 15.513806
_cell_angle_alpha 90.000000
_cell_angle_beta 90.000000
_cell_angle_gamma 90.000000
_cell_volume 2334.867566
_symmetry_space_group_name_H-M "P N N M"
_symmetry_group_IT_number 58
_symmetry_cell_setting 'orthorhombic'
loop_
_space_group_symop_operation_xyz
x,y,z
-x,-y,z
1/2+x,1/2-y,1/2-z
1/2-x,1/2+y,1/2-z
-x,-y,-z
x,y,-z
1/2-x,1/2+y,1/2+z
1/2+x,1/2-y,1/2+z
loop_
_atom_site_type_symbol
_atom_site_label
_atom_site_fract_x
_atom_site_fract_y
_atom_site_fract_z
Si Si1 0.474254 0.208727 0.834152
Si Si2 0.154310 0.252678 0.597179
Si Si3 0.138842 0.939130 0.599904
Si Si4 0.069330 0.399548 0.163284
Si Si5 0.817873 0.482512 0.303960
Si Si6 0.290498 0.716478 0.595616
O O1 0.553228 0.208440 0.899676
O O2 0.429475 0.357526 0.842119
O O3 0.517983 0.171395 0.742948
O O4 0.399099 0.096325 0.849715
O O5 0.187350 0.260340 0.500000
O O6 0.198039 0.365998 0.657320
O O7 0.158849 0.094606 0.627644
O O8 0.107566 0.946449 0.500000
O O9 0.222646 0.842665 0.598999
O O10 0.144616 0.491659 0.208777
O O11 0.116678 0.283606 0.108986
O O12 0.000000 0.500000 0.119618
O O13 0.737766 0.387461 0.328807
O O14 0.282338 0.652288 0.500000
#
# Coordination Sequence:
#
# PCOD9440749 Si02
#       6
#     8   8   8   8   8   8
#     4   9  17  30  46  68 101 135 172 213 258 317
#     4  10  17  26  45  74 107 139 168 207 266 330
#     4   9  18  30  47  75 106 134 169 216 267 320
#     4   9  19  34  52  76 107 142 184 229 271 319
#     4   9  19  33  49  73 105 137 175 221 268 323
#     4  10  20  35  55  78 105 140 183 226 268 317
#
# _framework density 20.557911000000001
#
# number of rings (size 3 to 8) (size 9 to 14) (size 15 to 20)
#    0.000    2.667    0.000    3.000    0.000    7.000 
#    0.000    0.000    0.000    4.000    0.000    0.000 
#    0.000   33.333    0.000    0.000    0.000    0.167 
#
# Total GULP energy -267586.593670 kJ/mol
# GULP energy per Si atom -5574.720701 kJ/mol
# Density = 2.051112 g / cm^3
# Si number density = 20.557911 Si / 1000 Ang^3
#
#
#
# Elastic Constant Matrix: (Units=GPa)
#
#
# Indices 1 2 3 4 5 6 
#
# 1 51.5488 9.6539 15.2183 0.0000 0.0000 0.0000
# 2 9.6539 104.2284 6.9503 0.0000 0.0000 0.0000
# 3 15.2183 6.9503 30.7463 0.0000 0.0000 0.0000
# 4 0.0000 0.0000 0.0000 9.4443 0.0000 0.0000
# 5 0.0000 0.0000 0.0000 0.0000 10.9037 0.0000
# 6 0.0000 0.0000 0.0000 0.0000 0.0000 26.1278
#
#
#
# Elastic Compliance Matrix: (Units=1/GPa)
#
#
# Indices 1 2 3 4 5 6 
#
# 1 0.022915 -0.001387 -0.011028 0.000000 0.000000 0.000000
# 2 -0.001387 0.009825 -0.001534 0.000000 0.000000 0.000000
# 3 -0.011028 -0.001534 0.038330 0.000000 0.000000 0.000000
# 4 0.000000 0.000000 0.000000 0.105884 0.000000 0.000000
# 5 0.000000 0.000000 0.000000 0.000000 0.091712 0.000000
# 6 0.000000 0.000000 0.000000 0.000000 0.000000 0.038273
#
#
# Mechanical properties :
#
#
# Convention : Reuss Voigt Hill
#
# Bulk Modulus (GPa) = 23.16436 27.79650 25.48043
# Shear Modulus (GPa) = 14.31727 19.60856 16.96292
#
# Velocity S-wave (km/s) = 2.64187 3.09175 2.87562
# Velocity P-wave (km/s) = 4.53853 5.12793 4.84221
#
# Compressibility (1/GPa) = 0.04316977
#
# Stress axis : x y z
#
# Youngs Moduli (GPa) = 43.64015 101.78012 26.08940
#
# Poissons Ratio (x) = 0.14117 0.28772
# Poissons Ratio (y) = 0.06053 0.04003
# Poissons Ratio (z) = 0.48128 0.15618
#
# Static dielectric constant tensor:
#      x y z
#    x 1.761610 0.000000 0.000000 
#    y 0.000000 1.750450 0.000000 
#    z 0.000000 0.000000 1.753630 
# 
# From -- ./inp_files/26790.got.cif
#   From: 2010.05.17/outbox.cif.g08.bks.cpg/sg58_14_cif.got.tgz:26790.got - 2010.06.03 14:20:14.
