data_PCOD9440588
_publ_section_title
;
Structure prediction by ZEFSAII (Michael W. Deem and Ramdas Pophale) SiO2 
 PCOD9440588
Probable space group: P B C M
;
_chemical_formula_sum "Si O2"
_cell_formula_units_Z 40
_cell_length_a 24.000000
_cell_length_b 9.000000
_cell_length_c 9.000000
_cell_angle_alpha 90.000000
_cell_angle_beta 90.000000
_cell_angle_gamma 90.000000
_cell_volume 1944.000000
_symmetry_space_group_name_H-M "P B C M"
_symmetry_group_IT_number 57
_symmetry_cell_setting 'orthorhombic'
loop_
_space_group_symop_operation_xyz
x,y,z
-x,-y,1/2+z
x,1/2-y,-z
-x,1/2+y,1/2-z
-x,-y,-z
x,y,1/2-z
-x,1/2+y,z
x,1/2-y,1/2+z
loop_
_atom_site_type_symbol
_atom_site_label
_atom_site_fract_x
_atom_site_fract_y
_atom_site_fract_z
Si Si1 0.050037 0.586605 0.927994
Si Si2 0.540141 0.101467 0.411672
Si Si3 0.250716 0.406642 0.924195
Si Si4 0.666293 0.410625 0.579181
Si Si5 0.842815 0.089360 0.426196
O O1 0.049106 0.592958 0.750000
O O2 0.048087 0.750000 0.000000
O O3 0.105870 0.511514 0.990729
O O4 0.000000 0.500000 0.000000
O O5 0.545797 0.250000 0.500000
O O6 0.517028 0.130924 0.250000
O O7 0.602516 0.044537 0.402408
O O8 0.500000 0.000000 0.500000
O O9 0.237866 0.407856 0.750000
O O10 0.244098 0.250000 0.000000
O O11 0.310280 0.471697 0.962675
O O12 0.212217 0.511963 0.021991
O O13 0.673047 0.250000 0.500000
O O14 0.689740 0.407103 0.750000
O O15 0.840023 0.250000 0.500000
O O16 0.850848 0.096538 0.250000
#
# Coordination Sequence:
#
# PCOD9440588 Si02
#       5
#     8   8   8   8   8
#     4  11  22  39  61  89 120 155 196 240 288 341
#     4  10  21  37  59  85 116 151 192 236 285 339
#     4  12  25  41  60  86 117 151 190 239 291 343
#     4  10  21  39  61  86 114 151 193 236 283 341
#     4  11  22  40  63  88 117 154 195 237 284 342
#
# _framework density 20.576132000000001
#
# number of rings (size 3 to 8) (size 9 to 14) (size 15 to 20)
#    0.000    1.200    0.000    8.400    0.000    4.000 
#    0.000    4.000    0.000    0.000    0.000    0.000 
#    0.000    0.000    0.000    0.000    0.000    0.000 
#
# Total GULP energy -222742.850397 kJ/mol
# GULP energy per Si atom -5568.571260 kJ/mol
# Density = 2.052930 g / cm^3
# Si number density = 20.576132 Si / 1000 Ang^3
#
#
#
# Elastic Constant Matrix: (Units=GPa)
#
#
# Indices 1 2 3 4 5 6 
#
# 1 55.3826 34.2346 49.7487 0.0000 0.0000 0.0000
# 2 34.2346 12.7882 27.2976 0.0000 0.0000 0.0000
# 3 49.7487 27.2976 205.7944 0.0000 0.0000 0.0000
# 4 0.0000 0.0000 0.0000 18.8944 0.0000 0.0000
# 5 0.0000 0.0000 0.0000 0.0000 40.7579 0.0000
# 6 0.0000 0.0000 0.0000 0.0000 0.0000 19.3381
#
#
#
# Elastic Compliance Matrix: (Units=1/GPa)
#
#
# Indices 1 2 3 4 5 6 
#
# 1 -0.025029 0.075452 -0.003958 0.000000 0.000000 0.000000
# 2 0.075452 -0.118373 -0.002538 0.000000 0.000000 0.000000
# 3 -0.003958 -0.002538 0.006153 0.000000 0.000000 0.000000
# 4 0.000000 0.000000 0.000000 0.052926 0.000000 0.000000
# 5 0.000000 0.000000 0.000000 0.000000 0.024535 0.000000
# 6 0.000000 0.000000 0.000000 0.000000 0.000000 0.051711
#
#
# Mechanical properties :
#
#
# Convention : Reuss Voigt Hill
#
# Bulk Modulus (GPa) = 1509.56201 55.16967 782.36584
# Shear Modulus (GPa) = -34.30080 26.64372 -3.82854
#
# Velocity S-wave (km/s) = -4.08734 3.60235 -1.36554
# Velocity P-wave (km/s) = 26.70140 6.64630 19.45685
#
# Compressibility (1/GPa) = 0.00066244
#
# Stress axis : x y z
#
# Youngs Moduli (GPa) = -39.95358 -8.44784 162.53158
#
# Poissons Ratio (x) = 0.63741 0.64327
# Poissons Ratio (y) = 3.01458 0.41253
# Poissons Ratio (z) = -0.15813 -0.02144
#
# Static dielectric constant tensor:
#      x y z
#    x 2.132920 0.000000 0.000000 
#    y 0.000000 1.665400 0.000000 
#    z 0.000000 0.000000 1.694140 
# 
# From -- ./inp_files/8882.got.cif
#   From: 2010.05.17/outbox.ucp.g08.bks.cvg/sg57_5_cif.got.tgz:8882.got - 2010.06.11 16:39:23.
