data_PCOD9440455
_publ_section_title
;
Structure prediction by ZEFSAII (Michael W. Deem and Ramdas Pophale) SiO2 
 PCOD9440455
Probable space group: P B C M
;
_chemical_formula_sum "Si O2"
_cell_formula_units_Z 64
_cell_length_a 21.000000
_cell_length_b 18.000000
_cell_length_c 9.000000
_cell_angle_alpha 90.000000
_cell_angle_beta 90.000000
_cell_angle_gamma 90.000000
_cell_volume 3402.000000
_symmetry_space_group_name_H-M "P B C M"
_symmetry_group_IT_number 57
_symmetry_cell_setting 'orthorhombic'
loop_
_space_group_symop_operation_xyz
x,y,z
-x,-y,1/2+z
x,1/2-y,-z
-x,1/2+y,1/2-z
-x,-y,-z
x,y,1/2-z
-x,1/2+y,z
x,1/2-y,1/2+z
loop_
_atom_site_type_symbol
_atom_site_label
_atom_site_fract_x
_atom_site_fract_y
_atom_site_fract_z
Si Si1 0.984764 0.578622 0.422385
Si Si2 0.611376 0.683264 0.424834
Si Si3 0.726742 0.618698 0.576790
Si Si4 0.184753 0.923468 0.916428
Si Si5 0.137629 0.094413 0.586448
Si Si6 0.696748 0.465642 0.426585
Si Si7 0.911855 0.325733 0.423035
Si Si8 0.435204 0.016293 0.076311
O O1 0.999733 0.572028 0.250000
O O2 0.912267 0.598506 0.455999
O O3 0.000000 0.500000 0.500000
O O4 0.026251 0.642144 0.497181
O O5 0.572898 0.750000 0.500000
O O6 0.623181 0.694785 0.250000
O O7 0.674633 0.676066 0.524824
O O8 0.580086 0.602964 0.442635
O O9 0.716252 0.595760 0.750000
O O10 0.799682 0.643551 0.567858
O O11 0.717810 0.550349 0.462757
O O12 0.175261 0.892952 0.750000
O O13 0.163530 0.009596 0.909738
O O14 0.256757 0.917926 0.972181
O O15 0.141757 0.885439 0.039237
O O16 0.108211 0.108399 0.750000
O O17 0.702751 0.451666 0.250000
O O18 0.623802 0.466363 0.476707
O O19 0.892362 0.250000 0.500000
O O20 0.922141 0.316504 0.250000
O O21 0.439827 0.001961 0.250000
O O22 0.500000 0.000000 0.000000
#
# Coordination Sequence:
#
# PCOD9440455 Si02
#       8
#     8   8   8   8   8   8   8   8
#     4  12  23  36  56  81 109 143 187 232 279 334
#     4  10  20  34  52  77 108 143 184 225 271 327
#     4   9  17  30  49  74 104 136 171 215 263 313
#     4  10  19  33  55  81 107 136 176 221 269 324
#     4   9  18  32  52  78 107 135 175 223 268 318
#     4   9  17  30  49  77 109 137 172 217 265 312
#     4  12  25  41  59  79 108 143 180 230 288 343
#     4   9  19  33  52  80 113 147 185 229 271 321
#
# _framework density 18.812463000000001
#
# number of rings (size 3 to 8) (size 9 to 14) (size 15 to 20)
#    0.000    2.000    1.250    5.250    0.000    5.500 
#    0.000    0.625    0.000    3.750    0.000    1.750 
#    0.000    0.000    0.000    0.000    0.000    0.000 
#
# Total GULP energy -356385.266821 kJ/mol
# GULP energy per Si atom -5568.519794 kJ/mol
# Density = 1.876965 g / cm^3
# Si number density = 18.812463 Si / 1000 Ang^3
#
#
#
# Elastic Constant Matrix: (Units=GPa)
#
#
# Indices 1 2 3 4 5 6 
#
# 1 89.3892 4.7815 35.7749 0.0000 0.0000 0.0000
# 2 4.7815 -0.7987 17.5121 0.0000 0.0000 0.0000
# 3 35.7749 17.5121 87.3307 0.0000 0.0000 0.0000
# 4 0.0000 0.0000 0.0000 22.4473 0.0000 0.0000
# 5 0.0000 0.0000 0.0000 0.0000 26.1832 0.0000
# 6 0.0000 0.0000 0.0000 0.0000 0.0000 10.3790
#
#
#
# Elastic Compliance Matrix: (Units=1/GPa)
#
#
# Indices 1 2 3 4 5 6 
#
# 1 0.013147 -0.007297 -0.003923 0.000000 0.000000 0.000000
# 2 -0.007297 -0.227950 0.048699 0.000000 0.000000 0.000000
# 3 -0.003923 0.048699 0.003292 0.000000 0.000000 0.000000
# 4 0.000000 0.000000 0.000000 0.044549 0.000000 0.000000
# 5 0.000000 0.000000 0.000000 0.000000 0.038192 0.000000
# 6 0.000000 0.000000 0.000000 0.000000 0.000000 0.096348
#
#
# Mechanical properties :
#
#
# Convention : Reuss Voigt Hill
#
# Bulk Modulus (GPa) = -7.32324 32.45090 12.56383
# Shear Modulus (GPa) = -32.70153 19.65876 -6.52139
#
# Velocity S-wave (km/s) = -4.17380 3.23613 -1.86388
# Velocity P-wave (km/s) = 5.20853 5.59022 1.43558
#
# Compressibility (1/GPa) = -0.13655158
#
# Stress axis : x y z
#
# Youngs Moduli (GPa) = 76.06183 -4.38692 303.75466
#
# Poissons Ratio (x) = -0.03201 1.19148
# Poissons Ratio (y) = 0.55502 -14.79259
# Poissons Ratio (z) = 0.29835 0.21364
#
# Static dielectric constant tensor:
#      x y z
#    x 1.717540 0.000000 0.000000 
#    y 0.000000 1.823810 0.000000 
#    z 0.000000 0.000000 1.649170 
# 
# From -- ./inp_files/8470.got.cif
#   From: 2010.05.17/outbox.ucp.g08.bks.cvg/sg57_5_cif.got.tgz:8470.got - 2010.06.11 16:39:23.
