data_PCOD9440732
_publ_section_title
;
Structure prediction by ZEFSAII (Michael W. Deem and Ramdas Pophale) SiO2 
 PCOD9440732
Probable space group: P N N M
;
_chemical_formula_sum "Si O2"
_cell_formula_units_Z 48
_cell_length_a 25.464576
_cell_length_b 5.600548
_cell_length_c 14.339155
_cell_angle_alpha 90.000000
_cell_angle_beta 90.000000
_cell_angle_gamma 90.000000
_cell_volume 2044.986910
_symmetry_space_group_name_H-M "P N N M"
_symmetry_group_IT_number 58
_symmetry_cell_setting 'orthorhombic'
loop_
_space_group_symop_operation_xyz
x,y,z
-x,-y,z
1/2+x,1/2-y,1/2-z
1/2-x,1/2+y,1/2-z
-x,-y,-z
x,y,-z
1/2-x,1/2+y,1/2+z
1/2+x,1/2-y,1/2+z
loop_
_atom_site_type_symbol
_atom_site_label
_atom_site_fract_x
_atom_site_fract_y
_atom_site_fract_z
Si Si1 0.341500 0.817523 0.866212
Si Si2 0.205305 0.813605 0.356298
Si Si3 0.330130 0.805989 0.356589
Si Si4 0.637772 0.698514 0.332338
Si Si5 0.016216 0.763821 0.797978
Si Si6 0.038325 0.280214 0.599472
O O1 0.318432 0.560672 0.895660
O O2 0.340424 0.809017 0.754335
O O3 0.401544 0.846667 0.891853
O O4 0.312511 0.058415 0.895896
O O5 0.267598 0.817515 0.366577
O O6 0.183035 0.807316 0.249027
O O7 0.354454 0.551942 0.385960
O O8 0.353729 0.057685 0.389463
O O9 0.579511 0.720703 0.286802
O O10 0.000000 0.500000 0.833358
O O11 0.981607 0.792514 0.702461
O O12 0.000000 0.000000 0.855352
O O13 0.038250 0.142012 0.500000
O O14 0.000000 0.500000 0.586842
#
# Coordination Sequence:
#
# PCOD9440732 Si02
#       6
#     8   8   8   8   8   8
#     4  10  18  30  44  61  81 104 136 179 227 268
#     4  10  17  28  45  63  80  98 123 167 234 285
#     4  10  17  27  43  63  81  98 122 165 232 283
#     4  10  17  26  40  58  80 101 127 165 213 264
#     4  11  20  32  44  58  79 111 149 186 223 256
#     4  10  21  35  48  62  84 119 162 201 234 261
#
# _framework density 23.472031000000001
#
# number of rings (size 3 to 8) (size 9 to 14) (size 15 to 20)
#    0.000    1.833    0.000   12.000    0.000    0.333 
#    0.000    4.167    0.000    0.000    0.000    0.000 
#    0.000    0.000    0.000    0.000    0.000    0.000 
#
# Total GULP energy -267331.954669 kJ/mol
# GULP energy per Si atom -5569.415722 kJ/mol
# Density = 2.341861 g / cm^3
# Si number density = 23.472031 Si / 1000 Ang^3
#
#
#
# Elastic Constant Matrix: (Units=GPa)
#
#
# Indices 1 2 3 4 5 6 
#
# 1 174.6305 55.8641 11.1395 0.0000 0.0000 0.0000
# 2 55.8641 247.6351 12.3072 0.0000 0.0000 0.0000
# 3 11.1395 12.3072 54.8872 0.0000 0.0000 0.0000
# 4 0.0000 0.0000 0.0000 44.1084 0.0000 0.0000
# 5 0.0000 0.0000 0.0000 0.0000 70.3510 0.0000
# 6 0.0000 0.0000 0.0000 0.0000 0.0000 44.7564
#
#
#
# Elastic Compliance Matrix: (Units=1/GPa)
#
#
# Indices 1 2 3 4 5 6 
#
# 1 0.006221 -0.001356 -0.000959 0.000000 0.000000 0.000000
# 2 -0.001356 0.004379 -0.000707 0.000000 0.000000 0.000000
# 3 -0.000959 -0.000707 0.018572 0.000000 0.000000 0.000000
# 4 0.000000 0.000000 0.000000 0.022671 0.000000 0.000000
# 5 0.000000 0.000000 0.000000 0.000000 0.014214 0.000000
# 6 0.000000 0.000000 0.000000 0.000000 0.000000 0.022343
#
#
# Mechanical properties :
#
#
# Convention : Reuss Voigt Hill
#
# Bulk Modulus (GPa) = 43.23342 70.64160 56.93751
# Shear Modulus (GPa) = 48.94563 58.36594 53.65579
#
# Velocity S-wave (km/s) = 4.57143 4.99201 4.78634
# Velocity P-wave (km/s) = 6.80611 7.96168 7.40646
#
# Compressibility (1/GPa) = 0.02313026
#
# Stress axis : x y z
#
# Youngs Moduli (GPa) = 160.73944 228.35306 53.84391
#
# Poissons Ratio (x) = 0.30960 0.05162
# Poissons Ratio (y) = 0.21793 0.03806
# Poissons Ratio (z) = 0.15409 0.16139
#
# Static dielectric constant tensor:
#      x y z
#    x 1.814220 0.000000 0.000000 
#    y 0.000000 2.003910 0.000000 
#    z 0.000000 0.000000 1.820290 
# 
# From -- ./inp_files/27624.got.cif
#   From: 2010.05.17/outbox.cif.g08.bks.cpg/sg58_14_cif.got.tgz:27624.got - 2010.06.03 14:20:14.
