data_PCOD9440560
_publ_section_title
;
Structure prediction by ZEFSAII (Michael W. Deem and Ramdas Pophale) SiO2 
 PCOD9440560
Probable space group: P B C M
;
_chemical_formula_sum "Si O2"
_cell_formula_units_Z 40
_cell_length_a 15.000000
_cell_length_b 15.000000
_cell_length_c 9.000000
_cell_angle_alpha 90.000000
_cell_angle_beta 90.000000
_cell_angle_gamma 90.000000
_cell_volume 2025.000000
_symmetry_space_group_name_H-M "P B C M"
_symmetry_group_IT_number 57
_symmetry_cell_setting 'orthorhombic'
loop_
_space_group_symop_operation_xyz
x,y,z
-x,-y,1/2+z
x,1/2-y,-z
-x,1/2+y,1/2-z
-x,-y,-z
x,y,1/2-z
-x,1/2+y,z
x,1/2-y,1/2+z
loop_
_atom_site_type_symbol
_atom_site_label
_atom_site_fract_x
_atom_site_fract_y
_atom_site_fract_z
Si Si1 0.455271 0.849249 0.571298
Si Si2 0.817843 0.521668 0.424299
Si Si3 0.054138 0.160463 0.571270
Si Si4 0.857266 0.340540 0.929014
Si Si5 0.618250 0.524528 0.076492
O O1 0.444244 0.750000 0.500000
O O2 0.446385 0.840638 0.750000
O O3 0.550924 0.895858 0.533964
O O4 0.393781 0.931634 0.512985
O O5 0.844794 0.517243 0.250000
O O6 0.886913 0.577811 0.520589
O O7 0.811797 0.424731 0.496781
O O8 0.718594 0.559627 0.433776
O O9 0.095323 0.250000 0.500000
O O10 0.044323 0.166492 0.750000
O O11 0.958768 0.152840 0.489941
O O12 0.854792 0.339344 0.750000
O O13 0.819619 0.250000 0.000000
O O14 0.599987 0.502751 0.250000
#
# Coordination Sequence:
#
# PCOD9440560 Si02
#       5
#     8   8   8   8   8
#     4  10  20  37  61  85 111 145 182 223 274 330
#     4  11  22  38  58  83 115 148 185 231 281 330
#     4  11  22  38  58  82 112 149 191 233 279 329
#     4  11  22  38  58  82 111 148 192 234 280 330
#     4   9  21  39  58  83 113 145 184 228 272 326
#
# _framework density 19.753086
#
# number of rings (size 3 to 8) (size 9 to 14) (size 15 to 20)
#    0.000    1.600    0.000    6.600    0.000    4.000 
#    0.000    2.000    0.000    0.000    0.000    0.000 
#    0.000    0.000    0.000    0.000    0.000    0.000 
#
# Total GULP energy -223207.224085 kJ/mol
# GULP energy per Si atom -5580.180602 kJ/mol
# Density = 1.970813 g / cm^3
# Si number density = 19.753086 Si / 1000 Ang^3
#
#
#
# Elastic Constant Matrix: (Units=GPa)
#
#
# Indices 1 2 3 4 5 6 
#
# 1 34.4703 -2.4383 -1.6288 0.0000 0.0000 0.0000
# 2 -2.4383 56.5855 3.2031 0.0000 0.0000 0.0000
# 3 -1.6288 3.2031 115.0026 0.0000 0.0000 0.0000
# 4 0.0000 0.0000 0.0000 39.4317 0.0000 0.0000
# 5 0.0000 0.0000 0.0000 0.0000 15.0434 0.0000
# 6 0.0000 0.0000 0.0000 0.0000 0.0000 -51.8900
#
#
#
# Elastic Compliance Matrix: (Units=1/GPa)
#
#
# Indices 1 2 3 4 5 6 
#
# 1 0.029116 0.001233 0.000378 0.000000 0.000000 0.000000
# 2 0.001233 0.017753 -0.000477 0.000000 0.000000 0.000000
# 3 0.000378 -0.000477 0.008714 0.000000 0.000000 0.000000
# 4 0.000000 0.000000 0.000000 0.025360 0.000000 0.000000
# 5 0.000000 0.000000 0.000000 0.000000 0.066474 0.000000
# 6 0.000000 0.000000 0.000000 0.000000 0.000000 -0.019272
#
#
# Mechanical properties :
#
#
# Convention : Reuss Voigt Hill
#
# Bulk Modulus (GPa) = 17.28589 22.70337 19.99463
# Shear Modulus (GPa) = 34.44468 14.31187 24.37828
#
# Velocity S-wave (km/s) = 4.18037 2.69464 3.51686
# Velocity P-wave (km/s) = 5.66309 4.60435 5.16094
#
# Compressibility (1/GPa) = 0.05785066
#
# Stress axis : x y z
#
# Youngs Moduli (GPa) = 34.34591 56.33009 114.75666
#
# Poissons Ratio (x) = -0.06947 -0.04338
# Poissons Ratio (y) = -0.04236 0.05474
# Poissons Ratio (z) = -0.01298 0.02687
#
# Static dielectric constant tensor:
#      x y z
#    x 1.735420 0.000000 0.000000 
#    y 0.000000 1.762570 0.000000 
#    z 0.000000 0.000000 1.662970 
# 
# From -- ./inp_files/4272.got.cif
#   From: 2010.05.17/outbox.ucp.g08.bks.cvg/sg57_3_cif.got.tgz:4272.got - 2010.06.11 16:39:23.
