data_PCOD9440831
_publ_section_title
;
Structure prediction by ZEFSAII (Michael W. Deem and Ramdas Pophale) SiO2 
 PCOD9440831
Probable space group: P N N M
;
_chemical_formula_sum "Si O2"
_cell_formula_units_Z 64
_cell_length_a 21.400973
_cell_length_b 20.376412
_cell_length_c 7.590197
_cell_angle_alpha 90.000000
_cell_angle_beta 90.000000
_cell_angle_gamma 90.000000
_cell_volume 3309.895484
_symmetry_space_group_name_H-M "P N N M"
_symmetry_group_IT_number 58
_symmetry_cell_setting 'orthorhombic'
loop_
_space_group_symop_operation_xyz
x,y,z
-x,-y,z
1/2+x,1/2-y,1/2-z
1/2-x,1/2+y,1/2-z
-x,-y,-z
x,y,-z
1/2-x,1/2+y,1/2+z
1/2+x,1/2-y,1/2+z
loop_
_atom_site_type_symbol
_atom_site_label
_atom_site_fract_x
_atom_site_fract_y
_atom_site_fract_z
Si Si1 0.432060 0.702316 0.282978
Si Si2 0.191790 0.711220 0.785982
Si Si3 0.377625 0.417892 0.206189
Si Si4 0.232633 0.570851 0.208741
Si Si5 0.568535 0.716966 0.297470
Si Si6 0.379621 0.564573 0.289335
Si Si7 0.266920 0.926647 0.716195
Si Si8 0.682414 0.208691 0.709169
O O1 0.432246 0.701845 0.500000
O O2 0.499744 0.725876 0.220402
O O3 0.418460 0.627408 0.227381
O O4 0.375446 0.748725 0.222655
O O5 0.201157 0.636760 0.720836
O O6 0.128521 0.745709 0.720370
O O7 0.252882 0.752614 0.735786
O O8 0.190617 0.710884 0.000000
O O9 0.416500 0.360634 0.295546
O O10 0.400397 0.492503 0.228582
O O11 0.305503 0.416486 0.269888
O O12 0.377106 0.402233 0.000000
O O13 0.307503 0.574876 0.233418
O O14 0.213260 0.499110 0.277089
O O15 0.220545 0.570254 0.000000
O O16 0.564628 0.739116 0.500000
O O17 0.380887 0.563826 0.500000
O O18 0.266619 0.927153 0.500000
O O19 0.307417 0.865070 0.777499
O O20 0.672444 0.202897 0.500000
#
# Coordination Sequence:
#
# PCOD9440831 Si02
#       8
#     8   8   8   8   8   8   8   8
#     4   9  19  32  48  69  96 129 165 202 242 288
#     4  10  19  30  49  72  97 126 158 205 248 283
#     4  10  19  32  48  70  98 130 162 200 243 288
#     4   9  17  30  46  71 100 125 154 196 250 290
#     4  10  20  34  48  68  97 132 167 200 243 291
#     4  10  18  30  48  70  95 129 165 200 236 285
#     4   8  15  27  47  69  92 119 150 192 238 284
#     4  10  17  31  52  71  91 122 165 204 237 287
#
# _framework density 19.335957000000001
#
# number of rings (size 3 to 8) (size 9 to 14) (size 15 to 20)
#    0.000    2.500    2.500    1.500    0.000    0.500 
#    0.000    4.375    0.000    0.750    0.000    5.250 
#    0.000    0.000    0.000    6.625    0.000    8.000 
#
# Total GULP energy -357023.758807 kJ/mol
# GULP energy per Si atom -5578.496231 kJ/mol
# Density = 1.929195 g / cm^3
# Si number density = 19.335957 Si / 1000 Ang^3
#
#
#
# Elastic Constant Matrix: (Units=GPa)
#
#
# Indices 1 2 3 4 5 6 
#
# 1 121.3797 81.1491 -11.2460 0.0000 0.0000 0.0000
# 2 81.1491 165.7227 -15.2467 0.0000 0.0000 0.0000
# 3 -11.2460 -15.2467 43.7873 0.0000 0.0000 0.0000
# 4 0.0000 0.0000 0.0000 10.7198 0.0000 0.0000
# 5 0.0000 0.0000 0.0000 0.0000 11.1416 0.0000
# 6 0.0000 0.0000 0.0000 0.0000 0.0000 26.6198
#
#
#
# Elastic Compliance Matrix: (Units=1/GPa)
#
#
# Indices 1 2 3 4 5 6 
#
# 1 0.012299 -0.005922 0.001097 0.000000 0.000000 0.000000
# 2 -0.005922 0.009085 0.001642 0.000000 0.000000 0.000000
# 3 0.001097 0.001642 0.023691 0.000000 0.000000 0.000000
# 4 0.000000 0.000000 0.000000 0.093285 0.000000 0.000000
# 5 0.000000 0.000000 0.000000 0.000000 0.089754 0.000000
# 6 0.000000 0.000000 0.000000 0.000000 0.000000 0.037566
#
#
# Mechanical properties :
#
#
# Convention : Reuss Voigt Hill
#
# Bulk Modulus (GPa) = 25.83243 48.91140 37.37192
# Shear Modulus (GPa) = 17.54707 28.11181 22.82944
#
# Velocity S-wave (km/s) = 3.01572 3.81709 3.43982
# Velocity P-wave (km/s) = 5.05122 6.69159 5.92842
#
# Compressibility (1/GPa) = 0.03871103
#
# Stress axis : x y z
#
# Youngs Moduli (GPa) = 81.30642 110.07279 42.20960
#
# Poissons Ratio (x) = 0.65181 -0.04630
# Poissons Ratio (y) = 0.48146 -0.06933
# Poissons Ratio (z) = -0.08919 -0.18079
#
# Static dielectric constant tensor:
#      x y z
#    x 1.656270 0.000000 0.000000 
#    y 0.000000 1.695110 0.000000 
#    z 0.000000 0.000000 1.731860 
# 
# From -- ./inp_files/8403.got.cif
#   From: 2010.05.17/outbox.cif.g08.bks.cpg/sg58_5_cif.got.tgz:8403.got - 2010.06.03 14:20:14.
