data_PCOD9440412
_publ_section_title
;
Structure prediction by ZEFSAII (Michael W. Deem and Ramdas Pophale) SiO2 
 PCOD9440412
Probable space group: P B C M
;
_chemical_formula_sum "Si O2"
_cell_formula_units_Z 36
_cell_length_a 21.000000
_cell_length_b 9.000000
_cell_length_c 9.000000
_cell_angle_alpha 90.000000
_cell_angle_beta 90.000000
_cell_angle_gamma 90.000000
_cell_volume 1701.000000
_symmetry_space_group_name_H-M "P B C M"
_symmetry_group_IT_number 57
_symmetry_cell_setting 'orthorhombic'
loop_
_space_group_symop_operation_xyz
x,y,z
-x,-y,1/2+z
x,1/2-y,-z
-x,1/2+y,1/2-z
-x,-y,-z
x,y,1/2-z
-x,1/2+y,z
x,1/2-y,1/2+z
loop_
_atom_site_type_symbol
_atom_site_label
_atom_site_fract_x
_atom_site_fract_y
_atom_site_fract_z
Si Si1 0.822743 0.587500 0.929298
Si Si2 0.594299 0.250000 0.500000
Si Si3 0.940111 0.413088 0.430252
Si Si4 0.511120 0.094520 0.250000
Si Si5 0.590653 0.809559 0.250000
Si Si6 0.321543 0.506556 0.419823
O O1 0.832559 0.590533 0.750000
O O2 0.750625 0.531354 0.956461
O O3 0.828426 0.750000 0.000000
O O4 0.875332 0.487636 0.009858
O O5 0.547029 0.168776 0.387841
O O6 0.643432 0.384286 0.466837
O O7 0.942773 0.250000 0.500000
O O8 0.942553 0.412286 0.250000
O O9 0.000000 0.500000 0.500000
O O10 0.438331 0.146464 0.250000
O O11 0.529509 0.921662 0.250000
O O12 0.634763 0.862658 0.113532
O O13 0.321698 0.577017 0.250000
#
# Coordination Sequence:
#
# PCOD9440412 Si02
#       6
#     8   4   8   4   4   8
#     4  11  23  44  66  96 138 179 224 281 336 402
#     4  10  18  38  54  84 112 164 202 268 334 392
#     4  12  26  47  74 109 142 185 228 277 333 393
#     4  10  20  34  58  78 116 151 207 260 332 394
#     4   8  18  40  52  88 114 163 205 274 338 390
#     4   8  19  38  56  81 126 160 209 267 326 392
#
# _framework density 21.164021000000002
#
# number of rings (size 3 to 8) (size 9 to 14) (size 15 to 20)
#    0.667    1.333    1.111    3.333    1.556    3.556 
#   10.000    0.000    0.000    0.000    0.000    0.000 
#    0.000    0.000    0.000    0.000    0.000    0.000 
#
# Total GULP energy -200826.463187 kJ/mol
# GULP energy per Si atom -5578.512866 kJ/mol
# Density = 2.111585 g / cm^3
# Si number density = 21.164021 Si / 1000 Ang^3
#
#
#
# Elastic Constant Matrix: (Units=GPa)
#
#
# Indices 1 2 3 4 5 6 
#
# 1 161.4068 66.8848 25.3190 0.0000 0.0000 0.0000
# 2 66.8848 91.8107 34.2759 0.0000 0.0000 0.0000
# 3 25.3190 34.2759 90.6734 0.0000 0.0000 0.0000
# 4 0.0000 0.0000 0.0000 28.8084 0.0000 0.0000
# 5 0.0000 0.0000 0.0000 0.0000 4.8052 0.0000
# 6 0.0000 0.0000 0.0000 0.0000 0.0000 36.7767
#
#
#
# Elastic Compliance Matrix: (Units=1/GPa)
#
#
# Indices 1 2 3 4 5 6 
#
# 1 0.008875 -0.006450 -0.000040 0.000000 0.000000 0.000000
# 2 -0.006450 0.017370 -0.004765 0.000000 0.000000 0.000000
# 3 -0.000040 -0.004765 0.012841 0.000000 0.000000 0.000000
# 4 0.000000 0.000000 0.000000 0.034712 0.000000 0.000000
# 5 0.000000 0.000000 0.000000 0.000000 0.208107 0.000000
# 6 0.000000 0.000000 0.000000 0.000000 0.000000 0.027191
#
#
# Mechanical properties :
#
#
# Convention : Reuss Voigt Hill
#
# Bulk Modulus (GPa) = 60.33040 66.31668 63.32354
# Shear Modulus (GPa) = 14.83101 28.57215 21.70158
#
# Velocity S-wave (km/s) = 2.65007 3.67827 3.20566
# Velocity P-wave (km/s) = 6.15888 7.03151 6.60961
#
# Compressibility (1/GPa) = 0.01657539
#
# Stress axis : x y z
#
# Youngs Moduli (GPa) = 112.67914 57.57009 77.87599
#
# Poissons Ratio (x) = 0.37136 0.00310
# Poissons Ratio (y) = 0.72684 0.37108
# Poissons Ratio (z) = 0.00448 0.27432
#
# Static dielectric constant tensor:
#      x y z
#    x 1.769550 0.000000 0.000000 
#    y 0.000000 1.799240 0.000000 
#    z 0.000000 0.000000 1.812490 
# 
# From -- ./inp_files/7705.got.cif
#   From: 2010.05.17/outbox.ucp.g08.bks.cvg/sg57_4_cif.got.tgz:7705.got - 2010.06.11 16:39:23.
