data_PCOD9440428
_publ_section_title
;
Structure prediction by ZEFSAII (Michael W. Deem and Ramdas Pophale) SiO2 
 PCOD9440428
Probable space group: P B C M
;
_chemical_formula_sum "Si O2"
_cell_formula_units_Z 56
_cell_length_a 21.000000
_cell_length_b 15.000000
_cell_length_c 9.000000
_cell_angle_alpha 90.000000
_cell_angle_beta 90.000000
_cell_angle_gamma 90.000000
_cell_volume 2835.000000
_symmetry_space_group_name_H-M "P B C M"
_symmetry_group_IT_number 57
_symmetry_cell_setting 'orthorhombic'
loop_
_space_group_symop_operation_xyz
x,y,z
-x,-y,1/2+z
x,1/2-y,-z
-x,1/2+y,1/2-z
-x,-y,-z
x,y,1/2-z
-x,1/2+y,z
x,1/2-y,1/2+z
loop_
_atom_site_type_symbol
_atom_site_label
_atom_site_fract_x
_atom_site_fract_y
_atom_site_fract_z
Si Si1 0.860476 0.977423 0.571797
Si Si2 0.375462 0.840413 0.422136
Si Si3 0.373766 0.463906 0.570238
Si Si4 0.032999 0.342260 0.571904
Si Si5 0.116807 0.658365 0.073189
Si Si6 0.745514 0.845249 0.927439
Si Si7 0.529236 0.657827 0.922627
O O1 0.862453 0.991460 0.750000
O O2 0.925306 0.926859 0.524957
O O3 0.803957 0.909686 0.536578
O O4 0.851102 0.070879 0.492093
O O5 0.353913 0.750000 0.500000
O O6 0.357250 0.834628 0.250000
O O7 0.452654 0.844638 0.431369
O O8 0.355081 0.936911 0.481672
O O9 0.379407 0.467556 0.750000
O O10 0.319355 0.394201 0.527958
O O11 0.438514 0.425529 0.502906
O O12 0.056521 0.250000 0.500000
O O13 0.038684 0.334496 0.750000
O O14 0.958585 0.351383 0.534280
O O15 0.122382 0.663139 0.250000
O O16 0.139625 0.750000 0.000000
O O17 0.744269 0.834812 0.750000
O O18 0.752353 0.750000 0.000000
O O19 0.547271 0.658842 0.750000
O O20 0.550166 0.750000 0.000000
#
# Coordination Sequence:
#
# PCOD9440428 Si02
#       7
#     8   8   8   8   8   8   8
#     4  10  20  35  53  75 104 138 173 213 257 301
#     4   9  19  34  52  75 104 134 168 211 258 305
#     4  10  20  35  53  75 104 138 173 212 255 300
#     4   9  18  31  50  77 107 136 169 210 258 307
#     4  10  20  34  53  78 105 135 170 211 257 308
#     4  10  22  38  56  77 104 136 171 210 252 298
#     4  10  19  31  50  77 105 135 169 209 257 309
#
# _framework density 19.753086
#
# number of rings (size 3 to 8) (size 9 to 14) (size 15 to 20)
#    0.000    2.286    0.000    2.571    0.000    4.571 
#    0.000    0.714    0.000    1.714    0.000    0.000 
#    0.000    0.000    0.000    0.000    0.000    0.000 
#
# Total GULP energy -312625.882570 kJ/mol
# GULP energy per Si atom -5582.605046 kJ/mol
# Density = 1.970813 g / cm^3
# Si number density = 19.753086 Si / 1000 Ang^3
#
#
#
# Elastic Constant Matrix: (Units=GPa)
#
#
# Indices 1 2 3 4 5 6 
#
# 1 16.6160 25.7088 19.6456 0.0000 0.0000 0.0000
# 2 25.7088 178.6498 50.7246 0.0000 0.0000 0.0000
# 3 19.6456 50.7246 22.6931 0.0000 0.0000 0.0000
# 4 0.0000 0.0000 0.0000 37.0352 0.0000 0.0000
# 5 0.0000 0.0000 0.0000 0.0000 9.0165 0.0000
# 6 0.0000 0.0000 0.0000 0.0000 0.0000 -0.0663
#
#
#
# Elastic Compliance Matrix: (Units=1/GPa)
#
#
# Indices 1 2 3 4 5 6 
#
# 1 -0.182864 -0.051002 0.272310 0.000000 0.000000 0.000000
# 2 -0.051002 0.001096 0.041702 0.000000 0.000000 0.000000
# 3 0.272310 0.041702 -0.284889 0.000000 0.000000 0.000000
# 4 0.000000 0.000000 0.000000 0.027001 0.000000 0.000000
# 5 0.000000 0.000000 0.000000 0.000000 0.110907 0.000000
# 6 0.000000 0.000000 0.000000 0.000000 0.000000-15.083727
#
#
# Mechanical properties :
#
#
# Convention : Reuss Voigt Hill
#
# Bulk Modulus (GPa) = 16.84573 45.56855 31.20714
# Shear Modulus (GPa) = -0.31410 17.32241 8.50416
#
# Velocity S-wave (km/s) = -0.39919 2.96454 2.07716
# Velocity P-wave (km/s) = 2.88690 5.90230 4.64604
#
# Compressibility (1/GPa) = 0.05936224
#
# Stress axis : x y z
#
# Youngs Moduli (GPa) = -5.46853 912.05460 -3.51013
#
# Poissons Ratio (x) = 46.51696 0.95584
# Poissons Ratio (y) = -0.27891 0.14638
# Poissons Ratio (z) = 1.48913 -38.03485
#
# Static dielectric constant tensor:
#      x y z
#    x 1.731900 0.000000 0.000000 
#    y 0.000000 1.699770 0.000000 
#    z 0.000000 0.000000 1.659130 
# 
# From -- ./inp_files/8026.got.cif
#   From: 2010.05.17/outbox.ucp.g08.bks.cvg/sg57_5_cif.got.tgz:8026.got - 2010.06.11 16:39:23.
