data_PCOD9440328
_publ_section_title
;
Structure prediction by ZEFSAII (Michael W. Deem and Ramdas Pophale) SiO2 
 PCOD9440328
Probable space group: P B C M
;
_chemical_formula_sum "Si O2"
_cell_formula_units_Z 40
_cell_length_a 13.212448
_cell_length_b 10.534389
_cell_length_c 14.803432
_cell_angle_alpha 90.000000
_cell_angle_beta 90.000000
_cell_angle_gamma 90.000000
_cell_volume 2060.416673
_symmetry_space_group_name_H-M "P B C M"
_symmetry_group_IT_number 57
_symmetry_cell_setting 'orthorhombic'
loop_
_space_group_symop_operation_xyz
x,y,z
-x,-y,1/2+z
x,1/2-y,-z
-x,1/2+y,1/2-z
-x,-y,-z
x,y,1/2-z
-x,1/2+y,z
x,1/2-y,1/2+z
loop_
_atom_site_type_symbol
_atom_site_label
_atom_site_fract_x
_atom_site_fract_y
_atom_site_fract_z
Si Si1 0.903292 0.663964 0.639333
Si Si2 0.523769 0.376460 0.058113
Si Si3 0.710999 0.996647 0.858689
Si Si4 0.937822 0.954353 0.639552
Si Si5 0.320095 0.209837 0.857796
O O1 0.905179 0.662703 0.750000
O O2 0.786190 0.650778 0.609658
O O3 0.973727 0.548439 0.608280
O O4 0.940335 0.805720 0.612182
O O5 0.628928 0.403540 0.108414
O O6 0.423999 0.357345 0.118488
O O7 0.534429 0.250000 0.000000
O O8 0.500000 0.500000 0.000000
O O9 0.709768 0.996540 0.750000
O O10 0.827928 0.010344 0.886459
O O11 0.677675 0.855721 0.890447
O O12 0.940912 0.952759 0.750000
O O13 0.311792 0.214702 0.750000
#
# Coordination Sequence:
#
# PCOD9440328 Si02
#       5
#     8   8   8   8   8
#     4   8  14  27  49  76 104 132 165 209 259 307
#     4  12  23  38  55  76 106 143 179 221 268 314
#     4   9  18  35  57  79 106 140 177 217 262 313
#     4   8  14  27  49  76 104 131 164 211 260 305
#     4   9  18  35  57  79 106 141 178 215 261 317
#
# _framework density 19.413549
#
# number of rings (size 3 to 8) (size 9 to 14) (size 15 to 20)
#    0.000    2.800    2.000    3.000    0.000    0.000 
#    3.600    0.000    0.000    2.400    0.000    0.000 
#    0.000    0.000    0.000    0.000    0.000    0.000 
#
# Total GULP energy -223083.469328 kJ/mol
# GULP energy per Si atom -5577.086733 kJ/mol
# Density = 1.936936 g / cm^3
# Si number density = 19.413549 Si / 1000 Ang^3
#
#
#
# Elastic Constant Matrix: (Units=GPa)
#
#
# Indices 1 2 3 4 5 6 
#
# 1 111.6920 47.3325 16.9578 0.0000 0.0000 0.0000
# 2 47.3325 73.7661 14.5708 0.0000 0.0000 0.0000
# 3 16.9578 14.5708 19.9566 0.0000 0.0000 0.0000
# 4 0.0000 0.0000 0.0000 19.6458 0.0000 0.0000
# 5 0.0000 0.0000 0.0000 0.0000 -1.5664 0.0000
# 6 0.0000 0.0000 0.0000 0.0000 0.0000 42.6702
#
#
#
# Elastic Compliance Matrix: (Units=1/GPa)
#
#
# Indices 1 2 3 4 5 6 
#
# 1 0.012832 -0.007104 -0.005717 0.000000 0.000000 0.000000
# 2 -0.007104 0.019774 -0.008401 0.000000 0.000000 0.000000
# 3 -0.005717 -0.008401 0.061100 0.000000 0.000000 0.000000
# 4 0.000000 0.000000 0.000000 0.050901 0.000000 0.000000
# 5 0.000000 0.000000 0.000000 0.000000 -0.638423 0.000000
# 6 0.000000 0.000000 0.000000 0.000000 0.000000 0.023436
#
#
# Mechanical properties :
#
#
# Convention : Reuss Voigt Hill
#
# Bulk Modulus (GPa) = 19.50744 40.34855 29.92800
# Shear Modulus (GPa) = -12.16992 20.58683 4.20846
#
# Velocity S-wave (km/s) = -2.50647 3.25997 1.47394
# Velocity P-wave (km/s) = 1.30141 5.91597 4.28324
#
# Compressibility (1/GPa) = 0.05126249
#
# Stress axis : x y z
#
# Youngs Moduli (GPa) = 77.93131 50.57052 16.36664
#
# Poissons Ratio (x) = 0.35928 0.09356
# Poissons Ratio (y) = 0.55366 0.13749
# Poissons Ratio (z) = 0.44549 0.42484
#
# Static dielectric constant tensor:
#      x y z
#    x 1.697890 0.000000 0.000000 
#    y 0.000000 1.650850 0.000000 
#    z 0.000000 0.000000 1.723440 
# 
# From -- ./inp_files/17392.got.cif
#   From: 2010.05.17/outbox.cif.g08.bks.cpg/sg57_9_cif.got.tgz:17392.got - 2010.06.03 13:58:18.
