data_PCOD9440010
_publ_section_title
;
Structure prediction by ZEFSAII (Michael W. Deem and Ramdas Pophale) SiO2 
 PCOD9440010
Probable space group: P B C M
;
_chemical_formula_sum "Si O2"
_cell_formula_units_Z 40
_cell_length_a 14.171106
_cell_length_b 18.786196
_cell_length_c 8.431664
_cell_angle_alpha 90.000000
_cell_angle_beta 90.000000
_cell_angle_gamma 90.000000
_cell_volume 2244.687496
_symmetry_space_group_name_H-M "P B C M"
_symmetry_group_IT_number 57
_symmetry_cell_setting 'orthorhombic'
loop_
_space_group_symop_operation_xyz
x,y,z
-x,-y,1/2+z
x,1/2-y,-z
-x,1/2+y,1/2-z
-x,-y,-z
x,y,1/2-z
-x,1/2+y,z
x,1/2-y,1/2+z
loop_
_atom_site_type_symbol
_atom_site_label
_atom_site_fract_x
_atom_site_fract_y
_atom_site_fract_z
Si Si1 0.204640 0.457087 0.558447
Si Si2 0.691317 0.327499 0.059067
Si Si3 0.400086 0.527227 0.558762
Si Si4 0.915357 0.830062 0.439572
Si Si5 0.887292 0.396394 0.443130
O O1 0.202840 0.454864 0.750000
O O2 0.310608 0.478861 0.509139
O O3 0.166933 0.383211 0.492913
O O4 0.136535 0.522717 0.507510
O O5 0.691288 0.327238 0.250000
O O6 0.624410 0.392272 0.006193
O O7 0.797772 0.348456 0.007778
O O8 0.664500 0.250000 0.000000
O O9 0.500000 0.500000 0.500000
O O10 0.400460 0.527190 0.750000
O O11 0.904396 0.750000 0.500000
O O12 0.919086 0.828511 0.250000
O O13 0.014230 0.864251 0.499643
O O14 0.888756 0.396665 0.250000
#
# Coordination Sequence:
#
# PCOD9440010 Si02
#       5
#     8   8   8   8   8
#     4   9  18  35  54  72  97 130 165 206 250 292
#     4   9  17  31  50  75 103 129 157 197 246 294
#     4   9  19  35  55  75  98 128 164 205 250 295
#     4  11  21  32  48  73 103 136 169 202 239 287
#     4   8  16  31  51  73 100 131 164 200 242 290
#
# _framework density 17.819851
#
# number of rings (size 3 to 8) (size 9 to 14) (size 15 to 20)
#    0.000    2.800    0.000    4.200    0.000    1.600 
#    0.000    6.000    0.000    2.400    0.000    0.000 
#    0.000    0.000    0.000    0.000    0.000    0.000 
#
# Total GULP energy -223070.818791 kJ/mol
# GULP energy per Si atom -5576.770470 kJ/mol
# Density = 1.777929 g / cm^3
# Si number density = 17.819851 Si / 1000 Ang^3
#
#
#
# Elastic Constant Matrix: (Units=GPa)
#
#
# Indices 1 2 3 4 5 6 
#
# 1 129.9300 108.3684 24.5740 0.0000 0.0000 0.0000
# 2 108.3684 171.5579 28.1304 0.0000 0.0000 0.0000
# 3 24.5740 28.1304 15.6460 0.0000 0.0000 0.0000
# 4 0.0000 0.0000 0.0000 22.2076 0.0000 0.0000
# 5 0.0000 0.0000 0.0000 0.0000 23.4458 0.0000
# 6 0.0000 0.0000 0.0000 0.0000 0.0000 17.9128
#
#
#
# Elastic Compliance Matrix: (Units=1/GPa)
#
#
# Indices 1 2 3 4 5 6 
#
# 1 0.017458 -0.009262 -0.010767 0.000000 0.000000 0.000000
# 2 -0.009262 0.013180 -0.009149 0.000000 0.000000 0.000000
# 3 -0.010767 -0.009149 0.097274 0.000000 0.000000 0.000000
# 4 0.000000 0.000000 0.000000 0.045030 0.000000 0.000000
# 5 0.000000 0.000000 0.000000 0.000000 0.042652 0.000000
# 6 0.000000 0.000000 0.000000 0.000000 0.000000 0.055826
#
#
# Mechanical properties :
#
#
# Convention : Reuss Voigt Hill
#
# Bulk Modulus (GPa) = 14.37701 71.03104 42.70403
# Shear Modulus (GPa) = 14.16588 23.11731 18.64159
#
# Velocity S-wave (km/s) = 2.82254 3.60568 3.23788
# Velocity P-wave (km/s) = 4.32525 7.56847 6.16399
#
# Compressibility (1/GPa) = 0.06955550
#
# Stress axis : x y z
#
# Youngs Moduli (GPa) = 57.27996 75.87360 10.28024
#
# Poissons Ratio (x) = 0.70277 0.11069
# Poissons Ratio (y) = 0.53055 0.09405
# Poissons Ratio (z) = 0.61674 0.69415
#
# Static dielectric constant tensor:
#      x y z
#    x 1.599620 0.000000 0.000000 
#    y 0.000000 1.598440 0.000000 
#    z 0.000000 0.000000 1.613050 
# 
# From -- ./inp_files/2679.got.cif
#   From: 2010.05.17/outbox.cif.g08.bks.cpg/sg57_2_cif.got.tgz:2679.got - 2010.06.03 13:58:18.
