data_PCOD9440367
_publ_section_title
;
Structure prediction by ZEFSAII (Michael W. Deem and Ramdas Pophale) SiO2 
 PCOD9440367
Probable space group: P B C M
;
_chemical_formula_sum "Si O2"
_cell_formula_units_Z 32
_cell_length_a 4.541400
_cell_length_b 10.846767
_cell_length_c 19.713137
_cell_angle_alpha 90.000000
_cell_angle_beta 90.000000
_cell_angle_gamma 90.000000
_cell_volume 971.059423
_symmetry_space_group_name_H-M "P B C M"
_symmetry_group_IT_number 57
_symmetry_cell_setting 'orthorhombic'
loop_
_space_group_symop_operation_xyz
x,y,z
-x,-y,1/2+z
x,1/2-y,-z
-x,1/2+y,1/2-z
-x,-y,-z
x,y,1/2-z
-x,1/2+y,z
x,1/2-y,1/2+z
loop_
_atom_site_type_symbol
_atom_site_label
_atom_site_fract_x
_atom_site_fract_y
_atom_site_fract_z
Si Si1 0.671540 0.474897 0.431388
Si Si2 0.340322 0.683573 0.672942
Si Si3 0.861872 0.454623 0.829785
Si Si4 0.897154 0.735634 0.421782
O O1 0.500000 0.500000 0.500000
O O2 0.841391 0.342488 0.432334
O O3 0.418043 0.499539 0.374193
O O4 0.914366 0.582376 0.422216
O O5 0.451401 0.691237 0.750000
O O6 0.619101 0.727264 0.626388
O O7 0.117179 0.561855 0.674288
O O8 0.763327 0.454365 0.750000
O O9 0.882050 0.302156 0.838858
O O10 0.768798 0.750000 0.500000
#
# Coordination Sequence:
#
# PCOD9440367 Si02
#       4
#     8   8   8   8
#     4   9  17  28  51  82 113 146 182 230 293 347
#     4   8  15  29  52  79 106 143 188 235 286 336
#     4   7  15  29  50  77 108 146 186 235 288 334
#     4   8  17  30  49  80 111 144 188 237 287 338
#
# _framework density 32.953699999999998
#
# number of rings (size 3 to 8) (size 9 to 14) (size 15 to 20)
#    3.000    0.500    0.000    0.750    0.000    1.000 
#    0.000    1.250    0.000    6.000    0.000   12.250 
#    0.000    0.000    0.000    0.000    0.000    0.250 
#
# Total GULP energy -178798.163146 kJ/mol
# GULP energy per Si atom -5587.442598 kJ/mol
# Density = 3.287870 g / cm^3
# Si number density = 32.953700 Si / 1000 Ang^3
#
#
#
# Elastic Constant Matrix: (Units=GPa)
#
#
# Indices 1 2 3 4 5 6 
#
# 1 320.1960 113.3572 188.9886 0.0000 0.0000 0.0000
# 2 113.3572 233.8826 139.0089 0.0000 0.0000 0.0000
# 3 188.9886 139.0089 293.5773 0.0000 0.0000 0.0000
# 4 0.0000 0.0000 0.0000 67.2233 0.0000 0.0000
# 5 0.0000 0.0000 0.0000 0.0000 -176.4738 0.0000
# 6 0.0000 0.0000 0.0000 0.0000 0.0000 48.8919
#
#
#
# Elastic Compliance Matrix: (Units=1/GPa)
#
#
# Indices 1 2 3 4 5 6 
#
# 1 0.005124 -0.000728 -0.002954 0.000000 0.000000 0.000000
# 2 -0.000728 0.006054 -0.002398 0.000000 0.000000 0.000000
# 3 -0.002954 -0.002398 0.006443 0.000000 0.000000 0.000000
# 4 0.000000 0.000000 0.000000 0.014876 0.000000 0.000000
# 5 0.000000 0.000000 0.000000 0.000000 -0.005667 0.000000
# 6 0.000000 0.000000 0.000000 0.000000 0.000000 0.020453
#
#
# Mechanical properties :
#
#
# Convention : Reuss Voigt Hill
#
# Bulk Modulus (GPa) = 183.09469 192.26280 187.67875
# Shear Modulus (GPa) = 81.61398 15.01503 48.31451
#
# Velocity S-wave (km/s) = 4.98197 2.13689 3.83317
# Velocity P-wave (km/s) = 9.42206 8.03482 8.75596
#
# Compressibility (1/GPa) = 0.00546165
#
# Stress axis : x y z
#
# Youngs Moduli (GPa) = 195.14521 165.19170 155.19890
#
# Poissons Ratio (x) = 0.12024 0.45848
# Poissons Ratio (y) = 0.14204 0.37214
# Poissons Ratio (z) = 0.57649 0.39610
#
# Static dielectric constant tensor:
#      x y z
#    x 2.771480 0.000000 0.000000 
#    y 0.000000 3.725230 0.000000 
#    z 0.000000 0.000000 5.268000 
# 
# From -- ./inp_files/19896.got.cif
#   From: 2010.05.17/outbox.cif.g08.bks.cpg/sg57_10_cif.got.tgz:19896.got - 2010.06.03 13:58:18.
