data_PCOD9440617
_publ_section_title
;
Structure prediction by ZEFSAII (Michael W. Deem and Ramdas Pophale) SiO2 
 PCOD9440617
Probable space group: P B C M
;
_chemical_formula_sum "Si O2"
_cell_formula_units_Z 60
_cell_length_a 12.000000
_cell_length_b 27.000000
_cell_length_c 9.000000
_cell_angle_alpha 90.000000
_cell_angle_beta 90.000000
_cell_angle_gamma 90.000000
_cell_volume 2916.000000
_symmetry_space_group_name_H-M "P B C M"
_symmetry_group_IT_number 57
_symmetry_cell_setting 'orthorhombic'
loop_
_space_group_symop_operation_xyz
x,y,z
-x,-y,1/2+z
x,1/2-y,-z
-x,1/2+y,1/2-z
-x,-y,-z
x,y,1/2-z
-x,1/2+y,z
x,1/2-y,1/2+z
loop_
_atom_site_type_symbol
_atom_site_label
_atom_site_fract_x
_atom_site_fract_y
_atom_site_fract_z
Si Si1 0.195066 0.199617 0.574324
Si Si2 0.615227 0.366926 0.418737
Si Si3 0.433405 0.196972 0.071375
Si Si4 0.207696 0.699487 0.073501
Si Si5 0.527617 0.524055 0.250000
Si Si6 0.977021 0.357856 0.075377
Si Si7 0.342657 0.978274 0.008626
Si Si8 0.913780 0.461845 0.572616
O O1 0.149180 0.250000 0.500000
O O2 0.219070 0.208191 0.750000
O O3 0.307672 0.189461 0.484468
O O4 0.106775 0.155535 0.563876
O O5 0.618475 0.347520 0.250000
O O6 0.506424 0.346941 0.502222
O O7 0.714315 0.344647 0.516773
O O8 0.628058 0.425695 0.413446
O O9 0.442748 0.198449 0.250000
O O10 0.469098 0.250000 0.000000
O O11 0.206914 0.702939 0.250000
O O12 0.249324 0.750000 0.000000
O O13 0.088414 0.686182 0.006010
O O14 0.624053 0.521564 0.379929
O O15 0.428587 0.520853 0.374839
O O16 0.946387 0.358973 0.250000
O O17 0.941749 0.408526 0.997987
O O18 0.213642 0.976673 0.963722
O O19 0.926973 0.460052 0.750000
O O20 0.000000 0.500000 0.500000
#
# Coordination Sequence:
#
# PCOD9440617 Si02
#       8
#     8   8   8   8   4   8   8   8
#     4  10  21  40  64  92 131 175 223 275 326 394
#     4  12  24  41  67  96 134 173 217 272 339 404
#     4  11  23  40  63  92 132 177 221 271 330 396
#     4  12  25  40  64  98 136 177 223 273 330 406
#     4  10  24  46  74 102 132 174 220 282 348 414
#     4  11  24  43  67  98 132 175 223 274 337 404
#     4  11  24  47  72 102 136 175 229 286 355 418
#     4  12  27  47  73 101 138 182 231 289 355 422
#
# _framework density 20.576132000000001
#
# number of rings (size 3 to 8) (size 9 to 14) (size 15 to 20)
#    0.000    0.800    2.667    5.600    3.733    3.200 
#    4.800    0.000    0.000    0.000    0.000    0.000 
#    0.000    0.000    0.000    0.000    0.000    0.000 
#
# Total GULP energy -334291.083218 kJ/mol
# GULP energy per Si atom -5571.518054 kJ/mol
# Density = 2.052930 g / cm^3
# Si number density = 20.576132 Si / 1000 Ang^3
#
#
#
# Elastic Constant Matrix: (Units=GPa)
#
#
# Indices 1 2 3 4 5 6 
#
# 1 103.1720 27.5844 58.2748 0.0000 0.0000 0.0000
# 2 27.5844 19.3849 28.9226 0.0000 0.0000 0.0000
# 3 58.2748 28.9226 206.8745 0.0000 0.0000 0.0000
# 4 0.0000 0.0000 0.0000 31.4347 0.0000 0.0000
# 5 0.0000 0.0000 0.0000 0.0000 -20.7922 0.0000
# 6 0.0000 0.0000 0.0000 0.0000 0.0000 34.0550
#
#
#
# Elastic Compliance Matrix: (Units=1/GPa)
#
#
# Indices 1 2 3 4 5 6 
#
# 1 0.016095 -0.020392 -0.001683 0.000000 0.000000 0.000000
# 2 -0.020392 0.091021 -0.006981 0.000000 0.000000 0.000000
# 3 -0.001683 -0.006981 0.006284 0.000000 0.000000 0.000000
# 4 0.000000 0.000000 0.000000 0.031812 0.000000 0.000000
# 5 0.000000 0.000000 0.000000 0.000000 -0.048095 0.000000
# 6 0.000000 0.000000 0.000000 0.000000 0.000000 0.029364
#
#
# Mechanical properties :
#
#
# Convention : Reuss Voigt Hill
#
# Bulk Modulus (GPa) = 18.08740 62.11054 40.09897
# Shear Modulus (GPa) = 24.62779 23.24947 23.93863
#
# Velocity S-wave (km/s) = 3.46339 3.36508 3.41459
# Velocity P-wave (km/s) = 4.98026 6.73421 5.92253
#
# Compressibility (1/GPa) = 0.05528710
#
# Stress axis : x y z
#
# Youngs Moduli (GPa) = 62.13000 10.98653 159.13688
#
# Poissons Ratio (x) = 0.22404 0.26781
# Poissons Ratio (y) = 1.26698 1.11093
# Poissons Ratio (z) = 0.10456 0.07670
#
# Static dielectric constant tensor:
#      x y z
#    x 1.796870 0.000000 0.000000 
#    y 0.000000 1.633380 0.000000 
#    z 0.000000 0.000000 1.701790 
# 
# From -- ./inp_files/3468.got.cif
#   From: 2010.05.17/outbox.ucp.g08.bks.cvg/sg57_2_cif.got.tgz:3468.got - 2010.06.11 16:39:23.
