data_PCOD9440523
_publ_section_title
;
Structure prediction by ZEFSAII (Michael W. Deem and Ramdas Pophale) SiO2 
 PCOD9440523
Probable space group: P B C M
;
_chemical_formula_sum "Si O2"
_cell_formula_units_Z 56
_cell_length_a 21.000000
_cell_length_b 15.000000
_cell_length_c 9.000000
_cell_angle_alpha 90.000000
_cell_angle_beta 90.000000
_cell_angle_gamma 90.000000
_cell_volume 2835.000000
_symmetry_space_group_name_H-M "P B C M"
_symmetry_group_IT_number 57
_symmetry_cell_setting 'orthorhombic'
loop_
_space_group_symop_operation_xyz
x,y,z
-x,-y,1/2+z
x,1/2-y,-z
-x,1/2+y,1/2-z
-x,-y,-z
x,y,1/2-z
-x,1/2+y,z
x,1/2-y,1/2+z
loop_
_atom_site_type_symbol
_atom_site_label
_atom_site_fract_x
_atom_site_fract_y
_atom_site_fract_z
Si Si1 0.293031 0.395484 0.581834
Si Si2 0.930100 0.999257 0.071368
Si Si3 0.835472 0.659438 0.927168
Si Si4 0.705444 0.396154 0.081557
Si Si5 0.573996 0.348362 0.570872
Si Si6 0.434753 0.152404 0.070776
Si Si7 0.164673 0.660228 0.072537
O O1 0.289857 0.356998 0.750000
O O2 0.236806 0.356456 0.482939
O O3 0.279675 0.499798 0.591677
O O4 0.366057 0.386783 0.526329
O O5 0.937754 0.996967 0.250000
O O6 0.885167 0.916680 0.026809
O O7 0.885682 0.083594 0.034162
O O8 0.000000 0.000000 0.000000
O O9 0.834559 0.663596 0.750000
O O10 0.858084 0.750000 0.000000
O O11 0.700562 0.359040 0.250000
O O12 0.637573 0.388837 0.999786
O O13 0.764649 0.355192 0.993601
O O14 0.572247 0.250000 0.500000
O O15 0.579524 0.345557 0.750000
O O16 0.504091 0.389460 0.532121
O O17 0.434308 0.156904 0.250000
O O18 0.435234 0.250000 0.000000
O O19 0.169812 0.665583 0.250000
O O20 0.139960 0.750000 0.000000
#
# Coordination Sequence:
#
# PCOD9440523 Si02
#       7
#     8   8   8   8   8   8   8
#     4  10  21  37  58  85 117 155 201 253 304 359
#     4  10  24  44  67  94 129 163 200 246 297 358
#     4  11  23  41  64  94 127 164 206 249 299 359
#     4  11  22  36  57  85 117 155 200 252 305 361
#     4  10  20  35  54  76 109 151 196 249 305 361
#     4   9  19  35  53  77 109 148 196 248 302 360
#     4  11  23  42  65  93 125 162 206 251 301 360
#
# _framework density 19.753086
#
# number of rings (size 3 to 8) (size 9 to 14) (size 15 to 20)
#    0.000    1.714    1.429    2.571    0.000    6.286 
#    0.000    2.857    0.000    0.000    0.000    0.000 
#    0.000    0.000    0.000    0.000    0.000    0.000 
#
# Total GULP energy -312331.131999 kJ/mol
# GULP energy per Si atom -5577.341643 kJ/mol
# Density = 1.970813 g / cm^3
# Si number density = 19.753086 Si / 1000 Ang^3
#
#
#
# Elastic Constant Matrix: (Units=GPa)
#
#
# Indices 1 2 3 4 5 6 
#
# 1 174.4528 70.0250 66.1398 0.0000 0.0000 0.0000
# 2 70.0250 121.6020 44.3774 0.0000 0.0000 0.0000
# 3 66.1398 44.3774 69.8900 0.0000 0.0000 0.0000
# 4 0.0000 0.0000 0.0000 21.6945 0.0000 0.0000
# 5 0.0000 0.0000 0.0000 0.0000 57.7358 0.0000
# 6 0.0000 0.0000 0.0000 0.0000 0.0000 75.0762
#
#
#
# Elastic Compliance Matrix: (Units=1/GPa)
#
#
# Indices 1 2 3 4 5 6 
#
# 1 0.009666 -0.002900 -0.007306 0.000000 0.000000 0.000000
# 2 -0.002900 0.011574 -0.004605 0.000000 0.000000 0.000000
# 3 -0.007306 -0.004605 0.024146 0.000000 0.000000 0.000000
# 4 0.000000 0.000000 0.000000 0.046095 0.000000 0.000000
# 5 0.000000 0.000000 0.000000 0.000000 0.017320 0.000000
# 6 0.000000 0.000000 0.000000 0.000000 0.000000 0.013320
#
#
# Mechanical properties :
#
#
# Convention : Reuss Voigt Hill
#
# Bulk Modulus (GPa) = 63.43289 80.78104 72.10697
# Shear Modulus (GPa) = 31.84766 43.26146 37.55456
#
# Velocity S-wave (km/s) = 4.01969 4.68494 4.36500
# Velocity P-wave (km/s) = 7.32983 8.38147 7.87323
#
# Compressibility (1/GPa) = 0.01576469
#
# Stress axis : x y z
#
# Youngs Moduli (GPa) = 103.45278 86.40101 41.41465
#
# Poissons Ratio (x) = 0.25057 0.30258
# Poissons Ratio (y) = 0.30002 0.19070
# Poissons Ratio (z) = 0.75584 0.39784
#
# Static dielectric constant tensor:
#      x y z
#    x 1.681100 0.000000 0.000000 
#    y 0.000000 1.716710 0.000000 
#    z 0.000000 0.000000 1.744620 
# 
# From -- ./inp_files/8077.got.cif
#   From: 2010.05.17/outbox.ucp.g08.bks.cvg/sg57_5_cif.got.tgz:8077.got - 2010.06.11 16:39:23.
