data_PCOD9440843
_publ_section_title
;
Structure prediction by ZEFSAII (Michael W. Deem and Ramdas Pophale) SiO2 
 PCOD9440843
Probable space group: P N N M
;
_chemical_formula_sum "Si O2"
_cell_formula_units_Z 56
_cell_length_a 19.936883
_cell_length_b 15.946372
_cell_length_c 8.193953
_cell_angle_alpha 90.000000
_cell_angle_beta 90.000000
_cell_angle_gamma 90.000000
_cell_volume 2605.029345
_symmetry_space_group_name_H-M "P N N M"
_symmetry_group_IT_number 58
_symmetry_cell_setting 'orthorhombic'
loop_
_space_group_symop_operation_xyz
x,y,z
-x,-y,z
1/2+x,1/2-y,1/2-z
1/2-x,1/2+y,1/2-z
-x,-y,-z
x,y,-z
1/2-x,1/2+y,1/2+z
1/2+x,1/2-y,1/2+z
loop_
_atom_site_type_symbol
_atom_site_label
_atom_site_fract_x
_atom_site_fract_y
_atom_site_fract_z
Si Si1 0.577704 0.816967 0.197552
Si Si2 0.427162 0.823648 0.695008
Si Si3 0.139612 0.846127 0.315663
Si Si4 0.777895 0.994496 0.196135
Si Si5 0.644589 0.331992 0.691616
Si Si6 0.005937 0.900537 0.182275
Si Si7 0.875372 0.499334 0.302599
O O1 0.501425 0.797395 0.247743
O O2 0.632190 0.747904 0.255859
O O3 0.594581 0.910777 0.253578
O O4 0.580675 0.815227 0.000000
O O5 0.426293 0.816861 0.500000
O O6 0.367721 0.761827 0.759654
O O7 0.414470 0.918862 0.745454
O O8 0.165004 0.839311 0.500000
O O9 0.179904 0.922005 0.235054
O O10 0.061560 0.873342 0.309822
O O11 0.809703 0.906927 0.261052
O O12 0.701734 0.004717 0.252177
O O13 0.777967 0.986898 0.000000
O O14 0.663864 0.323056 0.500000
O O15 0.568737 0.366849 0.700354
O O16 0.030494 0.875859 0.000000
O O17 0.000000 0.000000 0.186257
O O18 0.876997 0.498988 0.500000
#
# Coordination Sequence:
#
# PCOD9440843 Si02
#       7
#     8   8   8   8   8   8   8
#     4  10  22  40  60  84 115 152 192 233 283 343
#     4  11  22  37  62  91 115 143 187 245 294 329
#     4  11  22  34  55  89 121 146 180 237 295 334
#     4  10  21  40  61  81 111 156 197 225 271 347
#     4   9  18  33  57  86 112 146 189 230 274 338
#     4  10  17  31  55  81 112 150 190 227 273 340
#     4  10  23  42  61  79 109 155 199 235 276 336
#
# _framework density 21.496880000000001
#
# number of rings (size 3 to 8) (size 9 to 14) (size 15 to 20)
#    0.000    1.857    2.857    1.286    0.000    4.857 
#    0.000    4.286    0.000    0.000    0.000    0.000 
#    0.000    0.000    0.000    0.000    0.000    0.000 
#
# Total GULP energy -312377.752774 kJ/mol
# GULP energy per Si atom -5578.174157 kJ/mol
# Density = 2.144795 g / cm^3
# Si number density = 21.496880 Si / 1000 Ang^3
#
#
#
# Elastic Constant Matrix: (Units=GPa)
#
#
# Indices 1 2 3 4 5 6 
#
# 1 57.1010 23.3618 4.9768 0.0000 0.0000 0.0000
# 2 23.3618 131.5244 5.2037 0.0000 0.0000 0.0000
# 3 4.9768 5.2037 12.7033 0.0000 0.0000 0.0000
# 4 0.0000 0.0000 0.0000 17.1131 0.0000 0.0000
# 5 0.0000 0.0000 0.0000 0.0000 14.9616 0.0000
# 6 0.0000 0.0000 0.0000 0.0000 0.0000 32.4334
#
#
#
# Elastic Compliance Matrix: (Units=1/GPa)
#
#
# Indices 1 2 3 4 5 6 
#
# 1 0.019366 -0.003191 -0.006280 0.000000 0.000000 0.000000
# 2 -0.003191 0.008254 -0.002131 0.000000 0.000000 0.000000
# 3 -0.006280 -0.002131 0.082053 0.000000 0.000000 0.000000
# 4 0.000000 0.000000 0.000000 0.058435 0.000000 0.000000
# 5 0.000000 0.000000 0.000000 0.000000 0.066838 0.000000
# 6 0.000000 0.000000 0.000000 0.000000 0.000000 0.030832
#
#
# Mechanical properties :
#
#
# Convention : Reuss Voigt Hill
#
# Bulk Modulus (GPa) = 11.56482 29.82370 20.69426
# Shear Modulus (GPa) = 15.73289 24.08736 19.91013
#
# Velocity S-wave (km/s) = 2.70824 3.35103 3.04663
# Velocity P-wave (km/s) = 3.89498 5.37365 4.69292
#
# Compressibility (1/GPa) = 0.08646913
#
# Stress axis : x y z
#
# Youngs Moduli (GPa) = 51.63732 121.14862 12.18724
#
# Poissons Ratio (x) = 0.38663 0.07653
# Poissons Ratio (y) = 0.16479 0.02597
# Poissons Ratio (z) = 0.32427 0.25816
#
# Static dielectric constant tensor:
#      x y z
#    x 1.751020 0.000000 0.000000 
#    y 0.000000 1.855950 0.000000 
#    z 0.000000 0.000000 1.782320 
# 
# From -- ./inp_files/8984.got.cif
#   From: 2010.05.17/outbox.cif.g08.bks.cpg/sg58_5_cif.got.tgz:8984.got - 2010.06.03 14:20:14.
