data_PCOD9440063
_publ_section_title
;
Structure prediction by ZEFSAII (Michael W. Deem and Ramdas Pophale) SiO2 
 PCOD9440063
Probable space group: P B C M
;
_chemical_formula_sum "Si O2"
_cell_formula_units_Z 48
_cell_length_a 14.885205
_cell_length_b 11.308790
_cell_length_c 14.741481
_cell_angle_alpha 90.000000
_cell_angle_beta 90.000000
_cell_angle_gamma 90.000000
_cell_volume 2481.487413
_symmetry_space_group_name_H-M "P B C M"
_symmetry_group_IT_number 57
_symmetry_cell_setting 'orthorhombic'
loop_
_space_group_symop_operation_xyz
x,y,z
-x,-y,1/2+z
x,1/2-y,-z
-x,1/2+y,1/2-z
-x,-y,-z
x,y,1/2-z
-x,1/2+y,z
x,1/2-y,1/2+z
loop_
_atom_site_type_symbol
_atom_site_label
_atom_site_fract_x
_atom_site_fract_y
_atom_site_fract_z
Si Si1 0.889546 0.009827 0.897219
Si Si2 0.092948 0.495426 0.106158
Si Si3 0.771550 0.617085 0.250000
Si Si4 0.624289 0.272404 0.899292
Si Si5 0.388104 0.927661 0.250000
Si Si6 0.820107 0.267712 0.858869
Si Si7 0.419981 0.956753 0.750000
Si Si8 0.233009 0.103530 0.750000
O O1 0.842997 0.137543 0.891833
O O2 0.991553 0.031188 0.863946
O O3 0.832535 0.921307 0.835641
O O4 0.896048 0.966270 0.000412
O O5 0.105056 0.636453 0.118225
O O6 0.170380 0.434567 0.165213
O O7 0.681903 0.536008 0.250000
O O8 0.751135 0.756071 0.250000
O O9 0.626615 0.153970 0.838506
O O10 0.728305 0.311020 0.904567
O O11 0.577586 0.371949 0.838295
O O12 0.588369 0.250000 0.000000
O O13 0.491306 0.965676 0.250000
O O14 0.806834 0.265552 0.750000
O O15 0.326948 0.031280 0.750000
#
# Coordination Sequence:
#
# PCOD9440063 Si02
#       8
#     8   8   4   8   4   8   4   4
#     4  11  24  40  62  93 129 169 213 260 309 369
#     4  11  24  40  62  93 129 169 213 260 309 369
#     4  12  26  42  62  90 129 174 205 257 320 380
#     4  11  21  42  73  97 121 163 215 267 315 368
#     4  11  25  45  68  96 129 163 210 264 321 379
#     4  12  20  39  69  94 122 167 214 266 313 363
#     4  11  25  45  68  96 129 163 210 264 321 379
#     4  12  26  42  62  90 129 174 205 257 320 380
#
# _framework density 19.343237999999999
#
# number of rings (size 3 to 8) (size 9 to 14) (size 15 to 20)
#    0.000    0.667    6.667    2.000    4.667    1.333 
#    0.000    0.000    0.000    0.000    0.000    0.000 
#    0.000    0.000    0.000    0.000    0.000    0.000 
#
# Total GULP energy -268247.084658 kJ/mol
# GULP energy per Si atom -5588.480930 kJ/mol
# Density = 1.929921 g / cm^3
# Si number density = 19.343238 Si / 1000 Ang^3
#
#
#
# Elastic Constant Matrix: (Units=GPa)
#
#
# Indices 1 2 3 4 5 6 
#
# 1 101.7737 22.8950 31.1593 0.0000 0.0000 0.0000
# 2 22.8950 99.1087 31.1396 0.0000 0.0000 0.0000
# 3 31.1593 31.1396 127.8680 0.0000 0.0000 0.0000
# 4 0.0000 0.0000 0.0000 2.8423 0.0000 0.0000
# 5 0.0000 0.0000 0.0000 0.0000 10.2112 0.0000
# 6 0.0000 0.0000 0.0000 0.0000 0.0000 29.9260
#
#
#
# Elastic Compliance Matrix: (Units=1/GPa)
#
#
# Indices 1 2 3 4 5 6 
#
# 1 0.010915 -0.001825 -0.002215 0.000000 0.000000 0.000000
# 2 -0.001825 0.011231 -0.002290 0.000000 0.000000 0.000000
# 3 -0.002215 -0.002290 0.008918 0.000000 0.000000 0.000000
# 4 0.000000 0.000000 0.000000 0.351822 0.000000 0.000000
# 5 0.000000 0.000000 0.000000 0.000000 0.097932 0.000000
# 6 0.000000 0.000000 0.000000 0.000000 0.000000 0.033416
#
#
# Mechanical properties :
#
#
# Convention : Reuss Voigt Hill
#
# Bulk Modulus (GPa) = 54.34134 55.45981 54.90057
# Shear Modulus (GPa) = 9.38035 24.83301 17.10668
#
# Velocity S-wave (km/s) = 2.20453 3.58691 2.97707
# Velocity P-wave (km/s) = 5.88508 6.77409 6.34517
#
# Compressibility (1/GPa) = 0.01840220
#
# Stress axis : x y z
#
# Youngs Moduli (GPa) = 91.62078 89.03753 112.13122
#
# Poissons Ratio (x) = 0.16253 0.24839
# Poissons Ratio (y) = 0.16724 0.25682
# Poissons Ratio (z) = 0.20296 0.20392
#
# Static dielectric constant tensor:
#      x y z
#    x 1.645970 0.000000 0.000000 
#    y 0.000000 1.651080 0.000000 
#    z 0.000000 0.000000 1.711130 
# 
# From -- ./inp_files/18457.got.cif
#   From: 2010.05.17/outbox.cif.g08.bks.cpg/sg57_10_cif.got.tgz:18457.got - 2010.06.03 13:58:18.
