data_PCOD9440352
_publ_section_title
;
Structure prediction by ZEFSAII (Michael W. Deem and Ramdas Pophale) SiO2 
 PCOD9440352
Probable space group: P B C M
;
_chemical_formula_sum "Si O2"
_cell_formula_units_Z 56
_cell_length_a 5.214036
_cell_length_b 27.107345
_cell_length_c 15.644874
_cell_angle_alpha 90.000000
_cell_angle_beta 90.000000
_cell_angle_gamma 90.000000
_cell_volume 2211.225726
_symmetry_space_group_name_H-M "P B C M"
_symmetry_group_IT_number 57
_symmetry_cell_setting 'orthorhombic'
loop_
_space_group_symop_operation_xyz
x,y,z
-x,-y,1/2+z
x,1/2-y,-z
-x,1/2+y,1/2-z
-x,-y,-z
x,y,1/2-z
-x,1/2+y,z
x,1/2-y,1/2+z
loop_
_atom_site_type_symbol
_atom_site_label
_atom_site_fract_x
_atom_site_fract_y
_atom_site_fract_z
Si Si1 0.880895 0.261286 0.595621
Si Si2 0.165710 0.330269 0.345278
Si Si3 0.516534 0.019288 0.850222
Si Si4 0.506377 0.328157 0.985672
Si Si5 0.150032 0.595157 0.935133
Si Si6 0.018837 0.957997 0.600394
Si Si7 0.151763 0.359024 0.657006
O O1 0.988268 0.250000 0.500000
O O2 0.945351 0.212037 0.647123
O O3 0.596650 0.281479 0.571654
O O4 0.012765 0.306922 0.642647
O O5 0.279026 0.328065 0.250000
O O6 0.033321 0.383252 0.362625
O O7 0.358299 0.321351 0.424827
O O8 0.502114 0.028848 0.750000
O O9 0.597061 0.069251 0.898368
O O10 0.757454 0.983623 0.870323
O O11 0.260577 0.992079 0.879372
O O12 0.345016 0.362299 0.922299
O O13 0.763743 0.357062 0.011163
O O14 0.023436 0.557418 0.001074
O O15 0.033078 0.906003 0.650391
O O16 0.278913 0.359309 0.750000
#
# Coordination Sequence:
#
# PCOD9440352 Si02
#       7
#     8   8   8   8   8   8   8
#     4  12  24  49  73 104 152 193 252 312 392 463
#     4  12  28  49  77 115 154 202 262 323 395 476
#     4  12  28  47  75 115 157 207 271 336 399 480
#     4  12  25  49  78 107 154 205 254 326 393 479
#     4  12  26  48  77 108 153 205 261 320 406 473
#     4  12  25  50  75 112 156 210 264 330 403 473
#     4  12  26  45  75 111 148 198 259 322 394 472
#
# _framework density 25.325322
#
# number of rings (size 3 to 8) (size 9 to 14) (size 15 to 20)
#    0.000    0.000    5.714    3.857    4.000    2.286 
#    0.000    0.000    0.000    0.000    0.000    0.000 
#    0.000    0.000    0.000    0.000    0.000    0.000 
#
# Total GULP energy -313679.914311 kJ/mol
# GULP energy per Si atom -5601.427041 kJ/mol
# Density = 2.526768 g / cm^3
# Si number density = 25.325322 Si / 1000 Ang^3
#
#
#
# Elastic Constant Matrix: (Units=GPa)
#
#
# Indices 1 2 3 4 5 6 
#
# 1 87.7503 11.5877 28.9476 0.0000 0.0000 0.0000
# 2 11.5877 92.7935 18.0140 0.0000 0.0000 0.0000
# 3 28.9476 18.0140 163.2268 0.0000 0.0000 0.0000
# 4 0.0000 0.0000 0.0000 15.5211 0.0000 0.0000
# 5 0.0000 0.0000 0.0000 0.0000 7.4783 0.0000
# 6 0.0000 0.0000 0.0000 0.0000 0.0000 42.7070
#
#
#
# Elastic Compliance Matrix: (Units=1/GPa)
#
#
# Indices 1 2 3 4 5 6 
#
# 1 0.012219 -0.001129 -0.002042 0.000000 0.000000 0.000000
# 2 -0.001129 0.011117 -0.001027 0.000000 0.000000 0.000000
# 3 -0.002042 -0.001027 0.006602 0.000000 0.000000 0.000000
# 4 0.000000 0.000000 0.000000 0.064429 0.000000 0.000000
# 5 0.000000 0.000000 0.000000 0.000000 0.133720 0.000000
# 6 0.000000 0.000000 0.000000 0.000000 0.000000 0.023415
#
#
# Mechanical properties :
#
#
# Convention : Reuss Voigt Hill
#
# Bulk Modulus (GPa) = 46.42278 51.20769 48.81524
# Shear Modulus (GPa) = 18.72104 32.15602 25.43853
#
# Velocity S-wave (km/s) = 2.72181 3.56718 3.17278
# Velocity P-wave (km/s) = 5.31489 6.10165 5.72181
#
# Compressibility (1/GPa) = 0.02154115
#
# Stress axis : x y z
#
# Youngs Moduli (GPa) = 81.84082 89.95282 151.47066
#
# Poissons Ratio (x) = 0.10159 0.30935
# Poissons Ratio (y) = 0.09243 0.15550
# Poissons Ratio (z) = 0.16715 0.09235
#
# Static dielectric constant tensor:
#      x y z
#    x 2.005360 0.000000 0.000000 
#    y 0.000000 2.050160 0.000000 
#    z 0.000000 0.000000 1.995580 
# 
# From -- ./inp_files/15255.got.cif
#   From: 2010.05.17/outbox.cif.g08.bks.cpg/sg57_8_cif.got.tgz:15255.got - 2010.06.03 13:58:18.
