data_PCOD9440492
_publ_section_title
;
Structure prediction by ZEFSAII (Michael W. Deem and Ramdas Pophale) SiO2 
 PCOD9440492
Probable space group: P B C M
;
_chemical_formula_sum "Si O2"
_cell_formula_units_Z 48
_cell_length_a 18.000000
_cell_length_b 18.000000
_cell_length_c 9.000000
_cell_angle_alpha 90.000000
_cell_angle_beta 90.000000
_cell_angle_gamma 90.000000
_cell_volume 2916.000000
_symmetry_space_group_name_H-M "P B C M"
_symmetry_group_IT_number 57
_symmetry_cell_setting 'orthorhombic'
loop_
_space_group_symop_operation_xyz
x,y,z
-x,-y,1/2+z
x,1/2-y,-z
-x,1/2+y,1/2-z
-x,-y,-z
x,y,1/2-z
-x,1/2+y,z
x,1/2-y,1/2+z
loop_
_atom_site_type_symbol
_atom_site_label
_atom_site_fract_x
_atom_site_fract_y
_atom_site_fract_z
Si Si1 0.549944 0.435730 0.073580
Si Si2 0.060457 0.328562 0.427497
Si Si3 0.830559 0.962370 0.426099
Si Si4 0.324229 0.455906 0.924394
Si Si5 0.553346 0.672149 0.426217
Si Si6 0.942763 0.441472 0.427583
O O1 0.536321 0.433355 0.250000
O O2 0.632746 0.466326 0.050594
O O3 0.500000 0.500000 0.000000
O O4 0.521784 0.360751 0.998391
O O5 0.073992 0.250000 0.500000
O O6 0.065070 0.321732 0.250000
O O7 0.120758 0.390620 0.473182
O O8 0.979195 0.362221 0.464270
O O9 0.839243 0.970553 0.250000
O O10 0.746710 0.949954 0.473343
O O11 0.864342 0.034729 0.506196
O O12 0.303558 0.452094 0.750000
O O13 0.382080 0.388846 0.952610
O O14 0.572686 0.750000 0.500000
O O15 0.544409 0.679560 0.250000
O O16 0.943085 0.449853 0.250000
O O17 0.000000 0.500000 0.500000
#
# Coordination Sequence:
#
# PCOD9440492 Si02
#       6
#     8   8   8   8   8   8
#     4   9  17  31  50  71  95 125 164 204 242 288
#     4   9  19  32  47  70  96 124 157 192 233 280
#     4  10  20  32  48  72  98 127 162 196 236 285
#     4   9  19  33  49  71  98 129 161 196 241 287
#     4  10  20  33  50  73 100 131 165 200 244 292
#     4   9  17  31  49  69  93 122 160 200 236 280
#
# _framework density 16.460905
#
# number of rings (size 3 to 8) (size 9 to 14) (size 15 to 20)
#    0.000    2.667    0.000    4.000    0.000    8.667 
#    0.000    3.333    0.000    1.000    0.000    4.667 
#    0.000    0.000    0.000    0.000    0.000    0.000 
#
# Total GULP energy -267233.727890 kJ/mol
# GULP energy per Si atom -5567.369331 kJ/mol
# Density = 1.642344 g / cm^3
# Si number density = 16.460905 Si / 1000 Ang^3
#
#
#
# Elastic Constant Matrix: (Units=GPa)
#
#
# Indices 1 2 3 4 5 6 
#
# 1 57.2020 54.8861 55.6686 0.0000 0.0000 0.0000
# 2 54.8861 -26.9334 29.8917 0.0000 0.0000 0.0000
# 3 55.6686 29.8917 58.2710 0.0000 0.0000 0.0000
# 4 0.0000 0.0000 0.0000 27.0552 0.0000 0.0000
# 5 0.0000 0.0000 0.0000 0.0000 28.7827 0.0000
# 6 0.0000 0.0000 0.0000 0.0000 0.0000 10.8663
#
#
#
# Elastic Compliance Matrix: (Units=1/GPa)
#
#
# Indices 1 2 3 4 5 6 
#
# 1 0.048970 0.030505 -0.062431 0.000000 0.000000 0.000000
# 2 0.030505 -0.004657 -0.026753 0.000000 0.000000 0.000000
# 3 -0.062431 -0.026753 0.090528 0.000000 0.000000 0.000000
# 4 0.000000 0.000000 0.000000 0.036961 0.000000 0.000000
# 5 0.000000 0.000000 0.000000 0.000000 0.034743 0.000000
# 6 0.000000 0.000000 0.000000 0.000000 0.000000 0.092028
#
#
# Mechanical properties :
#
#
# Convention : Reuss Voigt Hill
#
# Bulk Modulus (GPa) = 57.20409 41.04803 49.12606
# Shear Modulus (GPa) = 11.85509 9.88038 10.86773
#
# Velocity S-wave (km/s) = 2.68656 2.45262 2.57225
# Velocity P-wave (km/s) = 6.66711 5.74555 6.22341
#
# Compressibility (1/GPa) = 0.01748127
#
# Stress axis : x y z
#
# Youngs Moduli (GPa) = 20.42076 -214.73718 11.04631
#
# Poissons Ratio (x) = 6.55048 0.68963
# Poissons Ratio (y) = -0.62293 0.29553
# Poissons Ratio (z) = 1.27489 -5.74496
#
# Static dielectric constant tensor:
#      x y z
#    x 1.590490 0.000000 0.000000 
#    y 0.000000 1.551580 0.000000 
#    z 0.000000 0.000000 1.546050 
# 
# From -- ./inp_files/6716.got.cif
#   From: 2010.05.17/outbox.ucp.g08.bks.cvg/sg57_4_cif.got.tgz:6716.got - 2010.06.11 16:39:23.
