data_PCOD9440283
_publ_section_title
;
Structure prediction by ZEFSAII (Michael W. Deem and Ramdas Pophale) SiO2 
 PCOD9440283
Probable space group: P B C M
;
_chemical_formula_sum "Si O2"
_cell_formula_units_Z 40
_cell_length_a 5.016538
_cell_length_b 31.806839
_cell_length_c 10.835150
_cell_angle_alpha 90.000000
_cell_angle_beta 90.000000
_cell_angle_gamma 90.000000
_cell_volume 1728.858880
_symmetry_space_group_name_H-M "P B C M"
_symmetry_group_IT_number 57
_symmetry_cell_setting 'orthorhombic'
loop_
_space_group_symop_operation_xyz
x,y,z
-x,-y,1/2+z
x,1/2-y,-z
-x,1/2+y,1/2-z
-x,-y,-z
x,y,1/2-z
-x,1/2+y,z
x,1/2-y,1/2+z
loop_
_atom_site_type_symbol
_atom_site_label
_atom_site_fract_x
_atom_site_fract_y
_atom_site_fract_z
Si Si1 0.870234 0.201349 0.497807
Si Si2 0.569449 0.571331 0.977167
Si Si3 0.604544 0.842538 0.893083
Si Si4 0.347900 0.663643 0.750000
Si Si5 0.810122 0.001371 0.615954
Si Si6 0.140077 0.393134 0.250000
O O1 0.947461 0.250000 0.500000
O O2 0.127843 0.173877 0.460319
O O3 0.740759 0.188826 0.629012
O O4 0.629794 0.191679 0.403626
O O5 0.365191 0.542881 0.900648
O O6 0.794973 0.582013 0.875565
O O7 0.495700 0.616060 0.035981
O O8 0.641890 0.540986 0.091450
O O9 0.663367 0.851598 0.750000
O O10 0.159174 0.622809 0.750000
O O11 0.650964 0.646663 0.750000
O O12 0.937798 0.999954 0.750000
O O13 0.000000 0.000000 0.500000
#
# Coordination Sequence:
#
# PCOD9440283 Si02
#       6
#     8   8   8   4   8   4
#     4  12  27  48  73 110 145 189 240 298 360 428
#     4  11  25  46  68 101 142 187 244 290 359 426
#     4  12  27  48  74 106 148 194 237 296 364 431
#     4  12  24  46  76 108 136 188 242 302 352 426
#     4  11  27  44  71 105 143 188 239 302 362 429
#     4  12  24  44  76 104 142 184 252 292 358 428
#
# _framework density 23.136648999999998
#
# number of rings (size 3 to 8) (size 9 to 14) (size 15 to 20)
#    0.000    0.400    5.000    1.800    9.800    1.600 
#    0.000    0.000    0.000    0.000    0.000    0.000 
#    0.000    0.000    0.000    0.000    0.000    0.000 
#
# Total GULP energy -223841.927155 kJ/mol
# GULP energy per Si atom -5596.048179 kJ/mol
# Density = 2.308399 g / cm^3
# Si number density = 23.136649 Si / 1000 Ang^3
#
#
#
# Elastic Constant Matrix: (Units=GPa)
#
#
# Indices 1 2 3 4 5 6 
#
# 1 42.7890 4.5061 -5.2982 0.0000 0.0000 0.0000
# 2 4.5061 118.9755 34.5015 0.0000 0.0000 0.0000
# 3 -5.2982 34.5015 154.8196 0.0000 0.0000 0.0000
# 4 0.0000 0.0000 0.0000 25.5740 0.0000 0.0000
# 5 0.0000 0.0000 0.0000 0.0000 29.4716 0.0000
# 6 0.0000 0.0000 0.0000 0.0000 0.0000 29.4076
#
#
#
# Elastic Compliance Matrix: (Units=1/GPa)
#
#
# Indices 1 2 3 4 5 6 
#
# 1 0.023631 -0.001208 0.001078 0.000000 0.000000 0.000000
# 2 -0.001208 0.009047 -0.002058 0.000000 0.000000 0.000000
# 3 0.001078 -0.002058 0.006955 0.000000 0.000000 0.000000
# 4 0.000000 0.000000 0.000000 0.039102 0.000000 0.000000
# 5 0.000000 0.000000 0.000000 0.000000 0.033931 0.000000
# 6 0.000000 0.000000 0.000000 0.000000 0.000000 0.034005
#
#
# Mechanical properties :
#
#
# Convention : Reuss Voigt Hill
#
# Bulk Modulus (GPa) = 28.36191 42.66698 35.51445
# Shear Modulus (GPa) = 30.71278 35.74895 33.23086
#
# Velocity S-wave (km/s) = 3.64737 3.93507 3.79395
# Velocity P-wave (km/s) = 5.47931 6.25521 5.88007
#
# Compressibility (1/GPa) = 0.03525855
#
# Stress axis : x y z
#
# Youngs Moduli (GPa) = 42.31704 110.52779 143.79092
#
# Poissons Ratio (x) = 0.13347 -0.15498
# Poissons Ratio (y) = 0.05110 0.29586
# Poissons Ratio (z) = -0.04561 0.22742
#
# Static dielectric constant tensor:
#      x y z
#    x 1.898000 0.000000 0.000000 
#    y 0.000000 1.895720 0.000000 
#    z 0.000000 0.000000 1.791850 
# 
# From -- ./inp_files/10967.got.cif
#   From: 2010.05.17/outbox.cif.g08.bks.cpg/sg57_6_cif.got.tgz:10967.got - 2010.06.03 13:58:18.
