data_PCOD9440128
_publ_section_title
;
Structure prediction by ZEFSAII (Michael W. Deem and Ramdas Pophale) SiO2 
 PCOD9440128
Probable space group: P B C M
;
_chemical_formula_sum "Si O2"
_cell_formula_units_Z 36
_cell_length_a 6.302156
_cell_length_b 23.349603
_cell_length_c 10.189000
_cell_angle_alpha 90.000000
_cell_angle_beta 90.000000
_cell_angle_gamma 90.000000
_cell_volume 1499.340293
_symmetry_space_group_name_H-M "P B C M"
_symmetry_group_IT_number 57
_symmetry_cell_setting 'orthorhombic'
loop_
_space_group_symop_operation_xyz
x,y,z
-x,-y,1/2+z
x,1/2-y,-z
-x,1/2+y,1/2-z
-x,-y,-z
x,y,1/2-z
-x,1/2+y,z
x,1/2-y,1/2+z
loop_
_atom_site_type_symbol
_atom_site_label
_atom_site_fract_x
_atom_site_fract_y
_atom_site_fract_z
Si Si1 0.016237 0.804441 0.546236
Si Si2 0.213736 0.405511 0.457437
Si Si3 0.688184 0.361160 0.750000
Si Si4 0.905893 0.442361 0.250000
Si Si5 0.335826 0.057184 0.250000
Si Si6 0.531666 0.365213 0.250000
Si Si7 0.333159 0.237705 0.250000
O O1 0.150874 0.750000 0.500000
O O2 0.164824 0.846863 0.627189
O O3 0.901139 0.844362 0.443678
O O4 0.828703 0.775062 0.630644
O O5 0.246970 0.418311 0.611135
O O6 0.430376 0.395932 0.378220
O O7 0.059730 0.447111 0.376307
O O8 0.580824 0.423126 0.750000
O O9 0.501607 0.314103 0.750000
O O10 0.730012 0.491541 0.250000
O O11 0.777011 0.382426 0.250000
O O12 0.458483 0.298357 0.250000
#
# Coordination Sequence:
#
# PCOD9440128 Si02
#       7
#     8   8   4   4   4   4   4
#     4  11  23  41  68 101 144 187 231 292 365 440
#     4  11  25  49  72 103 144 191 243 298 366 430
#     4  11  26  38  67 109 136 186 243 296 355 432
#     4  11  29  47  75 106 142 199 244 308 356 426
#     4  12  25  52  72 102 149 193 254 300 355 421
#     4  11  26  45  71 107 144 183 248 298 365 430
#     4  11  22  42  65 100 147 187 227 298 367 429
#
# _framework density 24.010559000000001
#
# number of rings (size 3 to 8) (size 9 to 14) (size 15 to 20)
#    0.000    0.889    4.444    1.333    6.222    1.778 
#    8.000    0.000    0.000    0.000    0.000    0.000 
#    0.000    0.000    0.000    0.000    0.000    0.000 
#
# Total GULP energy -201121.868091 kJ/mol
# GULP energy per Si atom -5586.718558 kJ/mol
# Density = 2.395591 g / cm^3
# Si number density = 24.010559 Si / 1000 Ang^3
#
#
#
# Elastic Constant Matrix: (Units=GPa)
#
#
# Indices 1 2 3 4 5 6 
#
# 1 83.4542 3.9488 41.5890 0.0000 0.0000 0.0000
# 2 3.9488 57.2431 19.4657 0.0000 0.0000 0.0000
# 3 41.5890 19.4657 129.9144 0.0000 0.0000 0.0000
# 4 0.0000 0.0000 0.0000 24.6609 0.0000 0.0000
# 5 0.0000 0.0000 0.0000 0.0000 -29.2126 0.0000
# 6 0.0000 0.0000 0.0000 0.0000 0.0000 36.0920
#
#
#
# Elastic Compliance Matrix: (Units=1/GPa)
#
#
# Indices 1 2 3 4 5 6 
#
# 1 0.014277 0.000600 -0.004660 0.000000 0.000000 0.000000
# 2 0.000600 0.018432 -0.002954 0.000000 0.000000 0.000000
# 3 -0.004660 -0.002954 0.009632 0.000000 0.000000 0.000000
# 4 0.000000 0.000000 0.000000 0.040550 0.000000 0.000000
# 5 0.000000 0.000000 0.000000 0.000000 -0.034232 0.000000
# 6 0.000000 0.000000 0.000000 0.000000 0.000000 0.027707
#
#
# Mechanical properties :
#
#
# Convention : Reuss Voigt Hill
#
# Bulk Modulus (GPa) = 35.32005 44.51318 39.91661
# Shear Modulus (GPa) = 50.08418 20.01528 35.04973
#
# Velocity S-wave (km/s) = 4.57215 2.89035 3.82483
# Velocity P-wave (km/s) = 6.52800 5.45143 6.01386
#
# Compressibility (1/GPa) = 0.02831253
#
# Stress axis : x y z
#
# Youngs Moduli (GPa) = 70.04452 54.25216 103.82253
#
# Poissons Ratio (x) = -0.03254 0.48383
# Poissons Ratio (y) = -0.04202 0.30668
# Poissons Ratio (z) = 0.32642 0.16025
#
# Static dielectric constant tensor:
#      x y z
#    x 1.887430 0.000000 0.000000 
#    y 0.000000 1.965940 0.000000 
#    z 0.000000 0.000000 1.971010 
# 
# From -- ./inp_files/10880.got.cif
#   From: 2010.05.17/outbox.cif.g08.bks.cpg/sg57_6_cif.got.tgz:10880.got - 2010.06.03 13:58:18.
