data_PCOD9440468
_publ_section_title
;
Structure prediction by ZEFSAII (Michael W. Deem and Ramdas Pophale) SiO2 
 PCOD9440468
Probable space group: P B C M
;
_chemical_formula_sum "Si O2"
_cell_formula_units_Z 64
_cell_length_a 15.000000
_cell_length_b 24.000000
_cell_length_c 9.000000
_cell_angle_alpha 90.000000
_cell_angle_beta 90.000000
_cell_angle_gamma 90.000000
_cell_volume 3240.000000
_symmetry_space_group_name_H-M "P B C M"
_symmetry_group_IT_number 57
_symmetry_cell_setting 'orthorhombic'
loop_
_space_group_symop_operation_xyz
x,y,z
-x,-y,1/2+z
x,1/2-y,-z
-x,1/2+y,1/2-z
-x,-y,-z
x,y,1/2-z
-x,1/2+y,z
x,1/2-y,1/2+z
loop_
_atom_site_type_symbol
_atom_site_label
_atom_site_fract_x
_atom_site_fract_y
_atom_site_fract_z
Si Si1 0.644413 0.110965 0.574822
Si Si2 0.232116 0.805544 0.918381
Si Si3 0.300515 0.424580 0.419473
Si Si4 0.241027 0.200904 0.916887
Si Si5 0.924480 0.397333 0.580230
Si Si6 0.200806 0.981719 0.073176
Si Si7 0.038818 0.306817 0.071394
Si Si8 0.481663 0.441576 0.576110
O O1 0.631307 0.114211 0.750000
O O2 0.689775 0.165906 0.511253
O O3 0.713349 0.059343 0.547797
O O4 0.552051 0.100424 0.493787
O O5 0.259140 0.793233 0.750000
O O6 0.154922 0.851661 0.913658
O O7 0.202631 0.750000 0.000000
O O8 0.321847 0.443204 0.250000
O O9 0.281439 0.359540 0.414897
O O10 0.221256 0.462164 0.483817
O O11 0.381234 0.429828 0.532451
O O12 0.229797 0.221218 0.750000
O O13 0.141637 0.193116 0.978126
O O14 0.291216 0.250000 0.000000
O O15 0.950314 0.410621 0.750000
O O16 0.884067 0.449848 0.493998
O O17 0.997928 0.363687 0.489574
O O18 0.192636 0.990119 0.250000
O O19 0.030215 0.304576 0.250000
O O20 0.000051 0.250000 0.000000
O O21 0.500000 0.500000 0.500000
O O22 0.494374 0.445044 0.750000
#
# Coordination Sequence:
#
# PCOD9440468 Si02
#       8
#     8   8   8   8   8   8   8   8
#     4  10  20  35  54  78 109 142 182 228 274 323
#     4  10  20  33  50  74 108 148 186 224 273 329
#     4  11  22  38  60  85 114 146 185 231 282 337
#     4   9  21  40  62  86 112 146 185 233 284 333
#     4  10  20  33  52  80 113 148 188 231 280 329
#     4  10  20  34  54  81 113 148 185 226 278 333
#     4  10  19  34  56  82 111 144 189 236 282 332
#     4  12  23  36  57  85 113 143 183 227 275 328
#
# _framework density 19.753086
#
# number of rings (size 3 to 8) (size 9 to 14) (size 15 to 20)
#    0.000    1.750    1.250    3.750    0.000    5.000 
#    0.000    1.250    0.000    1.500    0.000    0.000 
#    0.000    0.000    0.000    0.000    0.000    0.000 
#
# Total GULP energy -356954.052004 kJ/mol
# GULP energy per Si atom -5577.407063 kJ/mol
# Density = 1.970813 g / cm^3
# Si number density = 19.753086 Si / 1000 Ang^3
#
#
#
# Elastic Constant Matrix: (Units=GPa)
#
#
# Indices 1 2 3 4 5 6 
#
# 1 12.4737 -3.2570 -4.0857 0.0000 0.0000 0.0000
# 2 -3.2570 41.3631 26.6360 0.0000 0.0000 0.0000
# 3 -4.0857 26.6360 89.0798 0.0000 0.0000 0.0000
# 4 0.0000 0.0000 0.0000 28.0604 0.0000 0.0000
# 5 0.0000 0.0000 0.0000 0.0000 16.7552 0.0000
# 6 0.0000 0.0000 0.0000 0.0000 0.0000 16.0613
#
#
#
# Elastic Compliance Matrix: (Units=1/GPa)
#
#
# Indices 1 2 3 4 5 6 
#
# 1 0.082221 0.005011 0.002273 0.000000 0.000000 0.000000
# 2 0.005011 0.030247 -0.008814 0.000000 0.000000 0.000000
# 3 0.002273 -0.008814 0.013966 0.000000 0.000000 0.000000
# 4 0.000000 0.000000 0.000000 0.035637 0.000000 0.000000
# 5 0.000000 0.000000 0.000000 0.000000 0.059683 0.000000
# 6 0.000000 0.000000 0.000000 0.000000 0.000000 0.062262
#
#
# Mechanical properties :
#
#
# Convention : Reuss Voigt Hill
#
# Bulk Modulus (GPa) = 8.10555 20.16701 14.13628
# Shear Modulus (GPa) = 15.23453 20.41691 17.82572
#
# Velocity S-wave (km/s) = 2.78015 3.21846 3.00730
# Velocity P-wave (km/s) = 3.79710 4.90337 4.38526
#
# Compressibility (1/GPa) = 0.12337220
#
# Stress axis : x y z
#
# Youngs Moduli (GPa) = 12.16229 33.06140 71.60372
#
# Poissons Ratio (x) = -0.16566 -0.16275
# Poissons Ratio (y) = -0.06094 0.63114
# Poissons Ratio (z) = -0.02764 0.29142
#
# Static dielectric constant tensor:
#      x y z
#    x 1.660580 0.000000 0.000000 
#    y 0.000000 1.719640 0.000000 
#    z 0.000000 0.000000 1.678920 
# 
# From -- ./inp_files/5741.got.cif
#   From: 2010.05.17/outbox.ucp.g08.bks.cvg/sg57_3_cif.got.tgz:5741.got - 2010.06.11 16:39:23.
