data_PCOD9440691
_publ_section_title
;
Structure prediction by ZEFSAII (Michael W. Deem and Ramdas Pophale) SiO2 
 PCOD9440691
Probable space group: P N N M
;
_chemical_formula_sum "Si O2"
_cell_formula_units_Z 40
_cell_length_a 6.949711
_cell_length_b 10.306793
_cell_length_c 22.137270
_cell_angle_alpha 90.000000
_cell_angle_beta 90.000000
_cell_angle_gamma 90.000000
_cell_volume 1585.675664
_symmetry_space_group_name_H-M "P N N M"
_symmetry_group_IT_number 58
_symmetry_cell_setting 'orthorhombic'
loop_
_space_group_symop_operation_xyz
x,y,z
-x,-y,z
1/2+x,1/2-y,1/2-z
1/2-x,1/2+y,1/2-z
-x,-y,-z
x,y,-z
1/2-x,1/2+y,1/2+z
1/2+x,1/2-y,1/2+z
loop_
_atom_site_type_symbol
_atom_site_label
_atom_site_fract_x
_atom_site_fract_y
_atom_site_fract_z
Si Si1 0.782146 0.471756 0.171234
Si Si2 0.845482 0.119351 0.000000
Si Si3 0.712947 0.228908 0.373856
Si Si4 0.247038 0.786491 0.124499
Si Si5 0.622844 0.133764 0.500000
Si Si6 0.769409 0.975534 0.806334
O O1 0.708963 0.619306 0.171446
O O2 0.684183 0.361762 0.130400
O O3 0.785527 0.426182 0.240184
O O4 0.000000 0.500000 0.148970
O O5 0.727870 0.135358 0.061934
O O6 0.968190 0.251103 0.000000
O O7 0.000000 0.000000 0.000000
O O8 0.483485 0.259440 0.368674
O O9 0.742446 0.164166 0.439481
O O10 0.788782 0.370122 0.356749
O O11 0.310446 0.882945 0.177277
O O12 0.500000 0.000000 0.500000
O O13 0.000000 0.000000 0.806632
#
# Coordination Sequence:
#
# PCOD9440691 Si02
#       6
#     8   4   8   8   4   8
#     4  10  19  31  46  67  93 122 154 188 225 271
#     4  10  16  26  44  68  95 120 145 188 241 278
#     4   9  17  28  44  67  93 118 148 188 232 274
#     4   9  17  28  44  67  93 118 148 188 232 274
#     4  10  16  26  44  68  95 120 145 188 241 278
#     4  10  19  31  46  67  93 122 154 188 225 271
#
# _framework density 25.225840999999999
#
# number of rings (size 3 to 8) (size 9 to 14) (size 15 to 20)
#    0.000    2.400    0.000    7.200    0.000    0.000 
#    0.000    0.000    0.000    0.000    0.000    8.400 
#    0.000    0.000    0.000    0.000    0.000    0.000 
#
# Total GULP energy -222997.882294 kJ/mol
# GULP energy per Si atom -5574.947057 kJ/mol
# Density = 2.516843 g / cm^3
# Si number density = 25.225841 Si / 1000 Ang^3
#
#
#
# Elastic Constant Matrix: (Units=GPa)
#
#
# Indices 1 2 3 4 5 6 
#
# 1 85.3028 -8.4026 -17.4963 0.0000 0.0000 0.0000
# 2 -8.4026 155.8027 58.9997 0.0000 0.0000 0.0000
# 3 -17.4963 58.9997 134.7226 0.0000 0.0000 0.0000
# 4 0.0000 0.0000 0.0000 41.0116 0.0000 0.0000
# 5 0.0000 0.0000 0.0000 0.0000 17.9141 0.0000
# 6 0.0000 0.0000 0.0000 0.0000 0.0000 -15.1479
#
#
#
# Elastic Compliance Matrix: (Units=1/GPa)
#
#
# Indices 1 2 3 4 5 6 
#
# 1 0.012044 0.000069 0.001534 0.000000 0.000000 0.000000
# 2 0.000069 0.007695 -0.003361 0.000000 0.000000 0.000000
# 3 0.001534 -0.003361 0.009094 0.000000 0.000000 0.000000
# 4 0.000000 0.000000 0.000000 0.024383 0.000000 0.000000
# 5 0.000000 0.000000 0.000000 0.000000 0.055822 0.000000
# 6 0.000000 0.000000 0.000000 0.000000 0.000000 -0.066016
#
#
# Mechanical properties :
#
#
# Convention : Reuss Voigt Hill
#
# Bulk Modulus (GPa) = 39.49976 49.11442 44.30709
# Shear Modulus (GPa) = 90.94640 31.60407 61.27523
#
# Velocity S-wave (km/s) = 6.01092 3.54339 4.93390
# Velocity P-wave (km/s) = 7.99170 6.02105 7.07532
#
# Compressibility (1/GPa) = 0.02531661
#
# Stress axis : x y z
#
# Youngs Moduli (GPa) = 83.02638 129.95810 109.96561
#
# Poissons Ratio (x) = -0.00892 -0.16870
# Poissons Ratio (y) = -0.00570 0.36958
# Poissons Ratio (z) = -0.12737 0.43678
#
# Static dielectric constant tensor:
#      x y z
#    x 2.021270 0.000000 0.000000 
#    y 0.000000 1.918040 0.000000 
#    z 0.000000 0.000000 2.108010 
# 
# From -- ./inp_files/29422.got.cif
#   From: 2010.05.17/outbox.cif.g08.bks.cpg/sg58_15_cif.got.tgz:29422.got - 2010.06.03 14:20:14.
