data_PCOD9440766
_publ_section_title
;
Structure prediction by ZEFSAII (Michael W. Deem and Ramdas Pophale) SiO2 
 PCOD9440766
Probable space group: P N N M
;
_chemical_formula_sum "Si O2"
_cell_formula_units_Z 64
_cell_length_a 15.036655
_cell_length_b 29.212454
_cell_length_c 7.604880
_cell_angle_alpha 90.000000
_cell_angle_beta 90.000000
_cell_angle_gamma 90.000000
_cell_volume 3340.501280
_symmetry_space_group_name_H-M "P N N M"
_symmetry_group_IT_number 58
_symmetry_cell_setting 'orthorhombic'
loop_
_space_group_symop_operation_xyz
x,y,z
-x,-y,z
1/2+x,1/2-y,1/2-z
1/2-x,1/2+y,1/2-z
-x,-y,-z
x,y,-z
1/2-x,1/2+y,1/2+z
1/2+x,1/2-y,1/2+z
loop_
_atom_site_type_symbol
_atom_site_label
_atom_site_fract_x
_atom_site_fract_y
_atom_site_fract_z
Si Si1 0.407238 0.948689 0.706620
Si Si2 0.222928 0.635042 0.789487
Si Si3 0.097309 0.178888 0.789490
Si Si4 0.723240 0.132227 0.202340
Si Si5 0.602359 0.781765 0.286111
Si Si6 0.396274 0.322250 0.715735
Si Si7 0.896818 0.717888 0.787122
Si Si8 0.892798 0.448892 0.784523
O O1 0.420383 0.955732 0.500000
O O2 0.336240 0.908694 0.725194
O O3 0.506317 0.936237 0.772264
O O4 0.378439 0.998681 0.774919
O O5 0.326321 0.643130 0.753805
O O6 0.168291 0.679123 0.721223
O O7 0.178029 0.588504 0.722683
O O8 0.212113 0.635245 0.000000
O O9 0.123310 0.230187 0.727261
O O10 0.997387 0.167908 0.727908
O O11 0.091598 0.182368 0.000000
O O12 0.820013 0.143639 0.280105
O O13 0.667604 0.179251 0.215293
O O14 0.736941 0.120390 0.000000
O O15 0.605018 0.781583 0.500000
O O16 0.624893 0.730090 0.230145
O O17 0.499727 0.791399 0.238724
O O18 0.394501 0.322753 0.500000
O O19 0.891022 0.716075 0.000000
O O20 0.889071 0.447883 0.000000
#
# Coordination Sequence:
#
# PCOD9440766 Si02
#       8
#     8   8   8   8   8   8   8   8
#     4   9  17  33  53  70  91 120 153 184 219 272
#     4  10  17  27  47  72  93 114 147 189 231 271
#     4   9  18  32  47  64  89 124 161 190 219 261
#     4  11  20  29  46  71  94 118 151 191 235 272
#     4   8  14  26  45  66  89 120 152 180 216 266
#     4   8  16  30  44  60  89 126 156 181 216 266
#     4   9  17  30  47  66  91 124 158 186 216 266
#     4   8  16  31  52  73  92 120 153 181 218 278
#
# _framework density 19.158801
#
# number of rings (size 3 to 8) (size 9 to 14) (size 15 to 20)
#    0.000    3.000    0.000    4.125    0.000    3.500 
#    0.000    5.625    0.000    3.000    0.000    5.250 
#    0.000    0.000    0.000    0.000    0.000    0.000 
#
# Total GULP energy -356896.373861 kJ/mol
# GULP energy per Si atom -5576.505842 kJ/mol
# Density = 1.911519 g / cm^3
# Si number density = 19.158801 Si / 1000 Ang^3
#
#
#
# Elastic Constant Matrix: (Units=GPa)
#
#
# Indices 1 2 3 4 5 6 
#
# 1 128.0879 101.3293 -3.7599 0.0000 0.0000 0.0000
# 2 101.3293 114.8726 0.1830 0.0000 0.0000 0.0000
# 3 -3.7599 0.1830 33.8403 0.0000 0.0000 0.0000
# 4 0.0000 0.0000 0.0000 9.8649 0.0000 0.0000
# 5 0.0000 0.0000 0.0000 0.0000 15.8640 0.0000
# 6 0.0000 0.0000 0.0000 0.0000 0.0000 33.3485
#
#
#
# Elastic Compliance Matrix: (Units=1/GPa)
#
#
# Indices 1 2 3 4 5 6 
#
# 1 0.026143 -0.023066 0.003029 0.000000 0.000000 0.000000
# 2 -0.023066 0.029056 -0.002720 0.000000 0.000000 0.000000
# 3 0.003029 -0.002720 0.029902 0.000000 0.000000 0.000000
# 4 0.000000 0.000000 0.000000 0.101369 0.000000 0.000000
# 5 0.000000 0.000000 0.000000 0.000000 0.063036 0.000000
# 6 0.000000 0.000000 0.000000 0.000000 0.000000 0.029986
#
#
# Mechanical properties :
#
#
# Convention : Reuss Voigt Hill
#
# Bulk Modulus (GPa) = 25.25982 52.47838 38.86910
# Shear Modulus (GPa) = 14.78410 23.75205 19.26808
#
# Velocity S-wave (km/s) = 2.78089 3.52482 3.17472
# Velocity P-wave (km/s) = 4.85018 6.63450 5.81123
#
# Compressibility (1/GPa) = 0.03958856
#
# Stress axis : x y z
#
# Youngs Moduli (GPa) = 38.25081 34.41628 33.44274
#
# Poissons Ratio (x) = 0.79384 -0.10131
# Poissons Ratio (y) = 0.88229 0.09096
# Poissons Ratio (z) = -0.11588 0.09361
#
# Static dielectric constant tensor:
#      x y z
#    x 1.680990 0.000000 0.000000 
#    y 0.000000 1.656890 0.000000 
#    z 0.000000 0.000000 1.729060 
# 
# From -- ./inp_files/7149.got.cif
#   From: 2010.05.17/outbox.cif.g08.bks.cpg/sg58_4_cif.got.tgz:7149.got - 2010.06.03 14:20:14.
