data_PCOD9440433
_publ_section_title
;
Structure prediction by ZEFSAII (Michael W. Deem and Ramdas Pophale) SiO2 
 PCOD9440433
Probable space group: P B C M
;
_chemical_formula_sum "Si O2"
_cell_formula_units_Z 56
_cell_length_a 21.000000
_cell_length_b 15.000000
_cell_length_c 9.000000
_cell_angle_alpha 90.000000
_cell_angle_beta 90.000000
_cell_angle_gamma 90.000000
_cell_volume 2835.000000
_symmetry_space_group_name_H-M "P B C M"
_symmetry_group_IT_number 57
_symmetry_cell_setting 'orthorhombic'
loop_
_space_group_symop_operation_xyz
x,y,z
-x,-y,1/2+z
x,1/2-y,-z
-x,1/2+y,1/2-z
-x,-y,-z
x,y,1/2-z
-x,1/2+y,z
x,1/2-y,1/2+z
loop_
_atom_site_type_symbol
_atom_site_label
_atom_site_fract_x
_atom_site_fract_y
_atom_site_fract_z
Si Si1 0.364188 0.462864 0.429039
Si Si2 0.533906 0.656703 0.073603
Si Si3 0.030728 0.157732 0.925728
Si Si4 0.879122 0.159501 0.925908
Si Si5 0.130044 0.465488 0.925639
Si Si6 0.618523 0.159192 0.074758
Si Si7 0.254413 0.345767 0.574485
O O1 0.366409 0.460056 0.250000
O O2 0.429630 0.423569 0.494519
O O3 0.353627 0.565140 0.477450
O O4 0.309499 0.400723 0.493831
O O5 0.546708 0.657106 0.250000
O O6 0.457917 0.651440 0.051684
O O7 0.555718 0.750000 0.000000
O O8 0.040259 0.162872 0.750000
O O9 0.955213 0.150997 0.954782
O O10 0.053313 0.250000 0.000000
O O11 0.069770 0.075801 0.991524
O O12 0.869879 0.168346 0.750000
O O13 0.851775 0.064873 0.977376
O O14 0.855608 0.250000 0.000000
O O15 0.114481 0.471923 0.750000
O O16 0.188788 0.399249 0.943589
O O17 0.629348 0.166932 0.250000
O O18 0.641215 0.250000 0.000000
O O19 0.248967 0.250000 0.500000
O O20 0.268245 0.337687 0.750000
#
# Coordination Sequence:
#
# PCOD9440433 Si02
#       7
#     8   8   8   8   8   8   8
#     4  11  22  37  56  80 109 142 181 223 266 315
#     4  10  19  33  54  82 113 144 177 216 265 319
#     4  10  19  31  52  81 112 143 176 215 266 321
#     4   9  19  35  54  80 111 142 176 218 264 317
#     4  10  21  37  56  78 107 141 181 224 267 314
#     4   9  20  36  56  82 111 142 177 218 264 316
#     4  11  24  41  59  79 105 140 179 222 267 314
#
# _framework density 19.753086
#
# number of rings (size 3 to 8) (size 9 to 14) (size 15 to 20)
#    0.000    2.000    0.000    3.429    0.000    5.143 
#    0.000    0.714    0.000    3.429    0.000    0.000 
#    0.000    0.000    0.000    0.000    0.000    0.000 
#
# Total GULP energy -312799.404193 kJ/mol
# GULP energy per Si atom -5585.703646 kJ/mol
# Density = 1.970813 g / cm^3
# Si number density = 19.753086 Si / 1000 Ang^3
#
#
#
# Elastic Constant Matrix: (Units=GPa)
#
#
# Indices 1 2 3 4 5 6 
#
# 1 6.3752 26.4353 32.4723 0.0000 0.0000 0.0000
# 2 26.4353 197.7580 61.0785 0.0000 0.0000 0.0000
# 3 32.4723 61.0785 56.0255 0.0000 0.0000 0.0000
# 4 0.0000 0.0000 0.0000 33.6672 0.0000 0.0000
# 5 0.0000 0.0000 0.0000 0.0000 8.5595 0.0000
# 6 0.0000 0.0000 0.0000 0.0000 0.0000 1.8230
#
#
#
# Elastic Compliance Matrix: (Units=1/GPa)
#
#
# Indices 1 2 3 4 5 6 
#
# 1 -0.076578 -0.005234 0.050091 0.000000 0.000000 0.000000
# 2 -0.005234 0.007266 -0.004887 0.000000 0.000000 0.000000
# 3 0.050091 -0.004887 -0.005855 0.000000 0.000000 0.000000
# 4 0.000000 0.000000 0.000000 0.029703 0.000000 0.000000
# 5 0.000000 0.000000 0.000000 0.000000 0.116829 0.000000
# 6 0.000000 0.000000 0.000000 0.000000 0.000000 0.548561
#
#
# Mechanical properties :
#
#
# Convention : Reuss Voigt Hill
#
# Bulk Modulus (GPa) = 209.60299 55.57011 132.58655
# Shear Modulus (GPa) = 9.23230 18.15476 13.69353
#
# Velocity S-wave (km/s) = 2.16425 3.03493 2.63579
# Velocity P-wave (km/s) = 10.61071 6.36196 8.74819
#
# Compressibility (1/GPa) = 0.00477092
#
# Stress axis : x y z
#
# Youngs Moduli (GPa) = -13.05860 137.62957 -170.78387
#
# Poissons Ratio (x) = 0.72039 8.55471
# Poissons Ratio (y) = -0.06835 -0.83470
# Poissons Ratio (z) = 0.65412 0.67266
#
# Static dielectric constant tensor:
#      x y z
#    x 1.694860 0.000000 0.000000 
#    y 0.000000 1.709900 0.000000 
#    z 0.000000 0.000000 1.660370 
# 
# From -- ./inp_files/8099.got.cif
#   From: 2010.05.17/outbox.ucp.g08.bks.cvg/sg57_5_cif.got.tgz:8099.got - 2010.06.11 16:39:23.
