data_PCOD9440543
_publ_section_title
;
Structure prediction by ZEFSAII (Michael W. Deem and Ramdas Pophale) SiO2 
 PCOD9440543
Probable space group: P B C M
;
_chemical_formula_sum "Si O2"
_cell_formula_units_Z 56
_cell_length_a 15.000000
_cell_length_b 21.000000
_cell_length_c 9.000000
_cell_angle_alpha 90.000000
_cell_angle_beta 90.000000
_cell_angle_gamma 90.000000
_cell_volume 2835.000000
_symmetry_space_group_name_H-M "P B C M"
_symmetry_group_IT_number 57
_symmetry_cell_setting 'orthorhombic'
loop_
_space_group_symop_operation_xyz
x,y,z
-x,-y,1/2+z
x,1/2-y,-z
-x,1/2+y,1/2-z
-x,-y,-z
x,y,1/2-z
-x,1/2+y,z
x,1/2-y,1/2+z
loop_
_atom_site_type_symbol
_atom_site_label
_atom_site_fract_x
_atom_site_fract_y
_atom_site_fract_z
Si Si1 0.553567 0.318662 0.930391
Si Si2 0.900673 0.685843 0.422228
Si Si3 0.446680 0.060883 0.931534
Si Si4 0.733847 0.984626 0.576355
Si Si5 0.732136 0.366611 0.077413
Si Si6 0.077458 0.881038 0.577561
Si Si7 0.911154 0.941811 0.427371
O O1 0.547368 0.319067 0.750000
O O2 0.527897 0.250000 0.000000
O O3 0.493347 0.375415 0.001888
O O4 0.656138 0.331610 0.982388
O O5 0.872540 0.750000 0.500000
O O6 0.872674 0.679273 0.250000
O O7 0.871840 0.627643 0.526112
O O8 0.008791 0.678497 0.421741
O O9 0.450471 0.060252 0.750000
O O10 0.344106 0.053042 0.989442
O O11 0.500000 0.000000 0.000000
O O12 0.742033 0.964217 0.750000
O O13 0.831601 0.983717 0.497911
O O14 0.706288 0.058733 0.577256
O O15 0.732878 0.344802 0.250000
O O16 0.832011 0.365104 0.008569
O O17 0.095688 0.897940 0.750000
O O18 0.010216 0.934231 0.503947
O O19 0.920220 0.949491 0.250000
#
# Coordination Sequence:
#
# PCOD9440543 Si02
#       7
#     8   8   8   8   8   8   8
#     4  12  26  46  71 100 138 175 215 270 331 393
#     4   9  18  33  54  78 109 154 204 255 312 374
#     4  12  24  43  71 102 133 172 220 269 329 395
#     4  11  23  40  64  94 128 166 214 265 320 384
#     4  11  23  39  63  94 129 169 215 263 319 383
#     4   9  20  36  55  83 122 164 211 262 319 379
#     4  10  20  36  57  85 121 162 209 262 316 372
#
# _framework density 19.753086
#
# number of rings (size 3 to 8) (size 9 to 14) (size 15 to 20)
#    0.857    0.571    1.429    5.143    0.000    2.857 
#    0.000    2.143    0.000    0.000    0.000    0.000 
#    0.000    0.000    0.000    0.000    0.000    0.000 
#
# Total GULP energy -312399.797846 kJ/mol
# GULP energy per Si atom -5578.567819 kJ/mol
# Density = 1.970813 g / cm^3
# Si number density = 19.753086 Si / 1000 Ang^3
#
#
#
# Elastic Constant Matrix: (Units=GPa)
#
#
# Indices 1 2 3 4 5 6 
#
# 1 109.1333 11.6986 55.4910 0.0000 0.0000 0.0000
# 2 11.6986 85.4083 24.7977 0.0000 0.0000 0.0000
# 3 55.4910 24.7977 202.6783 0.0000 0.0000 0.0000
# 4 0.0000 0.0000 0.0000 29.0248 0.0000 0.0000
# 5 0.0000 0.0000 0.0000 0.0000 35.6474 0.0000
# 6 0.0000 0.0000 0.0000 0.0000 0.0000 24.5548
#
#
#
# Elastic Compliance Matrix: (Units=1/GPa)
#
#
# Indices 1 2 3 4 5 6 
#
# 1 0.010678 -0.000636 -0.002846 0.000000 0.000000 0.000000
# 2 -0.000636 0.012178 -0.001316 0.000000 0.000000 0.000000
# 3 -0.002846 -0.001316 0.005874 0.000000 0.000000 0.000000
# 4 0.000000 0.000000 0.000000 0.034453 0.000000 0.000000
# 5 0.000000 0.000000 0.000000 0.000000 0.028053 0.000000
# 6 0.000000 0.000000 0.000000 0.000000 0.000000 0.040725
#
#
# Mechanical properties :
#
#
# Convention : Reuss Voigt Hill
#
# Bulk Modulus (GPa) = 52.26212 64.57716 58.41964
# Shear Modulus (GPa) = 33.79869 38.19425 35.99647
#
# Velocity S-wave (km/s) = 4.14098 4.40202 4.27350
# Velocity P-wave (km/s) = 7.02700 7.65508 7.34776
#
# Compressibility (1/GPa) = 0.01913432
#
# Stress axis : x y z
#
# Youngs Moduli (GPa) = 93.64787 82.11774 170.24084
#
# Poissons Ratio (x) = 0.05226 0.48446
# Poissons Ratio (y) = 0.05960 0.22398
# Poissons Ratio (z) = 0.26650 0.10804
#
# Static dielectric constant tensor:
#      x y z
#    x 1.691490 0.000000 0.000000 
#    y 0.000000 1.799170 0.000000 
#    z 0.000000 0.000000 1.669690 
# 
# From -- ./inp_files/5237.got.cif
#   From: 2010.05.17/outbox.ucp.g08.bks.cvg/sg57_3_cif.got.tgz:5237.got - 2010.06.11 16:39:23.
