data_PCOD9440500
_publ_section_title
;
Structure prediction by ZEFSAII (Michael W. Deem and Ramdas Pophale) SiO2 
 PCOD9440500
Probable space group: P B C M
;
_chemical_formula_sum "Si O2"
_cell_formula_units_Z 40
_cell_length_a 27.000000
_cell_length_b 9.000000
_cell_length_c 9.000000
_cell_angle_alpha 90.000000
_cell_angle_beta 90.000000
_cell_angle_gamma 90.000000
_cell_volume 2187.000000
_symmetry_space_group_name_H-M "P B C M"
_symmetry_group_IT_number 57
_symmetry_cell_setting 'orthorhombic'
loop_
_space_group_symop_operation_xyz
x,y,z
-x,-y,1/2+z
x,1/2-y,-z
-x,1/2+y,1/2-z
-x,-y,-z
x,y,1/2-z
-x,1/2+y,z
x,1/2-y,1/2+z
loop_
_atom_site_type_symbol
_atom_site_label
_atom_site_fract_x
_atom_site_fract_y
_atom_site_fract_z
Si Si1 0.252193 0.911715 0.926140
Si Si2 0.546340 0.915016 0.929752
Si Si3 0.845347 0.414871 0.427705
Si Si4 0.646305 0.911711 0.427393
Si Si5 0.045219 0.912909 0.428070
O O1 0.243672 0.896730 0.750000
O O2 0.303079 0.999116 0.949235
O O3 0.257673 0.750000 0.000000
O O4 0.203594 0.985779 0.000531
O O5 0.544840 0.912259 0.750000
O O6 0.544875 0.750000 0.000000
O O7 0.598515 0.980293 0.989730
O O8 0.500000 0.000000 0.000000
O O9 0.846764 0.250000 0.500000
O O10 0.839561 0.403779 0.250000
O O11 0.899899 0.480742 0.458127
O O12 0.653008 0.750000 0.500000
O O13 0.636508 0.899717 0.250000
O O14 0.045006 0.750000 0.500000
O O15 0.039661 0.903163 0.250000
O O16 0.000000 0.000000 0.500000
#
# Coordination Sequence:
#
# PCOD9440500 Si02
#       5
#     8   8   8   8   8
#     4  10  20  33  53  79 105 134 172 215 257 304
#     4  11  22  38  59  82 109 142 178 218 263 312
#     4   9  17  30  50  74 101 133 170 210 257 307
#     4  10  21  37  55  78 107 140 176 213 259 313
#     4  10  20  34  53  77 104 137 174 216 263 314
#
# _framework density 18.289895000000001
#
# number of rings (size 3 to 8) (size 9 to 14) (size 15 to 20)
#    0.000    2.000    0.000    6.600    0.000    6.400 
#    0.000    3.000    0.000    2.400    0.000    0.000 
#    0.000    0.000    0.000    0.000    0.000    0.000 
#
# Total GULP energy -223058.771089 kJ/mol
# GULP energy per Si atom -5576.469277 kJ/mol
# Density = 1.824827 g / cm^3
# Si number density = 18.289895 Si / 1000 Ang^3
#
#
#
# Elastic Constant Matrix: (Units=GPa)
#
#
# Indices 1 2 3 4 5 6 
#
# 1 209.4168 51.9039 104.9357 0.0000 0.0000 0.0000
# 2 51.9039 29.4892 30.8537 0.0000 0.0000 0.0000
# 3 104.9357 30.8537 157.9961 0.0000 0.0000 0.0000
# 4 0.0000 0.0000 0.0000 26.3931 0.0000 0.0000
# 5 0.0000 0.0000 0.0000 0.0000 40.0957 0.0000
# 6 0.0000 0.0000 0.0000 0.0000 0.0000 29.2254
#
#
#
# Elastic Compliance Matrix: (Units=1/GPa)
#
#
# Indices 1 2 3 4 5 6 
#
# 1 0.010239 -0.013707 -0.004123 0.000000 0.000000 0.000000
# 2 -0.013707 0.060968 -0.002802 0.000000 0.000000 0.000000
# 3 -0.004123 -0.002802 0.009615 0.000000 0.000000 0.000000
# 4 0.000000 0.000000 0.000000 0.037889 0.000000 0.000000
# 5 0.000000 0.000000 0.000000 0.000000 0.024940 0.000000
# 6 0.000000 0.000000 0.000000 0.000000 0.000000 0.034217
#
#
# Mechanical properties :
#
#
# Convention : Reuss Voigt Hill
#
# Bulk Modulus (GPa) = 25.28025 85.80985 55.54505
# Shear Modulus (GPa) = 21.52224 33.09008 27.30616
#
# Velocity S-wave (km/s) = 3.43407 4.25808 3.86808
# Velocity P-wave (km/s) = 5.43836 8.43762 7.09821
#
# Compressibility (1/GPa) = 0.03955658
#
# Stress axis : x y z
#
# Youngs Moduli (GPa) = 97.67010 16.40211 104.00216
#
# Poissons Ratio (x) = 0.22482 0.42885
# Poissons Ratio (y) = 1.33873 0.29145
# Poissons Ratio (z) = 0.40274 0.04597
#
# Static dielectric constant tensor:
#      x y z
#    x 1.695760 0.000000 0.000000 
#    y 0.000000 1.621950 0.000000 
#    z 0.000000 0.000000 1.603860 
# 
# From -- ./inp_files/9638.got.cif
#   From: 2010.05.17/outbox.ucp.g08.bks.cvg/sg57_5_cif.got.tgz:9638.got - 2010.06.11 16:39:23.
