data_PCOD9440341
_publ_section_title
;
Structure prediction by ZEFSAII (Michael W. Deem and Ramdas Pophale) SiO2 
 PCOD9440341
Probable space group: P B C M
;
_chemical_formula_sum "Si O2"
_cell_formula_units_Z 44
_cell_length_a 9.223315
_cell_length_b 16.134057
_cell_length_c 15.641162
_cell_angle_alpha 90.000000
_cell_angle_beta 90.000000
_cell_angle_gamma 90.000000
_cell_volume 2327.553339
_symmetry_space_group_name_H-M "P B C M"
_symmetry_group_IT_number 57
_symmetry_cell_setting 'orthorhombic'
loop_
_space_group_symop_operation_xyz
x,y,z
-x,-y,1/2+z
x,1/2-y,-z
-x,1/2+y,1/2-z
-x,-y,-z
x,y,1/2-z
-x,1/2+y,z
x,1/2-y,1/2+z
loop_
_atom_site_type_symbol
_atom_site_label
_atom_site_fract_x
_atom_site_fract_y
_atom_site_fract_z
Si Si1 0.612975 0.031339 0.657055
Si Si2 0.817512 0.769544 0.347625
Si Si3 0.959099 0.250000 0.000000
Si Si4 0.273047 0.893161 0.981890
Si Si5 0.294485 0.067098 0.903381
Si Si6 0.591586 0.644316 0.419405
O O1 0.668284 0.055984 0.750000
O O2 0.688484 0.073870 0.576485
O O3 0.444625 0.054708 0.646307
O O4 0.617939 0.932355 0.644470
O O5 0.844776 0.743575 0.250000
O O6 0.802332 0.868803 0.352506
O O7 0.669515 0.725149 0.381835
O O8 0.940418 0.748481 0.416178
O O9 0.855652 0.329206 0.991179
O O10 0.419965 0.852379 0.941588
O O11 0.237949 0.975740 0.926963
O O12 0.332743 0.113417 0.992859
#
# Coordination Sequence:
#
# PCOD9440341 Si02
#       6
#     8   8   4   8   8   8
#     4   9  17  33  61  97 121 144 202 261 308 366
#     4  12  24  40  63  89 122 167 209 252 308 368
#     4  12  26  42  58  86 136 164 206 252 300 376
#     4   9  22  38  65  87 122 169 196 253 318 355
#     4   9  18  38  61  88 117 156 204 254 306 357
#     4   9  18  38  64  90 116 152 203 255 308 357
#
# _framework density 18.903970000000001
#
# number of rings (size 3 to 8) (size 9 to 14) (size 15 to 20)
#    0.000    2.182    1.818    3.273    5.091    1.455 
#    0.000    5.455    0.000    0.000    0.000    0.000 
#    0.000    0.000    0.000    0.000    0.000    0.000 
#
# Total GULP energy -245402.379619 kJ/mol
# GULP energy per Si atom -5577.326810 kJ/mol
# Density = 1.886094 g / cm^3
# Si number density = 18.903970 Si / 1000 Ang^3
#
#
#
# Elastic Constant Matrix: (Units=GPa)
#
#
# Indices 1 2 3 4 5 6 
#
# 1 63.3465 53.4685 48.4425 0.0000 0.0000 0.0000
# 2 53.4685 101.5270 49.1685 0.0000 0.0000 0.0000
# 3 48.4425 49.1685 121.9415 0.0000 0.0000 0.0000
# 4 0.0000 0.0000 0.0000 10.5776 0.0000 0.0000
# 5 0.0000 0.0000 0.0000 0.0000 7.8383 0.0000
# 6 0.0000 0.0000 0.0000 0.0000 0.0000 12.5142
#
#
#
# Elastic Compliance Matrix: (Units=1/GPa)
#
#
# Indices 1 2 3 4 5 6 
#
# 1 0.033326 -0.013842 -0.007658 0.000000 0.000000 0.000000
# 2 -0.013842 0.017989 -0.001754 0.000000 0.000000 0.000000
# 3 -0.007658 -0.001754 0.011950 0.000000 0.000000 0.000000
# 4 0.000000 0.000000 0.000000 0.094539 0.000000 0.000000
# 5 0.000000 0.000000 0.000000 0.000000 0.127579 0.000000
# 6 0.000000 0.000000 0.000000 0.000000 0.000000 0.079909
#
#
# Mechanical properties :
#
#
# Convention : Reuss Voigt Hill
#
# Bulk Modulus (GPa) = 59.67875 65.44157 62.56016
# Shear Modulus (GPa) = 11.97929 15.23506 13.60717
#
# Velocity S-wave (km/s) = 2.52005 2.84195 2.68583
# Velocity P-wave (km/s) = 6.33289 6.74255 6.54093
#
# Compressibility (1/GPa) = 0.01675638
#
# Stress axis : x y z
#
# Youngs Moduli (GPa) = 30.00656 55.58866 83.68070
#
# Poissons Ratio (x) = 0.76948 0.64080
# Poissons Ratio (y) = 0.41536 0.14682
# Poissons Ratio (z) = 0.22978 0.09753
#
# Static dielectric constant tensor:
#      x y z
#    x 1.642260 0.000000 0.000000 
#    y 0.000000 1.679880 0.000000 
#    z 0.000000 0.000000 1.671790 
# 
# From -- ./inp_files/16200.got.cif
#   From: 2010.05.17/outbox.cif.g08.bks.cpg/sg57_9_cif.got.tgz:16200.got - 2010.06.03 13:58:18.
