data_PCOD9440401
_publ_section_title
;
Structure prediction by ZEFSAII (Michael W. Deem and Ramdas Pophale) SiO2 
 PCOD9440401
Probable space group: P B C M
;
_chemical_formula_sum "Si O2"
_cell_formula_units_Z 64
_cell_length_a 18.000000
_cell_length_b 21.000000
_cell_length_c 9.000000
_cell_angle_alpha 90.000000
_cell_angle_beta 90.000000
_cell_angle_gamma 90.000000
_cell_volume 3402.000000
_symmetry_space_group_name_H-M "P B C M"
_symmetry_group_IT_number 57
_symmetry_cell_setting 'orthorhombic'
loop_
_space_group_symop_operation_xyz
x,y,z
-x,-y,1/2+z
x,1/2-y,-z
-x,1/2+y,1/2-z
-x,-y,-z
x,y,1/2-z
-x,1/2+y,z
x,1/2-y,1/2+z
loop_
_atom_site_type_symbol
_atom_site_label
_atom_site_fract_x
_atom_site_fract_y
_atom_site_fract_z
Si Si1 0.771853 0.420357 0.570600
Si Si2 0.725335 0.944088 0.425309
Si Si3 0.339098 0.815364 0.924915
Si Si4 0.056584 0.179337 0.570052
Si Si5 0.788258 0.821258 0.929870
Si Si6 0.482703 0.315959 0.575298
Si Si7 0.446785 0.051478 0.923311
Si Si8 0.904349 0.179207 0.429731
O O1 0.766451 0.426252 0.750000
O O2 0.771880 0.493973 0.519253
O O3 0.701055 0.378841 0.517774
O O4 0.840609 0.372994 0.540567
O O5 0.742271 0.930886 0.250000
O O6 0.734669 0.878357 0.516284
O O7 0.639795 0.966738 0.432737
O O8 0.322297 0.810287 0.750000
O O9 0.427684 0.818995 0.941415
O O10 0.312702 0.750000 0.000000
O O11 0.054535 0.250000 0.500000
O O12 0.058796 0.179658 0.750000
O O13 0.132912 0.154720 0.499037
O O14 0.979696 0.152601 0.505779
O O15 0.790794 0.815652 0.750000
O O16 0.773595 0.750000 0.000000
O O17 0.457053 0.250000 0.500000
O O18 0.464807 0.315181 0.750000
O O19 0.453609 0.379395 0.498161
O O20 0.466898 0.056185 0.750000
O O21 0.500000 0.000000 0.000000
O O22 0.889139 0.250000 0.500000
O O23 0.912793 0.186455 0.250000
#
# Coordination Sequence:
#
# PCOD9440401 Si02
#       8
#     8   8   8   8   8   8   8   8
#     4   9  18  33  53  75 107 147 185 224 271 320
#     4  10  22  41  60  81 109 145 185 228 278 332
#     4   9  17  31  51  77 107 145 185 224 269 321
#     4  10  18  32  55  82 112 146 182 223 268 320
#     4  11  22  39  63  89 113 141 179 227 279 334
#     4  10  20  35  56  81 111 142 181 230 282 337
#     4  11  23  39  61  84 111 147 188 231 280 337
#     4  10  18  30  51  81 113 147 185 225 265 313
#
# _framework density 18.812463000000001
#
# number of rings (size 3 to 8) (size 9 to 14) (size 15 to 20)
#    0.000    2.000    0.000    6.000    0.000    4.000 
#    0.000    3.125    0.000    0.000    0.000    0.000 
#    0.000    0.000    0.000    0.000    0.000    0.000 
#
# Total GULP energy -356884.748411 kJ/mol
# GULP energy per Si atom -5576.324194 kJ/mol
# Density = 1.876965 g / cm^3
# Si number density = 18.812463 Si / 1000 Ang^3
#
#
#
# Elastic Constant Matrix: (Units=GPa)
#
#
# Indices 1 2 3 4 5 6 
#
# 1 43.5961 34.3942 42.7502 0.0000 0.0000 0.0000
# 2 34.3942 119.3581 39.3294 0.0000 0.0000 0.0000
# 3 42.7502 39.3294 111.5420 0.0000 0.0000 0.0000
# 4 0.0000 0.0000 0.0000 33.8700 0.0000 0.0000
# 5 0.0000 0.0000 0.0000 0.0000 20.4535 0.0000
# 6 0.0000 0.0000 0.0000 0.0000 0.0000 24.7376
#
#
#
# Elastic Compliance Matrix: (Units=1/GPa)
#
#
# Indices 1 2 3 4 5 6 
#
# 1 0.042242 -0.007737 -0.013462 0.000000 0.000000 0.000000
# 2 -0.007737 0.010896 -0.000877 0.000000 0.000000 0.000000
# 3 -0.013462 -0.000877 0.014434 0.000000 0.000000 0.000000
# 4 0.000000 0.000000 0.000000 0.029525 0.000000 0.000000
# 5 0.000000 0.000000 0.000000 0.000000 0.048891 0.000000
# 6 0.000000 0.000000 0.000000 0.000000 0.000000 0.040424
#
#
# Mechanical properties :
#
#
# Convention : Reuss Voigt Hill
#
# Bulk Modulus (GPa) = 42.69577 56.38267 49.53922
# Shear Modulus (GPa) = 20.97565 26.34706 23.66136
#
# Velocity S-wave (km/s) = 3.34276 3.74640 3.55032
# Velocity P-wave (km/s) = 6.13543 6.98212 6.57242
#
# Compressibility (1/GPa) = 0.02342152
#
# Stress axis : x y z
#
# Youngs Moduli (GPa) = 23.67288 91.77279 69.28089
#
# Poissons Ratio (x) = 0.71002 0.93267
# Poissons Ratio (y) = 0.18315 0.06075
# Poissons Ratio (z) = 0.31869 0.08047
#
# Static dielectric constant tensor:
#      x y z
#    x 1.746340 0.000000 0.000000 
#    y 0.000000 1.662640 0.000000 
#    z 0.000000 0.000000 1.635940 
# 
# From -- ./inp_files/7198.got.cif
#   From: 2010.05.17/outbox.ucp.g08.bks.cvg/sg57_4_cif.got.tgz:7198.got - 2010.06.11 16:39:23.
