data_PCOD9440832
_publ_section_title
;
Structure prediction by ZEFSAII (Michael W. Deem and Ramdas Pophale) SiO2 
 PCOD9440832
Probable space group: P N N M
;
_chemical_formula_sum "Si O2"
_cell_formula_units_Z 44
_cell_length_a 11.405759
_cell_length_b 9.110688
_cell_length_c 21.767958
_cell_angle_alpha 90.000000
_cell_angle_beta 90.000000
_cell_angle_gamma 90.000000
_cell_volume 2262.002372
_symmetry_space_group_name_H-M "P N N M"
_symmetry_group_IT_number 58
_symmetry_cell_setting 'orthorhombic'
loop_
_space_group_symop_operation_xyz
x,y,z
-x,-y,z
1/2+x,1/2-y,1/2-z
1/2-x,1/2+y,1/2-z
-x,-y,-z
x,y,-z
1/2-x,1/2+y,1/2+z
1/2+x,1/2-y,1/2+z
loop_
_atom_site_type_symbol
_atom_site_label
_atom_site_fract_x
_atom_site_fract_y
_atom_site_fract_z
Si Si1 0.707310 0.485889 0.285032
Si Si2 0.247517 0.500624 0.856041
Si Si3 0.433272 0.659228 0.069090
Si Si4 0.500000 0.000000 0.633675
Si Si5 0.982318 0.226822 0.777472
Si Si6 0.887578 0.304145 0.646759
O O1 0.768226 0.482057 0.217771
O O2 0.637140 0.637696 0.293229
O O3 0.598292 0.372770 0.281029
O O4 0.800051 0.437386 0.336880
O O5 0.331622 0.626741 0.882000
O O6 0.128201 0.501748 0.895268
O O7 0.308009 0.341664 0.860941
O O8 0.500000 0.500000 0.068616
O O9 0.520672 0.787797 0.091379
O O10 0.391353 0.685918 0.000000
O O11 0.499388 0.856469 0.675678
O O12 0.963980 0.281206 0.708305
#
# Coordination Sequence:
#
# PCOD9440832 Si02
#       6
#     8   8   8   4   8   8
#     4  10  18  32  48  75 115 142 169 219 290 335
#     4  10  19  29  48  75 111 140 180 227 267 332
#     4   9  18  33  52  75 104 146 191 231 266 310
#     4  12  20  30  47  78 111 138 176 214 276 346
#     4  10  20  30  47  77 113 143 170 213 280 345
#     4  10  17  31  52  76 106 142 179 226 272 335
#
# _framework density 19.451792000000001
#
# number of rings (size 3 to 8) (size 9 to 14) (size 15 to 20)
#    0.000    2.000    5.455    0.000    0.000    0.000 
#    0.000    0.455    0.000    0.000    0.000    9.545 
#    0.000    0.000    0.000    0.000    0.000    0.000 
#
# Total GULP energy -245196.123212 kJ/mol
# GULP energy per Si atom -5572.639164 kJ/mol
# Density = 1.940752 g / cm^3
# Si number density = 19.451792 Si / 1000 Ang^3
#
#
#
# Elastic Constant Matrix: (Units=GPa)
#
#
# Indices 1 2 3 4 5 6 
#
# 1 76.2407 1.2140 10.1974 0.0000 0.0000 0.0000
# 2 1.2140 36.5139 5.6826 0.0000 0.0000 0.0000
# 3 10.1974 5.6826 41.2088 0.0000 0.0000 0.0000
# 4 0.0000 0.0000 0.0000 7.7106 0.0000 0.0000
# 5 0.0000 0.0000 0.0000 0.0000 -1.6996 0.0000
# 6 0.0000 0.0000 0.0000 0.0000 0.0000 30.2555
#
#
#
# Elastic Compliance Matrix: (Units=1/GPa)
#
#
# Indices 1 2 3 4 5 6 
#
# 1 0.013566 0.000073 -0.003367 0.000000 0.000000 0.000000
# 2 0.000073 0.027988 -0.003878 0.000000 0.000000 0.000000
# 3 -0.003367 -0.003878 0.025635 0.000000 0.000000 0.000000
# 4 0.000000 0.000000 0.000000 0.129691 0.000000 0.000000
# 5 0.000000 0.000000 0.000000 0.000000 -0.588376 0.000000
# 6 0.000000 0.000000 0.000000 0.000000 0.000000 0.033052
#
#
# Mechanical properties :
#
#
# Convention : Reuss Voigt Hill
#
# Bulk Modulus (GPa) = 18.92329 20.90571 19.91450
# Shear Modulus (GPa) = -15.31454 16.37794 0.53170
#
# Velocity S-wave (km/s) = -2.80894 2.90483 0.52339
# Velocity P-wave (km/s) = 0.87795 4.69271 3.25965
#
# Compressibility (1/GPa) = 0.05284493
#
# Stress axis : x y z
#
# Youngs Moduli (GPa) = 73.71625 35.72978 39.00989
#
# Poissons Ratio (x) = -0.00261 0.13134
# Poissons Ratio (y) = -0.00538 0.15126
# Poissons Ratio (z) = 0.24820 0.13854
#
# Static dielectric constant tensor:
#      x y z
#    x 1.777750 0.000000 0.000000 
#    y 0.000000 1.714690 0.000000 
#    z 0.000000 0.000000 1.635510 
# 
# From -- ./inp_files/31863.got.cif
#   From: 2010.05.17/outbox.cif.g08.bks.cpg/sg58_16_cif.got.tgz:31863.got - 2010.06.03 14:20:14.
