data_PCOD9440112
_publ_section_title
;
Structure prediction by ZEFSAII (Michael W. Deem and Ramdas Pophale) SiO2 
 PCOD9440112
Probable space group: P B C M
;
_chemical_formula_sum "Si O2"
_cell_formula_units_Z 40
_cell_length_a 9.111628
_cell_length_b 14.439732
_cell_length_c 13.654570
_cell_angle_alpha 90.000000
_cell_angle_beta 90.000000
_cell_angle_gamma 90.000000
_cell_volume 1796.524489
_symmetry_space_group_name_H-M "P B C M"
_symmetry_group_IT_number 57
_symmetry_cell_setting 'orthorhombic'
loop_
_space_group_symop_operation_xyz
x,y,z
-x,-y,1/2+z
x,1/2-y,-z
-x,1/2+y,1/2-z
-x,-y,-z
x,y,1/2-z
-x,1/2+y,z
x,1/2-y,1/2+z
loop_
_atom_site_type_symbol
_atom_site_label
_atom_site_fract_x
_atom_site_fract_y
_atom_site_fract_z
Si Si1 0.321703 0.083426 0.998201
Si Si2 0.107809 0.169704 0.644829
Si Si3 0.578948 0.086530 0.137310
Si Si4 0.929319 0.980653 0.635627
Si Si5 0.127423 0.683804 0.091429
O O1 0.454035 0.122622 0.063354
O O2 0.222215 0.158209 0.942493
O O3 0.221087 0.028759 0.076891
O O4 0.374306 0.010569 0.914869
O O5 0.185366 0.166268 0.750000
O O6 0.001409 0.257300 0.642128
O O7 0.999331 0.081909 0.638215
O O8 0.531364 0.072719 0.250000
O O9 0.718790 0.154937 0.138328
O O10 0.913864 0.952221 0.750000
O O11 0.045887 0.914553 0.580971
O O12 0.161146 0.750000 0.000000
#
# Coordination Sequence:
#
# PCOD9440112 Si02
#       5
#     8   8   8   8   8
#     4  11  22  41  68 101 134 180 224 277 349 420
#     4  11  22  39  70 103 132 177 233 284 341 409
#     4  11  24  43  68 101 141 181 226 288 358 420
#     4  11  22  41  69 101 136 176 226 284 338 407
#     4  12  23  42  69  98 138 177 228 288 345 409
#
# _framework density 22.265212999999999
#
# number of rings (size 3 to 8) (size 9 to 14) (size 15 to 20)
#    0.000    0.800    4.000    4.800    0.000    0.000 
#    3.600    0.000    0.000    4.800    0.000    0.000 
#    0.000    0.000    0.000    0.000    0.000    0.000 
#
# Total GULP energy -223453.409053 kJ/mol
# GULP energy per Si atom -5586.335226 kJ/mol
# Density = 2.221454 g / cm^3
# Si number density = 22.265213 Si / 1000 Ang^3
#
#
#
# Elastic Constant Matrix: (Units=GPa)
#
#
# Indices 1 2 3 4 5 6 
#
# 1 108.4380 12.5826 49.5405 0.0000 0.0000 0.0000
# 2 12.5826 61.5393 3.9188 0.0000 0.0000 0.0000
# 3 49.5405 3.9188 169.0040 0.0000 0.0000 0.0000
# 4 0.0000 0.0000 0.0000 20.1145 0.0000 0.0000
# 5 0.0000 0.0000 0.0000 0.0000 28.0449 0.0000
# 6 0.0000 0.0000 0.0000 0.0000 0.0000 28.0939
#
#
#
# Elastic Compliance Matrix: (Units=1/GPa)
#
#
# Indices 1 2 3 4 5 6 
#
# 1 0.010895 -0.002027 -0.003147 0.000000 0.000000 0.000000
# 2 -0.002027 0.016651 0.000208 0.000000 0.000000 0.000000
# 3 -0.003147 0.000208 0.006835 0.000000 0.000000 0.000000
# 4 0.000000 0.000000 0.000000 0.049715 0.000000 0.000000
# 5 0.000000 0.000000 0.000000 0.000000 0.035657 0.000000
# 6 0.000000 0.000000 0.000000 0.000000 0.000000 0.035595
#
#
# Mechanical properties :
#
#
# Convention : Reuss Voigt Hill
#
# Bulk Modulus (GPa) = 40.90154 52.34056 46.62105
# Shear Modulus (GPa) = 28.83031 33.44660 31.13846
#
# Velocity S-wave (km/s) = 3.60232 3.88002 3.74374
# Velocity P-wave (km/s) = 5.97598 6.60541 6.29856
#
# Compressibility (1/GPa) = 0.02444896
#
# Stress axis : x y z
#
# Youngs Moduli (GPa) = 91.78852 60.05638 146.31548
#
# Poissons Ratio (x) = 0.12175 0.46039
# Poissons Ratio (y) = 0.18607 -0.03045
# Poissons Ratio (z) = 0.28882 -0.01250
#
# Static dielectric constant tensor:
#      x y z
#    x 1.830610 0.000000 0.000000 
#    y 0.000000 1.808860 0.000000 
#    z 0.000000 0.000000 1.182180 
# 
# From -- ./inp_files/15914.got.cif
#   From: 2010.05.17/outbox.cif.g08.bks.cpg/sg57_8_cif.got.tgz:15914.got - 2010.06.03 13:58:18.
