data_PCOD9440655
_publ_section_title
;
Structure prediction by ZEFSAII (Michael W. Deem and Ramdas Pophale) SiO2 
 PCOD9440655
Probable space group: P B C M
;
_chemical_formula_sum "Si O2"
_cell_formula_units_Z 48
_cell_length_a 12.000000
_cell_length_b 15.000000
_cell_length_c 15.000000
_cell_angle_alpha 90.000000
_cell_angle_beta 90.000000
_cell_angle_gamma 90.000000
_cell_volume 2700.000000
_symmetry_space_group_name_H-M "P B C M"
_symmetry_group_IT_number 57
_symmetry_cell_setting 'orthorhombic'
loop_
_space_group_symop_operation_xyz
x,y,z
-x,-y,1/2+z
x,1/2-y,-z
-x,1/2+y,1/2-z
-x,-y,-z
x,y,1/2-z
-x,1/2+y,z
x,1/2-y,1/2+z
loop_
_atom_site_type_symbol
_atom_site_label
_atom_site_fract_x
_atom_site_fract_y
_atom_site_fract_z
Si Si1 0.505682 0.430609 0.918794
Si Si2 0.112352 0.993179 0.060875
Si Si3 0.733833 0.675830 0.419265
Si Si4 0.251803 0.844083 0.552584
Si Si5 0.992170 0.951835 0.250000
Si Si6 0.607280 0.974987 0.250000
Si Si7 0.815504 0.390533 0.750000
Si Si8 0.221499 0.307548 0.250000
O O1 0.390653 0.371514 0.911185
O O2 0.617128 0.369885 0.933211
O O3 0.532806 0.495447 0.834598
O O4 0.500000 0.500000 0.000000
O O5 0.068552 0.957043 0.158875
O O6 0.179522 0.089859 0.068959
O O7 0.192130 0.922186 0.007423
O O8 0.000000 0.000000 0.000000
O O9 0.733962 0.750000 0.500000
O O10 0.767076 0.739345 0.334539
O O11 0.241697 0.750000 0.500000
O O12 0.196455 0.841328 0.653145
O O13 0.894589 0.870794 0.250000
O O14 0.922794 0.044928 0.250000
O O15 0.672052 0.878401 0.250000
O O16 0.710697 0.042883 0.250000
#
# Coordination Sequence:
#
# PCOD9440655 Si02
#       8
#     8   8   8   8   4   4   4   4
#     4  11  21  43  69  96 138 177 219 284 353 410
#     4  12  25  44  66  96 139 182 232 289 347 413
#     4  12  25  42  70 103 134 177 236 287 345 417
#     4  11  24  43  69 101 132 180 230 282 351 419
#     4  11  23  44  68  93 140 186 228 284 345 405
#     4   9  21  37  69  94 129 180 212 272 346 408
#     4   9  20  43  66  87 133 173 221 269 337 406
#     4  11  24  44  69 104 134 177 237 281 342 419
#
# _framework density 17.777778000000001
#
# number of rings (size 3 to 8) (size 9 to 14) (size 15 to 20)
#    0.000    1.000    3.333    3.500    2.333    2.667 
#    3.000    0.833    0.000    0.000    0.000    0.000 
#    0.000    0.000    0.000    0.000    0.000    0.000 
#
# Total GULP energy -267437.655014 kJ/mol
# GULP energy per Si atom -5571.617813 kJ/mol
# Density = 1.773731 g / cm^3
# Si number density = 17.777778 Si / 1000 Ang^3
#
#
#
# Elastic Constant Matrix: (Units=GPa)
#
#
# Indices 1 2 3 4 5 6 
#
# 1 133.8480 56.8653 48.6652 0.0000 0.0000 0.0000
# 2 56.8653 160.3520 71.1949 0.0000 0.0000 0.0000
# 3 48.6652 71.1949 185.5996 0.0000 0.0000 0.0000
# 4 0.0000 0.0000 0.0000 47.8058 0.0000 0.0000
# 5 0.0000 0.0000 0.0000 0.0000 38.7477 0.0000
# 6 0.0000 0.0000 0.0000 0.0000 0.0000 49.7243
#
#
#
# Elastic Compliance Matrix: (Units=1/GPa)
#
#
# Indices 1 2 3 4 5 6 
#
# 1 0.009081 -0.002607 -0.001381 0.000000 0.000000 0.000000
# 2 -0.002607 0.008265 -0.002487 0.000000 0.000000 0.000000
# 3 -0.001381 -0.002487 0.006704 0.000000 0.000000 0.000000
# 4 0.000000 0.000000 0.000000 0.020918 0.000000 0.000000
# 5 0.000000 0.000000 0.000000 0.000000 0.025808 0.000000
# 6 0.000000 0.000000 0.000000 0.000000 0.000000 0.020111
#
#
# Mechanical properties :
#
#
# Convention : Reuss Voigt Hill
#
# Bulk Modulus (GPa) = 90.09034 92.58337 91.33686
# Shear Modulus (GPa) = 46.49579 47.46049 46.97814
#
# Velocity S-wave (km/s) = 5.11963 5.17247 5.14612
# Velocity P-wave (km/s) = 9.25923 9.37357 9.31658
#
# Compressibility (1/GPa) = 0.01109997
#
# Stress axis : x y z
#
# Youngs Moduli (GPa) = 110.12089 120.99248 149.16590
#
# Poissons Ratio (x) = 0.31545 0.20599
# Poissons Ratio (y) = 0.28711 0.37094
# Poissons Ratio (z) = 0.15207 0.30088
#
# Static dielectric constant tensor:
#      x y z
#    x 1.630750 0.000000 0.000000 
#    y 0.000000 1.598660 0.000000 
#    z 0.000000 0.000000 1.669170 
# 
# From -- ./inp_files/17670.got.cif
#   From: 2010.05.17/outbox.ucp.g08.bks.cvg/sg57_9_cif.got.tgz:17670.got - 2010.06.11 16:39:23.
