data_PCOD9440111
_publ_section_title
;
Structure prediction by ZEFSAII (Michael W. Deem and Ramdas Pophale) SiO2 
 PCOD9440111
Probable space group: P B C M
;
_chemical_formula_sum "Si O2"
_cell_formula_units_Z 36
_cell_length_a 8.606385
_cell_length_b 22.359548
_cell_length_c 7.657872
_cell_angle_alpha 90.000000
_cell_angle_beta 90.000000
_cell_angle_gamma 90.000000
_cell_volume 1473.641668
_symmetry_space_group_name_H-M "P B C M"
_symmetry_group_IT_number 57
_symmetry_cell_setting 'orthorhombic'
loop_
_space_group_symop_operation_xyz
x,y,z
-x,-y,1/2+z
x,1/2-y,-z
-x,1/2+y,1/2-z
-x,-y,-z
x,y,1/2-z
-x,1/2+y,z
x,1/2-y,1/2+z
loop_
_atom_site_type_symbol
_atom_site_label
_atom_site_fract_x
_atom_site_fract_y
_atom_site_fract_z
Si Si1 0.826920 0.522578 0.542936
Si Si2 0.622951 0.413764 0.441482
Si Si3 0.211037 0.160899 0.546759
Si Si4 0.577475 0.646395 0.250000
Si Si5 0.138385 0.685339 0.457875
O O1 0.810162 0.520207 0.750000
O O2 0.697909 0.478988 0.464472
O O3 0.808649 0.590992 0.486809
O O4 0.000000 0.500000 0.500000
O O5 0.548604 0.410596 0.250000
O O6 0.513803 0.392362 0.596606
O O7 0.767146 0.367519 0.452143
O O8 0.253000 0.164867 0.750000
O O9 0.331109 0.184430 0.405100
O O10 0.037533 0.185684 0.524054
O O11 0.210519 0.750000 0.500000
O O12 0.142154 0.675441 0.250000
#
# Coordination Sequence:
#
# PCOD9440111 Si02
#       5
#     8   8   8   4   8
#     4  11  22  39  67 102 138 180 231 290 338 394
#     4  12  25  45  70 104 141 182 236 283 346 409
#     4  11  25  45  69 104 141 182 235 283 345 408
#     4  12  26  46  68  98 150 192 218 280 346 432
#     4  12  24  46  78 104 133 174 240 300 339 397
#
# _framework density 24.429275000000001
#
# number of rings (size 3 to 8) (size 9 to 14) (size 15 to 20)
#    0.000    0.444    5.556    3.333    3.111    0.889 
#    0.000    1.111    0.000    0.000    0.000    0.000 
#    0.000    0.000    0.000    0.000    0.000    0.000 
#
# Total GULP energy -200772.157676 kJ/mol
# GULP energy per Si atom -5577.004380 kJ/mol
# Density = 2.437367 g / cm^3
# Si number density = 24.429275 Si / 1000 Ang^3
#
#
#
# Elastic Constant Matrix: (Units=GPa)
#
#
# Indices 1 2 3 4 5 6 
#
# 1 77.0261 7.9396 21.5575 0.0000 0.0000 0.0000
# 2 7.9396 99.9248 7.4205 0.0000 0.0000 0.0000
# 3 21.5575 7.4205 184.2732 0.0000 0.0000 0.0000
# 4 0.0000 0.0000 0.0000 13.9694 0.0000 0.0000
# 5 0.0000 0.0000 0.0000 0.0000 32.4647 0.0000
# 6 0.0000 0.0000 0.0000 0.0000 0.0000 -11.7910
#
#
#
# Elastic Compliance Matrix: (Units=1/GPa)
#
#
# Indices 1 2 3 4 5 6 
#
# 1 0.013513 -0.000959 -0.001542 0.000000 0.000000 0.000000
# 2 -0.000959 0.010106 -0.000295 0.000000 0.000000 0.000000
# 3 -0.001542 -0.000295 0.005619 0.000000 0.000000 0.000000
# 4 0.000000 0.000000 0.000000 0.071585 0.000000 0.000000
# 5 0.000000 0.000000 0.000000 0.000000 0.030803 0.000000
# 6 0.000000 0.000000 0.000000 0.000000 0.000000 -0.084811
#
#
# Mechanical properties :
#
#
# Convention : Reuss Voigt Hill
#
# Bulk Modulus (GPa) = 42.29136 48.33991 45.31564
# Shear Modulus (GPa) = 82.93426 28.54906 55.74166
#
# Velocity S-wave (km/s) = 5.83287 3.42225 4.78196
# Velocity P-wave (km/s) = 7.91913 5.95369 7.00567
#
# Compressibility (1/GPa) = 0.02364549
#
# Stress axis : x y z
#
# Youngs Moduli (GPa) = 74.00226 98.95480 177.96718
#
# Poissons Ratio (x) = 0.09491 0.27447
# Poissons Ratio (y) = 0.07098 0.05245
# Poissons Ratio (z) = 0.11413 0.02917
#
# Static dielectric constant tensor:
#      x y z
#    x 1.976700 0.000000 0.000000 
#    y 0.000000 2.197980 0.000000 
#    z 0.000000 0.000000 1.833460 
# 
# From -- ./inp_files/1359.got.cif
#   From: 2010.05.17/outbox.cif.g08.bks.cpg/sg57_1_cif.got.tgz:1359.got - 2010.06.03 13:58:18.
