data_PCOD9440918
_publ_section_title
;
Structure prediction by ZEFSAII (Michael W. Deem and Ramdas Pophale) SiO2 
 PCOD9440918
Probable space group: P N N M
;
_chemical_formula_sum "Si O2"
_cell_formula_units_Z 64
_cell_length_a 15.824847
_cell_length_b 11.947943
_cell_length_c 17.694334
_cell_angle_alpha 90.000000
_cell_angle_beta 90.000000
_cell_angle_gamma 90.000000
_cell_volume 3345.545053
_symmetry_space_group_name_H-M "P N N M"
_symmetry_group_IT_number 58
_symmetry_cell_setting 'orthorhombic'
loop_
_space_group_symop_operation_xyz
x,y,z
-x,-y,z
1/2+x,1/2-y,1/2-z
1/2-x,1/2+y,1/2-z
-x,-y,-z
x,y,-z
1/2-x,1/2+y,1/2+z
1/2+x,1/2-y,1/2+z
loop_
_atom_site_type_symbol
_atom_site_label
_atom_site_fract_x
_atom_site_fract_y
_atom_site_fract_z
Si Si1 0.822393 0.562914 0.314913
Si Si2 0.771211 0.282761 0.163777
Si Si3 0.678703 0.135330 0.584433
Si Si4 0.416438 0.102877 0.582908
Si Si5 0.425192 0.094300 0.911440
Si Si6 0.054154 0.320775 0.200965
Si Si7 0.914465 0.213016 0.287173
Si Si8 0.308799 0.485719 0.182852
O O1 0.781892 0.672575 0.350831
O O2 0.846149 0.471903 0.376179
O O3 0.903450 0.599148 0.263746
O O4 0.753594 0.523595 0.254547
O O5 0.838430 0.315622 0.099865
O O6 0.833045 0.261793 0.237874
O O7 0.703001 0.383704 0.166291
O O8 0.684121 0.180105 0.500000
O O9 0.630865 0.212143 0.645322
O O10 0.766342 0.090770 0.617234
O O11 0.623328 0.020677 0.583856
O O12 0.453913 0.123658 0.500000
O O13 0.482940 0.121111 0.649154
O O14 0.430410 0.205164 0.858970
O O15 0.500000 0.000000 0.904391
O O16 0.417970 0.121858 0.000000
O O17 0.000728 0.224089 0.239952
O O18 0.893186 0.083367 0.301735
#
# Coordination Sequence:
#
# PCOD9440918 Si02
#       8
#     8   8   8   8   8   8   8   8
#     4  10  19  32  51  75 101 132 174 205 252 300
#     4   9  18  32  52  74 103 136 164 205 248 301
#     4   9  17  27  45  75 102 127 156 193 257 314
#     4   9  17  27  45  75 102 127 156 193 257 314
#     4  11  22  34  52  74 100 131 169 218 257 294
#     4  10  18  27  47  68 102 130 157 212 244 288
#     4  10  19  32  51  75 101 132 174 205 252 300
#     4   9  18  32  52  74 103 136 164 205 248 301
#
# _framework density 19.129916000000001
#
# number of rings (size 3 to 8) (size 9 to 14) (size 15 to 20)
#    0.000    2.375    2.500    0.750    3.500    2.000 
#    0.000    0.625    0.000    0.000    0.000    1.750 
#    0.000    7.000    0.000    0.000    0.000    0.000 
#
# Total GULP energy -356382.789262 kJ/mol
# GULP energy per Si atom -5568.481082 kJ/mol
# Density = 1.908638 g / cm^3
# Si number density = 19.129916 Si / 1000 Ang^3
#
#
#
# Elastic Constant Matrix: (Units=GPa)
#
#
# Indices 1 2 3 4 5 6 
#
# 1 10.0857 -4.4955 4.7277 0.0000 0.0000 0.0000
# 2 -4.4955 22.2776 -14.6423 0.0000 0.0000 0.0000
# 3 4.7277 -14.6423 58.0634 0.0000 0.0000 0.0000
# 4 0.0000 0.0000 0.0000 8.0417 0.0000 0.0000
# 5 0.0000 0.0000 0.0000 0.0000 9.9586 0.0000
# 6 0.0000 0.0000 0.0000 0.0000 0.0000 21.6486
#
#
#
# Elastic Compliance Matrix: (Units=1/GPa)
#
#
# Indices 1 2 3 4 5 6 
#
# 1 0.109726 0.019502 -0.004016 0.000000 0.000000 0.000000
# 2 0.019502 0.057273 0.012855 0.000000 0.000000 0.000000
# 3 -0.004016 0.012855 0.020791 0.000000 0.000000 0.000000
# 4 0.000000 0.000000 0.000000 0.124352 0.000000 0.000000
# 5 0.000000 0.000000 0.000000 0.000000 0.100416 0.000000
# 6 0.000000 0.000000 0.000000 0.000000 0.000000 0.046192
#
#
# Mechanical properties :
#
#
# Convention : Reuss Voigt Hill
#
# Bulk Modulus (GPa) = 4.09044 6.84517 5.46780
# Shear Modulus (GPa) = 10.34001 14.91889 12.62945
#
# Velocity S-wave (km/s) = 2.32742 2.79565 2.57221
# Velocity P-wave (km/s) = 3.06029 3.74258 3.41850
#
# Compressibility (1/GPa) = 0.24447227
#
# Stress axis : x y z
#
# Youngs Moduli (GPa) = 9.11365 17.46026 48.09701
#
# Poissons Ratio (x) = -0.34052 0.19317
# Poissons Ratio (y) = -0.17774 -0.61829
# Poissons Ratio (z) = 0.03660 -0.22445
#
# Static dielectric constant tensor:
#      x y z
#    x 1.714040 0.000000 0.000000 
#    y 0.000000 1.677130 0.000000 
#    z 0.000000 0.000000 1.698030 
# 
# From -- ./inp_files/27001.got.cif
#   From: 2010.05.17/outbox.cif.g08.bks.cpg/sg58_14_cif.got.tgz:27001.got - 2010.06.03 14:20:14.
