data_PCOD9440637
_publ_section_title
;
Structure prediction by ZEFSAII (Michael W. Deem and Ramdas Pophale) SiO2 
 PCOD9440637
Probable space group: P B C M
;
_chemical_formula_sum "Si O2"
_cell_formula_units_Z 60
_cell_length_a 12.000000
_cell_length_b 9.000000
_cell_length_c 27.000000
_cell_angle_alpha 90.000000
_cell_angle_beta 90.000000
_cell_angle_gamma 90.000000
_cell_volume 2916.000000
_symmetry_space_group_name_H-M "P B C M"
_symmetry_group_IT_number 57
_symmetry_cell_setting 'orthorhombic'
loop_
_space_group_symop_operation_xyz
x,y,z
-x,-y,1/2+z
x,1/2-y,-z
-x,1/2+y,1/2-z
-x,-y,-z
x,y,1/2-z
-x,1/2+y,z
x,1/2-y,1/2+z
loop_
_atom_site_type_symbol
_atom_site_label
_atom_site_fract_x
_atom_site_fract_y
_atom_site_fract_z
Si Si1 0.715252 0.180130 0.750000
Si Si2 0.948874 0.359058 0.854810
Si Si3 0.687811 0.919926 0.485854
Si Si4 0.729586 0.481606 0.805323
Si Si5 0.911802 0.402399 0.529579
Si Si6 0.574748 0.651662 0.883671
Si Si7 0.361588 0.010434 0.095534
Si Si8 0.842171 0.040004 0.661156
O O1 0.691304 0.312305 0.792531
O O2 0.759487 0.065796 0.706749
O O3 0.850319 0.459434 0.830824
O O4 0.949047 0.378453 0.913935
O O5 0.915625 0.189988 0.843080
O O6 0.068687 0.407822 0.834193
O O7 0.717947 0.750000 0.500000
O O8 0.612294 0.912167 0.437171
O O9 0.635463 0.987980 0.535764
O O10 0.795742 0.011543 0.471034
O O11 0.739981 0.551008 0.750000
O O12 0.646068 0.570759 0.840752
O O13 0.899042 0.250000 0.500000
O O14 0.000000 0.500000 0.500000
O O15 0.444989 0.610201 0.881383
O O16 0.599707 0.827010 0.885414
O O17 0.235491 0.982778 0.113219
#
# Coordination Sequence:
#
# PCOD9440637 Si02
#       8
#     4   8   8   8   8   8   8   8
#     4   8  22  44  70  96 132 168 226 290 336 414
#     4  11  23  41  70  95 140 179 225 285 344 412
#     4  10  22  42  64  95 137 178 235 283 340 415
#     4   9  21  44  70  96 126 175 225 280 349 398
#     4  12  23  36  60  96 137 184 222 278 346 414
#     4  11  24  44  70  98 136 187 234 295 340 412
#     4  11  26  43  68 102 140 184 236 284 349 417
#     4  11  25  44  67 105 134 178 232 284 347 418
#
# _framework density 20.576132000000001
#
# number of rings (size 3 to 8) (size 9 to 14) (size 15 to 20)
#    0.400    1.067    1.333    3.200    6.533    2.133 
#    2.400    0.000    0.000    0.000    0.000    0.000 
#    0.000    0.000    0.000    0.000    0.000    0.000 
#
# Total GULP energy -334171.752184 kJ/mol
# GULP energy per Si atom -5569.529203 kJ/mol
# Density = 2.052930 g / cm^3
# Si number density = 20.576132 Si / 1000 Ang^3
#
#
#
# Elastic Constant Matrix: (Units=GPa)
#
#
# Indices 1 2 3 4 5 6 
#
# 1 45.7365 21.3835 -25.8553 0.0000 0.0000 0.0000
# 2 21.3835 29.7246 5.3006 0.0000 0.0000 0.0000
# 3 -25.8553 5.3006 98.5141 0.0000 0.0000 0.0000
# 4 0.0000 0.0000 0.0000 25.0340 0.0000 0.0000
# 5 0.0000 0.0000 0.0000 0.0000 14.9570 0.0000
# 6 0.0000 0.0000 0.0000 0.0000 0.0000 31.2021
#
#
#
# Elastic Compliance Matrix: (Units=1/GPa)
#
#
# Indices 1 2 3 4 5 6 
#
# 1 0.046878 -0.036265 0.014255 0.000000 0.000000 0.000000
# 2 -0.036265 0.062023 -0.012855 0.000000 0.000000 0.000000
# 3 0.014255 -0.012855 0.014584 0.000000 0.000000 0.000000
# 4 0.000000 0.000000 0.000000 0.039946 0.000000 0.000000
# 5 0.000000 0.000000 0.000000 0.000000 0.066859 0.000000
# 6 0.000000 0.000000 0.000000 0.000000 0.000000 0.032049
#
#
# Mechanical properties :
#
#
# Convention : Reuss Voigt Hill
#
# Bulk Modulus (GPa) = 18.60356 19.51475 19.05915
# Shear Modulus (GPa) = 14.28622 25.78170 20.03396
#
# Velocity S-wave (km/s) = 2.63783 3.54360 3.12372
# Velocity P-wave (km/s) = 4.28235 5.12324 4.72155
#
# Compressibility (1/GPa) = 0.05375315
#
# Stress axis : x y z
#
# Youngs Moduli (GPa) = 21.33199 16.12297 68.56994
#
# Poissons Ratio (x) = 0.58470 -0.97743
# Poissons Ratio (y) = 0.77361 0.88148
# Poissons Ratio (z) = -0.30408 0.20726
#
# Static dielectric constant tensor:
#      x y z
#    x 1.733890 0.000000 0.000000 
#    y 0.000000 1.730630 0.000000 
#    z 0.000000 0.000000 1.724650 
# 
# From -- ./inp_files/28621.got.cif
#   From: 2010.05.17/outbox.ucp.g08.bks.cvg/sg57_15_cif.got.tgz:28621.got - 2010.06.11 16:39:23.
