data_PCOD9440217
_publ_section_title
;
Structure prediction by ZEFSAII (Michael W. Deem and Ramdas Pophale) SiO2 
 PCOD9440217
Probable space group: P B C M
;
_chemical_formula_sum "Si O2"
_cell_formula_units_Z 40
_cell_length_a 26.216439
_cell_length_b 9.088909
_cell_length_c 8.593041
_cell_angle_alpha 90.000000
_cell_angle_beta 90.000000
_cell_angle_gamma 90.000000
_cell_volume 2047.539742
_symmetry_space_group_name_H-M "P B C M"
_symmetry_group_IT_number 57
_symmetry_cell_setting 'orthorhombic'
loop_
_space_group_symop_operation_xyz
x,y,z
-x,-y,1/2+z
x,1/2-y,-z
-x,1/2+y,1/2-z
-x,-y,-z
x,y,1/2-z
-x,1/2+y,z
x,1/2-y,1/2+z
loop_
_atom_site_type_symbol
_atom_site_label
_atom_site_fract_x
_atom_site_fract_y
_atom_site_fract_z
Si Si1 0.653210 0.584210 0.937339
Si Si2 0.247950 0.584161 0.563619
Si Si3 0.549199 0.415235 0.563650
Si Si4 0.148863 0.084051 0.563381
Si Si5 0.049635 0.915988 0.063290
O O1 0.657685 0.585323 0.750000
O O2 0.600712 0.501973 0.980247
O O3 0.652459 0.750000 0.000000
O O4 0.700920 0.497745 0.008711
O O5 0.248126 0.750000 0.500000
O O6 0.245071 0.585313 0.750000
O O7 0.199464 0.498355 0.494928
O O8 0.550693 0.250000 0.500000
O O9 0.500000 0.500000 0.500000
O O10 0.546428 0.410729 0.750000
O O11 0.148891 0.250000 0.500000
O O12 0.147386 0.085010 0.750000
O O13 0.099743 0.999168 0.497717
O O14 0.049176 0.915166 0.250000
O O15 0.049628 0.750000 0.000000
O O16 0.000000 0.000000 0.000000
#
# Coordination Sequence:
#
# PCOD9440217 Si02
#       5
#     8   8   8   8   8
#     4  11  24  42  64  93 126 165 208 257 311 371
#     4  12  25  43  66  94 127 166 209 259 313 373
#     4  11  24  41  64  92 126 164 208 257 312 371
#     4  12  25  44  67  95 129 168 211 260 314 373
#     4  12  25  44  67  96 130 169 213 261 315 374
#
# _framework density 19.535640999999998
#
# number of rings (size 3 to 8) (size 9 to 14) (size 15 to 20)
#    0.000    0.400    0.000    9.600    0.000    6.400 
#    0.000    0.000    0.000    0.000    0.000    0.000 
#    0.000    0.000    0.000    0.000    0.000    0.000 
#
# Total GULP energy -224132.858697 kJ/mol
# GULP energy per Si atom -5603.321467 kJ/mol
# Density = 1.949118 g / cm^3
# Si number density = 19.535641 Si / 1000 Ang^3
#
#
#
# Elastic Constant Matrix: (Units=GPa)
#
#
# Indices 1 2 3 4 5 6 
#
# 1 234.2717 141.3933 104.4674 0.0000 0.0000 0.0000
# 2 141.3933 244.9937 97.9067 0.0000 0.0000 0.0000
# 3 104.4674 97.9067 190.4043 0.0000 0.0000 0.0000
# 4 0.0000 0.0000 0.0000 44.1523 0.0000 0.0000
# 5 0.0000 0.0000 0.0000 0.0000 37.2668 0.0000
# 6 0.0000 0.0000 0.0000 0.0000 0.0000 46.7053
#
#
#
# Elastic Compliance Matrix: (Units=1/GPa)
#
#
# Indices 1 2 3 4 5 6 
#
# 1 0.007275 -0.003277 -0.002306 0.000000 0.000000 0.000000
# 2 -0.003277 0.006613 -0.001603 0.000000 0.000000 0.000000
# 3 -0.002306 -0.001603 0.007342 0.000000 0.000000 0.000000
# 4 0.000000 0.000000 0.000000 0.022649 0.000000 0.000000
# 5 0.000000 0.000000 0.000000 0.000000 0.026834 0.000000
# 6 0.000000 0.000000 0.000000 0.000000 0.000000 0.021411
#
#
# Mechanical properties :
#
#
# Convention : Reuss Voigt Hill
#
# Bulk Modulus (GPa) = 145.82099 150.80052 148.31075
# Shear Modulus (GPa) = 45.96402 47.35171 46.65786
#
# Velocity S-wave (km/s) = 4.85586 4.92861 4.89237
# Velocity P-wave (km/s) = 10.30751 10.47609 10.39214
#
# Compressibility (1/GPa) = 0.00685772
#
# Stress axis : x y z
#
# Youngs Moduli (GPa) = 137.46288 151.20887 136.21003
#
# Poissons Ratio (x) = 0.49547 0.31416
# Poissons Ratio (y) = 0.45043 0.21832
# Poissons Ratio (z) = 0.31705 0.24236
#
# Static dielectric constant tensor:
#      x y z
#    x 1.645950 0.000000 0.000000 
#    y 0.000000 1.634590 0.000000 
#    z 0.000000 0.000000 1.654510 
# 
# From -- ./inp_files/8848.got.cif
#   From: 2010.05.17/outbox.cif.g08.bks.cpg/sg57_5_cif.got.tgz:8848.got - 2010.06.03 13:58:18.
