data_PCOD9440783
_publ_section_title
;
Structure prediction by ZEFSAII (Michael W. Deem and Ramdas Pophale) SiO2 
 PCOD9440783
Probable space group: P N N M
;
_chemical_formula_sum "Si O2"
_cell_formula_units_Z 58
_cell_length_a 25.937961
_cell_length_b 14.879783
_cell_length_c 7.278888
_cell_angle_alpha 90.000000
_cell_angle_beta 90.000000
_cell_angle_gamma 90.000000
_cell_volume 2809.295785
_symmetry_space_group_name_H-M "P N N M"
_symmetry_group_IT_number 58
_symmetry_cell_setting 'orthorhombic'
loop_
_space_group_symop_operation_xyz
x,y,z
-x,-y,z
1/2+x,1/2-y,1/2-z
1/2-x,1/2+y,1/2-z
-x,-y,-z
x,y,-z
1/2-x,1/2+y,1/2+z
1/2+x,1/2-y,1/2+z
loop_
_atom_site_type_symbol
_atom_site_label
_atom_site_fract_x
_atom_site_fract_y
_atom_site_fract_z
Si Si1 0.740818 0.557467 0.722739
Si Si2 0.682261 0.386043 0.711233
Si Si3 0.998633 0.335967 0.220122
Si Si4 0.000000 0.500000 0.500000
Si Si5 0.115095 0.644051 0.777614
Si Si6 0.639448 0.049825 0.711591
Si Si7 0.396984 0.756463 0.277482
Si Si8 0.280099 0.238860 0.277611
O O1 0.741408 0.555186 0.500000
O O2 0.702074 0.480338 0.789713
O O3 0.799101 0.536666 0.782517
O O4 0.726310 0.657996 0.780174
O O5 0.668534 0.405570 0.500000
O O6 0.635441 0.328142 0.792064
O O7 0.731813 0.320259 0.714616
O O8 0.010565 0.423444 0.339093
O O9 0.939564 0.311614 0.266142
O O10 0.042387 0.262406 0.260622
O O11 0.000969 0.354603 0.000000
O O12 0.115012 0.540874 0.707368
O O13 0.166104 0.695413 0.715532
O O14 0.118814 0.639630 0.000000
O O15 0.622078 0.052998 0.500000
O O16 0.626573 0.148025 0.788538
O O17 0.390432 0.755572 0.500000
O O18 0.279283 0.237192 0.500000
#
# Coordination Sequence:
#
# PCOD9440783 Si02
#       8
#     8   8   8   2   8   8   8   8
#     4  10  20  31  46  75 109 133 168 224 274 309
#     4  10  19  33  50  75 103 140 177 221 273 327
#     4  10  21  39  55  77 113 153 187 231 276 330
#     4  12  22  36  56  90 116 142 190 228 280 348
#     4   9  18  33  53  70 100 144 182 216 267 327
#     4  10  17  28  48  72  99 133 173 209 252 325
#     4   9  18  33  53  70 100 144 182 216 267 327
#     4  10  19  33  50  75 103 140 177 221 273 327
#
# _framework density 20.645743
#
# number of rings (size 3 to 8) (size 9 to 14) (size 15 to 20)
#    0.000    2.207    2.759    1.034    0.000    2.207 
#    7.448    0.000    0.000    0.828    0.000    5.793 
#    0.000    1.103    0.000    0.138    0.000    0.000 
#
# Total GULP energy -323365.320655 kJ/mol
# GULP energy per Si atom -5575.264149 kJ/mol
# Density = 2.059875 g / cm^3
# Si number density = 20.645743 Si / 1000 Ang^3
#
#
#
# Elastic Constant Matrix: (Units=GPa)
#
#
# Indices 1 2 3 4 5 6 
#
# 1 71.6320 -1.4160 -7.3578 0.0000 0.0000 0.0000
# 2 -1.4160 63.8437 -5.9381 0.0000 0.0000 0.0000
# 3 -7.3578 -5.9381 96.9907 0.0000 0.0000 0.0000
# 4 0.0000 0.0000 0.0000 -0.3518 0.0000 0.0000
# 5 0.0000 0.0000 0.0000 0.0000 15.8342 0.0000
# 6 0.0000 0.0000 0.0000 0.0000 0.0000 34.3405
#
#
#
# Elastic Compliance Matrix: (Units=1/GPa)
#
#
# Indices 1 2 3 4 5 6 
#
# 1 0.014081 0.000414 0.001094 0.000000 0.000000 0.000000
# 2 0.000414 0.015765 0.000997 0.000000 0.000000 0.000000
# 3 0.001094 0.000997 0.010454 0.000000 0.000000 0.000000
# 4 0.000000 0.000000 0.000000 -2.842302 0.000000 0.000000
# 5 0.000000 0.000000 0.000000 0.000000 0.063154 0.000000
# 6 0.000000 0.000000 0.000000 0.000000 0.000000 0.029120
#
#
# Mechanical properties :
#
#
# Convention : Reuss Voigt Hill
#
# Bulk Modulus (GPa) = 22.07096 22.56028 22.31562
# Shear Modulus (GPa) = -1.85210 26.44313 12.29551
#
# Velocity S-wave (km/s) = -0.94817 3.58271 2.44303
# Velocity P-wave (km/s) = 3.08461 5.29769 4.33476
#
# Compressibility (1/GPa) = 0.04530840
#
# Stress axis : x y z
#
# Youngs Moduli (GPa) = 71.01891 63.43114 95.65500
#
# Poissons Ratio (x) = -0.02626 -0.10460
# Poissons Ratio (y) = -0.02940 -0.09533
# Poissons Ratio (z) = -0.07766 -0.06322
#
# Static dielectric constant tensor:
#      x y z
#    x 1.757030 0.000000 0.000000 
#    y 0.000000 1.713910 0.000000 
#    z 0.000000 0.000000 1.835300 
# 
# From -- ./inp_files/10535.got.cif
#   From: 2010.05.17/outbox.cif.g08.bks.cpg/sg58_6_cif.got.tgz:10535.got - 2010.06.03 14:20:14.
