data_PCOD9440682
_publ_section_title
;
Structure prediction by ZEFSAII (Michael W. Deem and Ramdas Pophale) SiO2 
 PCOD9440682
Probable space group: P N N M
;
_chemical_formula_sum "Si O2"
_cell_formula_units_Z 64
_cell_length_a 5.604156
_cell_length_b 20.401881
_cell_length_c 26.405858
_cell_angle_alpha 90.000000
_cell_angle_beta 90.000000
_cell_angle_gamma 90.000000
_cell_volume 3019.122325
_symmetry_space_group_name_H-M "P N N M"
_symmetry_group_IT_number 58
_symmetry_cell_setting 'orthorhombic'
loop_
_space_group_symop_operation_xyz
x,y,z
-x,-y,z
1/2+x,1/2-y,1/2-z
1/2-x,1/2+y,1/2-z
-x,-y,-z
x,y,-z
1/2-x,1/2+y,1/2+z
1/2+x,1/2-y,1/2+z
loop_
_atom_site_type_symbol
_atom_site_label
_atom_site_fract_x
_atom_site_fract_y
_atom_site_fract_z
Si Si1 0.008683 0.828916 0.719388
Si Si2 0.509373 0.577574 0.310208
Si Si3 0.100118 0.251891 0.400260
Si Si4 0.507358 0.861012 0.176040
Si Si5 0.380521 0.912589 0.441018
Si Si6 0.507123 0.802022 0.285835
Si Si7 0.098455 0.252993 0.056880
Si Si8 0.380644 0.601953 0.062699
O O1 0.010904 0.894744 0.752279
O O2 0.760067 0.819457 0.689801
O O3 0.008333 0.772176 0.763919
O O4 0.254737 0.818339 0.688694
O O5 0.500000 0.500000 0.310545
O O6 0.763036 0.599593 0.334249
O O7 0.264615 0.606500 0.334756
O O8 0.024204 0.290640 0.349861
O O9 0.378245 0.271828 0.409156
O O10 0.111800 0.175190 0.415032
O O11 0.866102 0.272592 0.433656
O O12 0.506900 0.846646 0.235847
O O13 0.374973 0.931917 0.500000
O O14 0.388155 0.832562 0.439482
O O15 0.636970 0.932480 0.420606
O O16 0.124845 0.931122 0.419961
O O17 0.023676 0.237598 0.000000
O O18 0.378800 0.606367 0.000000
#
# Coordination Sequence:
#
# PCOD9440682 Si02
#       8
#     8   8   8   8   8   8   8   8
#     4   8  14  25  42  57  71  96 121 144 171 204
#     4  10  19  31  43  56  76  98 122 149 180 219
#     4  10  16  23  34  50  72  91 111 137 179 225
#     4  10  19  28  40  59  80  99 116 145 186 228
#     4   7  10  15  23  34  48  68  89 113 147 178
#     4   8  14  25  39  57  77  94 118 143 171 211
#     4   9  15  23  34  48  68  89 113 147 178 208
#     4   8  12  18  27  39  56  74  95 125 155 186
#
# _framework density 21.198215000000001
#
# number of rings (size 3 to 8) (size 9 to 14) (size 15 to 20)
#    0.000    3.250    0.000    3.750    0.000    0.000 
#    0.000    0.000    0.000    0.000    0.000    0.000 
#    0.000   58.000    0.000    0.000    0.000    0.000 
#
# Total GULP energy -356282.693756 kJ/mol
# GULP energy per Si atom -5566.917090 kJ/mol
# Density = 2.114997 g / cm^3
# Si number density = 21.198215 Si / 1000 Ang^3
#
#
#
# Elastic Constant Matrix: (Units=GPa)
#
#
# Indices 1 2 3 4 5 6 
#
# 1 245.2933 44.2139 16.3426 0.0000 0.0000 0.0000
# 2 44.2139 53.5187 7.5846 0.0000 0.0000 0.0000
# 3 16.3426 7.5846 26.3219 0.0000 0.0000 0.0000
# 4 0.0000 0.0000 0.0000 28.9090 0.0000 0.0000
# 5 0.0000 0.0000 0.0000 0.0000 17.0333 0.0000
# 6 0.0000 0.0000 0.0000 0.0000 0.0000 25.4343
#
#
#
# Elastic Compliance Matrix: (Units=1/GPa)
#
#
# Indices 1 2 3 4 5 6 
#
# 1 0.004884 -0.003759 -0.001949 0.000000 0.000000 0.000000
# 2 -0.003759 0.022373 -0.004113 0.000000 0.000000 0.000000
# 3 -0.001949 -0.004113 0.040387 0.000000 0.000000 0.000000
# 4 0.000000 0.000000 0.000000 0.034591 0.000000 0.000000
# 5 0.000000 0.000000 0.000000 0.000000 0.058709 0.000000
# 6 0.000000 0.000000 0.000000 0.000000 0.000000 0.039317
#
#
# Mechanical properties :
#
#
# Convention : Reuss Voigt Hill
#
# Bulk Modulus (GPa) = 20.83264 51.26847 36.05055
# Shear Modulus (GPa) = 21.19508 31.40817 26.30163
#
# Velocity S-wave (km/s) = 3.16547 3.85339 3.52625
# Velocity P-wave (km/s) = 4.81759 6.63595 5.79849
#
# Compressibility (1/GPa) = 0.04800160
#
# Stress axis : x y z
#
# Youngs Moduli (GPa) = 204.74473 44.69639 24.76062
#
# Poissons Ratio (x) = 0.16800 0.04827
# Poissons Ratio (y) = 0.76958 0.10184
# Poissons Ratio (z) = 0.39912 0.18384
#
# Static dielectric constant tensor:
#      x y z
#    x 1.944440 0.000000 0.000000 
#    y 0.000000 1.754750 0.000000 
#    z 0.000000 0.000000 1.776110 
# 
# From -- ./inp_files/32992.got.cif
#   From: 2010.05.17/outbox.cif.g08.bks.cpg/sg58_17_cif.got.tgz:32992.got - 2010.06.03 14:20:14.
