data_PCOD9440756
_publ_section_title
;
Structure prediction by ZEFSAII (Michael W. Deem and Ramdas Pophale) SiO2 
 PCOD9440756
Probable space group: P N N M
;
_chemical_formula_sum "Si O2"
_cell_formula_units_Z 56
_cell_length_a 5.366702
_cell_length_b 26.961123
_cell_length_c 25.271621
_cell_angle_alpha 90.000000
_cell_angle_beta 90.000000
_cell_angle_gamma 90.000000
_cell_volume 3656.609289
_symmetry_space_group_name_H-M "P N N M"
_symmetry_group_IT_number 58
_symmetry_cell_setting 'orthorhombic'
loop_
_space_group_symop_operation_xyz
x,y,z
-x,-y,z
1/2+x,1/2-y,1/2-z
1/2-x,1/2+y,1/2-z
-x,-y,-z
x,y,-z
1/2-x,1/2+y,1/2+z
1/2+x,1/2-y,1/2+z
loop_
_atom_site_type_symbol
_atom_site_label
_atom_site_fract_x
_atom_site_fract_y
_atom_site_fract_z
Si Si1 0.758388 0.030790 0.794526
Si Si2 0.146696 0.950639 0.081081
Si Si3 0.161973 0.774941 0.811679
Si Si4 0.819018 0.132027 0.730624
Si Si5 0.145767 0.607854 0.559199
Si Si6 0.173101 0.661869 0.222664
Si Si7 0.156063 0.682491 0.655698
O O1 0.801741 0.041521 0.856701
O O2 0.773528 0.083135 0.764847
O O3 0.500000 0.000000 0.788046
O O4 0.000000 0.000000 0.776496
O O5 0.419754 0.933046 0.060942
O O6 0.927950 0.911389 0.069231
O O7 0.000000 0.000000 0.061673
O O8 0.166928 0.817953 0.766951
O O9 0.164743 0.720845 0.786026
O O10 0.419821 0.781548 0.842167
O O11 0.916121 0.787757 0.845347
O O12 0.573097 0.139779 0.696923
O O13 0.082690 0.134486 0.702532
O O14 0.135597 0.629409 0.500000
O O15 0.108502 0.645178 0.607835
O O16 0.163980 0.654095 0.287024
#
# Coordination Sequence:
#
# PCOD9440756 Si02
#       7
#     8   8   8   8   8   8   8
#     4  11  21  33  47  64  83 111 150 182 221 275
#     4  11  22  36  50  61  75  99 140 198 246 274
#     4  10  18  28  47  69  86 103 127 162 221 275
#     4  10  17  27  42  60  87 110 127 164 209 254
#     4  12  24  36  48  62  80 108 145 180 227 284
#     4  10  17  28  46  69  87 102 127 162 221 273
#     4  10  18  30  44  60  84 106 125 159 206 260
#
# _framework density 15.314735000000001
#
# number of rings (size 3 to 8) (size 9 to 14) (size 15 to 20)
#    0.000    1.429    0.000   12.000    0.000    1.714 
#    0.000    0.000    0.000    0.000    0.000    0.000 
#    0.000    0.000    0.000    0.000    0.000    0.000 
#
# Total GULP energy -311832.197214 kJ/mol
# GULP energy per Si atom -5568.432093 kJ/mol
# Density = 1.527988 g / cm^3
# Si number density = 15.314735 Si / 1000 Ang^3
#
#
#
# Elastic Constant Matrix: (Units=GPa)
#
#
# Indices 1 2 3 4 5 6 
#
# 1 152.0577 20.0516 7.2837 0.0000 0.0000 0.0000
# 2 20.0516 48.5156 17.4535 0.0000 0.0000 0.0000
# 3 7.2837 17.4535 22.8052 0.0000 0.0000 0.0000
# 4 0.0000 0.0000 0.0000 8.9327 0.0000 0.0000
# 5 0.0000 0.0000 0.0000 0.0000 139.8126 0.0000
# 6 0.0000 0.0000 0.0000 0.0000 0.0000 25.9572
#
#
#
# Elastic Compliance Matrix: (Units=1/GPa)
#
#
# Indices 1 2 3 4 5 6 
#
# 1 0.006956 -0.002864 -0.000030 0.000000 0.000000 0.000000
# 2 -0.002864 0.029623 -0.021756 0.000000 0.000000 0.000000
# 3 -0.000030 -0.021756 0.060510 0.000000 0.000000 0.000000
# 4 0.000000 0.000000 0.000000 0.111948 0.000000 0.000000
# 5 0.000000 0.000000 0.000000 0.000000 0.007152 0.000000
# 6 0.000000 0.000000 0.000000 0.000000 0.000000 0.038525
#
#
# Mechanical properties :
#
#
# Convention : Reuss Voigt Hill
#
# Bulk Modulus (GPa) = 20.92570 34.77290 27.84930
# Shear Modulus (GPa) = 15.62778 46.84646 31.23712
#
# Velocity S-wave (km/s) = 3.19790 5.53675 4.52118
# Velocity P-wave (km/s) = 5.22770 7.97677 6.74380
#
# Compressibility (1/GPa) = 0.04778812
#
# Stress axis : x y z
#
# Youngs Moduli (GPa) = 143.77002 33.75808 16.52621
#
# Poissons Ratio (x) = 0.09669 0.00049
# Poissons Ratio (y) = 0.41177 0.35955
# Poissons Ratio (z) = 0.00425 0.73445
#
# Static dielectric constant tensor:
#      x y z
#    x 1.654140 0.000000 0.000000 
#    y 0.000000 1.542390 0.000000 
#    z 0.000000 0.000000 1.478590 
# 
# From -- ./inp_files/31080.got.cif
#   From: 2010.05.17/outbox.cif.g08.bks.cpg/sg58_16_cif.got.tgz:31080.got - 2010.06.03 14:20:14.
