data_PCOD9440971
_publ_section_title
;
Structure prediction by ZEFSAII (Michael W. Deem and Ramdas Pophale) SiO2 
 PCOD9440971
Probable space group: P N N M
;
_chemical_formula_sum "Si O2"
_cell_formula_units_Z 52
_cell_length_a 20.608464
_cell_length_b 15.315936
_cell_length_c 7.688169
_cell_angle_alpha 90.000000
_cell_angle_beta 90.000000
_cell_angle_gamma 90.000000
_cell_volume 2426.677639
_symmetry_space_group_name_H-M "P N N M"
_symmetry_group_IT_number 58
_symmetry_cell_setting 'orthorhombic'
loop_
_space_group_symop_operation_xyz
x,y,z
-x,-y,z
1/2+x,1/2-y,1/2-z
1/2-x,1/2+y,1/2-z
-x,-y,-z
x,y,-z
1/2-x,1/2+y,1/2+z
1/2+x,1/2-y,1/2+z
loop_
_atom_site_type_symbol
_atom_site_label
_atom_site_fract_x
_atom_site_fract_y
_atom_site_fract_z
Si Si1 0.374788 0.080386 0.797343
Si Si2 0.446689 0.820982 0.287695
Si Si3 0.681067 0.599940 0.793670
Si Si4 0.423530 0.264480 0.295047
Si Si5 0.500000 0.000000 0.253043
Si Si6 0.767939 0.917580 0.206944
Si Si7 0.799596 0.722717 0.212580
O O1 0.384957 0.184569 0.793438
O O2 0.303928 0.058124 0.729085
O O3 0.430739 0.036428 0.684086
O O4 0.383346 0.052107 0.000000
O O5 0.448929 0.837208 0.500000
O O6 0.500159 0.745835 0.251006
O O7 0.372721 0.803621 0.238811
O O8 0.473820 0.906155 0.190475
O O9 0.614150 0.647103 0.744798
O O10 0.686104 0.499544 0.738154
O O11 0.742509 0.657561 0.725778
O O12 0.686252 0.601720 0.000000
O O13 0.418414 0.248902 0.500000
O O14 0.787608 0.822217 0.273133
O O15 0.760481 0.907256 0.000000
O O16 0.798056 0.722360 0.000000
#
# Coordination Sequence:
#
# PCOD9440971 Si02
#       7
#     8   8   8   8   4   8   8
#     4  10  19  33  51  77 113 149 180 219 278 338
#     4   9  18  32  52  79 111 144 183 232 282 332
#     4  11  21  36  58  82 109 145 185 229 284 337
#     4  10  20  34  54  79 107 141 181 225 272 327
#     4  10  18  28  50  82 115 144 183 228 283 350
#     4  10  20  35  55  79 108 143 188 232 272 329
#     4   9  18  35  56  78 109 147 184 226 278 333
#
# _framework density 21.428476
#
# number of rings (size 3 to 8) (size 9 to 14) (size 15 to 20)
#    0.000    2.154    1.538    2.308    0.000    1.231 
#    0.000    0.769    0.000   12.923    0.000    0.000 
#    0.000    0.000    0.000    0.000    0.000    0.000 
#
# Total GULP energy -289736.040744 kJ/mol
# GULP energy per Si atom -5571.846937 kJ/mol
# Density = 2.137970 g / cm^3
# Si number density = 21.428476 Si / 1000 Ang^3
#
#
#
# Elastic Constant Matrix: (Units=GPa)
#
#
# Indices 1 2 3 4 5 6 
#
# 1 99.8043 32.4991 14.7703 0.0000 0.0000 0.0000
# 2 32.4991 85.9837 5.2873 0.0000 0.0000 0.0000
# 3 14.7703 5.2873 47.0935 0.0000 0.0000 0.0000
# 4 0.0000 0.0000 0.0000 -98.7216 0.0000 0.0000
# 5 0.0000 0.0000 0.0000 0.0000 -3.5897 0.0000
# 6 0.0000 0.0000 0.0000 0.0000 0.0000 27.1250
#
#
#
# Elastic Compliance Matrix: (Units=1/GPa)
#
#
# Indices 1 2 3 4 5 6 
#
# 1 0.011900 -0.004298 -0.003250 0.000000 0.000000 0.000000
# 2 -0.004298 0.013263 -0.000141 0.000000 0.000000 0.000000
# 3 -0.003250 -0.000141 0.022269 0.000000 0.000000 0.000000
# 4 0.000000 0.000000 0.000000 -0.010129 0.000000 0.000000
# 5 0.000000 0.000000 0.000000 0.000000 -0.278571 0.000000
# 6 0.000000 0.000000 0.000000 0.000000 0.000000 0.036866
#
#
# Mechanical properties :
#
#
# Convention : Reuss Voigt Hill
#
# Bulk Modulus (GPa) = 31.19628 37.55499 34.37563
# Shear Modulus (GPa) = -28.03655 -3.01561 -15.52608
#
# Velocity S-wave (km/s) = -3.62108 -1.18758 -2.69467
# Velocity P-wave (km/s) = 1.70088 3.96022 2.52887
#
# Compressibility (1/GPa) = 0.03205510
#
# Stress axis : x y z
#
# Youngs Moduli (GPa) = 84.03284 75.39605 44.90456
#
# Poissons Ratio (x) = 0.32405 0.14593
# Poissons Ratio (y) = 0.36117 0.00633
# Poissons Ratio (z) = 0.27309 0.01064
#
# Static dielectric constant tensor:
#      x y z
#    x 1.788430 0.000000 0.000000 
#    y 0.000000 1.782310 0.000000 
#    z 0.000000 0.000000 1.884380 
# 
# From -- ./inp_files/6140.got.cif
#   From: 2010.05.17/outbox.cif.g08.bks.cpg/sg58_4_cif.got.tgz:6140.got - 2010.06.03 14:20:14.
