data_PCOD9440310
_publ_section_title
;
Structure prediction by ZEFSAII (Michael W. Deem and Ramdas Pophale) SiO2 
 PCOD9440310
Probable space group: P B C M
;
_chemical_formula_sum "Si O2"
_cell_formula_units_Z 32
_cell_length_a 10.675347
_cell_length_b 5.210261
_cell_length_c 21.794569
_cell_angle_alpha 90.000000
_cell_angle_beta 90.000000
_cell_angle_gamma 90.000000
_cell_volume 1212.243223
_symmetry_space_group_name_H-M "P B C M"
_symmetry_group_IT_number 57
_symmetry_cell_setting 'orthorhombic'
loop_
_space_group_symop_operation_xyz
x,y,z
-x,-y,1/2+z
x,1/2-y,-z
-x,1/2+y,1/2-z
-x,-y,-z
x,y,1/2-z
-x,1/2+y,z
x,1/2-y,1/2+z
loop_
_atom_site_type_symbol
_atom_site_label
_atom_site_fract_x
_atom_site_fract_y
_atom_site_fract_z
Si Si1 0.958589 0.572975 0.123237
Si Si2 0.382111 0.568216 0.045606
Si Si3 0.702130 0.884177 0.750000
Si Si4 0.119902 0.885608 0.750000
Si Si5 0.333955 0.051201 0.119864
O O1 0.032965 0.613378 0.188731
O O2 0.030327 0.344695 0.090991
O O3 0.814194 0.502944 0.127169
O O4 0.340690 0.300062 0.074963
O O5 0.298943 0.750000 0.000000
O O6 0.500000 0.500000 0.000000
O O7 0.397202 0.718289 0.900613
O O8 0.796162 0.641298 0.750000
O O9 0.623722 0.875501 0.687865
O O10 0.785419 0.145729 0.750000
#
# Coordination Sequence:
#
# PCOD9440310 Si02
#       5
#     8   8   4   4   8
#     4  12  20  34  58 104 161 212 239 264 344 456
#     4  12  27  52  81 100 124 188 279 337 381 438
#     4  12  23  38  68 120 165 196 235 288 376 467
#     4  12  19  36  58 106 167 232 229 246 352 479
#     4  12  24  41  74 116 150 188 250 309 372 466
#
# _framework density 26.397342999999999
#
# number of rings (size 3 to 8) (size 9 to 14) (size 15 to 20)
#    0.000    0.000    5.000    7.500    0.000    0.000 
#    0.000    0.000    0.000   30.000    0.000    0.000 
#    0.000    0.000    0.000    0.000    0.000    0.000 
#
# Total GULP energy -178595.560466 kJ/mol
# GULP energy per Si atom -5581.111265 kJ/mol
# Density = 2.633726 g / cm^3
# Si number density = 26.397343 Si / 1000 Ang^3
#
#
#
# Elastic Constant Matrix: (Units=GPa)
#
#
# Indices 1 2 3 4 5 6 
#
# 1 82.7725 40.7082 38.3756 0.0000 0.0000 0.0000
# 2 40.7082 260.5790 58.0962 0.0000 0.0000 0.0000
# 3 38.3756 58.0962 127.8786 0.0000 0.0000 0.0000
# 4 0.0000 0.0000 0.0000 26.5605 0.0000 0.0000
# 5 0.0000 0.0000 0.0000 0.0000 -4.9967 0.0000
# 6 0.0000 0.0000 0.0000 0.0000 0.0000 41.8657
#
#
#
# Elastic Compliance Matrix: (Units=1/GPa)
#
#
# Indices 1 2 3 4 5 6 
#
# 1 0.014505 -0.001442 -0.003698 0.000000 0.000000 0.000000
# 2 -0.001442 0.004413 -0.001572 0.000000 0.000000 0.000000
# 3 -0.003698 -0.001572 0.009644 0.000000 0.000000 0.000000
# 4 0.000000 0.000000 0.000000 0.037650 0.000000 0.000000
# 5 0.000000 0.000000 0.000000 0.000000 -0.200134 0.000000
# 6 0.000000 0.000000 0.000000 0.000000 0.000000 0.023886
#
#
# Mechanical properties :
#
#
# Convention : Reuss Voigt Hill
#
# Bulk Modulus (GPa) = 66.05718 82.84334 74.45026
# Shear Modulus (GPa) = -54.60550 34.95592 -9.82479
#
# Velocity S-wave (km/s) = -4.55312 3.64293 -1.93131
# Velocity P-wave (km/s) = 1.60084 7.01042 4.82614
#
# Compressibility (1/GPa) = 0.01513840
#
# Stress axis : x y z
#
# Youngs Moduli (GPa) = 68.94322 226.58375 103.69140
#
# Poissons Ratio (x) = 0.32662 0.38344
# Poissons Ratio (y) = 0.09938 0.16305
# Poissons Ratio (z) = 0.25494 0.35629
#
# Static dielectric constant tensor:
#      x y z
#    x 2.119450 0.000000 0.000000 
#    y 0.000000 2.232040 0.000000 
#    z 0.000000 0.000000 2.228320 
# 
# From -- ./inp_files/24800.got.cif
#   From: 2010.05.17/outbox.cif.g08.bks.cpg/sg57_13_cif.got.tgz:24800.got - 2010.06.03 13:58:18.
