data_PCOD9440906
_publ_section_title
;
Structure prediction by ZEFSAII (Michael W. Deem and Ramdas Pophale) SiO2 
 PCOD9440906
Probable space group: P N N M
;
_chemical_formula_sum "Si O2"
_cell_formula_units_Z 56
_cell_length_a 30.145112
_cell_length_b 14.109242
_cell_length_c 8.781517
_cell_angle_alpha 90.000000
_cell_angle_beta 90.000000
_cell_angle_gamma 90.000000
_cell_volume 3734.995911
_symmetry_space_group_name_H-M "P N N M"
_symmetry_group_IT_number 58
_symmetry_cell_setting 'orthorhombic'
loop_
_space_group_symop_operation_xyz
x,y,z
-x,-y,z
1/2+x,1/2-y,1/2-z
1/2-x,1/2+y,1/2-z
-x,-y,-z
x,y,-z
1/2-x,1/2+y,1/2+z
1/2+x,1/2-y,1/2+z
loop_
_atom_site_type_symbol
_atom_site_label
_atom_site_fract_x
_atom_site_fract_y
_atom_site_fract_z
Si Si1 0.731500 0.391840 0.183290
Si Si2 0.818578 0.703835 0.682764
Si Si3 0.905798 0.397003 0.318116
Si Si4 0.997634 0.384960 0.824274
Si Si5 0.732265 0.605901 0.184070
Si Si6 0.182902 0.706665 0.683435
Si Si7 0.404535 0.891951 0.316629
O O1 0.696375 0.310457 0.226923
O O2 0.720283 0.498977 0.229010
O O3 0.778762 0.360857 0.251090
O O4 0.734981 0.389319 0.000000
O O5 0.820904 0.697585 0.500000
O O6 0.778956 0.636778 0.743038
O O7 0.864617 0.670834 0.754319
O O8 0.904537 0.407423 0.500000
O O9 0.954022 0.358935 0.269023
O O10 0.865389 0.329496 0.268823
O O11 0.899405 0.500839 0.244790
O O12 0.000000 0.500000 0.822040
O O13 0.046463 0.355086 0.769179
O O14 0.991815 0.356096 0.000000
O O15 0.696680 0.686494 0.228095
O O16 0.736921 0.608609 0.000000
O O17 0.184645 0.701864 0.500000
O O18 0.404068 0.895108 0.500000
#
# Coordination Sequence:
#
# PCOD9440906 Si02
#       7
#     8   8   8   8   8   8   8
#     4   9  18  30  44  61  82 110 142 173 203 239
#     4  10  19  29  42  64  87 106 137 178 211 238
#     4  10  18  27  42  65  89 111 137 173 211 242
#     4   8  16  29  42  58  82 111 141 169 201 249
#     4   9  17  31  46  59  82 116 144 166 201 249
#     4   9  18  29  42  62  86 111 139 169 203 245
#     4  10  19  30  43  60  84 115 144 167 201 252
#
# _framework density 14.993321999999999
#
# number of rings (size 3 to 8) (size 9 to 14) (size 15 to 20)
#    0.000    2.714    0.000    3.000    0.000    7.714 
#    0.000    0.000    0.000    0.000    0.000    1.000 
#    0.000    8.000    0.000    0.000    0.000    0.000 
#
# Total GULP energy -311978.921268 kJ/mol
# GULP energy per Si atom -5571.052165 kJ/mol
# Density = 1.495920 g / cm^3
# Si number density = 14.993322 Si / 1000 Ang^3
#
#
#
# Elastic Constant Matrix: (Units=GPa)
#
#
# Indices 1 2 3 4 5 6 
#
# 1 152.5862 66.1557 37.3303 0.0000 0.0000 0.0000
# 2 66.1557 94.3053 24.4234 0.0000 0.0000 0.0000
# 3 37.3303 24.4234 25.9129 0.0000 0.0000 0.0000
# 4 0.0000 0.0000 0.0000 8.2385 0.0000 0.0000
# 5 0.0000 0.0000 0.0000 0.0000 26.3714 0.0000
# 6 0.0000 0.0000 0.0000 0.0000 0.0000 21.7487
#
#
#
# Elastic Compliance Matrix: (Units=1/GPa)
#
#
# Indices 1 2 3 4 5 6 
#
# 1 0.011716 -0.005090 -0.012081 0.000000 0.000000 0.000000
# 2 -0.005090 0.016240 -0.007973 0.000000 0.000000 0.000000
# 3 -0.012081 -0.007973 0.063509 0.000000 0.000000 0.000000
# 4 0.000000 0.000000 0.000000 0.121381 0.000000 0.000000
# 5 0.000000 0.000000 0.000000 0.000000 0.037920 0.000000
# 6 0.000000 0.000000 0.000000 0.000000 0.000000 0.045980
#
#
# Mechanical properties :
#
#
# Convention : Reuss Voigt Hill
#
# Bulk Modulus (GPa) = 24.28545 58.73590 41.51068
# Shear Modulus (GPa) = 13.85964 20.93139 17.39551
#
# Velocity S-wave (km/s) = 3.04367 3.74043 3.40989
# Velocity P-wave (km/s) = 5.34646 7.61013 6.57642
#
# Compressibility (1/GPa) = 0.04117691
#
# Stress axis : x y z
#
# Youngs Moduli (GPa) = 85.35197 61.57787 15.74573
#
# Poissons Ratio (x) = 0.31345 0.19022
# Poissons Ratio (y) = 0.43447 0.12554
# Poissons Ratio (z) = 1.03112 0.49096
#
# Static dielectric constant tensor:
#      x y z
#    x 1.500020 0.000000 0.000000 
#    y 0.000000 1.492310 0.000000 
#    z 0.000000 0.000000 1.503780 
# 
# From -- ./inp_files/11094.got.cif
#   From: 2010.05.17/outbox.cif.g08.bks.cpg/sg58_6_cif.got.tgz:11094.got - 2010.06.03 14:20:14.
