data_PCOD9440097
_publ_section_title
;
Structure prediction by ZEFSAII (Michael W. Deem and Ramdas Pophale) SiO2 
 PCOD9440097
Probable space group: P B C M
;
_chemical_formula_sum "Si O2"
_cell_formula_units_Z 48
_cell_length_a 31.251872
_cell_length_b 9.637975
_cell_length_c 8.569667
_cell_angle_alpha 90.000000
_cell_angle_beta 90.000000
_cell_angle_gamma 90.000000
_cell_volume 2581.224501
_symmetry_space_group_name_H-M "P B C M"
_symmetry_group_IT_number 57
_symmetry_cell_setting 'orthorhombic'
loop_
_space_group_symop_operation_xyz
x,y,z
-x,-y,1/2+z
x,1/2-y,-z
-x,1/2+y,1/2-z
-x,-y,-z
x,y,1/2-z
-x,1/2+y,z
x,1/2-y,1/2+z
loop_
_atom_site_type_symbol
_atom_site_label
_atom_site_fract_x
_atom_site_fract_y
_atom_site_fract_z
Si Si1 0.707504 0.594211 0.562177
Si Si2 0.461900 0.905742 0.563212
Si Si3 0.369146 0.593959 0.936697
Si Si4 0.116693 0.902519 0.561761
Si Si5 0.785639 0.097797 0.061876
Si Si6 0.038653 0.406035 0.437604
O O1 0.706628 0.750000 0.500000
O O2 0.705610 0.594522 0.750000
O O3 0.667816 0.506637 0.496729
O O4 0.751114 0.515813 0.512617
O O5 0.467995 0.750000 0.500000
O O6 0.461390 0.905068 0.750000
O O7 0.415514 0.952255 0.500239
O O8 0.500000 0.000000 0.500000
O O9 0.370022 0.597865 0.750000
O O10 0.361691 0.750000 0.000000
O O11 0.104520 0.750000 0.500000
O O12 0.116385 0.897136 0.750000
O O13 0.165540 0.931317 0.510276
O O14 0.082738 0.018291 0.512636
O O15 0.785558 0.102724 0.250000
O O16 0.773601 0.250000 0.000000
O O17 0.035874 0.250000 0.500000
O O18 0.037102 0.403343 0.250000
O O19 0.000000 0.500000 0.500000
#
# Coordination Sequence:
#
# PCOD9440097 Si02
#       6
#     8   8   8   8   8   8
#     4  11  23  38  56  82 114 148 186 233 283 333
#     4  11  22  39  61  88 118 151 190 233 281 334
#     4  11  22  39  61  85 113 149 190 232 278 333
#     4   9  19  36  57  82 110 143 182 228 276 330
#     4   9  19  36  58  82 110 144 185 227 275 332
#     4  11  23  38  57  81 112 147 187 231 281 334
#
# _framework density 18.595825000000001
#
# number of rings (size 3 to 8) (size 9 to 14) (size 15 to 20)
#    0.000    1.667    0.000    6.000    0.000    6.667 
#    0.000    3.333    0.000    0.000    0.000    0.000 
#    0.000    0.000    0.000    0.000    0.000    0.000 
#
# Total GULP energy -268253.583387 kJ/mol
# GULP energy per Si atom -5588.616321 kJ/mol
# Density = 1.855350 g / cm^3
# Si number density = 18.595825 Si / 1000 Ang^3
#
#
#
# Elastic Constant Matrix: (Units=GPa)
#
#
# Indices 1 2 3 4 5 6 
#
# 1 150.0540 122.5120 53.9398 0.0000 0.0000 0.0000
# 2 122.5120 153.6281 49.4014 0.0000 0.0000 0.0000
# 3 53.9398 49.4014 99.0511 0.0000 0.0000 0.0000
# 4 0.0000 0.0000 0.0000 36.1030 0.0000 0.0000
# 5 0.0000 0.0000 0.0000 0.0000 26.2467 0.0000
# 6 0.0000 0.0000 0.0000 0.0000 0.0000 40.5388
#
#
#
# Elastic Compliance Matrix: (Units=1/GPa)
#
#
# Indices 1 2 3 4 5 6 
#
# 1 0.020075 -0.014880 -0.003511 0.000000 0.000000 0.000000
# 2 -0.014880 0.018782 -0.001264 0.000000 0.000000 0.000000
# 3 -0.003511 -0.001264 0.012638 0.000000 0.000000 0.000000
# 4 0.000000 0.000000 0.000000 0.027699 0.000000 0.000000
# 5 0.000000 0.000000 0.000000 0.000000 0.038100 0.000000
# 6 0.000000 0.000000 0.000000 0.000000 0.000000 0.024668
#
#
# Mechanical properties :
#
#
# Convention : Reuss Voigt Hill
#
# Bulk Modulus (GPa) = 82.06829 94.93773 88.50301
# Shear Modulus (GPa) = 26.97821 32.36969 29.67395
#
# Velocity S-wave (km/s) = 3.81303 4.17669 3.99899
# Velocity P-wave (km/s) = 7.97584 8.62692 8.30776
#
# Compressibility (1/GPa) = 0.01218497
#
# Stress axis : x y z
#
# Youngs Moduli (GPa) = 49.81217 53.24186 79.12496
#
# Poissons Ratio (x) = 0.79226 0.27780
# Poissons Ratio (y) = 0.74122 0.10003
# Poissons Ratio (z) = 0.17488 0.06731
#
# Static dielectric constant tensor:
#      x y z
#    x 1.647570 0.000000 0.000000 
#    y 0.000000 1.594790 0.000000 
#    z 0.000000 0.000000 1.627990 
# 
# From -- ./inp_files/10007.got.cif
#   From: 2010.05.17/outbox.cif.g08.bks.cpg/sg57_6_cif.got.tgz:10007.got - 2010.06.03 13:58:18.
