data_PCOD9440349
_publ_section_title
;
Structure prediction by ZEFSAII (Michael W. Deem and Ramdas Pophale) SiO2 
 PCOD9440349
Probable space group: P B C M
;
_chemical_formula_sum "Si O2"
_cell_formula_units_Z 40
_cell_length_a 5.842702
_cell_length_b 17.410397
_cell_length_c 15.747245
_cell_angle_alpha 90.000000
_cell_angle_beta 90.000000
_cell_angle_gamma 90.000000
_cell_volume 1601.868993
_symmetry_space_group_name_H-M "P B C M"
_symmetry_group_IT_number 57
_symmetry_cell_setting 'orthorhombic'
loop_
_space_group_symop_operation_xyz
x,y,z
-x,-y,1/2+z
x,1/2-y,-z
-x,1/2+y,1/2-z
-x,-y,-z
x,y,1/2-z
-x,1/2+y,z
x,1/2-y,1/2+z
loop_
_atom_site_type_symbol
_atom_site_label
_atom_site_fract_x
_atom_site_fract_y
_atom_site_fract_z
Si Si1 0.526314 0.157979 0.250000
Si Si2 0.558031 0.131715 0.430952
Si Si3 0.727309 0.847462 0.401949
Si Si4 0.617790 0.325766 0.250000
Si Si5 0.071495 0.750000 0.500000
Si Si6 0.078113 0.995080 0.598046
Si Si7 0.743024 0.991547 0.750000
O O1 0.443715 0.166225 0.346717
O O2 0.706109 0.234332 0.250000
O O3 0.486152 0.061966 0.250000
O O4 0.387866 0.127263 0.509186
O O5 0.763603 0.185901 0.462474
O O6 0.692610 0.054815 0.407254
O O7 0.535926 0.827535 0.334545
O O8 0.909859 0.783505 0.426971
O O9 0.862205 0.920689 0.369255
O O10 0.715869 0.414761 0.250000
O O11 0.888763 0.967560 0.665681
O O12 0.000000 0.000000 0.500000
#
# Coordination Sequence:
#
# PCOD9440349 Si02
#       7
#     4   8   8   4   4   8   4
#     4  12  27  46  77 105 154 200 241 319 378 437
#     4  12  26  48  73 111 148 194 254 310 381 449
#     4  12  26  48  73 111 148 194 254 310 381 449
#     4  12  27  46  77 105 154 200 241 319 378 437
#     4  12  26  44  76 110 148 192 262 314 356 480
#     4  12  24  46  76 102 145 199 240 313 378 440
#     4  12  28  48  72 120 148 196 270 302 368 474
#
# _framework density 24.970829999999999
#
# number of rings (size 3 to 8) (size 9 to 14) (size 15 to 20)
#    0.000    0.000    2.000    8.400    5.600    0.800 
#    0.000    0.000    0.000    0.000    0.000    0.000 
#    0.000    0.000    0.000    0.000    0.000    0.000 
#
# Total GULP energy -222942.937944 kJ/mol
# GULP energy per Si atom -5573.573449 kJ/mol
# Density = 2.491400 g / cm^3
# Si number density = 24.970830 Si / 1000 Ang^3
#
#
#
# Elastic Constant Matrix: (Units=GPa)
#
#
# Indices 1 2 3 4 5 6 
#
# 1 50.8641 6.7448 19.9656 0.0000 0.0000 0.0000
# 2 6.7448 80.7957 -16.3682 0.0000 0.0000 0.0000
# 3 19.9656 -16.3682 170.3833 0.0000 0.0000 0.0000
# 4 0.0000 0.0000 0.0000 -937.4459 0.0000 0.0000
# 5 0.0000 0.0000 0.0000 0.0000 116.0135 0.0000
# 6 0.0000 0.0000 0.0000 0.0000 0.0000 52.9896
#
#
#
# Elastic Compliance Matrix: (Units=1/GPa)
#
#
# Indices 1 2 3 4 5 6 
#
# 1 0.021018 -0.002298 -0.002684 0.000000 0.000000 0.000000
# 2 -0.002298 0.012874 0.001506 0.000000 0.000000 0.000000
# 3 -0.002684 0.001506 0.006328 0.000000 0.000000 0.000000
# 4 0.000000 0.000000 0.000000 -0.001067 0.000000 0.000000
# 5 0.000000 0.000000 0.000000 0.000000 0.008620 0.000000
# 6 0.000000 0.000000 0.000000 0.000000 0.000000 0.018872
#
#
# Mechanical properties :
#
#
# Convention : Reuss Voigt Hill
#
# Bulk Modulus (GPa) = 30.05834 35.85861 32.95847
# Shear Modulus (GPa) = 59.04114 -134.24185 -37.60035
#
# Velocity S-wave (km/s) = 4.86779 -7.34004 -3.88464
# Velocity P-wave (km/s) = 6.60737 7.57915 2.62547
#
# Compressibility (1/GPa) = 0.03326864
#
# Stress axis : x y z
#
# Youngs Moduli (GPa) = 47.57726 77.67673 158.02066
#
# Poissons Ratio (x) = 0.17852 0.42409
# Poissons Ratio (y) = 0.10935 -0.23799
# Poissons Ratio (z) = 0.12769 -0.11699
#
# Static dielectric constant tensor:
#      x y z
#    x 1.926940 0.000000 0.000000 
#    y 0.000000 2.074300 0.000000 
#    z 0.000000 0.000000 1.939550 
# 
# From -- ./inp_files/20064.got.cif
#   From: 2010.05.17/outbox.cif.g08.bks.cpg/sg57_11_cif.got.tgz:20064.got - 2010.06.03 13:58:18.
