data_PCOD9440330
_publ_section_title
;
Structure prediction by ZEFSAII (Michael W. Deem and Ramdas Pophale) SiO2 
 PCOD9440330
Probable space group: P B C M
;
_chemical_formula_sum "Si O2"
_cell_formula_units_Z 48
_cell_length_a 4.824312
_cell_length_b 24.344046
_cell_length_c 18.731548
_cell_angle_alpha 90.000000
_cell_angle_beta 90.000000
_cell_angle_gamma 90.000000
_cell_volume 2199.894310
_symmetry_space_group_name_H-M "P B C M"
_symmetry_group_IT_number 57
_symmetry_cell_setting 'orthorhombic'
loop_
_space_group_symop_operation_xyz
x,y,z
-x,-y,1/2+z
x,1/2-y,-z
-x,1/2+y,1/2-z
-x,-y,-z
x,y,1/2-z
-x,1/2+y,z
x,1/2-y,1/2+z
loop_
_atom_site_type_symbol
_atom_site_label
_atom_site_fract_x
_atom_site_fract_y
_atom_site_fract_z
Si Si1 0.826807 0.366578 0.458777
Si Si2 0.402964 0.517174 0.580255
Si Si3 0.850687 0.703776 0.166794
Si Si4 0.099593 0.975837 0.667244
Si Si5 0.653294 0.362415 0.622743
Si Si6 0.664194 0.705713 0.564248
O O1 0.745007 0.423847 0.423453
O O2 0.732146 0.371208 0.540752
O O3 0.643193 0.317055 0.427680
O O4 0.141069 0.346425 0.452783
O O5 0.500000 0.500000 0.500000
O O6 0.672183 0.515440 0.630767
O O7 0.172404 0.477873 0.616895
O O8 0.798432 0.703061 0.250000
O O9 0.662407 0.655472 0.132503
O O10 0.768413 0.761021 0.132021
O O11 0.166275 0.688611 0.150486
O O12 0.035248 0.989001 0.750000
O O13 0.246052 0.916305 0.663818
O O14 0.677912 0.750000 0.500000
#
# Coordination Sequence:
#
# PCOD9440330 Si02
#       6
#     8   8   8   8   8   8
#     4  12  24  42  68 101 125 170 231 272 325 392
#     4  12  26  45  71 100 139 179 228 281 334 408
#     4  12  25  41  63  98 134 172 214 270 340 399
#     4  12  26  45  69 103 140 181 223 280 350 406
#     4  12  23  41  70  98 135 164 217 284 334 398
#     4  12  23  42  67  94 131 171 217 273 326 395
#
# _framework density 21.819232
#
# number of rings (size 3 to 8) (size 9 to 14) (size 15 to 20)
#    0.000    0.000    5.000    6.000    2.333    0.000 
#    0.000    5.000    0.000    0.000    0.000    0.000 
#    0.000    0.000    0.000    0.000    0.000    0.000 
#
# Total GULP energy -268779.529974 kJ/mol
# GULP energy per Si atom -5599.573541 kJ/mol
# Density = 2.176957 g / cm^3
# Si number density = 21.819232 Si / 1000 Ang^3
#
#
#
# Elastic Constant Matrix: (Units=GPa)
#
#
# Indices 1 2 3 4 5 6 
#
# 1 85.2877 12.8585 3.1996 0.0000 0.0000 0.0000
# 2 12.8585 63.4620 36.0727 0.0000 0.0000 0.0000
# 3 3.1996 36.0727 82.1606 0.0000 0.0000 0.0000
# 4 0.0000 0.0000 0.0000 2.5229 0.0000 0.0000
# 5 0.0000 0.0000 0.0000 0.0000 19.6970 0.0000
# 6 0.0000 0.0000 0.0000 0.0000 0.0000 38.8156
#
#
#
# Elastic Compliance Matrix: (Units=1/GPa)
#
#
# Indices 1 2 3 4 5 6 
#
# 1 0.012135 -0.002918 0.000809 0.000000 0.000000 0.000000
# 2 -0.002918 0.021700 -0.009414 0.000000 0.000000 0.000000
# 3 0.000809 -0.009414 0.016273 0.000000 0.000000 0.000000
# 4 0.000000 0.000000 0.000000 0.396361 0.000000 0.000000
# 5 0.000000 0.000000 0.000000 0.000000 0.050769 0.000000
# 6 0.000000 0.000000 0.000000 0.000000 0.000000 0.025763
#
#
# Mechanical properties :
#
#
# Convention : Reuss Voigt Hill
#
# Bulk Modulus (GPa) = 36.95401 37.24132 37.09766
# Shear Modulus (GPa) = 9.00792 24.12575 16.56684
#
# Velocity S-wave (km/s) = 2.03406 3.32883 2.75849
# Velocity P-wave (km/s) = 4.74233 5.64624 5.21391
#
# Compressibility (1/GPa) = 0.02706066
#
# Stress axis : x y z
#
# Youngs Moduli (GPa) = 82.40848 46.08388 61.45220
#
# Poissons Ratio (x) = 0.13449 -0.04970
# Poissons Ratio (y) = 0.24050 0.57848
# Poissons Ratio (z) = -0.06665 0.43381
#
# Static dielectric constant tensor:
#      x y z
#    x 1.785700 0.000000 0.000000 
#    y 0.000000 1.805210 0.000000 
#    z 0.000000 0.000000 1.683250 
# 
# From -- ./inp_files/20188.got.cif
#   From: 2010.05.17/outbox.cif.g08.bks.cpg/sg57_11_cif.got.tgz:20188.got - 2010.06.03 13:58:18.
