data_PCOD9440524
_publ_section_title
;
Structure prediction by ZEFSAII (Michael W. Deem and Ramdas Pophale) SiO2 
 PCOD9440524
Probable space group: P B C M
;
_chemical_formula_sum "Si O2"
_cell_formula_units_Z 40
_cell_length_a 15.000000
_cell_length_b 15.000000
_cell_length_c 9.000000
_cell_angle_alpha 90.000000
_cell_angle_beta 90.000000
_cell_angle_gamma 90.000000
_cell_volume 2025.000000
_symmetry_space_group_name_H-M "P B C M"
_symmetry_group_IT_number 57
_symmetry_cell_setting 'orthorhombic'
loop_
_space_group_symop_operation_xyz
x,y,z
-x,-y,1/2+z
x,1/2-y,-z
-x,1/2+y,1/2-z
-x,-y,-z
x,y,1/2-z
-x,1/2+y,z
x,1/2-y,1/2+z
loop_
_atom_site_type_symbol
_atom_site_label
_atom_site_fract_x
_atom_site_fract_y
_atom_site_fract_z
Si Si1 0.040346 0.848315 0.071689
Si Si2 0.116244 0.457487 0.924791
Si Si3 0.292263 0.467384 0.077135
Si Si4 0.452216 0.160531 0.926510
Si Si5 0.355416 0.663568 0.076222
O O1 0.041268 0.837394 0.250000
O O2 0.058551 0.750000 0.000000
O O3 0.946707 0.889240 0.013761
O O4 0.100649 0.936980 0.035370
O O5 0.097368 0.449072 0.750000
O O6 0.216689 0.434608 0.967372
O O7 0.269178 0.448239 0.250000
O O8 0.386606 0.421305 0.046179
O O9 0.301951 0.573093 0.060551
O O10 0.461799 0.171876 0.750000
O O11 0.413419 0.250000 0.000000
O O12 0.548807 0.148979 0.999507
O O13 0.368730 0.681662 0.250000
O O14 0.312951 0.750000 0.000000
#
# Coordination Sequence:
#
# PCOD9440524 Si02
#       5
#     8   8   8   8   8
#     4  10  21  39  62  85 111 144 180 220 270 326
#     4  10  22  38  58  85 113 143 181 224 270 324
#     4  10  22  37  54  78 111 146 179 222 273 322
#     4  10  20  35  54  77 105 141 183 225 270 319
#     4  10  20  35  54  77 106 143 184 226 272 320
#
# _framework density 19.753086
#
# number of rings (size 3 to 8) (size 9 to 14) (size 15 to 20)
#    0.000    2.000    0.000    4.200    0.000    7.200 
#    0.000    6.000    0.000    0.000    0.000    0.000 
#    0.000    0.000    0.000    0.000    0.000    0.000 
#
# Total GULP energy -223120.134994 kJ/mol
# GULP energy per Si atom -5578.003375 kJ/mol
# Density = 1.970813 g / cm^3
# Si number density = 19.753086 Si / 1000 Ang^3
#
#
#
# Elastic Constant Matrix: (Units=GPa)
#
#
# Indices 1 2 3 4 5 6 
#
# 1 33.5415 -5.1157 21.1452 0.0000 0.0000 0.0000
# 2 -5.1157 58.5723 21.1675 0.0000 0.0000 0.0000
# 3 21.1452 21.1675 65.3420 0.0000 0.0000 0.0000
# 4 0.0000 0.0000 0.0000 36.1687 0.0000 0.0000
# 5 0.0000 0.0000 0.0000 0.0000 21.5576 0.0000
# 6 0.0000 0.0000 0.0000 0.0000 0.0000 3.1259
#
#
#
# Elastic Compliance Matrix: (Units=1/GPa)
#
#
# Indices 1 2 3 4 5 6 
#
# 1 0.041788 0.009669 -0.016655 0.000000 0.000000 0.000000
# 2 0.009669 0.021574 -0.010118 0.000000 0.000000 0.000000
# 3 -0.016655 -0.010118 0.023971 0.000000 0.000000 0.000000
# 4 0.000000 0.000000 0.000000 0.027648 0.000000 0.000000
# 5 0.000000 0.000000 0.000000 0.000000 0.046387 0.000000
# 6 0.000000 0.000000 0.000000 0.000000 0.000000 0.319912
#
#
# Mechanical properties :
#
#
# Convention : Reuss Voigt Hill
#
# Bulk Modulus (GPa) = 18.82343 25.76109 22.29226
# Shear Modulus (GPa) = 9.37739 20.18770 14.78255
#
# Velocity S-wave (km/s) = 2.18119 3.20035 2.73860
# Velocity P-wave (km/s) = 3.98667 5.16973 4.61626
#
# Compressibility (1/GPa) = 0.05312528
#
# Stress axis : x y z
#
# Youngs Moduli (GPa) = 23.93018 46.35243 41.71626
#
# Poissons Ratio (x) = -0.44817 0.69479
# Poissons Ratio (y) = -0.23138 0.42207
# Poissons Ratio (z) = 0.39856 0.46898
#
# Static dielectric constant tensor:
#      x y z
#    x 1.706300 0.000000 0.000000 
#    y 0.000000 1.704400 0.000000 
#    z 0.000000 0.000000 1.672360 
# 
# From -- ./inp_files/4265.got.cif
#   From: 2010.05.17/outbox.ucp.g08.bks.cvg/sg57_3_cif.got.tgz:4265.got - 2010.06.11 16:39:23.
