data_PCOD9440047
_publ_section_title
;
Structure prediction by ZEFSAII (Michael W. Deem and Ramdas Pophale) SiO2 
 PCOD9440047
Probable space group: P B C M
;
_chemical_formula_sum "Si O2"
_cell_formula_units_Z 64
_cell_length_a 9.592287
_cell_length_b 19.738382
_cell_length_c 17.787638
_cell_angle_alpha 90.000000
_cell_angle_beta 90.000000
_cell_angle_gamma 90.000000
_cell_volume 3367.844232
_symmetry_space_group_name_H-M "P B C M"
_symmetry_group_IT_number 57
_symmetry_cell_setting 'orthorhombic'
loop_
_space_group_symop_operation_xyz
x,y,z
-x,-y,1/2+z
x,1/2-y,-z
-x,1/2+y,1/2-z
-x,-y,-z
x,y,1/2-z
-x,1/2+y,z
x,1/2-y,1/2+z
loop_
_atom_site_type_symbol
_atom_site_label
_atom_site_fract_x
_atom_site_fract_y
_atom_site_fract_z
Si Si1 0.387861 0.013692 0.432512
Si Si2 0.832722 0.356337 0.573770
Si Si3 0.439336 0.619771 0.339335
Si Si4 0.833983 0.800295 0.428354
Si Si5 0.720107 0.132289 0.902626
Si Si6 0.517960 0.737208 0.911780
Si Si7 0.912943 0.931358 0.517567
Si Si8 0.085706 0.728572 0.834702
O O1 0.462245 0.062210 0.373271
O O2 0.243003 0.048318 0.458528
O O3 0.500000 0.000000 0.500000
O O4 0.339050 0.942676 0.398187
O O5 0.713558 0.390301 0.624216
O O6 0.778671 0.358472 0.487891
O O7 0.847198 0.280828 0.606026
O O8 0.983502 0.392264 0.575113
O O9 0.433149 0.619181 0.250000
O O10 0.497111 0.692195 0.368849
O O11 0.858351 0.750000 0.500000
O O12 0.672433 0.793413 0.408372
O O13 0.885138 0.874876 0.453184
O O14 0.926243 0.776543 0.358795
O O15 0.594095 0.182965 0.886020
O O16 0.842683 0.156029 0.847970
O O17 0.490663 0.750000 0.000000
O O18 0.000000 0.000000 0.500000
O O19 0.106836 0.752257 0.750000
#
# Coordination Sequence:
#
# PCOD9440047 Si02
#       8
#     8   8   8   8   8   8   8   8
#     4  12  23  43  69 101 134 180 223 271 336 412
#     4  12  22  41  65  95 127 169 223 276 330 393
#     4  12  26  43  64 100 141 174 220 286 348 403
#     4  11  21  38  61  93 125 163 220 273 320 393
#     4  12  21  41  70  95 125 169 229 268 321 402
#     4  11  21  38  67  95 125 172 224 278 328 398
#     4  12  22  39  69 102 128 169 228 285 330 395
#     4  12  24  39  61  93 133 173 214 275 341 395
#
# _framework density 19.003254999999999
#
# number of rings (size 3 to 8) (size 9 to 14) (size 15 to 20)
#    0.000    0.250    7.500    3.000    0.000    1.000 
#    0.000    0.625    0.000    9.750    0.000    0.000 
#    0.000    0.000    0.000    0.000    0.000    0.000 
#
# Total GULP energy -357451.579264 kJ/mol
# GULP energy per Si atom -5585.180926 kJ/mol
# Density = 1.896000 g / cm^3
# Si number density = 19.003255 Si / 1000 Ang^3
#
#
#
# Elastic Constant Matrix: (Units=GPa)
#
#
# Indices 1 2 3 4 5 6 
#
# 1 131.5370 33.7378 30.4370 0.0000 0.0000 0.0000
# 2 33.7378 106.0313 24.3864 0.0000 0.0000 0.0000
# 3 30.4370 24.3864 81.5211 0.0000 0.0000 0.0000
# 4 0.0000 0.0000 0.0000 14.9402 0.0000 0.0000
# 5 0.0000 0.0000 0.0000 0.0000 10.7256 0.0000
# 6 0.0000 0.0000 0.0000 0.0000 0.0000 31.7816
#
#
#
# Elastic Compliance Matrix: (Units=1/GPa)
#
#
# Indices 1 2 3 4 5 6 
#
# 1 0.008770 -0.002188 -0.002620 0.000000 0.000000 0.000000
# 2 -0.002188 0.010674 -0.002376 0.000000 0.000000 0.000000
# 3 -0.002620 -0.002376 0.013956 0.000000 0.000000 0.000000
# 4 0.000000 0.000000 0.000000 0.066933 0.000000 0.000000
# 5 0.000000 0.000000 0.000000 0.000000 0.093235 0.000000
# 6 0.000000 0.000000 0.000000 0.000000 0.000000 0.031465
#
#
# Mechanical properties :
#
#
# Convention : Reuss Voigt Hill
#
# Bulk Modulus (GPa) = 52.54402 55.13464 53.83933
# Shear Modulus (GPa) = 20.34639 26.85804 23.60222
#
# Velocity S-wave (km/s) = 3.27567 3.76352 3.52804
# Velocity P-wave (km/s) = 6.48203 6.92544 6.70740
#
# Compressibility (1/GPa) = 0.01903166
#
# Stress axis : x y z
#
# Youngs Moduli (GPa) = 114.02748 93.68716 71.65528
#
# Poissons Ratio (x) = 0.20498 0.18773
# Poissons Ratio (y) = 0.24948 0.17026
# Poissons Ratio (z) = 0.29873 0.22261
#
# Static dielectric constant tensor:
#      x y z
#    x 1.689210 0.000000 0.000000 
#    y 0.000000 1.680850 0.000000 
#    z 0.000000 0.000000 1.649250 
# 
# From -- ./inp_files/21426.got.cif
#   From: 2010.05.17/outbox.cif.g08.bks.cpg/sg57_11_cif.got.tgz:21426.got - 2010.06.03 13:58:18.
