data_PCOD9440145
_publ_section_title
;
Structure prediction by ZEFSAII (Michael W. Deem and Ramdas Pophale) SiO2 
 PCOD9440145
Probable space group: P B C M
;
_chemical_formula_sum "Si O2"
_cell_formula_units_Z 48
_cell_length_a 31.543006
_cell_length_b 9.320355
_cell_length_c 8.646537
_cell_angle_alpha 90.000000
_cell_angle_beta 90.000000
_cell_angle_gamma 90.000000
_cell_volume 2542.012824
_symmetry_space_group_name_H-M "P B C M"
_symmetry_group_IT_number 57
_symmetry_cell_setting 'orthorhombic'
loop_
_space_group_symop_operation_xyz
x,y,z
-x,-y,1/2+z
x,1/2-y,-z
-x,1/2+y,1/2-z
-x,-y,-z
x,y,1/2-z
-x,1/2+y,z
x,1/2-y,1/2+z
loop_
_atom_site_type_symbol
_atom_site_label
_atom_site_fract_x
_atom_site_fract_y
_atom_site_fract_z
Si Si1 0.460694 0.409664 0.935999
Si Si2 0.124073 0.589208 0.064311
Si Si3 0.960283 0.911291 0.064498
Si Si4 0.620395 0.091185 0.563520
Si Si5 0.202831 0.089977 0.435921
Si Si6 0.716174 0.409194 0.436584
O O1 0.462310 0.408417 0.750000
O O2 0.416558 0.483943 0.985723
O O3 0.463061 0.250000 0.000000
O O4 0.500000 0.500000 0.000000
O O5 0.126943 0.594642 0.250000
O O6 0.082698 0.495819 0.021979
O O7 0.120511 0.750000 0.000000
O O8 0.165267 0.510545 0.997306
O O9 0.962961 0.905493 0.250000
O O10 0.959903 0.750000 0.000000
O O11 0.000000 0.000000 0.000000
O O12 0.611717 0.250000 0.500000
O O13 0.619988 0.097244 0.750000
O O14 0.668265 0.050572 0.514517
O O15 0.198133 0.250000 0.500000
O O16 0.201343 0.093622 0.250000
O O17 0.247639 0.019962 0.485404
O O18 0.725171 0.250000 0.500000
O O19 0.716812 0.402240 0.250000
#
# Coordination Sequence:
#
# PCOD9440145 Si02
#       6
#     8   8   8   8   8   8
#     4  11  23  38  57  81 111 146 185 230 280 334
#     4  11  24  41  62  88 118 153 193 237 286 340
#     4  11  24  41  63  90 121 156 194 238 286 338
#     4   9  19  36  57  81 110 144 183 228 278 332
#     4  11  23  38  58  84 116 152 191 237 286 337
#     4   9  19  36  57  82 111 145 186 230 278 333
#
# _framework density 18.882673
#
# number of rings (size 3 to 8) (size 9 to 14) (size 15 to 20)
#    0.000    1.667    0.000    4.000    0.000   11.333 
#    0.000    0.000    0.000    0.000    0.000    0.000 
#    0.000    0.000    0.000    0.000    0.000    0.000 
#
# Total GULP energy -268299.419469 kJ/mol
# GULP energy per Si atom -5589.571239 kJ/mol
# Density = 1.883970 g / cm^3
# Si number density = 18.882673 Si / 1000 Ang^3
#
#
#
# Elastic Constant Matrix: (Units=GPa)
#
#
# Indices 1 2 3 4 5 6 
#
# 1 164.5348 124.5948 51.6232 0.0000 0.0000 0.0000
# 2 124.5948 190.5937 47.2061 0.0000 0.0000 0.0000
# 3 51.6232 47.2061 40.5617 0.0000 0.0000 0.0000
# 4 0.0000 0.0000 0.0000 38.8296 0.0000 0.0000
# 5 0.0000 0.0000 0.0000 0.0000 27.8227 0.0000
# 6 0.0000 0.0000 0.0000 0.0000 0.0000 41.5872
#
#
#
# Elastic Compliance Matrix: (Units=1/GPa)
#
#
# Indices 1 2 3 4 5 6 
#
# 1 0.014673 -0.006978 -0.010553 0.000000 0.000000 0.000000
# 2 -0.006978 0.010690 -0.003560 0.000000 0.000000 0.000000
# 3 -0.010553 -0.003560 0.042228 0.000000 0.000000 0.000000
# 4 0.000000 0.000000 0.000000 0.025754 0.000000 0.000000
# 5 0.000000 0.000000 0.000000 0.000000 0.035942 0.000000
# 6 0.000000 0.000000 0.000000 0.000000 0.000000 0.024046
#
#
# Mechanical properties :
#
#
# Convention : Reuss Voigt Hill
#
# Bulk Modulus (GPa) = 39.35701 93.61538 66.48620
# Shear Modulus (GPa) = 24.51141 33.13231 28.82186
#
# Velocity S-wave (km/s) = 3.60681 4.19339 3.91111
# Velocity P-wave (km/s) = 6.18333 8.55167 7.46206
#
# Compressibility (1/GPa) = 0.02540843
#
# Stress axis : x y z
#
# Youngs Moduli (GPa) = 68.15118 93.54143 23.68070
#
# Poissons Ratio (x) = 0.65277 0.24991
# Poissons Ratio (y) = 0.47558 0.08431
# Poissons Ratio (z) = 0.71922 0.33303
#
# Static dielectric constant tensor:
#      x y z
#    x 1.656820 0.000000 0.000000 
#    y 0.000000 1.599180 0.000000 
#    z 0.000000 0.000000 1.640600 
# 
# From -- ./inp_files/9926.got.cif
#   From: 2010.05.17/outbox.cif.g08.bks.cpg/sg57_5_cif.got.tgz:9926.got - 2010.06.03 13:58:18.
