data_PCOD9440263
_publ_section_title
;
Structure prediction by ZEFSAII (Michael W. Deem and Ramdas Pophale) SiO2 
 PCOD9440263
Probable space group: P B C M
;
_chemical_formula_sum "Si O2"
_cell_formula_units_Z 40
_cell_length_a 5.149807
_cell_length_b 21.788522
_cell_length_c 13.987357
_cell_angle_alpha 90.000000
_cell_angle_beta 90.000000
_cell_angle_gamma 90.000000
_cell_volume 1569.474935
_symmetry_space_group_name_H-M "P B C M"
_symmetry_group_IT_number 57
_symmetry_cell_setting 'orthorhombic'
loop_
_space_group_symop_operation_xyz
x,y,z
-x,-y,1/2+z
x,1/2-y,-z
-x,1/2+y,1/2-z
-x,-y,-z
x,y,1/2-z
-x,1/2+y,z
x,1/2-y,1/2+z
loop_
_atom_site_type_symbol
_atom_site_label
_atom_site_fract_x
_atom_site_fract_y
_atom_site_fract_z
Si Si1 0.963574 0.672412 0.750000
Si Si2 0.335378 0.945640 0.250000
Si Si3 0.308739 0.488937 0.412992
Si Si4 0.445009 0.816781 0.544751
Si Si5 0.053734 0.938966 0.750000
Si Si6 0.196737 0.807417 0.750000
Si Si7 0.073940 0.129010 0.953508
O O1 0.839772 0.661383 0.645992
O O2 0.172325 0.616478 0.750000
O O3 0.062215 0.741544 0.750000
O O4 0.520694 0.948443 0.159570
O O5 0.168320 0.008873 0.250000
O O6 0.500000 0.500000 0.500000
O O7 0.215229 0.544988 0.346771
O O8 0.070463 0.444364 0.440245
O O9 0.494800 0.750000 0.500000
O O10 0.367407 0.811375 0.654706
O O11 0.702147 0.856474 0.529279
O O12 0.199558 0.845015 0.487894
O O13 0.006094 0.866685 0.750000
#
# Coordination Sequence:
#
# PCOD9440263 Si02
#       7
#     4   4   8   8   4   4   8
#     4  12  24  51  81 116 152 216 261 344 394 473
#     4  11  24  48  73 113 154 197 283 324 393 484
#     4  11  25  45  78 110 153 211 261 335 395 476
#     4  12  28  50  76 119 158 206 268 323 402 481
#     4  11  25  47  71 114 155 201 266 324 407 464
#     4  12  29  50  79 113 167 212 252 350 408 469
#     4  12  26  49  78 118 153 206 274 321 391 486
#
# _framework density 25.486232000000001
#
# number of rings (size 3 to 8) (size 9 to 14) (size 15 to 20)
#    0.000    0.400    4.000    3.600    2.800    3.200 
#    0.000    0.000    0.000    0.000    0.000    0.000 
#    0.000    0.000    0.000    0.000    0.000    0.000 
#
# Total GULP energy -224434.520363 kJ/mol
# GULP energy per Si atom -5610.863009 kJ/mol
# Density = 2.542822 g / cm^3
# Si number density = 25.486232 Si / 1000 Ang^3
#
#
#
# Elastic Constant Matrix: (Units=GPa)
#
#
# Indices 1 2 3 4 5 6 
#
# 1 69.0751 21.2172 -1.9085 0.0000 0.0000 0.0000
# 2 21.2172 173.8495 24.0780 0.0000 0.0000 0.0000
# 3 -1.9085 24.0780 151.9343 0.0000 0.0000 0.0000
# 4 0.0000 0.0000 0.0000 23.2369 0.0000 0.0000
# 5 0.0000 0.0000 0.0000 0.0000 32.6447 0.0000
# 6 0.0000 0.0000 0.0000 0.0000 0.0000 40.0546
#
#
#
# Elastic Compliance Matrix: (Units=1/GPa)
#
#
# Indices 1 2 3 4 5 6 
#
# 1 0.015077 -0.001908 0.000492 0.000000 0.000000 0.000000
# 2 -0.001908 0.006123 -0.000994 0.000000 0.000000 0.000000
# 3 0.000492 -0.000994 0.006746 0.000000 0.000000 0.000000
# 4 0.000000 0.000000 0.000000 0.043035 0.000000 0.000000
# 5 0.000000 0.000000 0.000000 0.000000 0.030633 0.000000
# 6 0.000000 0.000000 0.000000 0.000000 0.000000 0.024966
#
#
# Mechanical properties :
#
#
# Convention : Reuss Voigt Hill
#
# Bulk Modulus (GPa) = 43.24573 53.51470 48.38021
# Shear Modulus (GPa) = 35.94337 42.61873 39.28105
#
# Velocity S-wave (km/s) = 3.75948 4.09372 3.93015
# Velocity P-wave (km/s) = 5.98749 6.58694 6.29436
#
# Compressibility (1/GPa) = 0.02312367
#
# Stress axis : x y z
#
# Youngs Moduli (GPa) = 66.32762 163.32713 148.24617
#
# Poissons Ratio (x) = 0.31165 -0.07290
# Poissons Ratio (y) = 0.12656 0.14740
# Poissons Ratio (z) = -0.03262 0.16239
#
# Static dielectric constant tensor:
#      x y z
#    x 1.971240 0.000000 0.000000 
#    y 0.000000 2.026600 0.000000 
#    z 0.000000 0.000000 2.013840 
# 
# From -- ./inp_files/14996.got.cif
#   From: 2010.05.17/outbox.cif.g08.bks.cpg/sg57_8_cif.got.tgz:14996.got - 2010.06.03 13:58:18.
