data_PCOD9440413
_publ_section_title
;
Structure prediction by ZEFSAII (Michael W. Deem and Ramdas Pophale) SiO2 
 PCOD9440413
Probable space group: P B C M
;
_chemical_formula_sum "Si O2"
_cell_formula_units_Z 48
_cell_length_a 12.000000
_cell_length_b 27.000000
_cell_length_c 9.000000
_cell_angle_alpha 90.000000
_cell_angle_beta 90.000000
_cell_angle_gamma 90.000000
_cell_volume 2916.000000
_symmetry_space_group_name_H-M "P B C M"
_symmetry_group_IT_number 57
_symmetry_cell_setting 'orthorhombic'
loop_
_space_group_symop_operation_xyz
x,y,z
-x,-y,1/2+z
x,1/2-y,-z
-x,1/2+y,1/2-z
-x,-y,-z
x,y,1/2-z
-x,1/2+y,z
x,1/2-y,1/2+z
loop_
_atom_site_type_symbol
_atom_site_label
_atom_site_fract_x
_atom_site_fract_y
_atom_site_fract_z
Si Si1 0.632545 0.695951 0.071301
Si Si2 0.370374 0.696940 0.071900
Si Si3 0.016687 0.053964 0.429780
Si Si4 0.988925 0.704351 0.915025
Si Si5 0.801850 0.879174 0.419262
Si Si6 0.838581 0.137993 0.072070
O O1 0.649287 0.698367 0.250000
O O2 0.500829 0.687592 0.039566
O O3 0.660517 0.750000 0.000000
O O4 0.703360 0.650500 0.002712
O O5 0.360426 0.702210 0.250000
O O6 0.287604 0.652087 0.025500
O O7 0.340013 0.750000 0.000000
O O8 0.020501 0.052044 0.250000
O O9 0.910613 0.089424 0.474164
O O10 0.132242 0.077858 0.491485
O O11 0.000000 0.000000 0.500000
O O12 0.025554 0.718179 0.750000
O O13 0.898009 0.661955 0.906115
O O14 0.936873 0.750000 0.000000
O O15 0.090251 0.683770 0.010611
O O16 0.770657 0.894262 0.250000
O O17 0.840446 0.136969 0.250000
#
# Coordination Sequence:
#
# PCOD9440413 Si02
#       6
#     8   8   8   8   8   8
#     4  10  19  31  48  71 101 135 168 200 234 278
#     4   9  18  31  47  70 100 133 166 197 232 277
#     4  10  20  35  55  76  98 124 157 201 253 303
#     4  10  19  28  41  64  94 125 155 191 233 280
#     4  10  20  33  49  70  96 126 162 201 242 289
#     4   9  18  32  49  69  94 125 159 196 240 289
#
# _framework density 16.460905
#
# number of rings (size 3 to 8) (size 9 to 14) (size 15 to 20)
#    0.000    2.333    0.000    3.000    0.000    6.667 
#    0.000    0.000    0.000    1.000    0.000    0.000 
#    0.000    0.000    0.000    0.000    0.000    0.000 
#
# Total GULP energy -267254.765019 kJ/mol
# GULP energy per Si atom -5567.807605 kJ/mol
# Density = 1.642344 g / cm^3
# Si number density = 16.460905 Si / 1000 Ang^3
#
#
#
# Elastic Constant Matrix: (Units=GPa)
#
#
# Indices 1 2 3 4 5 6 
#
# 1 103.0244 48.1535 32.6340 0.0000 0.0000 0.0000
# 2 48.1535 88.3881 47.2153 0.0000 0.0000 0.0000
# 3 32.6340 47.2153 46.2210 0.0000 0.0000 0.0000
# 4 0.0000 0.0000 0.0000 26.2909 0.0000 0.0000
# 5 0.0000 0.0000 0.0000 0.0000 -0.1014 0.0000
# 6 0.0000 0.0000 0.0000 0.0000 0.0000 27.2193
#
#
#
# Elastic Compliance Matrix: (Units=1/GPa)
#
#
# Indices 1 2 3 4 5 6 
#
# 1 0.013420 -0.004952 -0.004417 0.000000 0.000000 0.000000
# 2 -0.004952 0.026729 -0.023808 0.000000 0.000000 0.000000
# 3 -0.004417 -0.023808 0.049074 0.000000 0.000000 0.000000
# 4 0.000000 0.000000 0.000000 0.038036 0.000000 0.000000
# 5 0.000000 0.000000 0.000000 0.000000 -9.864341 0.000000
# 6 0.000000 0.000000 0.000000 0.000000 0.000000 0.036739
#
#
# Mechanical properties :
#
#
# Convention : Reuss Voigt Hill
#
# Bulk Modulus (GPa) = 43.72573 54.84880 49.28726
# Shear Modulus (GPa) = -0.51941 17.99049 8.73554
#
# Velocity S-wave (km/s) = -0.56234 3.30952 2.30616
# Velocity P-wave (km/s) = 5.11854 6.92798 6.09083
#
# Compressibility (1/GPa) = 0.02286983
#
# Stress axis : x y z
#
# Youngs Moduli (GPa) = 74.51600 37.41199 20.37735
#
# Poissons Ratio (x) = 0.18526 0.09000
# Poissons Ratio (y) = 0.36899 0.48515
# Poissons Ratio (z) = 0.32912 0.89071
#
# Static dielectric constant tensor:
#      x y z
#    x 1.575990 0.000000 0.000000 
#    y 0.000000 1.551170 0.000000 
#    z 0.000000 0.000000 1.577500 
# 
# From -- ./inp_files/3081.got.cif
#   From: 2010.05.17/outbox.ucp.g08.bks.cvg/sg57_2_cif.got.tgz:3081.got - 2010.06.11 16:39:23.
