data_PCOD9440737
_publ_section_title
;
Structure prediction by ZEFSAII (Michael W. Deem and Ramdas Pophale) SiO2 
 PCOD9440737
Probable space group: P N N M
;
_chemical_formula_sum "Si O2"
_cell_formula_units_Z 56
_cell_length_a 23.137590
_cell_length_b 18.547716
_cell_length_c 8.037579
_cell_angle_alpha 90.000000
_cell_angle_beta 90.000000
_cell_angle_gamma 90.000000
_cell_volume 3449.322593
_symmetry_space_group_name_H-M "P N N M"
_symmetry_group_IT_number 58
_symmetry_cell_setting 'orthorhombic'
loop_
_space_group_symop_operation_xyz
x,y,z
-x,-y,z
1/2+x,1/2-y,1/2-z
1/2-x,1/2+y,1/2-z
-x,-y,-z
x,y,-z
1/2-x,1/2+y,1/2+z
1/2+x,1/2-y,1/2+z
loop_
_atom_site_type_symbol
_atom_site_label
_atom_site_fract_x
_atom_site_fract_y
_atom_site_fract_z
Si Si1 0.434557 0.003561 0.200241
Si Si2 0.822526 0.219181 0.692032
Si Si3 0.718785 0.412228 0.698134
Si Si4 0.349129 0.127784 0.795968
Si Si5 0.302008 0.738330 0.192386
Si Si6 0.153413 0.381534 0.800913
Si Si7 0.718177 0.571455 0.200989
O O1 0.398253 0.072867 0.260936
O O2 0.500000 0.000000 0.263838
O O3 0.397739 0.932766 0.242363
O O4 0.436946 0.009374 0.000000
O O5 0.840762 0.213035 0.500000
O O6 0.854489 0.289368 0.763691
O O7 0.754853 0.242800 0.699174
O O8 0.820568 0.138560 0.764447
O O9 0.717930 0.406173 0.500000
O O10 0.785766 0.401483 0.754937
O O11 0.683792 0.344649 0.771357
O O12 0.699665 0.491954 0.747674
O O13 0.349176 0.129086 0.000000
O O14 0.348181 0.799660 0.235457
O O15 0.285581 0.745571 0.000000
O O16 0.215453 0.414268 0.742476
O O17 0.154133 0.380100 0.000000
O O18 0.718549 0.575296 0.000000
#
# Coordination Sequence:
#
# PCOD9440737 Si02
#       7
#     8   8   8   8   8   8   8
#     4  10  19  30  45  65  86 113 154 193 222 254
#     4   8  15  27  40  57  81 110 143 174 210 256
#     4  10  17  26  41  59  84 114 142 168 207 259
#     4   8  14  26  41  56  79 112 143 175 215 251
#     4  10  18  27  41  60  82 107 141 176 212 254
#     4  10  19  31  44  58  83 114 147 181 220 261
#     4   9  16  25  39  60  83 108 140 176 208 249
#
# _framework density 16.235071999999999
#
# number of rings (size 3 to 8) (size 9 to 14) (size 15 to 20)
#    0.000    2.714    1.429    3.857    0.000    2.571 
#    0.000    0.000    0.000    0.000    0.000    0.000 
#    0.000    1.143    0.000   13.429    0.000    2.571 
#
# Total GULP energy -311783.579616 kJ/mol
# GULP energy per Si atom -5567.563922 kJ/mol
# Density = 1.619812 g / cm^3
# Si number density = 16.235072 Si / 1000 Ang^3
#
#
#
# Elastic Constant Matrix: (Units=GPa)
#
#
# Indices 1 2 3 4 5 6 
#
# 1 53.0104 51.2302 6.0605 0.0000 0.0000 0.0000
# 2 51.2302 181.2864 5.1417 0.0000 0.0000 0.0000
# 3 6.0605 5.1417 19.2107 0.0000 0.0000 0.0000
# 4 0.0000 0.0000 0.0000 20.2950 0.0000 0.0000
# 5 0.0000 0.0000 0.0000 0.0000 6.3446 0.0000
# 6 0.0000 0.0000 0.0000 0.0000 0.0000 12.7215
#
#
#
# Elastic Compliance Matrix: (Units=1/GPa)
#
#
# Indices 1 2 3 4 5 6 
#
# 1 0.026724 -0.007369 -0.006458 0.000000 0.000000 0.000000
# 2 -0.007369 0.007590 0.000293 0.000000 0.000000 0.000000
# 3 -0.006458 0.000293 0.054013 0.000000 0.000000 0.000000
# 4 0.000000 0.000000 0.000000 0.049273 0.000000 0.000000
# 5 0.000000 0.000000 0.000000 0.000000 0.157615 0.000000
# 6 0.000000 0.000000 0.000000 0.000000 0.000000 0.078607
#
#
# Mechanical properties :
#
#
# Convention : Reuss Voigt Hill
#
# Bulk Modulus (GPa) = 16.32406 42.04137 29.18271
# Shear Modulus (GPa) = 11.86774 20.61057 16.23915
#
# Velocity S-wave (km/s) = 2.70662 3.56688 3.16611
# Velocity P-wave (km/s) = 4.45470 6.55097 5.60176
#
# Compressibility (1/GPa) = 0.06125929
#
# Stress axis : x y z
#
# Youngs Moduli (GPa) = 37.41964 131.74902 18.51392
#
# Poissons Ratio (x) = 0.97083 0.11957
# Poissons Ratio (y) = 0.27574 -0.00543
# Poissons Ratio (z) = 0.24167 -0.03862
#
# Static dielectric constant tensor:
#      x y z
#    x 1.508320 0.000000 0.000000 
#    y 0.000000 1.608280 0.000000 
#    z 0.000000 0.000000 1.573480 
# 
# From -- ./inp_files/8118.got.cif
#   From: 2010.05.17/outbox.cif.g08.bks.cpg/sg58_5_cif.got.tgz:8118.got - 2010.06.03 14:20:14.
