data_PCOD9440260
_publ_section_title
;
Structure prediction by ZEFSAII (Michael W. Deem and Ramdas Pophale) SiO2 
 PCOD9440260
Probable space group: P B C M
;
_chemical_formula_sum "Si O2"
_cell_formula_units_Z 32
_cell_length_a 6.266757
_cell_length_b 13.927502
_cell_length_c 15.180725
_cell_angle_alpha 90.000000
_cell_angle_beta 90.000000
_cell_angle_gamma 90.000000
_cell_volume 1324.977787
_symmetry_space_group_name_H-M "P B C M"
_symmetry_group_IT_number 57
_symmetry_cell_setting 'orthorhombic'
loop_
_space_group_symop_operation_xyz
x,y,z
-x,-y,1/2+z
x,1/2-y,-z
-x,1/2+y,1/2-z
-x,-y,-z
x,y,1/2-z
-x,1/2+y,z
x,1/2-y,1/2+z
loop_
_atom_site_type_symbol
_atom_site_label
_atom_site_fract_x
_atom_site_fract_y
_atom_site_fract_z
Si Si1 0.414843 0.393031 0.480854
Si Si2 0.741461 0.170112 0.844443
Si Si3 0.911724 0.983239 0.148899
Si Si4 0.953630 0.684269 0.416250
O O1 0.500000 0.500000 0.500000
O O2 0.589706 0.330700 0.429147
O O3 0.234940 0.412361 0.406807
O O4 0.932076 0.248378 0.655137
O O5 0.625698 0.179496 0.750000
O O6 0.858092 0.066994 0.847218
O O7 0.930485 0.082598 0.096318
O O8 0.839681 0.998056 0.250000
O O9 0.706076 0.845857 0.935011
O O10 0.001062 0.750000 0.500000
#
# Coordination Sequence:
#
# PCOD9440260 Si02
#       4
#     8   8   8   8
#     4  12  24  45  76 107 143 193 252 300 368 442
#     4  11  25  48  73 103 149 195 241 303 371 441
#     4  11  24  47  70 103 148 191 238 304 373 438
#     4  12  24  45  73 110 143 187 247 308 364 435
#
# _framework density 24.151347000000001
#
# number of rings (size 3 to 8) (size 9 to 14) (size 15 to 20)
#    0.000    0.500    5.000    3.750    0.000    3.000 
#    0.000    0.000    0.000    0.000    0.000    0.000 
#    0.000    0.000    0.000    0.000    0.000    0.000 
#
# Total GULP energy -178517.075321 kJ/mol
# GULP energy per Si atom -5578.658604 kJ/mol
# Density = 2.409638 g / cm^3
# Si number density = 24.151347 Si / 1000 Ang^3
#
#
#
# Elastic Constant Matrix: (Units=GPa)
#
#
# Indices 1 2 3 4 5 6 
#
# 1 84.3436 42.0804 41.3271 0.0000 0.0000 0.0000
# 2 42.0804 133.1951 34.4763 0.0000 0.0000 0.0000
# 3 41.3271 34.4763 93.1831 0.0000 0.0000 0.0000
# 4 0.0000 0.0000 0.0000 1.4759 0.0000 0.0000
# 5 0.0000 0.0000 0.0000 0.0000 28.4559 0.0000
# 6 0.0000 0.0000 0.0000 0.0000 0.0000 56.4861
#
#
#
# Elastic Compliance Matrix: (Units=1/GPa)
#
#
# Indices 1 2 3 4 5 6 
#
# 1 0.016651 -0.003704 -0.006015 0.000000 0.000000 0.000000
# 2 -0.003704 0.009127 -0.001734 0.000000 0.000000 0.000000
# 3 -0.006015 -0.001734 0.014041 0.000000 0.000000 0.000000
# 4 0.000000 0.000000 0.000000 0.677550 0.000000 0.000000
# 5 0.000000 0.000000 0.000000 0.000000 0.035142 0.000000
# 6 0.000000 0.000000 0.000000 0.000000 0.000000 0.017703
#
#
# Mechanical properties :
#
#
# Convention : Reuss Voigt Hill
#
# Bulk Modulus (GPa) = 59.12367 60.72105 59.92236
# Shear Modulus (GPa) = 6.25973 30.13944 18.19958
#
# Velocity S-wave (km/s) = 1.61168 3.53645 2.74809
# Velocity P-wave (km/s) = 5.29122 6.47084 5.91053
#
# Compressibility (1/GPa) = 0.01691370
#
# Stress axis : x y z
#
# Youngs Moduli (GPa) = 60.05573 109.56750 71.22191
#
# Poissons Ratio (x) = 0.40582 0.42837
# Poissons Ratio (y) = 0.22244 0.12351
# Poissons Ratio (z) = 0.36121 0.19000
#
# Static dielectric constant tensor:
#      x y z
#    x 2.001810 0.000000 0.000000 
#    y 0.000000 1.947160 0.000000 
#    z 0.000000 0.000000 1.934320 
# 
# From -- ./inp_files/14712.got.cif
#   From: 2010.05.17/outbox.cif.g08.bks.cpg/sg57_8_cif.got.tgz:14712.got - 2010.06.03 13:58:18.
