data_PCOD9440705
_publ_section_title
;
Structure prediction by ZEFSAII (Michael W. Deem and Ramdas Pophale) SiO2 
 PCOD9440705
Probable space group: P N N M
;
_chemical_formula_sum "Si O2"
_cell_formula_units_Z 32
_cell_length_a 15.511152
_cell_length_b 20.634412
_cell_length_c 5.382739
_cell_angle_alpha 90.000000
_cell_angle_beta 90.000000
_cell_angle_gamma 90.000000
_cell_volume 1722.818289
_symmetry_space_group_name_H-M "P N N M"
_symmetry_group_IT_number 58
_symmetry_cell_setting 'orthorhombic'
loop_
_space_group_symop_operation_xyz
x,y,z
-x,-y,z
1/2+x,1/2-y,1/2-z
1/2-x,1/2+y,1/2-z
-x,-y,-z
x,y,-z
1/2-x,1/2+y,1/2+z
1/2+x,1/2-y,1/2+z
loop_
_atom_site_type_symbol
_atom_site_label
_atom_site_fract_x
_atom_site_fract_y
_atom_site_fract_z
Si Si1 0.895263 0.005391 0.500000
Si Si2 0.943779 0.600676 0.500000
Si Si3 0.174434 0.605258 0.000000
Si Si4 0.135386 0.535890 0.500000
Si Si5 0.074705 0.943988 0.000000
Si Si6 0.454414 0.680818 0.500000
Si Si7 0.485432 0.830747 0.500000
Si Si8 0.353710 0.645792 0.000000
O O1 0.872509 0.043176 0.750172
O O2 0.862969 0.932328 0.500000
O O3 0.000000 0.000000 0.500000
O O4 0.877493 0.541073 0.500000
O O5 0.939818 0.642732 0.249366
O O6 0.039004 0.567289 0.500000
O O7 0.179075 0.562151 0.750497
O O8 0.251671 0.656646 0.000000
O O9 0.081746 0.639849 0.000000
O O10 0.027123 0.875194 0.000000
O O11 0.000000 0.000000 0.000000
O O12 0.489381 0.753487 0.500000
O O13 0.398820 0.670609 0.750112
#
# Coordination Sequence:
#
# PCOD9440705 Si02
#       8
#     4   4   4   4   4   4   4   4
#     4  10  16  30  49  74 101 121 164 231 265 299
#     4   9  17  33  57  80 103 134 181 224 256 319
#     4  10  21  35  53  83 115 134 176 235 283 319
#     4   9  17  33  57  80 104 138 169 219 286 311
#     4  10  16  30  49  75 101 118 168 236 256 299
#     4  12  21  33  55  80 101 151 192 213 269 322
#     4  10  21  35  53  82 108 145 187 224 254 328
#     4  12  21  33  55  82 107 141 181 234 274 327
#
# _framework density 18.574217999999998
#
# number of rings (size 3 to 8) (size 9 to 14) (size 15 to 20)
#    0.000    1.750    5.000    2.250    0.000    3.000 
#    0.000    0.000    0.000    9.000    0.000    0.000 
#    0.000    0.000    0.000    0.000    0.000    0.000 
#
# Total GULP energy -178535.523875 kJ/mol
# GULP energy per Si atom -5579.235121 kJ/mol
# Density = 1.853194 g / cm^3
# Si number density = 18.574218 Si / 1000 Ang^3
#
#
#
# Elastic Constant Matrix: (Units=GPa)
#
#
# Indices 1 2 3 4 5 6 
#
# 1 27.4484 12.5039 23.0124 0.0000 0.0000 0.0000
# 2 12.5039 132.9084 60.5799 0.0000 0.0000 0.0000
# 3 23.0124 60.5799 203.7302 0.0000 0.0000 0.0000
# 4 0.0000 0.0000 0.0000 15.8906 0.0000 0.0000
# 5 0.0000 0.0000 0.0000 0.0000 0.6391 0.0000
# 6 0.0000 0.0000 0.0000 0.0000 0.0000 10.5932
#
#
#
# Elastic Compliance Matrix: (Units=1/GPa)
#
#
# Indices 1 2 3 4 5 6 
#
# 1 0.040700 -0.002005 -0.004001 0.000000 0.000000 0.000000
# 2 -0.002005 0.008802 -0.002391 0.000000 0.000000 0.000000
# 3 -0.004001 -0.002391 0.006071 0.000000 0.000000 0.000000
# 4 0.000000 0.000000 0.000000 0.062930 0.000000 0.000000
# 5 0.000000 0.000000 0.000000 0.000000 1.564763 0.000000
# 6 0.000000 0.000000 0.000000 0.000000 0.000000 0.094400
#
#
# Mechanical properties :
#
#
# Convention : Reuss Voigt Hill
#
# Bulk Modulus (GPa) = 25.78704 61.80882 43.79793
# Shear Modulus (GPa) = 2.76642 23.29064 13.02853
#
# Velocity S-wave (km/s) = 1.22173 3.54492 2.65133
# Velocity P-wave (km/s) = 3.98792 7.07843 5.74490
#
# Compressibility (1/GPa) = 0.03877918
#
# Stress axis : x y z
#
# Youngs Moduli (GPa) = 24.57007 113.60507 164.70850
#
# Poissons Ratio (x) = 0.22782 0.65900
# Poissons Ratio (y) = 0.04927 0.39380
# Poissons Ratio (z) = 0.09830 0.27162
#
# Static dielectric constant tensor:
#      x y z
#    x 1.664550 0.000000 0.000000 
#    y 0.000000 1.598620 0.000000 
#    z 0.000000 0.000000 1.592750 
# 
# From -- ./inp_files/667.got.cif
#   From: 2010.05.17/outbox.cif.g08.bks.cpg/sg58_1_cif.got.tgz:667.got - 2010.06.03 14:20:14.
