data_PCOD9440722
_publ_section_title
;
Structure prediction by ZEFSAII (Michael W. Deem and Ramdas Pophale) SiO2 
 PCOD9440722
Probable space group: P N N M
;
_chemical_formula_sum "Si O2"
_cell_formula_units_Z 48
_cell_length_a 7.821555
_cell_length_b 28.736441
_cell_length_c 8.145896
_cell_angle_alpha 90.000000
_cell_angle_beta 90.000000
_cell_angle_gamma 90.000000
_cell_volume 1830.901348
_symmetry_space_group_name_H-M "P N N M"
_symmetry_group_IT_number 58
_symmetry_cell_setting 'orthorhombic'
loop_
_space_group_symop_operation_xyz
x,y,z
-x,-y,z
1/2+x,1/2-y,1/2-z
1/2-x,1/2+y,1/2-z
-x,-y,-z
x,y,-z
1/2-x,1/2+y,1/2+z
1/2+x,1/2-y,1/2+z
loop_
_atom_site_type_symbol
_atom_site_label
_atom_site_fract_x
_atom_site_fract_y
_atom_site_fract_z
Si Si1 0.678548 0.324504 0.808737
Si Si2 0.779799 0.008201 0.805196
Si Si3 0.643228 0.157899 0.313151
Si Si4 0.440631 0.073776 0.194307
Si Si5 0.043872 0.902986 0.805290
Si Si6 0.135580 0.764554 0.807833
O O1 0.625797 0.372286 0.719823
O O2 0.821727 0.287689 0.751160
O O3 0.509581 0.291914 0.789096
O O4 0.703980 0.334315 0.000000
O O5 0.613902 0.042468 0.792160
O O6 0.933871 0.043043 0.753994
O O7 0.706993 0.959805 0.733769
O O8 0.804472 0.998762 0.000000
O O9 0.628389 0.172907 0.500000
O O10 0.487287 0.123582 0.270019
O O11 0.808929 0.124572 0.290507
O O12 0.696611 0.202754 0.209185
O O13 0.413284 0.080453 0.000000
O O14 0.082910 0.901499 0.000000
O O15 0.088705 0.763682 0.000000
#
# Coordination Sequence:
#
# PCOD9440722 Si02
#       6
#     8   8   8   8   8   8
#     4  10  20  32  47  68  90 114 149 187 221 261
#     4   7  11  19  33  51  71 102 140 170 200 250
#     4  10  17  24  36  56  81 108 141 178 215 255
#     4   8  12  21  34  48  72 105 139 171 205 249
#     4   9  15  25  40  56  78 110 143 173 213 259
#     4  10  20  33  48  65  88 119 150 181 222 266
#
# _framework density 26.216594000000001
#
# number of rings (size 3 to 8) (size 9 to 14) (size 15 to 20)
#    0.000    3.000    0.000    7.000    0.000    2.667 
#    0.000    7.500    0.000    0.000    0.000    0.000 
#    0.000    1.333    0.000   15.000    0.000   16.500 
#
# Total GULP energy -268349.001390 kJ/mol
# GULP energy per Si atom -5590.604196 kJ/mol
# Density = 2.615692 g / cm^3
# Si number density = 26.216594 Si / 1000 Ang^3
#
#
#
# Elastic Constant Matrix: (Units=GPa)
#
#
# Indices 1 2 3 4 5 6 
#
# 1 95.5991 2.0776 2.5413 0.0000 0.0000 0.0000
# 2 2.0776 205.8156 19.1640 0.0000 0.0000 0.0000
# 3 2.5413 19.1640 57.9999 0.0000 0.0000 0.0000
# 4 0.0000 0.0000 0.0000 22.4046 0.0000 0.0000
# 5 0.0000 0.0000 0.0000 0.0000 19.1998 0.0000
# 6 0.0000 0.0000 0.0000 0.0000 0.0000 62.7601
#
#
#
# Elastic Compliance Matrix: (Units=1/GPa)
#
#
# Indices 1 2 3 4 5 6 
#
# 1 0.010473 -0.000065 -0.000437 0.000000 0.000000 0.000000
# 2 -0.000065 0.005013 -0.001654 0.000000 0.000000 0.000000
# 3 -0.000437 -0.001654 0.017807 0.000000 0.000000 0.000000
# 4 0.000000 0.000000 0.000000 0.044634 0.000000 0.000000
# 5 0.000000 0.000000 0.000000 0.000000 0.052084 0.000000
# 6 0.000000 0.000000 0.000000 0.000000 0.000000 0.015934
#
#
# Mechanical properties :
#
#
# Convention : Reuss Voigt Hill
#
# Bulk Modulus (GPa) = 34.50467 45.22006 39.86237
# Shear Modulus (GPa) = 31.26612 43.24837 37.25724
#
# Velocity S-wave (km/s) = 3.45716 4.06600 3.77388
# Velocity P-wave (km/s) = 5.39684 6.27130 5.85043
#
# Compressibility (1/GPa) = 0.02898158
#
# Stress axis : x y z
#
# Youngs Moduli (GPa) = 95.48008 199.46755 56.15787
#
# Poissons Ratio (x) = 0.01296 0.02456
# Poissons Ratio (y) = 0.00621 0.09286
# Poissons Ratio (z) = 0.04177 0.32985
#
# Static dielectric constant tensor:
#      x y z
#    x 2.257220 0.000000 0.000000 
#    y 0.000000 2.095770 0.000000 
#    z 0.000000 0.000000 1.877120 
# 
# From -- ./inp_files/4509.got.cif
#   From: 2010.05.17/outbox.cif.g08.bks.cpg/sg58_3_cif.got.tgz:4509.got - 2010.06.03 14:20:14.
