data_PCOD9440770
_publ_section_title
;
Structure prediction by ZEFSAII (Michael W. Deem and Ramdas Pophale) SiO2 
 PCOD9440770
Probable space group: P N N M
;
_chemical_formula_sum "Si O2"
_cell_formula_units_Z 48
_cell_length_a 9.182358
_cell_length_b 11.339455
_cell_length_c 19.113038
_cell_angle_alpha 90.000000
_cell_angle_beta 90.000000
_cell_angle_gamma 90.000000
_cell_volume 1990.105620
_symmetry_space_group_name_H-M "P N N M"
_symmetry_group_IT_number 58
_symmetry_cell_setting 'orthorhombic'
loop_
_space_group_symop_operation_xyz
x,y,z
-x,-y,z
1/2+x,1/2-y,1/2-z
1/2-x,1/2+y,1/2-z
-x,-y,-z
x,y,-z
1/2-x,1/2+y,1/2+z
1/2+x,1/2-y,1/2+z
loop_
_atom_site_type_symbol
_atom_site_label
_atom_site_fract_x
_atom_site_fract_y
_atom_site_fract_z
Si Si1 0.278485 0.300490 0.580376
Si Si2 0.669244 0.606142 0.277924
Si Si3 0.990538 0.328921 0.724537
Si Si4 0.363401 0.421700 0.921862
Si Si5 0.555913 0.851424 0.074824
Si Si6 0.222634 0.566712 0.173669
O O1 0.335862 0.288691 0.500000
O O2 0.365168 0.377394 0.639033
O O3 0.118967 0.357970 0.572818
O O4 0.247692 0.173821 0.618720
O O5 0.836009 0.657479 0.275096
O O6 0.567591 0.695510 0.233962
O O7 0.678272 0.479232 0.239804
O O8 0.916001 0.386242 0.655004
O O9 0.923443 0.392910 0.790526
O O10 0.500000 0.500000 0.895892
O O11 0.402656 0.286133 0.924810
O O12 0.227907 0.450998 0.873794
O O13 0.334298 0.464244 0.000000
O O14 0.613496 0.898626 0.000000
#
# Coordination Sequence:
#
# PCOD9440770 Si02
#       6
#     8   8   8   8   8   8
#     4   9  18  33  55  81 110 148 192 230 273 333
#     4  10  21  36  54  78 113 147 180 229 280 336
#     4  10  21  35  52  78 111 147 183 222 279 339
#     4  10  17  27  50  83 111 137 180 231 276 324
#     4   9  16  30  51  77 108 138 181 233 270 316
#     4  11  19  30  52  79 112 139 174 226 285 329
#
# _framework density 24.119323999999999
#
# number of rings (size 3 to 8) (size 9 to 14) (size 15 to 20)
#    0.000    2.167    3.333    1.000    0.000    0.000 
#    0.000    0.833    0.000   28.000    0.000    0.000 
#    0.000   21.333    0.000    0.000    0.000    0.000 
#
# Total GULP energy -267345.342259 kJ/mol
# GULP energy per Si atom -5569.694630 kJ/mol
# Density = 2.406443 g / cm^3
# Si number density = 24.119324 Si / 1000 Ang^3
#
#
#
# Elastic Constant Matrix: (Units=GPa)
#
#
# Indices 1 2 3 4 5 6 
#
# 1 45.7602 25.6949 34.0300 0.0000 0.0000 0.0000
# 2 25.6949 91.4406 31.6072 0.0000 0.0000 0.0000
# 3 34.0300 31.6072 218.8805 0.0000 0.0000 0.0000
# 4 0.0000 0.0000 0.0000 30.1412 0.0000 0.0000
# 5 0.0000 0.0000 0.0000 0.0000 65.4682 0.0000
# 6 0.0000 0.0000 0.0000 0.0000 0.0000 27.0558
#
#
#
# Elastic Compliance Matrix: (Units=1/GPa)
#
#
# Indices 1 2 3 4 5 6 
#
# 1 0.028170 -0.006738 -0.003407 0.000000 0.000000 0.000000
# 2 -0.006738 0.013122 -0.000847 0.000000 0.000000 0.000000
# 3 -0.003407 -0.000847 0.005221 0.000000 0.000000 0.000000
# 4 0.000000 0.000000 0.000000 0.033177 0.000000 0.000000
# 5 0.000000 0.000000 0.000000 0.000000 0.015275 0.000000
# 6 0.000000 0.000000 0.000000 0.000000 0.000000 0.036961
#
#
# Mechanical properties :
#
#
# Convention : Reuss Voigt Hill
#
# Bulk Modulus (GPa) = 40.76857 59.86062 50.31460
# Shear Modulus (GPa) = 30.84777 42.18299 36.51538
#
# Velocity S-wave (km/s) = 3.58014 4.18656 3.89517
# Velocity P-wave (km/s) = 5.83348 6.94565 6.41372
#
# Compressibility (1/GPa) = 0.02452870
#
# Stress axis : x y z
#
# Youngs Moduli (GPa) = 35.49868 76.20560 191.54522
#
# Poissons Ratio (x) = 0.51349 0.65253
# Poissons Ratio (y) = 0.23920 0.16230
# Poissons Ratio (z) = 0.12093 0.06457
#
# Static dielectric constant tensor:
#      x y z
#    x 1.953150 0.000000 0.000000 
#    y 0.000000 2.035630 0.000000 
#    z 0.000000 0.000000 2.052690 
# 
# From -- ./inp_files/26224.got.cif
#   From: 2010.05.17/outbox.cif.g08.bks.cpg/sg58_14_cif.got.tgz:26224.got - 2010.06.03 14:20:14.
