data_PCOD9440472
_publ_section_title
;
Structure prediction by ZEFSAII (Michael W. Deem and Ramdas Pophale) SiO2 
 PCOD9440472
Probable space group: P B C M
;
_chemical_formula_sum "Si O2"
_cell_formula_units_Z 64
_cell_length_a 12.000000
_cell_length_b 30.000000
_cell_length_c 9.000000
_cell_angle_alpha 90.000000
_cell_angle_beta 90.000000
_cell_angle_gamma 90.000000
_cell_volume 3240.000000
_symmetry_space_group_name_H-M "P B C M"
_symmetry_group_IT_number 57
_symmetry_cell_setting 'orthorhombic'
loop_
_space_group_symop_operation_xyz
x,y,z
-x,-y,1/2+z
x,1/2-y,-z
-x,1/2+y,1/2-z
-x,-y,-z
x,y,1/2-z
-x,1/2+y,z
x,1/2-y,1/2+z
loop_
_atom_site_type_symbol
_atom_site_label
_atom_site_fract_x
_atom_site_fract_y
_atom_site_fract_z
Si Si1 0.089713 0.206024 0.574662
Si Si2 0.525813 0.546144 0.421097
Si Si3 0.067648 0.632097 0.923893
Si Si4 0.268693 0.797931 0.423740
Si Si5 0.239216 0.087999 0.416068
Si Si6 0.994406 0.453045 0.919661
Si Si7 0.321465 0.330550 0.419522
Si Si8 0.537809 0.354611 0.573817
O O1 0.042971 0.250000 0.500000
O O2 0.065052 0.207264 0.750000
O O3 0.222110 0.203782 0.556356
O O4 0.036115 0.160721 0.513849
O O5 0.500000 0.500000 0.500000
O O6 0.489931 0.542483 0.250000
O O7 0.658861 0.553575 0.423649
O O8 0.474420 0.593454 0.478538
O O9 0.049618 0.621762 0.750000
O O10 0.165517 0.668054 0.936308
O O11 0.080494 0.585466 0.006539
O O12 0.251352 0.750000 0.500000
O O13 0.290449 0.790054 0.250000
O O14 0.368026 0.825724 0.497033
O O15 0.248599 0.109559 0.250000
O O16 0.262440 0.122242 0.547679
O O17 0.120072 0.065735 0.425646
O O18 0.960210 0.459198 0.750000
O O19 0.000000 0.500000 0.000000
O O20 0.361027 0.327830 0.250000
O O21 0.422839 0.330149 0.532021
O O22 0.553282 0.355687 0.750000
#
# Coordination Sequence:
#
# PCOD9440472 Si02
#       8
#     8   8   8   8   8   8   8   8
#     4  10  21  35  56  86 117 149 188 237 291 352
#     4   9  19  35  56  83 115 153 198 249 304 362
#     4  10  22  42  62  86 121 157 200 254 307 363
#     4  11  24  42  66  91 122 165 211 261 317 376
#     4   9  19  36  55  78 111 152 193 241 301 357
#     4  11  23  38  60  88 119 160 206 254 310 369
#     4  10  19  34  58  85 114 150 193 240 298 359
#     4  10  22  40  60  85 122 160 204 256 306 367
#
# _framework density 19.753086
#
# number of rings (size 3 to 8) (size 9 to 14) (size 15 to 20)
#    0.000    2.000    1.250    2.625    0.000    7.000 
#    0.000    5.000    0.000    0.000    0.000    0.000 
#    0.000    0.000    0.000    0.000    0.000    0.000 
#
# Total GULP energy -356730.213464 kJ/mol
# GULP energy per Si atom -5573.909585 kJ/mol
# Density = 1.970813 g / cm^3
# Si number density = 19.753086 Si / 1000 Ang^3
#
#
#
# Elastic Constant Matrix: (Units=GPa)
#
#
# Indices 1 2 3 4 5 6 
#
# 1 36.9082 12.9556 29.5941 0.0000 0.0000 0.0000
# 2 12.9556 103.5751 69.5496 0.0000 0.0000 0.0000
# 3 29.5941 69.5496 76.2945 0.0000 0.0000 0.0000
# 4 0.0000 0.0000 0.0000 34.3560 0.0000 0.0000
# 5 0.0000 0.0000 0.0000 0.0000 21.1989 0.0000
# 6 0.0000 0.0000 0.0000 0.0000 0.0000 10.9146
#
#
#
# Elastic Compliance Matrix: (Units=1/GPa)
#
#
# Indices 1 2 3 4 5 6 
#
# 1 0.048698 0.016997 -0.034384 0.000000 0.000000 0.000000
# 2 0.016997 0.030824 -0.034692 0.000000 0.000000 0.000000
# 3 -0.034384 -0.034692 0.058070 0.000000 0.000000 0.000000
# 4 0.000000 0.000000 0.000000 0.029107 0.000000 0.000000
# 5 0.000000 0.000000 0.000000 0.000000 0.047172 0.000000
# 6 0.000000 0.000000 0.000000 0.000000 0.000000 0.091620
#
#
# Mechanical properties :
#
#
# Convention : Reuss Voigt Hill
#
# Bulk Modulus (GPa) = 29.91003 48.99738 39.45370
# Shear Modulus (GPa) = 11.88230 20.27247 16.07738
#
# Velocity S-wave (km/s) = 2.45529 3.20706 2.85602
# Velocity P-wave (km/s) = 4.81797 6.21067 5.55811
#
# Compressibility (1/GPa) = 0.03343360
#
# Stress axis : x y z
#
# Youngs Moduli (GPa) = 20.53470 32.44208 17.22072
#
# Poissons Ratio (x) = -0.55143 0.59212
# Poissons Ratio (y) = -0.34903 0.59742
# Poissons Ratio (z) = 0.70607 1.12549
#
# Static dielectric constant tensor:
#      x y z
#    x 1.710460 0.000000 0.000000 
#    y 0.000000 1.686080 0.000000 
#    z 0.000000 0.000000 1.693450 
# 
# From -- ./inp_files/3813.got.cif
#   From: 2010.05.17/outbox.ucp.g08.bks.cvg/sg57_2_cif.got.tgz:3813.got - 2010.06.11 16:39:23.
