data_PCOD9440801
_publ_section_title
;
Structure prediction by ZEFSAII (Michael W. Deem and Ramdas Pophale) SiO2 
 PCOD9440801
Probable space group: P N N M
;
_chemical_formula_sum "Si O2"
_cell_formula_units_Z 40
_cell_length_a 8.974471
_cell_length_b 8.979005
_cell_length_c 21.316778
_cell_angle_alpha 90.000000
_cell_angle_beta 90.000000
_cell_angle_gamma 90.000000
_cell_volume 1717.744767
_symmetry_space_group_name_H-M "P N N M"
_symmetry_group_IT_number 58
_symmetry_cell_setting 'orthorhombic'
loop_
_space_group_symop_operation_xyz
x,y,z
-x,-y,z
1/2+x,1/2-y,1/2-z
1/2-x,1/2+y,1/2-z
-x,-y,-z
x,y,-z
1/2-x,1/2+y,1/2+z
1/2+x,1/2-y,1/2+z
loop_
_atom_site_type_symbol
_atom_site_label
_atom_site_fract_x
_atom_site_fract_y
_atom_site_fract_z
Si Si1 0.556604 0.646069 0.393832
Si Si2 0.664609 0.337792 0.929715
Si Si3 0.058209 0.228661 0.297198
Si Si4 0.141063 0.388274 0.928072
Si Si5 0.298713 0.431439 0.739804
O O1 0.500000 0.500000 0.428162
O O2 0.684195 0.739371 0.428352
O O3 0.413592 0.753568 0.384965
O O4 0.631100 0.588895 0.329549
O O5 0.570657 0.275699 0.872261
O O6 0.717860 0.506991 0.914455
O O7 0.601429 0.333703 0.000000
O O8 0.130030 0.376829 0.267863
O O9 0.891597 0.191062 0.278570
O O10 0.158192 0.089154 0.270474
O O11 0.000000 0.500000 0.926437
O O12 0.155879 0.334380 0.000000
#
# Coordination Sequence:
#
# PCOD9440801 Si02
#       5
#     8   8   8   8   8
#     4  10  17  29  49  78 114 140 179 241 283 329
#     4   9  19  33  52  78 109 151 190 224 276 337
#     4  10  21  38  58  83 117 147 189 238 278 345
#     4   8  15  27  44  71 103 138 178 217 268 324
#     4  10  22  37  55  85 112 147 191 233 291 338
#
# _framework density 23.286345000000001
#
# number of rings (size 3 to 8) (size 9 to 14) (size 15 to 20)
#    0.000    2.600    2.000    1.800    2.800    2.400 
#    0.000    2.000    0.000    0.000    0.000   12.600 
#    0.000    0.000    0.000    0.000    0.000    0.000 
#
# Total GULP energy -223257.011158 kJ/mol
# GULP energy per Si atom -5581.425279 kJ/mol
# Density = 2.323334 g / cm^3
# Si number density = 23.286345 Si / 1000 Ang^3
#
#
#
# Elastic Constant Matrix: (Units=GPa)
#
#
# Indices 1 2 3 4 5 6 
#
# 1 47.4767 16.9854 14.9812 0.0000 0.0000 0.0000
# 2 16.9854 74.0952 16.8318 0.0000 0.0000 0.0000
# 3 14.9812 16.8318 109.9518 0.0000 0.0000 0.0000
# 4 0.0000 0.0000 0.0000 5.4919 0.0000 0.0000
# 5 0.0000 0.0000 0.0000 0.0000 5.5578 0.0000
# 6 0.0000 0.0000 0.0000 0.0000 0.0000 32.7302
#
#
#
# Elastic Compliance Matrix: (Units=1/GPa)
#
#
# Indices 1 2 3 4 5 6 
#
# 1 0.023575 -0.004843 -0.002471 0.000000 0.000000 0.000000
# 2 -0.004843 0.014977 -0.001633 0.000000 0.000000 0.000000
# 3 -0.002471 -0.001633 0.009682 0.000000 0.000000 0.000000
# 4 0.000000 0.000000 0.000000 0.182085 0.000000 0.000000
# 5 0.000000 0.000000 0.000000 0.000000 0.179926 0.000000
# 6 0.000000 0.000000 0.000000 0.000000 0.000000 0.030553
#
#
# Mechanical properties :
#
#
# Convention : Reuss Voigt Hill
#
# Bulk Modulus (GPa) = 32.95915 36.56895 34.76405
# Shear Modulus (GPa) = 10.66540 20.93768 15.80154
#
# Velocity S-wave (km/s) = 2.14244 3.00182 2.60777
# Velocity P-wave (km/s) = 4.50607 5.26808 4.90190
#
# Compressibility (1/GPa) = 0.03034059
#
# Stress axis : x y z
#
# Youngs Moduli (GPa) = 42.41725 66.76772 103.28959
#
# Poissons Ratio (x) = 0.32336 0.25521
# Poissons Ratio (y) = 0.20543 0.16866
# Poissons Ratio (z) = 0.10480 0.10902
#
# Static dielectric constant tensor:
#      x y z
#    x 1.891410 0.000000 0.000000 
#    y 0.000000 1.911370 0.000000 
#    z 0.000000 0.000000 1.886590 
# 
# From -- ./inp_files/28727.got.cif
#   From: 2010.05.17/outbox.cif.g08.bks.cpg/sg58_15_cif.got.tgz:28727.got - 2010.06.03 14:20:14.
