data_PCOD9440975
_publ_section_title
;
Structure prediction by ZEFSAII (Michael W. Deem and Ramdas Pophale) SiO2 
 PCOD9440975
Probable space group: P N N M
;
_chemical_formula_sum "Si O2"
_cell_formula_units_Z 64
_cell_length_a 24.658640
_cell_length_b 9.025763
_cell_length_c 18.899266
_cell_angle_alpha 90.000000
_cell_angle_beta 90.000000
_cell_angle_gamma 90.000000
_cell_volume 4206.278105
_symmetry_space_group_name_H-M "P N N M"
_symmetry_group_IT_number 58
_symmetry_cell_setting 'orthorhombic'
loop_
_space_group_symop_operation_xyz
x,y,z
-x,-y,z
1/2+x,1/2-y,1/2-z
1/2-x,1/2+y,1/2-z
-x,-y,-z
x,y,-z
1/2-x,1/2+y,1/2+z
1/2+x,1/2-y,1/2+z
loop_
_atom_site_type_symbol
_atom_site_label
_atom_site_fract_x
_atom_site_fract_y
_atom_site_fract_z
Si Si1 0.316958 0.839119 0.216077
Si Si2 0.314115 0.245322 0.419387
Si Si3 0.757908 0.690547 0.916301
Si Si4 0.620355 0.166850 0.351978
Si Si5 0.253588 0.548089 0.813839
Si Si6 0.427816 0.131528 0.417336
Si Si7 0.473910 0.659540 0.585217
Si Si8 0.721022 0.021435 0.081524
O O1 0.367833 0.841659 0.268358
O O2 0.294178 0.672064 0.213960
O O3 0.273084 0.949296 0.252784
O O4 0.319337 0.899925 0.136405
O O5 0.303940 0.187486 0.500000
O O6 0.291531 0.138372 0.358671
O O7 0.378613 0.250374 0.412300
O O8 0.278953 0.393470 0.413014
O O9 0.820277 0.683630 0.888649
O O10 0.725172 0.567997 0.871962
O O11 0.732513 0.850870 0.902181
O O12 0.757487 0.664038 0.000000
O O13 0.581807 0.300461 0.376081
O O14 0.591861 0.015230 0.377647
O O15 0.433394 0.090475 0.500000
O O16 0.482735 0.212153 0.395472
O O17 0.500000 0.500000 0.601687
O O18 0.465609 0.664908 0.500000
O O19 0.703307 0.035433 0.000000
#
# Coordination Sequence:
#
# PCOD9440975 Si02
#       8
#     8   8   8   8   8   8   8   8
#     4  10  19  31  45  65  92 123 157 194 238 279
#     4   9  16  28  46  68  89 120 158 190 225 273
#     4  10  18  29  47  68  92 125 162 194 226 274
#     4  11  20  31  47  66  92 126 164 199 229 280
#     4  10  18  29  43  63  93 122 155 196 227 274
#     4  10  18  31  49  68  90 122 159 194 232 270
#     4  10  22  35  47  66  95 127 163 205 239 266
#     4   9  19  31  46  67  94 122 154 193 232 279
#
# _framework density 15.215351999999999
#
# number of rings (size 3 to 8) (size 9 to 14) (size 15 to 20)
#    0.000    2.125    2.500    3.375    1.750    1.500 
#    0.000    0.000    0.000    0.000    0.000    0.000 
#    0.000    2.500    0.000    0.000    0.000    1.125 
#
# Total GULP energy -356598.863706 kJ/mol
# GULP energy per Si atom -5571.857245 kJ/mol
# Density = 1.518072 g / cm^3
# Si number density = 15.215352 Si / 1000 Ang^3
#
#
#
# Elastic Constant Matrix: (Units=GPa)
#
#
# Indices 1 2 3 4 5 6 
#
# 1 41.1890 20.3545 25.4117 0.0000 0.0000 0.0000
# 2 20.3545 87.5867 37.3647 0.0000 0.0000 0.0000
# 3 25.4117 37.3647 70.2624 0.0000 0.0000 0.0000
# 4 0.0000 0.0000 0.0000 24.4273 0.0000 0.0000
# 5 0.0000 0.0000 0.0000 0.0000 12.3164 0.0000
# 6 0.0000 0.0000 0.0000 0.0000 0.0000 17.6389
#
#
#
# Elastic Compliance Matrix: (Units=1/GPa)
#
#
# Indices 1 2 3 4 5 6 
#
# 1 0.031941 -0.003227 -0.009836 0.000000 0.000000 0.000000
# 2 -0.003227 0.015093 -0.006859 0.000000 0.000000 0.000000
# 3 -0.009836 -0.006859 0.021438 0.000000 0.000000 0.000000
# 4 0.000000 0.000000 0.000000 0.040938 0.000000 0.000000
# 5 0.000000 0.000000 0.000000 0.000000 0.081193 0.000000
# 6 0.000000 0.000000 0.000000 0.000000 0.000000 0.056693
#
#
# Mechanical properties :
#
#
# Convention : Reuss Voigt Hill
#
# Bulk Modulus (GPa) = 34.93151 40.58887 37.76019
# Shear Modulus (GPa) = 16.85300 18.60368 17.72834
#
# Velocity S-wave (km/s) = 3.33172 3.50049 3.41715
# Velocity P-wave (km/s) = 6.14885 6.56294 6.35927
#
# Compressibility (1/GPa) = 0.02862745
#
# Stress axis : x y z
#
# Youngs Moduli (GPa) = 31.30735 66.25417 46.64701
#
# Poissons Ratio (x) = 0.21379 0.45883
# Poissons Ratio (y) = 0.10102 0.31997
# Poissons Ratio (z) = 0.30795 0.45447
#
# Static dielectric constant tensor:
#      x y z
#    x 1.486400 0.000000 0.000000 
#    y 0.000000 1.548290 0.000000 
#    z 0.000000 0.000000 1.528750 
# 
# From -- ./inp_files/27689.got.cif
#   From: 2010.05.17/outbox.cif.g08.bks.cpg/sg58_14_cif.got.tgz:27689.got - 2010.06.03 14:20:14.
