data_PCOD9440512
_publ_section_title
;
Structure prediction by ZEFSAII (Michael W. Deem and Ramdas Pophale) SiO2 
 PCOD9440512
Probable space group: P B C M
;
_chemical_formula_sum "Si O2"
_cell_formula_units_Z 64
_cell_length_a 18.000000
_cell_length_b 21.000000
_cell_length_c 9.000000
_cell_angle_alpha 90.000000
_cell_angle_beta 90.000000
_cell_angle_gamma 90.000000
_cell_volume 3402.000000
_symmetry_space_group_name_H-M "P B C M"
_symmetry_group_IT_number 57
_symmetry_cell_setting 'orthorhombic'
loop_
_space_group_symop_operation_xyz
x,y,z
-x,-y,1/2+z
x,1/2-y,-z
-x,1/2+y,1/2-z
-x,-y,-z
x,y,1/2-z
-x,1/2+y,z
x,1/2-y,1/2+z
loop_
_atom_site_type_symbol
_atom_site_label
_atom_site_fract_x
_atom_site_fract_y
_atom_site_fract_z
Si Si1 0.408866 0.317008 0.427162
Si Si2 0.150519 0.066338 0.572902
Si Si3 0.681092 0.432463 0.070750
Si Si4 0.145058 0.936348 0.072537
Si Si5 0.313376 0.427354 0.928942
Si Si6 0.088714 0.687630 0.082248
Si Si7 0.088579 0.312424 0.581932
Si Si8 0.584018 0.316260 0.427754
O O1 0.387316 0.250000 0.500000
O O2 0.397240 0.315884 0.250000
O O3 0.362795 0.372358 0.503558
O O4 0.496651 0.326367 0.456364
O O5 0.155208 0.064061 0.750000
O O6 0.231543 0.074914 0.499251
O O7 0.104179 0.126042 0.516002
O O8 0.118921 0.000385 0.508282
O O9 0.677597 0.429664 0.250000
O O10 0.767850 0.427469 0.032584
O O11 0.654909 0.503014 0.029190
O O12 0.631921 0.374990 0.012869
O O13 0.138953 0.943495 0.250000
O O14 0.104180 0.874532 0.013652
O O15 0.308182 0.423213 0.750000
O O16 0.118198 0.681412 0.250000
O O17 0.000003 0.695285 0.093119
O O18 0.119404 0.750000 0.000000
O O19 0.119564 0.250000 0.500000
O O20 0.118215 0.319300 0.750000
O O21 0.607072 0.250000 0.500000
O O22 0.593064 0.311565 0.250000
#
# Coordination Sequence:
#
# PCOD9440512 Si02
#       8
#     8   8   8   8   8   8   8   8
#     4  10  20  34  53  77 105 137 174 217 262 311
#     4  11  22  37  57  81 109 140 178 221 266 318
#     4   8  17  34  54  76 104 139 174 214 264 313
#     4  10  20  36  57  80 110 145 181 222 268 317
#     4  10  20  36  56  77 105 139 175 216 264 316
#     4  10  21  37  57  81 110 143 180 222 267 318
#     4  10  21  38  58  81 109 141 178 220 268 319
#     4   9  18  34  53  75 105 138 174 215 260 310
#
# _framework density 18.812463000000001
#
# number of rings (size 3 to 8) (size 9 to 14) (size 15 to 20)
#    0.000    2.250    0.000    3.750    0.000    4.000 
#    0.000    7.500    0.000    0.000    0.000    0.000 
#    0.000    0.000    0.000    0.000    0.000    0.000 
#
# Total GULP energy -357038.707818 kJ/mol
# GULP energy per Si atom -5578.729810 kJ/mol
# Density = 1.876965 g / cm^3
# Si number density = 18.812463 Si / 1000 Ang^3
#
#
#
# Elastic Constant Matrix: (Units=GPa)
#
#
# Indices 1 2 3 4 5 6 
#
# 1 6.5111 24.5408 19.8022 0.0000 0.0000 0.0000
# 2 24.5408 119.7533 51.0053 0.0000 0.0000 0.0000
# 3 19.8022 51.0053 99.5783 0.0000 0.0000 0.0000
# 4 0.0000 0.0000 0.0000 31.8109 0.0000 0.0000
# 5 0.0000 0.0000 0.0000 0.0000 13.1872 0.0000
# 6 0.0000 0.0000 0.0000 0.0000 0.0000 20.1164
#
#
#
# Elastic Compliance Matrix: (Units=1/GPa)
#
#
# Indices 1 2 3 4 5 6 
#
# 1 2.784210 -0.428149 -0.334367 0.000000 0.000000 0.000000
# 2 -0.428149 0.076520 0.045947 0.000000 0.000000 0.000000
# 3 -0.334367 0.045947 0.053000 0.000000 0.000000 0.000000
# 4 0.000000 0.000000 0.000000 0.031436 0.000000 0.000000
# 5 0.000000 0.000000 0.000000 0.000000 0.075831 0.000000
# 6 0.000000 0.000000 0.000000 0.000000 0.000000 0.049711
#
#
# Mechanical properties :
#
#
# Convention : Reuss Voigt Hill
#
# Bulk Modulus (GPa) = 0.67540 46.28216 23.47878
# Shear Modulus (GPa) = 1.00052 21.72252 11.36152
#
# Velocity S-wave (km/s) = 0.73007 3.40176 2.46018
# Velocity P-wave (km/s) = 1.03463 6.33123 4.53624
#
# Compressibility (1/GPa) = 1.48059355
#
# Stress axis : x y z
#
# Youngs Moduli (GPa) = 0.35917 13.06844 18.86789
#
# Poissons Ratio (x) = 5.59524 6.30881
# Poissons Ratio (y) = 0.15378 -0.86693
# Poissons Ratio (z) = 0.12009 -0.60046
#
# Static dielectric constant tensor:
#      x y z
#    x 1.650860 0.000000 0.000000 
#    y 0.000000 1.663380 0.000000 
#    z 0.000000 0.000000 1.637740 
# 
# From -- ./inp_files/7228.got.cif
#   From: 2010.05.17/outbox.ucp.g08.bks.cvg/sg57_4_cif.got.tgz:7228.got - 2010.06.11 16:39:23.
