data_PCOD9440033
_publ_section_title
;
Structure prediction by ZEFSAII (Michael W. Deem and Ramdas Pophale) SiO2 
 PCOD9440033
Probable space group: P B C M
;
_chemical_formula_sum "Si O2"
_cell_formula_units_Z 48
_cell_length_a 11.105073
_cell_length_b 12.709103
_cell_length_c 18.408138
_cell_angle_alpha 90.000000
_cell_angle_beta 90.000000
_cell_angle_gamma 90.000000
_cell_volume 2598.042066
_symmetry_space_group_name_H-M "P B C M"
_symmetry_group_IT_number 57
_symmetry_cell_setting 'orthorhombic'
loop_
_space_group_symop_operation_xyz
x,y,z
-x,-y,1/2+z
x,1/2-y,-z
-x,1/2+y,1/2-z
-x,-y,-z
x,y,1/2-z
-x,1/2+y,z
x,1/2-y,1/2+z
loop_
_atom_site_type_symbol
_atom_site_label
_atom_site_fract_x
_atom_site_fract_y
_atom_site_fract_z
Si Si1 0.759307 0.470019 0.077579
Si Si2 0.287101 0.567132 0.091469
Si Si3 0.113152 0.756358 0.411765
Si Si4 0.484127 0.997676 0.335254
Si Si5 0.302491 0.355619 0.165262
Si Si6 0.848405 0.700789 0.419788
O O1 0.835044 0.370739 0.105765
O O2 0.643396 0.490671 0.127015
O O3 0.837781 0.575716 0.075298
O O4 0.715306 0.444651 0.995482
O O5 0.203724 0.664631 0.112634
O O6 0.422543 0.574904 0.123145
O O7 0.241484 0.456720 0.125912
O O8 0.109140 0.750000 0.500000
O O9 0.977033 0.735272 0.387461
O O10 0.476891 0.023650 0.250000
O O11 0.556488 0.886205 0.342042
O O12 0.273536 0.354852 0.250000
O O13 0.258569 0.250649 0.127313
O O14 0.837758 0.750000 0.500000
#
# Coordination Sequence:
#
# PCOD9440033 Si02
#       6
#     8   8   8   8   8   8
#     4  11  21  35  59  93 114 145 201 244 280 344
#     4   9  18  38  61  84 115 153 192 233 289 345
#     4   9  22  35  59  90 118 150 190 242 287 336
#     4   9  20  38  59  83 117 153 191 240 292 343
#     4   9  20  38  59  83 115 155 191 228 289 348
#     4  11  21  36  61  86 117 155 190 239 291 341
#
# _framework density 18.475451
#
# number of rings (size 3 to 8) (size 9 to 14) (size 15 to 20)
#    1.000    1.333    1.667    0.500    2.333    4.000 
#    0.000    9.167    0.000    0.000    0.000    0.000 
#    0.000    0.000    0.000    0.000    0.000    0.000 
#
# Total GULP energy -267374.028670 kJ/mol
# GULP energy per Si atom -5570.292264 kJ/mol
# Density = 1.843340 g / cm^3
# Si number density = 18.475451 Si / 1000 Ang^3
#
#
#
# Elastic Constant Matrix: (Units=GPa)
#
#
# Indices 1 2 3 4 5 6 
#
# 1 83.7295 24.0993 33.2324 0.0000 0.0000 0.0000
# 2 24.0993 95.0504 17.3828 0.0000 0.0000 0.0000
# 3 33.2324 17.3828 62.2697 0.0000 0.0000 0.0000
# 4 0.0000 0.0000 0.0000 15.2358 0.0000 0.0000
# 5 0.0000 0.0000 0.0000 0.0000 -2.8343 0.0000
# 6 0.0000 0.0000 0.0000 0.0000 0.0000 26.3066
#
#
#
# Elastic Compliance Matrix: (Units=1/GPa)
#
#
# Indices 1 2 3 4 5 6 
#
# 1 0.015734 -0.002586 -0.007675 0.000000 0.000000 0.000000
# 2 -0.002586 0.011512 -0.001834 0.000000 0.000000 0.000000
# 3 -0.007675 -0.001834 0.020667 0.000000 0.000000 0.000000
# 4 0.000000 0.000000 0.000000 0.065635 0.000000 0.000000
# 5 0.000000 0.000000 0.000000 0.000000 -0.352820 0.000000
# 6 0.000000 0.000000 0.000000 0.000000 0.000000 0.038013
#
#
# Mechanical properties :
#
#
# Convention : Reuss Voigt Hill
#
# Bulk Modulus (GPa) = 42.15155 43.38648 42.76902
# Shear Modulus (GPa) = -29.55725 18.83062 -5.36331
#
# Velocity S-wave (km/s) = -4.00410 3.19599 -1.70565
# Velocity P-wave (km/s) = 1.21955 6.09536 4.39549
#
# Compressibility (1/GPa) = 0.02372392
#
# Stress axis : x y z
#
# Youngs Moduli (GPa) = 63.55808 86.86882 48.38607
#
# Poissons Ratio (x) = 0.22460 0.37137
# Poissons Ratio (y) = 0.16433 0.08872
# Poissons Ratio (z) = 0.48781 0.15929
#
# Static dielectric constant tensor:
#      x y z
#    x 1.638760 0.000000 0.000000 
#    y 0.000000 1.636400 0.000000 
#    z 0.000000 0.000000 1.617660 
# 
# From -- ./inp_files/24946.got.cif
#   From: 2010.05.17/outbox.cif.g08.bks.cpg/sg57_13_cif.got.tgz:24946.got - 2010.06.03 13:58:18.
