data_PCOD9440294
_publ_section_title
;
Structure prediction by ZEFSAII (Michael W. Deem and Ramdas Pophale) SiO2 
 PCOD9440294
Probable space group: P B C M
;
_chemical_formula_sum "Si O2"
_cell_formula_units_Z 40
_cell_length_a 5.205267
_cell_length_b 22.222785
_cell_length_c 13.939354
_cell_angle_alpha 90.000000
_cell_angle_beta 90.000000
_cell_angle_gamma 90.000000
_cell_volume 1612.442154
_symmetry_space_group_name_H-M "P B C M"
_symmetry_group_IT_number 57
_symmetry_cell_setting 'orthorhombic'
loop_
_space_group_symop_operation_xyz
x,y,z
-x,-y,1/2+z
x,1/2-y,-z
-x,1/2+y,1/2-z
-x,-y,-z
x,y,1/2-z
-x,1/2+y,z
x,1/2-y,1/2+z
loop_
_atom_site_type_symbol
_atom_site_label
_atom_site_fract_x
_atom_site_fract_y
_atom_site_fract_z
Si Si1 0.611368 0.521956 0.750000
Si Si2 0.123048 0.054096 0.250000
Si Si3 0.591895 0.310717 0.750000
Si Si4 0.758088 0.808877 0.039357
Si Si5 0.116236 0.870666 0.915482
Si Si6 0.534769 0.066259 0.954421
Si Si7 0.902881 0.731456 0.750000
O O1 0.906576 0.499406 0.750000
O O2 0.526231 0.557475 0.656377
O O3 0.415632 0.465979 0.750000
O O4 0.065474 0.092499 0.344178
O O5 0.658910 0.349283 0.655907
O O6 0.305384 0.285708 0.750000
O O7 0.806942 0.257115 0.750000
O O8 0.622677 0.872893 0.022920
O O9 0.841119 0.803012 0.150457
O O10 0.608100 0.750000 0.000000
O O11 0.992993 0.813038 0.964713
O O12 0.191728 0.914012 0.003207
O O13 0.500000 0.000000 0.000000
#
# Coordination Sequence:
#
# PCOD9440294 Si02
#       7
#     4   4   4   8   8   8   4
#     4  12  27  48  75 115 158 203 259 337 401 466
#     4  11  26  48  77 111 154 207 269 317 393 492
#     4  11  26  50  79 114 154 216 265 327 397 492
#     4  12  27  48  78 115 157 208 266 333 398 479
#     4  11  26  45  81 108 157 207 270 318 401 485
#     4  12  27  48  77 113 158 210 262 333 404 480
#     4  12  27  50  77 114 162 200 267 333 409 460
#
# _framework density 24.807089999999999
#
# number of rings (size 3 to 8) (size 9 to 14) (size 15 to 20)
#    0.000    0.400    4.000    3.000    5.600    4.800 
#    0.000    0.000    0.000    0.000    0.000    0.000 
#    0.000    0.000    0.000    0.000    0.000    0.000 
#
# Total GULP energy -223745.221641 kJ/mol
# GULP energy per Si atom -5593.630541 kJ/mol
# Density = 2.475063 g / cm^3
# Si number density = 24.807090 Si / 1000 Ang^3
#
#
#
# Elastic Constant Matrix: (Units=GPa)
#
#
# Indices 1 2 3 4 5 6 
#
# 1 50.8728 28.9500 7.3491 0.0000 0.0000 0.0000
# 2 28.9500 133.9912 61.5604 0.0000 0.0000 0.0000
# 3 7.3491 61.5604 188.8993 0.0000 0.0000 0.0000
# 4 0.0000 0.0000 0.0000 7.7437 0.0000 0.0000
# 5 0.0000 0.0000 0.0000 0.0000 29.1511 0.0000
# 6 0.0000 0.0000 0.0000 0.0000 0.0000 47.0778
#
#
#
# Elastic Compliance Matrix: (Units=1/GPa)
#
#
# Indices 1 2 3 4 5 6 
#
# 1 0.022524 -0.005250 0.000835 0.000000 0.000000 0.000000
# 2 -0.005250 0.010001 -0.003055 0.000000 0.000000 0.000000
# 3 0.000835 -0.003055 0.006257 0.000000 0.000000 0.000000
# 4 0.000000 0.000000 0.000000 0.129137 0.000000 0.000000
# 5 0.000000 0.000000 0.000000 0.000000 0.034304 0.000000
# 6 0.000000 0.000000 0.000000 0.000000 0.000000 0.021241
#
#
# Mechanical properties :
#
#
# Convention : Reuss Voigt Hill
#
# Bulk Modulus (GPa) = 41.94415 63.27583 52.60999
# Shear Modulus (GPa) = 20.29616 35.18812 27.74214
#
# Velocity S-wave (km/s) = 2.86345 3.77034 3.34775
# Velocity P-wave (km/s) = 5.27990 6.67207 6.01639
#
# Compressibility (1/GPa) = 0.02384123
#
# Stress axis : x y z
#
# Youngs Moduli (GPa) = 44.39735 99.98953 159.82236
#
# Poissons Ratio (x) = 0.52494 -0.13339
# Poissons Ratio (y) = 0.23308 0.48826
# Poissons Ratio (z) = -0.03705 0.30547
#
# Static dielectric constant tensor:
#      x y z
#    x 2.084080 0.000000 0.000000 
#    y 0.000000 2.061890 0.000000 
#    z 0.000000 0.000000 1.884520 
# 
# From -- ./inp_files/15008.got.cif
#   From: 2010.05.17/outbox.cif.g08.bks.cpg/sg57_8_cif.got.tgz:15008.got - 2010.06.03 13:58:18.
