data_PCOD9440225
_publ_section_title
;
Structure prediction by ZEFSAII (Michael W. Deem and Ramdas Pophale) SiO2 
 PCOD9440225
Probable space group: P B C M
;
_chemical_formula_sum "Si O2"
_cell_formula_units_Z 36
_cell_length_a 8.643080
_cell_length_b 14.804526
_cell_length_c 14.780065
_cell_angle_alpha 90.000000
_cell_angle_beta 90.000000
_cell_angle_gamma 90.000000
_cell_volume 1891.208381
_symmetry_space_group_name_H-M "P B C M"
_symmetry_group_IT_number 57
_symmetry_cell_setting 'orthorhombic'
loop_
_space_group_symop_operation_xyz
x,y,z
-x,-y,1/2+z
x,1/2-y,-z
-x,1/2+y,1/2-z
-x,-y,-z
x,y,1/2-z
-x,1/2+y,z
x,1/2-y,1/2+z
loop_
_atom_site_type_symbol
_atom_site_label
_atom_site_fract_x
_atom_site_fract_y
_atom_site_fract_z
Si Si1 0.837023 0.229380 0.250000
Si Si2 0.857469 0.649759 0.750000
Si Si3 0.313862 0.681752 0.921115
Si Si4 0.154765 0.012397 0.059180
Si Si5 0.011435 0.047817 0.250000
Si Si6 0.318719 0.162157 0.940991
O O1 0.738624 0.264171 0.333643
O O2 0.002167 0.279688 0.250000
O O3 0.879729 0.124275 0.250000
O O4 0.761298 0.661182 0.657393
O O5 0.932101 0.550257 0.750000
O O6 0.228694 0.585894 0.926014
O O7 0.497077 0.664886 0.926847
O O8 0.267052 0.750000 0.000000
O O9 0.111016 0.053369 0.157526
O O10 0.265995 0.076608 0.000649
O O11 0.000000 0.000000 0.000000
O O12 0.273265 0.250000 0.000000
#
# Coordination Sequence:
#
# PCOD9440225 Si02
#       6
#     4   4   8   8   4   8
#     4  12  23  43  67  92 131 170 224 272 329 402
#     4  12  23  44  67  97 133 171 221 277 336 396
#     4  11  24  42  65  94 132 176 219 273 336 403
#     4  12  22  42  66  98 134 174 227 277 332 398
#     4  12  24  39  68 101 130 175 227 275 337 388
#     4  11  25  43  66  97 135 175 220 273 336 398
#
# _framework density 19.035450000000001
#
# number of rings (size 3 to 8) (size 9 to 14) (size 15 to 20)
#    0.000    0.444    4.444    4.000    0.000    1.778 
#    0.000    1.111    0.000    0.000    0.000    0.000 
#    0.000    0.000    0.000    0.000    0.000    0.000 
#
# Total GULP energy -201315.309991 kJ/mol
# GULP energy per Si atom -5592.091944 kJ/mol
# Density = 1.899212 g / cm^3
# Si number density = 19.035450 Si / 1000 Ang^3
#
#
#
# Elastic Constant Matrix: (Units=GPa)
#
#
# Indices 1 2 3 4 5 6 
#
# 1 41.8244 3.7250 41.6196 0.0000 0.0000 0.0000
# 2 3.7250 41.8749 15.4498 0.0000 0.0000 0.0000
# 3 41.6196 15.4498 189.9949 0.0000 0.0000 0.0000
# 4 0.0000 0.0000 0.0000 36.9269 0.0000 0.0000
# 5 0.0000 0.0000 0.0000 0.0000 43.7995 0.0000
# 6 0.0000 0.0000 0.0000 0.0000 0.0000 37.7028
#
#
#
# Elastic Compliance Matrix: (Units=1/GPa)
#
#
# Indices 1 2 3 4 5 6 
#
# 1 0.030577 -0.000256 -0.006677 0.000000 0.000000 0.000000
# 2 -0.000256 0.024621 -0.001946 0.000000 0.000000 0.000000
# 3 -0.006677 -0.001946 0.006884 0.000000 0.000000 0.000000
# 4 0.000000 0.000000 0.000000 0.027081 0.000000 0.000000
# 5 0.000000 0.000000 0.000000 0.000000 0.022831 0.000000
# 6 0.000000 0.000000 0.000000 0.000000 0.000000 0.026523
#
#
# Mechanical properties :
#
#
# Convention : Reuss Voigt Hill
#
# Bulk Modulus (GPa) = 22.56150 43.92035 33.24092
# Shear Modulus (GPa) = 29.23101 37.87915 33.55508
#
# Velocity S-wave (km/s) = 3.92294 4.46570 4.20309
# Velocity P-wave (km/s) = 5.69186 7.05074 6.40743
#
# Compressibility (1/GPa) = 0.04432330
#
# Stress axis : x y z
#
# Youngs Moduli (GPa) = 32.70446 40.61505 145.25970
#
# Poissons Ratio (x) = 0.01041 0.96993
# Poissons Ratio (y) = 0.00839 0.28267
# Poissons Ratio (z) = 0.21837 0.07904
#
# Static dielectric constant tensor:
#      x y z
#    x 1.631340 0.000000 0.000000 
#    y 0.000000 1.636260 0.000000 
#    z 0.000000 0.000000 1.627720 
# 
# From -- ./inp_files/15850.got.cif
#   From: 2010.05.17/outbox.cif.g08.bks.cpg/sg57_8_cif.got.tgz:15850.got - 2010.06.03 13:58:18.
