data_PCOD9440354
_publ_section_title
;
Structure prediction by ZEFSAII (Michael W. Deem and Ramdas Pophale) SiO2 
 PCOD9440354
Probable space group: P B C M
;
_chemical_formula_sum "Si O2"
_cell_formula_units_Z 32
_cell_length_a 9.647588
_cell_length_b 10.050108
_cell_length_c 14.544002
_cell_angle_alpha 90.000000
_cell_angle_beta 90.000000
_cell_angle_gamma 90.000000
_cell_volume 1410.176273
_symmetry_space_group_name_H-M "P B C M"
_symmetry_group_IT_number 57
_symmetry_cell_setting 'orthorhombic'
loop_
_space_group_symop_operation_xyz
x,y,z
-x,-y,1/2+z
x,1/2-y,-z
-x,1/2+y,1/2-z
-x,-y,-z
x,y,1/2-z
-x,1/2+y,z
x,1/2-y,1/2+z
loop_
_atom_site_type_symbol
_atom_site_label
_atom_site_fract_x
_atom_site_fract_y
_atom_site_fract_z
Si Si1 0.333222 0.240444 0.750000
Si Si2 0.408076 0.610871 0.051726
Si Si3 0.900070 0.707246 0.603088
Si Si4 0.494420 0.027755 0.250000
Si Si5 0.877241 0.424482 0.643530
O O1 0.241592 0.208272 0.839176
O O2 0.342990 0.403300 0.750000
O O3 0.458944 0.127758 0.750000
O O4 0.454134 0.599707 0.157500
O O5 0.243662 0.590003 0.067123
O O6 0.431242 0.750000 0.000000
O O7 0.500000 0.500000 0.000000
O O8 0.870138 0.750000 0.500000
O O9 0.955166 0.558651 0.615544
O O10 0.016184 0.804911 0.640560
O O11 0.825977 0.436618 0.750000
#
# Coordination Sequence:
#
# PCOD9440354 Si02
#       5
#     4   8   8   4   8
#     4  12  26  49  75 109 153 202 250 321 381 459
#     4  12  27  46  76 110 152 202 251 312 383 463
#     4  12  26  48  76 107 151 199 255 315 382 455
#     4  12  26  51  73 111 157 200 252 319 385 459
#     4  12  24  52  76 112 154 196 255 319 384 455
#
# _framework density 22.692198000000001
#
# number of rings (size 3 to 8) (size 9 to 14) (size 15 to 20)
#    0.000    0.000    6.250    3.000    3.500    0.000 
#    4.500    0.000    0.000    0.000    0.000    0.000 
#    0.000    0.000    0.000    0.000    0.000    0.000 
#
# Total GULP energy -178570.194467 kJ/mol
# GULP energy per Si atom -5580.318577 kJ/mol
# Density = 2.264055 g / cm^3
# Si number density = 22.692198 Si / 1000 Ang^3
#
#
#
# Elastic Constant Matrix: (Units=GPa)
#
#
# Indices 1 2 3 4 5 6 
#
# 1 43.5869 70.6413 25.7035 0.0000 0.0000 0.0000
# 2 70.6413 206.2038 66.9330 0.0000 0.0000 0.0000
# 3 25.7035 66.9330 180.5144 0.0000 0.0000 0.0000
# 4 0.0000 0.0000 0.0000 2.3437 0.0000 0.0000
# 5 0.0000 0.0000 0.0000 0.0000 -39.4684 0.0000
# 6 0.0000 0.0000 0.0000 0.0000 0.0000 45.0494
#
#
#
# Elastic Compliance Matrix: (Units=1/GPa)
#
#
# Indices 1 2 3 4 5 6 
#
# 1 0.051711 -0.017422 -0.000903 0.000000 0.000000 0.000000
# 2 -0.017422 0.011383 -0.001740 0.000000 0.000000 0.000000
# 3 -0.000903 -0.001740 0.006313 0.000000 0.000000 0.000000
# 4 0.000000 0.000000 0.000000 0.426683 0.000000 0.000000
# 5 0.000000 0.000000 0.000000 0.000000 -0.025337 0.000000
# 6 0.000000 0.000000 0.000000 0.000000 0.000000 0.022198
#
#
# Mechanical properties :
#
#
# Convention : Reuss Voigt Hill
#
# Bulk Modulus (GPa) = 34.15643 84.09562 59.12603
# Shear Modulus (GPa) = 9.21081 19.38676 14.29879
#
# Velocity S-wave (km/s) = 2.01689 2.92607 2.51294
# Velocity P-wave (km/s) = 4.52863 6.96818 5.87640
#
# Compressibility (1/GPa) = 0.02927706
#
# Stress axis : x y z
#
# Youngs Moduli (GPa) = 19.33821 87.85218 158.39137
#
# Poissons Ratio (x) = 1.53056 0.14307
# Poissons Ratio (y) = 0.33691 0.27558
# Poissons Ratio (z) = 0.01747 0.15285
#
# Static dielectric constant tensor:
#      x y z
#    x 1.960190 0.000000 0.000000 
#    y 0.000000 1.898840 0.000000 
#    z 0.000000 0.000000 1.735850 
# 
# From -- ./inp_files/17200.got.cif
#   From: 2010.05.17/outbox.cif.g08.bks.cpg/sg57_9_cif.got.tgz:17200.got - 2010.06.03 13:58:18.
