data_PCOD9440951
_publ_section_title
;
Structure prediction by ZEFSAII (Michael W. Deem and Ramdas Pophale) SiO2 
 PCOD9440951
Probable space group: P N N M
;
_chemical_formula_sum "Si O2"
_cell_formula_units_Z 48
_cell_length_a 7.648307
_cell_length_b 29.789899
_cell_length_c 13.139625
_cell_angle_alpha 90.000000
_cell_angle_beta 90.000000
_cell_angle_gamma 90.000000
_cell_volume 2993.762290
_symmetry_space_group_name_H-M "P N N M"
_symmetry_group_IT_number 58
_symmetry_cell_setting 'orthorhombic'
loop_
_space_group_symop_operation_xyz
x,y,z
-x,-y,z
1/2+x,1/2-y,1/2-z
1/2-x,1/2+y,1/2-z
-x,-y,-z
x,y,-z
1/2-x,1/2+y,1/2+z
1/2+x,1/2-y,1/2+z
loop_
_atom_site_type_symbol
_atom_site_label
_atom_site_fract_x
_atom_site_fract_y
_atom_site_fract_z
Si Si1 0.978064 0.755458 0.877978
Si Si2 0.678947 0.200756 0.790872
Si Si3 0.706239 0.416396 0.381774
Si Si4 0.795912 0.511205 0.615924
Si Si5 0.322113 0.175575 0.121157
Si Si6 0.801641 0.108549 0.118958
O O1 0.881060 0.714166 0.822496
O O2 0.852091 0.797457 0.850184
O O3 0.170155 0.766358 0.833596
O O4 0.986279 0.751353 0.000000
O O5 0.495396 0.202519 0.850948
O O6 0.748076 0.150759 0.813498
O O7 0.763500 0.423061 0.500000
O O8 0.711472 0.466481 0.336427
O O9 0.820742 0.375614 0.337335
O O10 0.509917 0.398042 0.382705
O O11 0.724033 0.515967 0.500000
O O12 0.771823 0.560992 0.658340
O O13 0.000000 0.500000 0.611937
O O14 0.314788 0.171106 0.000000
O O15 0.744954 0.116578 0.000000
#
# Coordination Sequence:
#
# PCOD9440951 Si02
#       6
#     8   8   8   8   8   8
#     4  11  23  37  52  75 102 132 175 218 259 306
#     4  12  21  36  54  73  99 136 173 214 260 305
#     4   9  16  27  43  67 102 135 166 203 244 302
#     4   9  16  25  38  64  99 135 169 199 242 301
#     4  10  19  32  51  73 100 136 170 206 254 307
#     4  10  18  28  46  70  99 136 172 206 250 305
#
# _framework density 16.033337
#
# number of rings (size 3 to 8) (size 9 to 14) (size 15 to 20)
#    0.000    1.833    3.333    3.000    0.000    4.667 
#    0.000    0.000    0.000    0.000    0.000    0.000 
#    0.000    8.667    0.000    0.000    0.000    1.667 
#
# Total GULP energy -267211.494336 kJ/mol
# GULP energy per Si atom -5566.906132 kJ/mol
# Density = 1.599684 g / cm^3
# Si number density = 16.033337 Si / 1000 Ang^3
#
#
#
# Elastic Constant Matrix: (Units=GPa)
#
#
# Indices 1 2 3 4 5 6 
#
# 1 80.7222 29.0580 22.5562 0.0000 0.0000 0.0000
# 2 29.0580 105.5845 39.2494 0.0000 0.0000 0.0000
# 3 22.5562 39.2494 37.0199 0.0000 0.0000 0.0000
# 4 0.0000 0.0000 0.0000 15.5312 0.0000 0.0000
# 5 0.0000 0.0000 0.0000 0.0000 15.0290 0.0000
# 6 0.0000 0.0000 0.0000 0.0000 0.0000 32.1807
#
#
#
# Elastic Compliance Matrix: (Units=1/GPa)
#
#
# Indices 1 2 3 4 5 6 
#
# 1 0.015023 -0.001208 -0.007873 0.000000 0.000000 0.000000
# 2 -0.001208 0.015729 -0.015940 0.000000 0.000000 0.000000
# 3 -0.007873 -0.015940 0.048710 0.000000 0.000000 0.000000
# 4 0.000000 0.000000 0.000000 0.064387 0.000000 0.000000
# 5 0.000000 0.000000 0.000000 0.000000 0.066538 0.000000
# 6 0.000000 0.000000 0.000000 0.000000 0.000000 0.031074
#
#
# Mechanical properties :
#
#
# Convention : Reuss Voigt Hill
#
# Bulk Modulus (GPa) = 33.99095 45.00596 39.49845
# Shear Modulus (GPa) = 16.59422 21.37904 18.98663
#
# Velocity S-wave (km/s) = 3.22060 3.65555 3.44495
# Velocity P-wave (km/s) = 5.92249 6.77854 6.36492
#
# Compressibility (1/GPa) = 0.02941960
#
# Stress axis : x y z
#
# Youngs Moduli (GPa) = 66.56519 63.57634 20.52972
#
# Poissons Ratio (x) = 0.07679 0.16163
# Poissons Ratio (y) = 0.08040 0.32725
# Poissons Ratio (z) = 0.52406 1.01344
#
# Static dielectric constant tensor:
#      x y z
#    x 1.585980 0.000000 0.000000 
#    y 0.000000 1.626540 0.000000 
#    z 0.000000 0.000000 1.507490 
# 
# From -- ./inp_files/13157.got.cif
#   From: 2010.05.17/outbox.cif.g08.bks.cpg/sg58_7_cif.got.tgz:13157.got - 2010.06.03 14:20:14.
