data_PCOD9440788
_publ_section_title
;
Structure prediction by ZEFSAII (Michael W. Deem and Ramdas Pophale) SiO2 
 PCOD9440788
Probable space group: P N N M
;
_chemical_formula_sum "Si O2"
_cell_formula_units_Z 52
_cell_length_a 19.908030
_cell_length_b 15.225202
_cell_length_c 8.733950
_cell_angle_alpha 90.000000
_cell_angle_beta 90.000000
_cell_angle_gamma 90.000000
_cell_volume 2647.293243
_symmetry_space_group_name_H-M "P N N M"
_symmetry_group_IT_number 58
_symmetry_cell_setting 'orthorhombic'
loop_
_space_group_symop_operation_xyz
x,y,z
-x,-y,z
1/2+x,1/2-y,1/2-z
1/2-x,1/2+y,1/2-z
-x,-y,-z
x,y,-z
1/2-x,1/2+y,1/2+z
1/2+x,1/2-y,1/2+z
loop_
_atom_site_type_symbol
_atom_site_label
_atom_site_fract_x
_atom_site_fract_y
_atom_site_fract_z
Si Si1 0.941138 0.172536 0.686987
Si Si2 0.288765 0.277373 0.814542
Si Si3 0.134930 0.097825 0.671386
Si Si4 0.000000 0.000000 0.265285
Si Si5 0.670193 0.092578 0.317480
Si Si6 0.432204 0.781452 0.182429
Si Si7 0.730950 0.922542 0.819022
O O1 0.948167 0.151722 0.500000
O O2 0.863789 0.190262 0.719161
O O3 0.990713 0.254767 0.713459
O O4 0.968834 0.092384 0.790453
O O5 0.230550 0.343111 0.759640
O O6 0.280087 0.177091 0.761239
O O7 0.283121 0.275417 0.000000
O O8 0.163275 0.104094 0.500000
O O9 0.111070 0.194186 0.724175
O O10 0.191416 0.057829 0.778834
O O11 0.067961 0.039602 0.662190
O O12 0.673077 0.090932 0.500000
O O13 0.600717 0.136185 0.264461
O O14 0.684373 0.995834 0.255418
O O15 0.425659 0.792604 0.000000
O O16 0.720477 0.923721 0.000000
#
# Coordination Sequence:
#
# PCOD9440788 Si02
#       7
#     8   8   8   4   8   8   8
#     4   9  16  29  51  79 110 142 181 230 278 329
#     4   9  19  35  55  80 111 146 186 229 278 335
#     4  10  18  31  53  81 112 146 180 225 278 337
#     4  10  17  28  53  88 117 142 185 232 281 346
#     4  11  21  36  58  81 107 146 189 231 280 339
#     4   9  18  32  53  80 108 139 176 224 277 328
#     4  11  22  36  54  80 111 146 189 238 282 333
#
# _framework density 19.642706
#
# number of rings (size 3 to 8) (size 9 to 14) (size 15 to 20)
#    0.000    2.154    1.538    4.154    0.000    1.231 
#    0.000    1.154    0.000   12.923    0.000    0.000 
#    0.000    0.000    0.000    0.000    0.000    0.000 
#
# Total GULP energy -289631.550350 kJ/mol
# GULP energy per Si atom -5569.837507 kJ/mol
# Density = 1.959800 g / cm^3
# Si number density = 19.642706 Si / 1000 Ang^3
#
#
#
# Elastic Constant Matrix: (Units=GPa)
#
#
# Indices 1 2 3 4 5 6 
#
# 1 64.1435 9.1200 1.5325 0.0000 0.0000 0.0000
# 2 9.1200 68.4740 7.7910 0.0000 0.0000 0.0000
# 3 1.5325 7.7910 10.8128 0.0000 0.0000 0.0000
# 4 0.0000 0.0000 0.0000 23.9224 0.0000 0.0000
# 5 0.0000 0.0000 0.0000 0.0000 7.4029 0.0000
# 6 0.0000 0.0000 0.0000 0.0000 0.0000 25.9461
#
#
#
# Elastic Compliance Matrix: (Units=1/GPa)
#
#
# Indices 1 2 3 4 5 6 
#
# 1 0.015897 -0.002027 -0.000792 0.000000 0.000000 0.000000
# 2 -0.002027 0.016167 -0.011361 0.000000 0.000000 0.000000
# 3 -0.000792 -0.011361 0.100782 0.000000 0.000000 0.000000
# 4 0.000000 0.000000 0.000000 0.041802 0.000000 0.000000
# 5 0.000000 0.000000 0.000000 0.000000 0.135083 0.000000
# 6 0.000000 0.000000 0.000000 0.000000 0.000000 0.038541
#
#
# Mechanical properties :
#
#
# Convention : Reuss Voigt Hill
#
# Bulk Modulus (GPa) = 9.57087 20.03524 14.80306
# Shear Modulus (GPa) = 12.15179 19.78673 15.96926
#
# Velocity S-wave (km/s) = 2.48995 3.17729 2.85439
# Velocity P-wave (km/s) = 3.62623 4.86644 4.29137
#
# Compressibility (1/GPa) = 0.10448371
#
# Stress axis : x y z
#
# Youngs Moduli (GPa) = 62.90412 61.85516 9.92241
#
# Poissons Ratio (x) = 0.12539 0.00786
# Poissons Ratio (y) = 0.12752 0.11273
# Poissons Ratio (z) = 0.04985 0.70277
#
# Static dielectric constant tensor:
#      x y z
#    x 1.679610 0.000000 0.000000 
#    y 0.000000 1.712960 0.000000 
#    z 0.000000 0.000000 1.680740 
# 
# From -- ./inp_files/8908.got.cif
#   From: 2010.05.17/outbox.cif.g08.bks.cpg/sg58_5_cif.got.tgz:8908.got - 2010.06.03 14:20:14.
