data_PCOD9440196
_publ_section_title
;
Structure prediction by ZEFSAII (Michael W. Deem and Ramdas Pophale) SiO2 
 PCOD9440196
Probable space group: P B C M
;
_chemical_formula_sum "Si O2"
_cell_formula_units_Z 40
_cell_length_a 5.316908
_cell_length_b 10.197168
_cell_length_c 28.879318
_cell_angle_alpha 90.000000
_cell_angle_beta 90.000000
_cell_angle_gamma 90.000000
_cell_volume 1565.761655
_symmetry_space_group_name_H-M "P B C M"
_symmetry_group_IT_number 57
_symmetry_cell_setting 'orthorhombic'
loop_
_space_group_symop_operation_xyz
x,y,z
-x,-y,1/2+z
x,1/2-y,-z
-x,1/2+y,1/2-z
-x,-y,-z
x,y,1/2-z
-x,1/2+y,z
x,1/2-y,1/2+z
loop_
_atom_site_type_symbol
_atom_site_label
_atom_site_fract_x
_atom_site_fract_y
_atom_site_fract_z
Si Si1 0.455018 0.547241 0.922604
Si Si2 0.140378 0.344985 0.627770
Si Si3 0.791552 0.426793 0.799913
Si Si4 0.492060 0.174188 0.824892
Si Si5 0.965086 0.660919 0.544561
O O1 0.374824 0.411502 0.898726
O O2 0.445289 0.641804 0.878027
O O3 0.726931 0.566837 0.945185
O O4 0.227851 0.583941 0.956961
O O5 0.959789 0.447415 0.653938
O O6 0.233467 0.254847 0.669813
O O7 0.015676 0.258678 0.588274
O O8 0.919610 0.443640 0.750000
O O9 0.569318 0.535146 0.802101
O O10 0.681471 0.279486 0.803828
O O11 0.920508 0.750000 0.500000
#
# Coordination Sequence:
#
# PCOD9440196 Si02
#       5
#     8   8   8   8   8
#     4  11  23  44  72 103 150 201 247 305 381 451
#     4  11  24  45  71 100 154 198 254 308 388 453
#     4  12  26  45  73 109 147 199 258 320 385 459
#     4  11  24  47  71 105 147 197 249 313 381 455
#     4  11  25  43  73 114 150 199 257 316 380 458
#
# _framework density 25.546672000000001
#
# number of rings (size 3 to 8) (size 9 to 14) (size 15 to 20)
#    0.000    0.800    4.000    3.600    0.000    3.200 
#    0.000    0.000    0.000    0.000    0.000    0.000 
#    0.000    0.000    0.000    0.000    0.000    0.000 
#
# Total GULP energy -223799.781996 kJ/mol
# GULP energy per Si atom -5594.994550 kJ/mol
# Density = 2.548853 g / cm^3
# Si number density = 25.546672 Si / 1000 Ang^3
#
#
#
# Elastic Constant Matrix: (Units=GPa)
#
#
# Indices 1 2 3 4 5 6 
#
# 1 103.0155 20.2754 38.1240 0.0000 0.0000 0.0000
# 2 20.2754 93.4445 6.7868 0.0000 0.0000 0.0000
# 3 38.1240 6.7868 116.5045 0.0000 0.0000 0.0000
# 4 0.0000 0.0000 0.0000 10.3063 0.0000 0.0000
# 5 0.0000 0.0000 0.0000 0.0000 8.4906 0.0000
# 6 0.0000 0.0000 0.0000 0.0000 0.0000 20.0599
#
#
#
# Elastic Compliance Matrix: (Units=1/GPa)
#
#
# Indices 1 2 3 4 5 6 
#
# 1 0.011489 -0.002229 -0.003630 0.000000 0.000000 0.000000
# 2 -0.002229 0.011180 0.000078 0.000000 0.000000 0.000000
# 3 -0.003630 0.000078 0.009767 0.000000 0.000000 0.000000
# 4 0.000000 0.000000 0.000000 0.097028 0.000000 0.000000
# 5 0.000000 0.000000 0.000000 0.000000 0.117777 0.000000
# 6 0.000000 0.000000 0.000000 0.000000 0.000000 0.049851
#
#
# Mechanical properties :
#
#
# Convention : Reuss Voigt Hill
#
# Bulk Modulus (GPa) = 47.90701 49.25965 48.58333
# Shear Modulus (GPa) = 15.84229 24.28992 20.06611
#
# Velocity S-wave (km/s) = 2.49294 3.08686 2.80566
# Velocity P-wave (km/s) = 5.20383 5.65942 5.43640
#
# Compressibility (1/GPa) = 0.02087377
#
# Stress axis : x y z
#
# Youngs Moduli (GPa) = 87.03693 89.44890 102.38978
#
# Poissons Ratio (x) = 0.19941 0.37166
# Poissons Ratio (y) = 0.19403 -0.00801
# Poissons Ratio (z) = 0.31593 -0.00700
#
# Static dielectric constant tensor:
#      x y z
#    x 2.078480 0.000000 0.000000 
#    y 0.000000 2.116940 0.000000 
#    z 0.000000 0.000000 2.388020 
# 
# From -- ./inp_files/29049.got.cif
#   From: 2010.05.17/outbox.cif.g08.bks.cpg/sg57_15_cif.got.tgz:29049.got - 2010.06.03 13:58:18.
