data_PCOD9440569
_publ_section_title
;
Structure prediction by ZEFSAII (Michael W. Deem and Ramdas Pophale) SiO2 
 PCOD9440569
Probable space group: P B C M
;
_chemical_formula_sum "Si O2"
_cell_formula_units_Z 40
_cell_length_a 12.000000
_cell_length_b 18.000000
_cell_length_c 9.000000
_cell_angle_alpha 90.000000
_cell_angle_beta 90.000000
_cell_angle_gamma 90.000000
_cell_volume 1944.000000
_symmetry_space_group_name_H-M "P B C M"
_symmetry_group_IT_number 57
_symmetry_cell_setting 'orthorhombic'
loop_
_space_group_symop_operation_xyz
x,y,z
-x,-y,1/2+z
x,1/2-y,-z
-x,1/2+y,1/2-z
-x,-y,-z
x,y,1/2-z
-x,1/2+y,z
x,1/2-y,1/2+z
loop_
_atom_site_type_symbol
_atom_site_label
_atom_site_fract_x
_atom_site_fract_y
_atom_site_fract_z
Si Si1 0.363872 0.560764 0.420514
Si Si2 0.275946 0.098704 0.569584
Si Si3 0.025766 0.420005 0.428674
Si Si4 0.486457 0.176407 0.574420
Si Si5 0.160546 0.675408 0.419986
O O1 0.405787 0.554464 0.250000
O O2 0.325667 0.480775 0.476602
O O3 0.449645 0.602855 0.524452
O O4 0.256381 0.613698 0.416910
O O5 0.276715 0.097289 0.750000
O O6 0.149223 0.104070 0.523194
O O7 0.359695 0.162811 0.522687
O O8 0.021458 0.426403 0.250000
O O9 0.000000 0.500000 0.500000
O O10 0.939588 0.360062 0.488031
O O11 0.533292 0.250000 0.500000
O O12 0.491832 0.184725 0.750000
O O13 0.198963 0.750000 0.500000
O O14 0.127975 0.691157 0.250000
#
# Coordination Sequence:
#
# PCOD9440569 Si02
#       5
#     8   8   8   8   8
#     4  10  20  39  63  87 118 152 195 248 301 353
#     4   9  20  39  62  87 118 154 194 247 298 349
#     4  11  21  39  63  89 121 158 198 245 298 355
#     4  11  23  39  59  85 119 157 197 241 296 352
#     4  11  23  39  60  89 123 159 199 248 303 356
#
# _framework density 20.576132000000001
#
# number of rings (size 3 to 8) (size 9 to 14) (size 15 to 20)
#    0.000    1.600    2.000    3.000    0.000    4.000 
#    0.000    7.000    0.000    0.000    0.000    0.000 
#    0.000    0.000    0.000    0.000    0.000    0.000 
#
# Total GULP energy -223367.295543 kJ/mol
# GULP energy per Si atom -5584.182389 kJ/mol
# Density = 2.052930 g / cm^3
# Si number density = 20.576132 Si / 1000 Ang^3
#
#
#
# Elastic Constant Matrix: (Units=GPa)
#
#
# Indices 1 2 3 4 5 6 
#
# 1 103.5738 23.5023 30.0710 0.0000 0.0000 0.0000
# 2 23.5023 77.0595 20.7859 0.0000 0.0000 0.0000
# 3 30.0710 20.7859 72.7834 0.0000 0.0000 0.0000
# 4 0.0000 0.0000 0.0000 25.7241 0.0000 0.0000
# 5 0.0000 0.0000 0.0000 0.0000 28.2232 0.0000
# 6 0.0000 0.0000 0.0000 0.0000 0.0000 24.8694
#
#
#
# Elastic Compliance Matrix: (Units=1/GPa)
#
#
# Indices 1 2 3 4 5 6 
#
# 1 0.011361 -0.002382 -0.004013 0.000000 0.000000 0.000000
# 2 -0.002382 0.014560 -0.003174 0.000000 0.000000 0.000000
# 3 -0.004013 -0.003174 0.016304 0.000000 0.000000 0.000000
# 4 0.000000 0.000000 0.000000 0.038874 0.000000 0.000000
# 5 0.000000 0.000000 0.000000 0.000000 0.035432 0.000000
# 6 0.000000 0.000000 0.000000 0.000000 0.000000 0.040210
#
#
# Mechanical properties :
#
#
# Convention : Reuss Voigt Hill
#
# Bulk Modulus (GPa) = 43.31753 44.68169 43.99961
# Shear Modulus (GPa) = 27.23689 27.70050 27.46870
#
# Velocity S-wave (km/s) = 3.64223 3.67310 3.65770
# Velocity P-wave (km/s) = 6.22783 6.30487 6.26647
#
# Compressibility (1/GPa) = 0.02308534
#
# Stress axis : x y z
#
# Youngs Moduli (GPa) = 88.02224 68.68299 61.33479
#
# Poissons Ratio (x) = 0.16363 0.24616
# Poissons Ratio (y) = 0.20970 0.19466
# Poissons Ratio (z) = 0.35327 0.21798
#
# Static dielectric constant tensor:
#      x y z
#    x 1.766810 0.000000 0.000000 
#    y 0.000000 1.575220 0.000000 
#    z 0.000000 0.000000 1.685780 
# 
# From -- ./inp_files/2626.got.cif
#   From: 2010.05.17/outbox.ucp.g08.bks.cvg/sg57_2_cif.got.tgz:2626.got - 2010.06.11 16:39:23.
