data_PCOD9440432
_publ_section_title
;
Structure prediction by ZEFSAII (Michael W. Deem and Ramdas Pophale) SiO2 
 PCOD9440432
Probable space group: P B C M
;
_chemical_formula_sum "Si O2"
_cell_formula_units_Z 48
_cell_length_a 15.000000
_cell_length_b 21.000000
_cell_length_c 9.000000
_cell_angle_alpha 90.000000
_cell_angle_beta 90.000000
_cell_angle_gamma 90.000000
_cell_volume 2835.000000
_symmetry_space_group_name_H-M "P B C M"
_symmetry_group_IT_number 57
_symmetry_cell_setting 'orthorhombic'
loop_
_space_group_symop_operation_xyz
x,y,z
-x,-y,1/2+z
x,1/2-y,-z
-x,1/2+y,1/2-z
-x,-y,-z
x,y,1/2-z
-x,1/2+y,z
x,1/2-y,1/2+z
loop_
_atom_site_type_symbol
_atom_site_label
_atom_site_fract_x
_atom_site_fract_y
_atom_site_fract_z
Si Si1 0.694595 0.144297 0.077250
Si Si2 0.105561 0.814114 0.925134
Si Si3 0.740816 0.481593 0.075604
Si Si4 0.925663 0.043448 0.072189
Si Si5 0.497791 0.187384 0.424182
Si Si6 0.565506 0.948555 0.928846
O O1 0.696159 0.121348 0.250000
O O2 0.787330 0.180436 0.052964
O O3 0.604761 0.183287 0.058378
O O4 0.694114 0.085017 0.966682
O O5 0.089495 0.809876 0.750000
O O6 0.068669 0.882418 0.977881
O O7 0.071899 0.750000 0.000000
O O8 0.762578 0.483542 0.250000
O O9 0.667789 0.534562 0.040204
O O10 0.829940 0.482277 0.979946
O O11 0.931176 0.042734 0.250000
O O12 0.000000 0.000000 0.000000
O O13 0.462107 0.250000 0.500000
O O14 0.478704 0.190276 0.250000
O O15 0.459409 0.121374 0.483291
O O16 0.552953 0.951039 0.750000
O O17 0.500000 0.000000 0.000000
#
# Coordination Sequence:
#
# PCOD9440432 Si02
#       6
#     8   8   8   8   8   8
#     4   9  17  30  46  68 102 137 168 207 253 303
#     4   9  18  30  47  73 103 134 164 200 250 307
#     4  10  19  31  51  78 102 132 173 214 259 310
#     4  10  21  37  56  79 106 135 170 215 263 312
#     4  10  20  32  46  68 101 138 176 220 263 305
#     4  10  20  33  51  74 102 136 177 217 254 302
#
# _framework density 16.931217
#
# number of rings (size 3 to 8) (size 9 to 14) (size 15 to 20)
#    0.000    2.333    1.667    2.500    0.000    5.333 
#    0.000    0.000    0.000    1.000    0.000    2.333 
#    0.000    0.000    0.000    0.000    0.000    0.000 
#
# Total GULP energy -267452.033982 kJ/mol
# GULP energy per Si atom -5571.917375 kJ/mol
# Density = 1.689268 g / cm^3
# Si number density = 16.931217 Si / 1000 Ang^3
#
#
#
# Elastic Constant Matrix: (Units=GPa)
#
#
# Indices 1 2 3 4 5 6 
#
# 1 45.6122 59.8440 36.9466 0.0000 0.0000 0.0000
# 2 59.8440 146.1047 55.5188 0.0000 0.0000 0.0000
# 3 36.9466 55.5188 24.1927 0.0000 0.0000 0.0000
# 4 0.0000 0.0000 0.0000 27.9924 0.0000 0.0000
# 5 0.0000 0.0000 0.0000 0.0000 19.0074 0.0000
# 6 0.0000 0.0000 0.0000 0.0000 0.0000 -0.0859
#
#
#
# Elastic Compliance Matrix: (Units=1/GPa)
#
#
# Indices 1 2 3 4 5 6 
#
# 1 -0.022682 -0.030260 0.104081 0.000000 0.000000 0.000000
# 2 -0.030260 0.013116 0.016112 0.000000 0.000000 0.000000
# 3 0.104081 0.016112 -0.154589 0.000000 0.000000 0.000000
# 4 0.000000 0.000000 0.000000 0.035724 0.000000 0.000000
# 5 0.000000 0.000000 0.000000 0.000000 0.052611 0.000000
# 6 0.000000 0.000000 0.000000 0.000000 0.000000-11.640334
#
#
# Mechanical properties :
#
#
# Convention : Reuss Voigt Hill
#
# Bulk Modulus (GPa) = 63.64949 57.83650 60.74300
# Shear Modulus (GPa) = -0.42049 13.62280 6.60115
#
# Velocity S-wave (km/s) = -0.49889 2.83962 1.97668
# Velocity P-wave (km/s) = 6.11087 6.70709 6.41591
#
# Compressibility (1/GPa) = 0.01571105
#
# Stress axis : x y z
#
# Youngs Moduli (GPa) = -44.08720 76.24098 -6.46875
#
# Poissons Ratio (x) = 2.30702 0.67327
# Poissons Ratio (y) = -1.33406 0.10422
# Poissons Ratio (z) = 4.58865 -1.22837
#
# Static dielectric constant tensor:
#      x y z
#    x 1.574350 0.000000 0.000000 
#    y 0.000000 1.589680 0.000000 
#    z 0.000000 0.000000 1.572600 
# 
# From -- ./inp_files/4849.got.cif
#   From: 2010.05.17/outbox.ucp.g08.bks.cvg/sg57_3_cif.got.tgz:4849.got - 2010.06.11 16:39:23.
