data_PCOD9440238
_publ_section_title
;
Structure prediction by ZEFSAII (Michael W. Deem and Ramdas Pophale) SiO2 
 PCOD9440238
Probable space group: P B C M
;
_chemical_formula_sum "Si O2"
_cell_formula_units_Z 32
_cell_length_a 7.357270
_cell_length_b 11.948259
_cell_length_c 15.176541
_cell_angle_alpha 90.000000
_cell_angle_beta 90.000000
_cell_angle_gamma 90.000000
_cell_volume 1334.117626
_symmetry_space_group_name_H-M "P B C M"
_symmetry_group_IT_number 57
_symmetry_cell_setting 'orthorhombic'
loop_
_space_group_symop_operation_xyz
x,y,z
-x,-y,1/2+z
x,1/2-y,-z
-x,1/2+y,1/2-z
-x,-y,-z
x,y,1/2-z
-x,1/2+y,z
x,1/2-y,1/2+z
loop_
_atom_site_type_symbol
_atom_site_label
_atom_site_fract_x
_atom_site_fract_y
_atom_site_fract_z
Si Si1 0.053481 0.707491 0.152016
Si Si2 0.795140 0.026203 0.472876
Si Si3 0.668608 0.794551 0.403675
Si Si4 0.673382 0.100828 0.844595
O O1 0.067404 0.657920 0.250000
O O2 0.841420 0.721906 0.127303
O O3 0.175182 0.638551 0.083206
O O4 0.138398 0.831143 0.154149
O O5 0.677325 0.036219 0.562443
O O6 0.730110 0.923461 0.414010
O O7 0.000000 0.000000 0.500000
O O8 0.619074 0.750000 0.500000
O O9 0.486870 0.806754 0.347622
O O10 0.659069 0.039583 0.750000
#
# Coordination Sequence:
#
# PCOD9440238 Si02
#       4
#     8   8   8   8
#     4  11  24  43  67  98 136 176 225 278 335 403
#     4  12  23  44  71  97 137 178 219 282 338 397
#     4  12  23  43  69  97 134 182 225 278 342 398
#     4  11  25  44  67 100 137 176 225 276 332 404
#
# _framework density 23.985890999999999
#
# number of rings (size 3 to 8) (size 9 to 14) (size 15 to 20)
#    0.000    0.500    5.000    3.750    0.000    3.000 
#    0.000    2.500    0.000    0.000    0.000    0.000 
#    0.000    0.000    0.000    0.000    0.000    0.000 
#
# Total GULP energy -178854.011072 kJ/mol
# GULP energy per Si atom -5589.187846 kJ/mol
# Density = 2.393130 g / cm^3
# Si number density = 23.985891 Si / 1000 Ang^3
#
#
#
# Elastic Constant Matrix: (Units=GPa)
#
#
# Indices 1 2 3 4 5 6 
#
# 1 100.5747 -2.7421 23.5875 0.0000 0.0000 0.0000
# 2 -2.7421 47.6072 21.9760 0.0000 0.0000 0.0000
# 3 23.5875 21.9760 155.8353 0.0000 0.0000 0.0000
# 4 0.0000 0.0000 0.0000 1.0336 0.0000 0.0000
# 5 0.0000 0.0000 0.0000 0.0000 -4.9569 0.0000
# 6 0.0000 0.0000 0.0000 0.0000 0.0000 31.4170
#
#
#
# Elastic Compliance Matrix: (Units=1/GPa)
#
#
# Indices 1 2 3 4 5 6 
#
# 1 0.010397 0.001418 -0.001774 0.000000 0.000000 0.000000
# 2 0.001418 0.022661 -0.003410 0.000000 0.000000 0.000000
# 3 -0.001774 -0.003410 0.007166 0.000000 0.000000 0.000000
# 4 0.000000 0.000000 0.000000 0.967530 0.000000 0.000000
# 5 0.000000 0.000000 0.000000 0.000000 -0.201740 0.000000
# 6 0.000000 0.000000 0.000000 0.000000 0.000000 0.031830
#
#
# Mechanical properties :
#
#
# Convention : Reuss Voigt Hill
#
# Bulk Modulus (GPa) = 30.58821 43.29556 36.94188
# Shear Modulus (GPa) = 5.83925 22.91179 14.37552
#
# Velocity S-wave (km/s) = 1.56197 3.09402 2.45078
# Velocity P-wave (km/s) = 4.00415 5.55459 4.84184
#
# Compressibility (1/GPa) = 0.03269234
#
# Stress axis : x y z
#
# Youngs Moduli (GPa) = 96.17710 44.12854 139.53977
#
# Poissons Ratio (x) = -0.06256 0.24750
# Poissons Ratio (y) = -0.13634 0.47587
# Poissons Ratio (z) = 0.17059 0.15049
#
# Static dielectric constant tensor:
#      x y z
#    x 1.916590 0.000000 0.000000 
#    y 0.000000 2.202830 0.000000 
#    z 0.000000 0.000000 1.982650 
# 
# From -- ./inp_files/15506.got.cif
#   From: 2010.05.17/outbox.cif.g08.bks.cpg/sg57_8_cif.got.tgz:15506.got - 2010.06.03 13:58:18.
