data_PCOD9440091
_publ_section_title
;
Structure prediction by ZEFSAII (Michael W. Deem and Ramdas Pophale) SiO2 
 PCOD9440091
Probable space group: P B C M
;
_chemical_formula_sum "Si O2"
_cell_formula_units_Z 64
_cell_length_a 26.400937
_cell_length_b 15.087407
_cell_length_c 8.826487
_cell_angle_alpha 90.000000
_cell_angle_beta 90.000000
_cell_angle_gamma 90.000000
_cell_volume 3515.781145
_symmetry_space_group_name_H-M "P B C M"
_symmetry_group_IT_number 57
_symmetry_cell_setting 'orthorhombic'
loop_
_space_group_symop_operation_xyz
x,y,z
-x,-y,1/2+z
x,1/2-y,-z
-x,1/2+y,1/2-z
-x,-y,-z
x,y,1/2-z
-x,1/2+y,z
x,1/2-y,1/2+z
loop_
_atom_site_type_symbol
_atom_site_label
_atom_site_fract_x
_atom_site_fract_y
_atom_site_fract_z
Si Si1 0.634830 0.849011 0.067516
Si Si2 0.106959 0.159541 0.930055
Si Si3 0.826967 0.996247 0.929993
Si Si4 0.996977 0.597601 0.069931
Si Si5 0.635173 0.150908 0.067435
Si Si6 0.888393 0.156692 0.430225
Si Si7 0.284261 0.499759 0.432712
Si Si8 0.555849 0.000117 0.433054
O O1 0.633811 0.841104 0.250000
O O2 0.587176 0.911511 0.021875
O O3 0.683002 0.911727 0.028697
O O4 0.635329 0.750000 0.000000
O O5 0.105962 0.161882 0.750000
O O6 0.126791 0.250000 0.000000
O O7 0.142475 0.081938 0.989029
O O8 0.050073 0.144997 0.991220
O O9 0.829563 0.986171 0.750000
O O10 0.856325 0.083346 0.983788
O O11 0.769377 0.998861 0.986101
O O12 0.987819 0.593259 0.250000
O O13 0.051569 0.641543 0.044825
O O14 0.000000 0.500000 0.000000
O O15 0.634272 0.158721 0.250000
O O16 0.683315 0.088109 0.028215
O O17 0.587400 0.088546 0.022016
O O18 0.635672 0.250000 0.000000
O O19 0.874058 0.250000 0.500000
O O20 0.879413 0.151562 0.250000
O O21 0.277753 0.499970 0.250000
O O22 0.554043 0.000153 0.250000
O O23 0.500000 0.000000 0.500000
#
# Coordination Sequence:
#
# PCOD9440091 Si02
#       8
#     8   8   8   8   8   8   8   8
#     4   9  19  36  58  82 111 149 191 235 283 338
#     4  12  25  42  63  88 119 154 194 239 289 347
#     4  12  25  41  62  88 118 151 192 240 293 352
#     4  11  22  38  63  90 119 155 193 233 285 345
#     4   9  19  36  58  82 111 149 192 236 284 338
#     4  11  24  41  62  88 118 154 192 235 286 343
#     4   9  20  40  60  79 111 150 187 235 291 343
#     4   9  19  35  53  80 117 155 191 230 281 332
#
# _framework density 18.203635999999999
#
# number of rings (size 3 to 8) (size 9 to 14) (size 15 to 20)
#    0.000    1.750    1.250    4.875    0.000    6.000 
#    0.000    7.500    0.000    0.000    0.000    0.000 
#    0.000    0.000    0.000    0.000    0.000    0.000 
#
# Total GULP energy -357398.242036 kJ/mol
# GULP energy per Si atom -5584.347532 kJ/mol
# Density = 1.816220 g / cm^3
# Si number density = 18.203636 Si / 1000 Ang^3
#
#
#
# Elastic Constant Matrix: (Units=GPa)
#
#
# Indices 1 2 3 4 5 6 
#
# 1 129.0938 66.8974 68.9881 0.0000 0.0000 0.0000
# 2 66.8974 183.5532 62.3837 0.0000 0.0000 0.0000
# 3 68.9881 62.3837 86.4278 0.0000 0.0000 0.0000
# 4 0.0000 0.0000 0.0000 35.9309 0.0000 0.0000
# 5 0.0000 0.0000 0.0000 0.0000 37.3894 0.0000
# 6 0.0000 0.0000 0.0000 0.0000 0.0000 21.3929
#
#
#
# Elastic Compliance Matrix: (Units=1/GPa)
#
#
# Indices 1 2 3 4 5 6 
#
# 1 0.013905 -0.001717 -0.009860 0.000000 0.000000 0.000000
# 2 -0.001717 0.007431 -0.003993 0.000000 0.000000 0.000000
# 3 -0.009860 -0.003993 0.022323 0.000000 0.000000 0.000000
# 4 0.000000 0.000000 0.000000 0.027831 0.000000 0.000000
# 5 0.000000 0.000000 0.000000 0.000000 0.026746 0.000000
# 6 0.000000 0.000000 0.000000 0.000000 0.000000 0.046745
#
#
# Mechanical properties :
#
#
# Convention : Reuss Voigt Hill
#
# Bulk Modulus (GPa) = 79.87922 88.40145 84.14033
# Shear Modulus (GPa) = 27.73242 32.32969 30.03105
#
# Velocity S-wave (km/s) = 3.90738 4.21884 4.06609
# Velocity P-wave (km/s) = 8.02079 8.50878 8.26839
#
# Compressibility (1/GPa) = 0.01251890
#
# Stress axis : x y z
#
# Youngs Moduli (GPa) = 71.91514 134.57368 44.79607
#
# Poissons Ratio (x) = 0.23102 0.44170
# Poissons Ratio (y) = 0.12346 0.17889
# Poissons Ratio (z) = 0.70911 0.53740
#
# Static dielectric constant tensor:
#      x y z
#    x 1.613860 0.000000 0.000000 
#    y 0.000000 1.598970 0.000000 
#    z 0.000000 0.000000 1.605930 
# 
# From -- ./inp_files/9320.got.cif
#   From: 2010.05.17/outbox.cif.g08.bks.cpg/sg57_5_cif.got.tgz:9320.got - 2010.06.03 13:58:18.
