data_PCOD9440441
_publ_section_title
;
Structure prediction by ZEFSAII (Michael W. Deem and Ramdas Pophale) SiO2 
 PCOD9440441
Probable space group: P B C M
;
_chemical_formula_sum "Si O2"
_cell_formula_units_Z 48
_cell_length_a 30.000000
_cell_length_b 9.000000
_cell_length_c 9.000000
_cell_angle_alpha 90.000000
_cell_angle_beta 90.000000
_cell_angle_gamma 90.000000
_cell_volume 2430.000000
_symmetry_space_group_name_H-M "P B C M"
_symmetry_group_IT_number 57
_symmetry_cell_setting 'orthorhombic'
loop_
_space_group_symop_operation_xyz
x,y,z
-x,-y,1/2+z
x,1/2-y,-z
-x,1/2+y,1/2-z
-x,-y,-z
x,y,1/2-z
-x,1/2+y,z
x,1/2-y,1/2+z
loop_
_atom_site_type_symbol
_atom_site_label
_atom_site_fract_x
_atom_site_fract_y
_atom_site_fract_z
Si Si1 0.616338 0.750000 0.000000
Si Si2 0.329480 0.970702 0.577879
Si Si3 0.958890 0.913946 0.070830
Si Si4 0.546212 0.412840 0.750000
Si Si5 0.235571 0.414082 0.070930
Si Si6 0.138363 0.086520 0.928294
Si Si7 0.551871 0.776713 0.750000
Si Si8 0.396030 0.750000 0.000000
O O1 0.581805 0.675124 0.112077
O O2 0.647927 0.867521 0.079205
O O3 0.332164 0.913967 0.750000
O O4 0.359623 0.877506 0.464083
O O5 0.278362 0.987979 0.530416
O O6 0.963145 0.907052 0.250000
O O7 0.909802 0.982276 0.033505
O O8 0.959162 0.750000 0.000000
O O9 0.000000 0.000000 0.000000
O O10 0.548200 0.593900 0.750000
O O11 0.495651 0.355070 0.750000
O O12 0.571958 0.337061 0.612595
O O13 0.237446 0.397511 0.250000
O O14 0.186733 0.478943 0.030118
O O15 0.239580 0.250000 0.000000
O O16 0.138367 0.102023 0.750000
O O17 0.138446 0.250000 0.000000
#
# Coordination Sequence:
#
# PCOD9440441 Si02
#       8
#     4   8   8   4   8   8   4   4
#     4  12  21  42  62  86 120 142 179 226 266 324
#     4  11  22  40  60  90 115 146 187 226 271 329
#     4  10  19  32  52  80 111 150 197 242 294 346
#     4  12  28  46  62  88 114 146 186 226 271 330
#     4   9  17  31  54  83 115 143 179 229 275 330
#     4   8  15  28  48  76 109 146 182 230 284 330
#     4  12  28  44  62  90 118 144 184 222 273 328
#     4  12  23  46  62  82 118 146 183 228 272 324
#
# _framework density 19.753086
#
# number of rings (size 3 to 8) (size 9 to 14) (size 15 to 20)
#    0.000    1.667    4.167    1.000    2.333    2.000 
#    1.500    0.000    1.833    0.000    0.000    0.000 
#    0.000    0.000    0.000    0.000    0.000    0.000 
#
# Total GULP energy -267281.942064 kJ/mol
# GULP energy per Si atom -5568.373793 kJ/mol
# Density = 1.970813 g / cm^3
# Si number density = 19.753086 Si / 1000 Ang^3
#
#
#
# Elastic Constant Matrix: (Units=GPa)
#
#
# Indices 1 2 3 4 5 6 
#
# 1 212.7566 29.9669 29.9716 0.0000 0.0000 0.0000
# 2 29.9669 47.9544 4.2516 0.0000 0.0000 0.0000
# 3 29.9716 4.2516 38.9349 0.0000 0.0000 0.0000
# 4 0.0000 0.0000 0.0000 15.7200 0.0000 0.0000
# 5 0.0000 0.0000 0.0000 0.0000 18.3155 0.0000
# 6 0.0000 0.0000 0.0000 0.0000 0.0000 27.1889
#
#
#
# Elastic Compliance Matrix: (Units=1/GPa)
#
#
# Indices 1 2 3 4 5 6 
#
# 1 0.005725 -0.003218 -0.004055 0.000000 0.000000 0.000000
# 2 -0.003218 0.022866 -0.000020 0.000000 0.000000 0.000000
# 3 -0.004055 -0.000020 0.028808 0.000000 0.000000 0.000000
# 4 0.000000 0.000000 0.000000 0.063613 0.000000 0.000000
# 5 0.000000 0.000000 0.000000 0.000000 0.054599 0.000000
# 6 0.000000 0.000000 0.000000 0.000000 0.000000 0.036780
#
#
# Mechanical properties :
#
#
# Convention : Reuss Voigt Hill
#
# Bulk Modulus (GPa) = 23.35788 47.55847 35.45817
# Shear Modulus (GPa) = 20.72565 27.94192 24.33379
#
# Velocity S-wave (km/s) = 3.24271 3.76514 3.51365
# Velocity P-wave (km/s) = 5.08633 6.55976 5.86947
#
# Compressibility (1/GPa) = 0.04281211
#
# Stress axis : x y z
#
# Youngs Moduli (GPa) = 174.68010 43.73356 34.71266
#
# Poissons Ratio (x) = 0.14073 0.14078
# Poissons Ratio (y) = 0.56210 0.00069
# Poissons Ratio (z) = 0.70841 0.00087
#
# Static dielectric constant tensor:
#      x y z
#    x 1.750090 0.000000 0.000000 
#    y 0.000000 1.718280 0.000000 
#    z 0.000000 0.000000 1.719890 
# 
# From -- ./inp_files/10220.got.cif
#   From: 2010.05.17/outbox.ucp.g08.bks.cvg/sg57_6_cif.got.tgz:10220.got - 2010.06.11 16:39:23.
