data_PCOD9440902
_publ_section_title
;
Structure prediction by ZEFSAII (Michael W. Deem and Ramdas Pophale) SiO2 
 PCOD9440902
Probable space group: P N N M
;
_chemical_formula_sum "Si O2"
_cell_formula_units_Z 56
_cell_length_a 14.218260
_cell_length_b 30.311631
_cell_length_c 8.481457
_cell_angle_alpha 90.000000
_cell_angle_beta 90.000000
_cell_angle_gamma 90.000000
_cell_volume 3655.326893
_symmetry_space_group_name_H-M "P N N M"
_symmetry_group_IT_number 58
_symmetry_cell_setting 'orthorhombic'
loop_
_space_group_symop_operation_xyz
x,y,z
-x,-y,z
1/2+x,1/2-y,1/2-z
1/2-x,1/2+y,1/2-z
-x,-y,-z
x,y,-z
1/2-x,1/2+y,1/2+z
1/2+x,1/2-y,1/2+z
loop_
_atom_site_type_symbol
_atom_site_label
_atom_site_fract_x
_atom_site_fract_y
_atom_site_fract_z
Si Si1 0.787420 0.317879 0.690942
Si Si2 0.898204 0.595988 0.812510
Si Si3 0.389472 0.269249 0.689155
Si Si4 0.110666 0.593897 0.690783
Si Si5 0.397969 0.729602 0.691659
Si Si6 0.385882 0.997454 0.817429
Si Si7 0.211285 0.317835 0.190498
O O1 0.789131 0.317451 0.500000
O O2 0.853387 0.278098 0.749169
O O3 0.826674 0.364995 0.744519
O O4 0.681482 0.305395 0.741978
O O5 0.860284 0.547378 0.770478
O O6 0.831228 0.635603 0.756805
O O7 0.002509 0.600734 0.740603
O O8 0.907714 0.599610 0.000000
O O9 0.389414 0.268108 0.500000
O O10 0.495789 0.277707 0.745944
O O11 0.313536 0.304987 0.745867
O O12 0.112431 0.592211 0.500000
O O13 0.144124 0.545376 0.746434
O O14 0.399639 0.728913 0.500000
O O15 0.358586 0.777832 0.737767
O O16 0.500000 0.000000 0.814367
O O17 0.357275 0.993256 0.000000
O O18 0.215908 0.317642 0.000000
#
# Coordination Sequence:
#
# PCOD9440902 Si02
#       7
#     8   8   8   8   8   8   8
#     4   9  17  30  45  60  82 113 141 163 200 249
#     4  10  18  27  42  62  85 113 141 171 207 245
#     4  10  18  28  43  63  84 106 136 173 206 236
#     4   9  17  28  43  62  85 114 142 168 203 248
#     4   8  15  28  43  58  80 107 133 166 203 237
#     4   8  15  27  40  58  85 111 137 170 206 246
#     4   9  18  31  43  58  83 113 140 165 202 249
#
# _framework density 15.320107999999999
#
# number of rings (size 3 to 8) (size 9 to 14) (size 15 to 20)
#    0.000    3.000    0.000    3.429    0.000    5.429 
#    0.000    7.143    0.000    0.000    0.000    1.000 
#    0.000    8.000    0.000    0.000    0.000    0.000 
#
# Total GULP energy -311821.646479 kJ/mol
# GULP energy per Si atom -5568.243687 kJ/mol
# Density = 1.528524 g / cm^3
# Si number density = 15.320108 Si / 1000 Ang^3
#
#
#
# Elastic Constant Matrix: (Units=GPa)
#
#
# Indices 1 2 3 4 5 6 
#
# 1 112.5764 73.4037 12.0005 0.0000 0.0000 0.0000
# 2 73.4037 147.5798 16.9159 0.0000 0.0000 0.0000
# 3 12.0005 16.9159 8.9553 0.0000 0.0000 0.0000
# 4 0.0000 0.0000 0.0000 18.7914 0.0000 0.0000
# 5 0.0000 0.0000 0.0000 0.0000 15.2885 0.0000
# 6 0.0000 0.0000 0.0000 0.0000 0.0000 25.0370
#
#
#
# Elastic Compliance Matrix: (Units=1/GPa)
#
#
# Indices 1 2 3 4 5 6 
#
# 1 0.013471 -0.005911 -0.006887 0.000000 0.000000 0.000000
# 2 -0.005911 0.011242 -0.013315 0.000000 0.000000 0.000000
# 3 -0.006887 -0.013315 0.146045 0.000000 0.000000 0.000000
# 4 0.000000 0.000000 0.000000 0.053216 0.000000 0.000000
# 5 0.000000 0.000000 0.000000 0.000000 0.065408 0.000000
# 6 0.000000 0.000000 0.000000 0.000000 0.000000 0.039941
#
#
# Mechanical properties :
#
#
# Convention : Reuss Voigt Hill
#
# Bulk Modulus (GPa) = 8.43642 52.63905 30.53773
# Shear Modulus (GPa) = 11.87483 22.94281 17.40882
#
# Velocity S-wave (km/s) = 2.78711 3.87403 3.37462
# Velocity P-wave (km/s) = 3.98447 7.37868 5.92962
#
# Compressibility (1/GPa) = 0.11853370
#
# Stress axis : x y z
#
# Youngs Moduli (GPa) = 74.23302 88.95090 6.84722
#
# Poissons Ratio (x) = 0.52578 0.04715
# Poissons Ratio (y) = 0.43879 0.09117
# Poissons Ratio (z) = 0.51121 1.18435
#
# Static dielectric constant tensor:
#      x y z
#    x 1.494660 0.000000 0.000000 
#    y 0.000000 1.530100 0.000000 
#    z 0.000000 0.000000 1.528080 
# 
# From -- ./inp_files/7126.got.cif
#   From: 2010.05.17/outbox.cif.g08.bks.cpg/sg58_4_cif.got.tgz:7126.got - 2010.06.03 14:20:14.
