data_PCOD9440912
_publ_section_title
;
Structure prediction by ZEFSAII (Michael W. Deem and Ramdas Pophale) SiO2 
 PCOD9440912
Probable space group: P N N M
;
_chemical_formula_sum "Si O2"
_cell_formula_units_Z 64
_cell_length_a 9.542284
_cell_length_b 31.733478
_cell_length_c 9.577284
_cell_angle_alpha 90.000000
_cell_angle_beta 90.000000
_cell_angle_gamma 90.000000
_cell_volume 2900.096021
_symmetry_space_group_name_H-M "P N N M"
_symmetry_group_IT_number 58
_symmetry_cell_setting 'orthorhombic'
loop_
_space_group_symop_operation_xyz
x,y,z
-x,-y,z
1/2+x,1/2-y,1/2-z
1/2-x,1/2+y,1/2-z
-x,-y,-z
x,y,-z
1/2-x,1/2+y,1/2+z
1/2+x,1/2-y,1/2+z
loop_
_atom_site_type_symbol
_atom_site_label
_atom_site_fract_x
_atom_site_fract_y
_atom_site_fract_z
Si Si1 0.899539 0.255656 0.834697
Si Si2 0.360308 0.469300 0.656743
Si Si3 0.442399 0.601052 0.335993
Si Si4 0.931695 0.624690 0.338941
Si Si5 0.545983 0.046354 0.340256
Si Si6 0.729368 0.830699 0.839196
Si Si7 0.234913 0.038280 0.652966
Si Si8 0.804518 0.701398 0.834034
O O1 0.816730 0.296037 0.772402
O O2 0.833458 0.218121 0.744122
O O3 0.064634 0.265796 0.815635
O O4 0.874446 0.249877 0.000000
O O5 0.500000 0.500000 0.655602
O O6 0.301371 0.472757 0.500000
O O7 0.406195 0.420900 0.684116
O O8 0.268644 0.491941 0.774773
O O9 0.413965 0.594888 0.500000
O O10 0.378652 0.647121 0.307092
O O11 0.350765 0.569834 0.245902
O O12 0.885472 0.627468 0.500000
O O13 0.856933 0.659250 0.242191
O O14 0.901367 0.579289 0.272545
O O15 0.098561 0.636337 0.339576
O O16 0.605116 0.045308 0.500000
O O17 0.383608 0.060611 0.360874
O O18 0.500000 0.000000 0.291352
O O19 0.735573 0.813727 0.000000
O O20 0.171434 0.033299 0.500000
O O21 0.784159 0.695614 0.000000
#
# Coordination Sequence:
#
# PCOD9440912 Si02
#       8
#     8   8   8   8   8   8   8   8
#     4  10  21  36  58  90 122 153 196 240 284 347
#     4   8  15  26  41  60  87 122 157 194 247 313
#     4   9  16  28  45  67  95 129 165 205 259 320
#     4  10  19  33  56  83 107 136 181 234 284 340
#     4  10  21  35  50  70 100 139 181 227 281 335
#     4   9  17  30  51  78 107 138 176 225 282 338
#     4  10  18  27  43  65  91 122 164 217 265 312
#     4  10  21  38  62  90 123 159 193 238 296 354
#
# _framework density 22.068234
#
# number of rings (size 3 to 8) (size 9 to 14) (size 15 to 20)
#    0.000    2.500    1.250    2.250    0.000    5.500 
#    0.000    0.000    2.750    0.000    0.000    0.000 
#    0.000    0.000    0.000    0.000    0.000    0.000 
#
# Total GULP energy -356535.558890 kJ/mol
# GULP energy per Si atom -5570.868108 kJ/mol
# Density = 2.201801 g / cm^3
# Si number density = 22.068234 Si / 1000 Ang^3
#
#
#
# Elastic Constant Matrix: (Units=GPa)
#
#
# Indices 1 2 3 4 5 6 
#
# 1 36.5772 9.3703 15.2254 0.0000 0.0000 0.0000
# 2 9.3703 42.9666 74.6288 0.0000 0.0000 0.0000
# 3 15.2254 74.6288 -127.6899 0.0000 0.0000 0.0000
# 4 0.0000 0.0000 0.0000 34.8769 0.0000 0.0000
# 5 0.0000 0.0000 0.0000 0.0000 4.8339 0.0000
# 6 0.0000 0.0000 0.0000 0.0000 0.0000 28.2008
#
#
#
# Elastic Compliance Matrix: (Units=1/GPa)
#
#
# Indices 1 2 3 4 5 6 
#
# 1 0.028954 -0.006109 -0.000118 0.000000 0.000000 0.000000
# 2 -0.006109 0.012839 0.006775 0.000000 0.000000 0.000000
# 3 -0.000118 0.006775 -0.003886 0.000000 0.000000 0.000000
# 4 0.000000 0.000000 0.000000 0.028672 0.000000 0.000000
# 5 0.000000 0.000000 0.000000 0.000000 0.206873 0.000000
# 6 0.000000 0.000000 0.000000 0.000000 0.000000 0.035460
#
#
# Mechanical properties :
#
#
# Convention : Reuss Voigt Hill
#
# Bulk Modulus (GPa) = 25.63972 16.70033 21.17002
# Shear Modulus (GPa) = 15.58522 3.75760 9.67141
#
# Velocity S-wave (km/s) = 2.66038 1.30630 2.09571
# Velocity P-wave (km/s) = 4.59134 3.13994 3.93317
#
# Compressibility (1/GPa) = 0.03900199
#
# Stress axis : x y z
#
# Youngs Moduli (GPa) = 34.53801 77.89063 -257.34500
#
# Poissons Ratio (x) = 0.47584 -0.03040
# Poissons Ratio (y) = 0.21100 1.74353
# Poissons Ratio (z) = 0.00408 -0.52772
#
# Static dielectric constant tensor:
#      x y z
#    x 1.997790 0.000000 0.000000 
#    y 0.000000 1.887810 0.000000 
#    z 0.000000 0.000000 0.845050 
# 
# From -- ./inp_files/4696.got.cif
#   From: 2010.05.17/outbox.cif.g08.bks.cpg/sg58_3_cif.got.tgz:4696.got - 2010.06.03 14:20:14.
