data_PCOD9440996
_publ_section_title
;
Structure prediction by ZEFSAII (Michael W. Deem and Ramdas Pophale) SiO2 
 PCOD9440996
Probable space group: P N N M
;
_chemical_formula_sum "Si O2"
_cell_formula_units_Z 56
_cell_length_a 18.485656
_cell_length_b 21.281762
_cell_length_c 9.149821
_cell_angle_alpha 90.000000
_cell_angle_beta 90.000000
_cell_angle_gamma 90.000000
_cell_volume 3599.606662
_symmetry_space_group_name_H-M "P N N M"
_symmetry_group_IT_number 58
_symmetry_cell_setting 'orthorhombic'
loop_
_space_group_symop_operation_xyz
x,y,z
-x,-y,z
1/2+x,1/2-y,1/2-z
1/2-x,1/2+y,1/2-z
-x,-y,-z
x,y,-z
1/2-x,1/2+y,1/2+z
1/2+x,1/2-y,1/2+z
loop_
_atom_site_type_symbol
_atom_site_label
_atom_site_fract_x
_atom_site_fract_y
_atom_site_fract_z
Si Si1 0.790664 0.184471 0.168516
Si Si2 0.924383 0.755180 0.826536
Si Si3 0.579301 0.747370 0.174754
Si Si4 0.335305 0.123803 0.173960
Si Si5 0.159987 0.376105 0.173388
Si Si6 0.295262 0.682393 0.832219
Si Si7 0.084599 0.493762 0.324731
O O1 0.864214 0.198320 0.255272
O O2 0.736601 0.136856 0.248594
O O3 0.747787 0.251073 0.168638
O O4 0.803794 0.167010 0.000000
O O5 0.889410 0.686005 0.802482
O O6 0.867481 0.804632 0.759437
O O7 0.001005 0.758599 0.746605
O O8 0.932165 0.764202 0.000000
O O9 0.612083 0.816980 0.205652
O O10 0.575757 0.740059 0.000000
O O11 0.260644 0.134240 0.259256
O O12 0.374747 0.058832 0.209689
O O13 0.320953 0.125513 0.000000
O O14 0.120797 0.435950 0.241921
O O15 0.169987 0.382952 0.000000
O O16 0.311422 0.666428 0.000000
O O17 0.089503 0.483373 0.500000
O O18 0.000000 0.500000 0.287564
#
# Coordination Sequence:
#
# PCOD9440996 Si02
#       7
#     8   8   8   8   8   8   8
#     4   9  17  30  47  66  90 120 153 189 232 280
#     4  10  19  30  45  67  95 123 152 189 234 279
#     4  10  18  29  47  70  95 121 152 191 233 276
#     4   9  18  31  46  65  92 125 157 190 228 272
#     4  10  20  32  46  66  93 125 160 196 231 269
#     4   9  17  29  46  66  88 117 153 191 231 275
#     4  10  20  33  48  67  93 127 163 193 226 271
#
# _framework density 15.557255
#
# number of rings (size 3 to 8) (size 9 to 14) (size 15 to 20)
#    0.000    2.429    0.000    3.000    0.000    7.714 
#    0.000    0.000    0.000    0.000    0.000    1.000 
#    0.000    8.000    0.000    0.000    0.000    0.000 
#
# Total GULP energy -312312.831112 kJ/mol
# GULP energy per Si atom -5577.014841 kJ/mol
# Density = 1.552185 g / cm^3
# Si number density = 15.557255 Si / 1000 Ang^3
#
#
#
# Elastic Constant Matrix: (Units=GPa)
#
#
# Indices 1 2 3 4 5 6 
#
# 1 150.2884 61.4700 97.9537 0.0000 0.0000 0.0000
# 2 61.4700 73.0907 55.1075 0.0000 0.0000 0.0000
# 3 97.9537 55.1075 102.8877 0.0000 0.0000 0.0000
# 4 0.0000 0.0000 0.0000 22.3480 0.0000 0.0000
# 5 0.0000 0.0000 0.0000 0.0000 32.5791 0.0000
# 6 0.0000 0.0000 0.0000 0.0000 0.0000 22.4459
#
#
#
# Elastic Compliance Matrix: (Units=1/GPa)
#
#
# Indices 1 2 3 4 5 6 
#
# 1 0.018125 -0.003746 -0.015250 0.000000 0.000000 0.000000
# 2 -0.003746 0.023723 -0.009140 0.000000 0.000000 0.000000
# 3 -0.015250 -0.009140 0.029134 0.000000 0.000000 0.000000
# 4 0.000000 0.000000 0.000000 0.044747 0.000000 0.000000
# 5 0.000000 0.000000 0.000000 0.000000 0.030695 0.000000
# 6 0.000000 0.000000 0.000000 0.000000 0.000000 0.044552
#
#
# Mechanical properties :
#
#
# Convention : Reuss Voigt Hill
#
# Bulk Modulus (GPa) = 67.97946 83.92548 75.95247
# Shear Modulus (GPa) = 19.82943 22.92363 21.37653
#
# Velocity S-wave (km/s) = 3.57404 3.84279 3.71085
# Velocity P-wave (km/s) = 7.79890 8.58794 8.20291
#
# Compressibility (1/GPa) = 0.01471033
#
# Stress axis : x y z
#
# Youngs Moduli (GPa) = 55.17106 42.15273 34.32472
#
# Poissons Ratio (x) = 0.15790 0.52345
# Poissons Ratio (y) = 0.20666 0.31373
# Poissons Ratio (z) = 0.84136 0.38528
#
# Static dielectric constant tensor:
#      x y z
#    x 1.498860 0.000000 0.000000 
#    y 0.000000 1.494000 0.000000 
#    z 0.000000 0.000000 1.520190 
# 
# From -- ./inp_files/6265.got.cif
#   From: 2010.05.17/outbox.cif.g08.bks.cpg/sg58_4_cif.got.tgz:6265.got - 2010.06.03 14:20:14.
