data_PCOD9440544
_publ_section_title
;
Structure prediction by ZEFSAII (Michael W. Deem and Ramdas Pophale) SiO2 
 PCOD9440544
Probable space group: P B C M
;
_chemical_formula_sum "Si O2"
_cell_formula_units_Z 56
_cell_length_a 15.000000
_cell_length_b 9.000000
_cell_length_c 21.000000
_cell_angle_alpha 90.000000
_cell_angle_beta 90.000000
_cell_angle_gamma 90.000000
_cell_volume 2835.000000
_symmetry_space_group_name_H-M "P B C M"
_symmetry_group_IT_number 57
_symmetry_cell_setting 'orthorhombic'
loop_
_space_group_symop_operation_xyz
x,y,z
-x,-y,1/2+z
x,1/2-y,-z
-x,1/2+y,1/2-z
-x,-y,-z
x,y,1/2-z
-x,1/2+y,z
x,1/2-y,1/2+z
loop_
_atom_site_type_symbol
_atom_site_label
_atom_site_fract_x
_atom_site_fract_y
_atom_site_fract_z
Si Si1 0.292318 0.406133 0.584967
Si Si2 0.431179 0.938899 0.176430
Si Si3 0.014380 0.218607 0.822849
Si Si4 0.134657 0.507824 0.822332
Si Si5 0.620809 0.091769 0.324669
Si Si6 0.071835 0.402856 0.460187
Si Si7 0.270580 0.447521 0.439466
O O1 0.373556 0.461351 0.628547
O O2 0.204980 0.472055 0.621962
O O3 0.308117 0.459652 0.511940
O O4 0.280047 0.227116 0.580810
O O5 0.407161 0.973129 0.250000
O O6 0.410554 0.763582 0.166580
O O7 0.534676 0.983946 0.169404
O O8 0.041497 0.168737 0.750000
O O9 0.053882 0.385823 0.826895
O O10 0.047754 0.140827 0.887628
O O11 0.910020 0.171448 0.825755
O O12 0.172418 0.490687 0.750000
O O13 0.653013 0.078789 0.250000
O O14 0.687093 0.043357 0.381938
O O15 0.084678 0.250000 0.500000
O O16 0.166662 0.482375 0.452098
O O17 0.000000 0.500000 0.500000
#
# Coordination Sequence:
#
# PCOD9440544 Si02
#       7
#     8   8   8   8   8   8   8
#     4  11  21  40  62  91 131 169 221 262 322 391
#     4  10  22  43  71  99 131 168 211 265 332 403
#     4  10  20  36  58  84 116 156 210 266 323 380
#     4  10  20  37  60  87 121 162 210 268 324 382
#     4  10  23  44  69 101 131 166 214 267 332 400
#     4  12  23  43  64  90 128 176 222 272 331 390
#     4  11  23  40  62  95 130 172 220 271 317 392
#
# _framework density 19.753086
#
# number of rings (size 3 to 8) (size 9 to 14) (size 15 to 20)
#    0.000    1.429    2.857    3.000    0.000    4.000 
#    7.714    0.000    0.000    0.000    0.000    0.000 
#    0.000    0.000    0.000    0.000    0.000    0.000 
#
# Total GULP energy -312379.483260 kJ/mol
# GULP energy per Si atom -5578.205058 kJ/mol
# Density = 1.970813 g / cm^3
# Si number density = 19.753086 Si / 1000 Ang^3
#
#
#
# Elastic Constant Matrix: (Units=GPa)
#
#
# Indices 1 2 3 4 5 6 
#
# 1 91.2919 29.9104 61.1447 0.0000 0.0000 0.0000
# 2 29.9104 45.0876 31.7770 0.0000 0.0000 0.0000
# 3 61.1447 31.7770 174.4200 0.0000 0.0000 0.0000
# 4 0.0000 0.0000 0.0000 40.4145 0.0000 0.0000
# 5 0.0000 0.0000 0.0000 0.0000 48.2825 0.0000
# 6 0.0000 0.0000 0.0000 0.0000 0.0000 31.9699
#
#
#
# Elastic Compliance Matrix: (Units=1/GPa)
#
#
# Indices 1 2 3 4 5 6 
#
# 1 0.016423 -0.007844 -0.004328 0.000000 0.000000 0.000000
# 2 -0.007844 0.029193 -0.002569 0.000000 0.000000 0.000000
# 3 -0.004328 -0.002569 0.007719 0.000000 0.000000 0.000000
# 4 0.000000 0.000000 0.000000 0.024744 0.000000 0.000000
# 5 0.000000 0.000000 0.000000 0.000000 0.020711 0.000000
# 6 0.000000 0.000000 0.000000 0.000000 0.000000 0.031279
#
#
# Mechanical properties :
#
#
# Convention : Reuss Voigt Hill
#
# Bulk Modulus (GPa) = 41.92451 61.82931 51.87691
# Shear Modulus (GPa) = 29.85046 36.66455 33.25751
#
# Velocity S-wave (km/s) = 3.89161 4.31297 4.10770
# Velocity P-wave (km/s) = 6.43919 7.49475 6.98693
#
# Compressibility (1/GPa) = 0.02385239
#
# Stress axis : x y z
#
# Youngs Moduli (GPa) = 60.89136 34.25459 129.55868
#
# Poissons Ratio (x) = 0.26870 0.56073
# Poissons Ratio (y) = 0.47765 0.33280
# Poissons Ratio (z) = 0.26354 0.08799
#
# Static dielectric constant tensor:
#      x y z
#    x 1.738440 0.000000 0.000000 
#    y 0.000000 1.703780 0.000000 
#    z 0.000000 0.000000 1.707200 
# 
# From -- ./inp_files/25407.got.cif
#   From: 2010.05.17/outbox.ucp.g08.bks.cvg/sg57_13_cif.got.tgz:25407.got - 2010.06.11 16:39:23.
