data_PCOD9440339
_publ_section_title
;
Structure prediction by ZEFSAII (Michael W. Deem and Ramdas Pophale) SiO2 
 PCOD9440339
Probable space group: P B C M
;
_chemical_formula_sum "Si O2"
_cell_formula_units_Z 44
_cell_length_a 12.261010
_cell_length_b 7.802742
_cell_length_c 20.496383
_cell_angle_alpha 90.000000
_cell_angle_beta 90.000000
_cell_angle_gamma 90.000000
_cell_volume 1960.878666
_symmetry_space_group_name_H-M "P B C M"
_symmetry_group_IT_number 57
_symmetry_cell_setting 'orthorhombic'
loop_
_space_group_symop_operation_xyz
x,y,z
-x,-y,1/2+z
x,1/2-y,-z
-x,1/2+y,1/2-z
-x,-y,-z
x,y,1/2-z
-x,1/2+y,z
x,1/2-y,1/2+z
loop_
_atom_site_type_symbol
_atom_site_label
_atom_site_fract_x
_atom_site_fract_y
_atom_site_fract_z
Si Si1 0.324440 0.264296 0.750000
Si Si2 0.813236 0.601100 0.635710
Si Si3 0.331760 0.768516 0.645666
Si Si4 0.778065 0.750000 0.000000
Si Si5 0.830790 0.368050 0.250000
Si Si6 0.966483 0.034626 0.250000
Si Si7 0.615066 0.062673 0.971204
Si Si8 0.479601 0.948289 0.750000
O O1 0.258707 0.219749 0.815591
O O2 0.390394 0.440748 0.750000
O O3 0.426246 0.134055 0.750000
O O4 0.737984 0.433320 0.618992
O O5 0.839491 0.693296 0.566908
O O6 0.911726 0.541960 0.683554
O O7 0.240739 0.672633 0.687833
O O8 0.389355 0.622908 0.603111
O O9 0.424716 0.857967 0.687876
O O10 0.701051 0.588748 0.018646
O O11 0.902801 0.536204 0.250000
O O12 0.927174 0.229258 0.250000
O O13 0.646118 0.250000 0.000000
O O14 0.500000 0.000000 0.000000
#
# Coordination Sequence:
#
# PCOD9440339 Si02
#       8
#     4   8   8   4   4   4   8   4
#     4   9  19  33  52  80 116 156 202 258 317 364
#     4   9  20  39  59  88 124 165 212 267 320 388
#     4   9  20  39  58  87 124 162 212 261 321 375
#     4  12  24  38  62  88 126 178 214 262 318 376
#     4   9  19  39  70  96 121 164 204 273 335 386
#     4   9  19  39  70  96 127 160 210 275 341 396
#     4  12  25  39  58  86 130 176 218 257 304 383
#     4   9  19  31  58  78 112 156 198 262 309 368
#
# _framework density 22.438918999999999
#
# number of rings (size 3 to 8) (size 9 to 14) (size 15 to 20)
#    0.000    2.182    2.727    2.182    2.545    2.909 
#    0.000    3.636    2.000    3.273    0.000    0.000 
#    0.000    0.000    0.000    0.000    0.000    0.000 
#
# Total GULP energy -245524.057719 kJ/mol
# GULP energy per Si atom -5580.092221 kJ/mol
# Density = 2.238785 g / cm^3
# Si number density = 22.438919 Si / 1000 Ang^3
#
#
#
# Elastic Constant Matrix: (Units=GPa)
#
#
# Indices 1 2 3 4 5 6 
#
# 1 21.9552 28.8518 10.4136 0.0000 0.0000 0.0000
# 2 28.8518 114.0214 40.0564 0.0000 0.0000 0.0000
# 3 10.4136 40.0564 120.4595 0.0000 0.0000 0.0000
# 4 0.0000 0.0000 0.0000 50.7188 0.0000 0.0000
# 5 0.0000 0.0000 0.0000 0.0000 21.6796 0.0000
# 6 0.0000 0.0000 0.0000 0.0000 0.0000 46.6033
#
#
#
# Elastic Compliance Matrix: (Units=1/GPa)
#
#
# Indices 1 2 3 4 5 6 
#
# 1 0.068242 -0.017205 -0.000178 0.000000 0.000000 0.000000
# 2 -0.017205 0.014268 -0.003257 0.000000 0.000000 0.000000
# 3 -0.000178 -0.003257 0.009400 0.000000 0.000000 0.000000
# 4 0.000000 0.000000 0.000000 0.019717 0.000000 0.000000
# 5 0.000000 0.000000 0.000000 0.000000 0.046126 0.000000
# 6 0.000000 0.000000 0.000000 0.000000 0.000000 0.021458
#
#
# Mechanical properties :
#
#
# Convention : Reuss Voigt Hill
#
# Bulk Modulus (GPa) = 19.75164 46.11997 32.93581
# Shear Modulus (GPa) = 21.06436 35.60795 28.33615
#
# Velocity S-wave (km/s) = 3.06721 3.98789 3.55746
# Velocity P-wave (km/s) = 4.62226 6.46549 5.61996
#
# Compressibility (1/GPa) = 0.05062870
#
# Stress axis : x y z
#
# Youngs Moduli (GPa) = 14.65381 70.08632 106.38223
#
# Poissons Ratio (x) = 1.20585 0.01896
# Poissons Ratio (y) = 0.25212 0.34651
# Poissons Ratio (z) = 0.00261 0.22829
#
# Static dielectric constant tensor:
#      x y z
#    x 1.784730 0.000000 0.000000 
#    y 0.000000 1.982880 0.000000 
#    z 0.000000 0.000000 2.049560 
# 
# From -- ./inp_files/22378.got.cif
#   From: 2010.05.17/outbox.cif.g08.bks.cpg/sg57_12_cif.got.tgz:22378.got - 2010.06.03 13:58:18.
