data_PCOD9440686
_publ_section_title
;
Structure prediction by ZEFSAII (Michael W. Deem and Ramdas Pophale) SiO2 
 PCOD9440686
Probable space group: P N N M
;
_chemical_formula_sum "Si O2"
_cell_formula_units_Z 40
_cell_length_a 11.117295
_cell_length_b 15.190522
_cell_length_c 10.714004
_cell_angle_alpha 90.000000
_cell_angle_beta 90.000000
_cell_angle_gamma 90.000000
_cell_volume 1809.354363
_symmetry_space_group_name_H-M "P N N M"
_symmetry_group_IT_number 58
_symmetry_cell_setting 'orthorhombic'
loop_
_space_group_symop_operation_xyz
x,y,z
-x,-y,z
1/2+x,1/2-y,1/2-z
1/2-x,1/2+y,1/2-z
-x,-y,-z
x,y,-z
1/2-x,1/2+y,1/2+z
1/2+x,1/2-y,1/2+z
loop_
_atom_site_type_symbol
_atom_site_label
_atom_site_fract_x
_atom_site_fract_y
_atom_site_fract_z
Si Si1 0.297084 0.491465 0.642583
Si Si2 0.640701 0.932315 0.642827
Si Si3 0.491965 0.640169 0.697455
Si Si4 0.825019 0.772257 0.362324
Si Si5 0.908612 0.676004 0.135416
O O1 0.253628 0.481513 0.500000
O O2 0.196788 0.508939 0.747491
O O3 0.385970 0.576887 0.646617
O O4 0.386232 0.412293 0.680112
O O5 0.658562 0.964663 0.500000
O O6 0.502551 0.902481 0.656582
O O7 0.717532 0.841416 0.650115
O O8 0.445639 0.669103 0.834994
O O9 0.487548 0.733852 0.630259
O O10 0.826832 0.734037 0.500000
O O11 0.826056 0.700105 0.252934
O O12 0.848920 0.666408 0.000000
#
# Coordination Sequence:
#
# PCOD9440686 Si02
#       5
#     8   8   8   8   8
#     4  10  16  25  42  64  84 108 137 171 202 247
#     4   9  18  28  39  60  87 113 136 167 208 245
#     4   8  16  25  43  59  85 108 137 163 208 248
#     4   8  16  27  40  59  84 107 136 170 204 238
#     4   9  16  28  43  57  82 115 142 164 200 250
#
# _framework density 22.107334999999999
#
# number of rings (size 3 to 8) (size 9 to 14) (size 15 to 20)
#    1.200    2.000    0.000    2.400    0.000    1.600 
#    0.000    4.000    0.000    0.000    0.000    1.400 
#    0.000    9.600    0.000    0.000    0.000    0.000 
#
# Total GULP energy -222911.670865 kJ/mol
# GULP energy per Si atom -5572.791772 kJ/mol
# Density = 2.205702 g / cm^3
# Si number density = 22.107335 Si / 1000 Ang^3
#
#
#
# Elastic Constant Matrix: (Units=GPa)
#
#
# Indices 1 2 3 4 5 6 
#
# 1 68.0596 31.1715 77.5702 0.0000 0.0000 0.0000
# 2 31.1715 107.8657 29.3929 0.0000 0.0000 0.0000
# 3 77.5702 29.3929 188.1690 0.0000 0.0000 0.0000
# 4 0.0000 0.0000 0.0000 4.8127 0.0000 0.0000
# 5 0.0000 0.0000 0.0000 0.0000 12.5269 0.0000
# 6 0.0000 0.0000 0.0000 0.0000 0.0000 40.0743
#
#
#
# Elastic Compliance Matrix: (Units=1/GPa)
#
#
# Indices 1 2 3 4 5 6 
#
# 1 0.030706 -0.005665 -0.011773 0.000000 0.000000 0.000000
# 2 -0.005665 0.010728 0.000660 0.000000 0.000000 0.000000
# 3 -0.011773 0.000660 0.010065 0.000000 0.000000 0.000000
# 4 0.000000 0.000000 0.000000 0.207782 0.000000 0.000000
# 5 0.000000 0.000000 0.000000 0.000000 0.079828 0.000000
# 6 0.000000 0.000000 0.000000 0.000000 0.000000 0.024954
#
#
# Mechanical properties :
#
#
# Convention : Reuss Voigt Hill
#
# Bulk Modulus (GPa) = 55.73781 71.15150 63.44465
# Shear Modulus (GPa) = 12.38847 26.54678 19.46762
#
# Velocity S-wave (km/s) = 2.36980 3.46903 2.97070
# Velocity P-wave (km/s) = 5.72320 6.94982 6.36612
#
# Compressibility (1/GPa) = 0.01794114
#
# Stress axis : x y z
#
# Youngs Moduli (GPa) = 32.56669 93.21185 99.35723
#
# Poissons Ratio (x) = 0.52809 1.16976
# Poissons Ratio (y) = 0.18451 -0.06555
# Poissons Ratio (z) = 0.38342 -0.06149
#
# Static dielectric constant tensor:
#      x y z
#    x 1.786160 0.000000 0.000000 
#    y 0.000000 1.858490 0.000000 
#    z 0.000000 0.000000 1.803700 
# 
# From -- ./inp_files/5993.got.cif
#   From: 2010.05.17/outbox.cif.g08.bks.cpg/sg58_3_cif.got.tgz:5993.got - 2010.06.03 14:20:14.
