data_PCOD9440742
_publ_section_title
;
Structure prediction by ZEFSAII (Michael W. Deem and Ramdas Pophale) SiO2 
 PCOD9440742
Probable space group: P N N M
;
_chemical_formula_sum "Si O2"
_cell_formula_units_Z 56
_cell_length_a 22.764714
_cell_length_b 18.453384
_cell_length_c 8.717192
_cell_angle_alpha 90.000000
_cell_angle_beta 90.000000
_cell_angle_gamma 90.000000
_cell_volume 3661.970398
_symmetry_space_group_name_H-M "P N N M"
_symmetry_group_IT_number 58
_symmetry_cell_setting 'orthorhombic'
loop_
_space_group_symop_operation_xyz
x,y,z
-x,-y,z
1/2+x,1/2-y,1/2-z
1/2-x,1/2+y,1/2-z
-x,-y,-z
x,y,-z
1/2-x,1/2+y,1/2+z
1/2+x,1/2-y,1/2+z
loop_
_atom_site_type_symbol
_atom_site_label
_atom_site_fract_x
_atom_site_fract_y
_atom_site_fract_z
Si Si1 0.343600 0.113846 0.181647
Si Si2 0.816228 0.238883 0.822055
Si Si3 0.568347 0.001232 0.683803
Si Si4 0.351249 0.873905 0.813695
Si Si5 0.782646 0.083537 0.814870
Si Si6 0.677440 0.280258 0.177961
Si Si7 0.783157 0.929978 0.684838
O O1 0.347220 0.198531 0.225982
O O2 0.282932 0.084097 0.254770
O O3 0.396696 0.067016 0.247943
O O4 0.340163 0.104565 0.000000
O O5 0.818428 0.155655 0.768501
O O6 0.746477 0.257958 0.820612
O O7 0.834972 0.243433 0.000000
O O8 0.572897 0.999486 0.500000
O O9 0.600621 0.072840 0.746135
O O10 0.500000 0.000000 0.727165
O O11 0.285999 0.903313 0.773285
O O12 0.355095 0.790390 0.757347
O O13 0.354277 0.874033 0.000000
O O14 0.802699 0.008293 0.742841
O O15 0.784917 0.079575 0.000000
O O16 0.677732 0.361669 0.242250
O O17 0.659278 0.285689 0.000000
O O18 0.781761 0.927883 0.500000
#
# Coordination Sequence:
#
# PCOD9440742 Si02
#       7
#     8   8   8   8   8   8   8
#     4  11  20  30  44  61  83 112 148 185 220 256
#     4   8  15  28  43  59  84 115 143 172 214 259
#     4  11  23  35  46  62  84 112 148 188 229 267
#     4   9  16  29  46  60  81 112 146 182 216 253
#     4   9  16  26  42  65  90 117 145 176 212 254
#     4   7  13  25  40  59  82 112 142 170 209 254
#     4  10  17  26  42  63  89 119 146 173 212 257
#
# _framework density 15.292313999999999
#
# number of rings (size 3 to 8) (size 9 to 14) (size 15 to 20)
#    0.000    2.714    1.429    4.714    0.000    1.714 
#    0.000    6.429    0.000    0.000    0.000    0.000 
#    0.000    1.143    0.000   12.857    0.000    5.714 
#
# Total GULP energy -311766.713287 kJ/mol
# GULP energy per Si atom -5567.262737 kJ/mol
# Density = 1.525751 g / cm^3
# Si number density = 15.292314 Si / 1000 Ang^3
#
#
#
# Elastic Constant Matrix: (Units=GPa)
#
#
# Indices 1 2 3 4 5 6 
#
# 1 46.3400 42.0822 19.4910 0.0000 0.0000 0.0000
# 2 42.0822 169.4619 34.5687 0.0000 0.0000 0.0000
# 3 19.4910 34.5687 32.9807 0.0000 0.0000 0.0000
# 4 0.0000 0.0000 0.0000 17.9712 0.0000 0.0000
# 5 0.0000 0.0000 0.0000 0.0000 -0.1237 0.0000
# 6 0.0000 0.0000 0.0000 0.0000 0.0000 12.9708
#
#
#
# Elastic Compliance Matrix: (Units=1/GPa)
#
#
# Indices 1 2 3 4 5 6 
#
# 1 0.031947 -0.005192 -0.013438 0.000000 0.000000 0.000000
# 2 -0.005192 0.008350 -0.005683 0.000000 0.000000 0.000000
# 3 -0.013438 -0.005683 0.044219 0.000000 0.000000 0.000000
# 4 0.000000 0.000000 0.000000 0.055645 0.000000 0.000000
# 5 0.000000 0.000000 0.000000 0.000000 -8.083063 0.000000
# 6 0.000000 0.000000 0.000000 0.000000 0.000000 0.077096
#
#
# Mechanical properties :
#
#
# Convention : Reuss Voigt Hill
#
# Bulk Modulus (GPa) = 27.86356 49.00738 38.43547
# Shear Modulus (GPa) = -0.64060 16.33971 7.84956
#
# Velocity S-wave (km/s) = -0.64793 3.27233 2.26807
# Velocity P-wave (km/s) = 4.20719 6.81132 5.66103
#
# Compressibility (1/GPa) = 0.03588917
#
# Stress axis : x y z
#
# Youngs Moduli (GPa) = 31.30215 119.76458 22.61459
#
# Poissons Ratio (x) = 0.62183 0.30389
# Poissons Ratio (y) = 0.16252 0.12853
# Poissons Ratio (z) = 0.42063 0.68066
#
# Static dielectric constant tensor:
#      x y z
#    x 1.466590 0.000000 0.000000 
#    y 0.000000 1.567890 0.000000 
#    z 0.000000 0.000000 1.515400 
# 
# From -- ./inp_files/10122.got.cif
#   From: 2010.05.17/outbox.cif.g08.bks.cpg/sg58_6_cif.got.tgz:10122.got - 2010.06.03 14:20:14.
