data_PCOD9440074
_publ_section_title
;
Structure prediction by ZEFSAII (Michael W. Deem and Ramdas Pophale) SiO2 
 PCOD9440074
Probable space group: P B C M
;
_chemical_formula_sum "Si O2"
_cell_formula_units_Z 56
_cell_length_a 18.526716
_cell_length_b 19.448051
_cell_length_c 8.517191
_cell_angle_alpha 90.000000
_cell_angle_beta 90.000000
_cell_angle_gamma 90.000000
_cell_volume 3068.816464
_symmetry_space_group_name_H-M "P B C M"
_symmetry_group_IT_number 57
_symmetry_cell_setting 'orthorhombic'
loop_
_space_group_symop_operation_xyz
x,y,z
-x,-y,1/2+z
x,1/2-y,-z
-x,1/2+y,1/2-z
-x,-y,-z
x,y,1/2-z
-x,1/2+y,z
x,1/2-y,1/2+z
loop_
_atom_site_type_symbol
_atom_site_label
_atom_site_fract_x
_atom_site_fract_y
_atom_site_fract_z
Si Si1 0.804179 0.935012 0.938381
Si Si2 0.965351 0.570705 0.561838
Si Si3 0.525103 0.828200 0.939241
Si Si4 0.772118 0.086573 0.061395
Si Si5 0.316988 0.171955 0.059980
Si Si6 0.908227 0.327313 0.061587
Si Si7 0.632628 0.328287 0.940000
O O1 0.804998 0.935200 0.750000
O O2 0.747281 0.877434 0.993365
O O3 0.884870 0.921093 0.997884
O O4 0.780007 0.009938 0.996467
O O5 0.962779 0.567443 0.750000
O O6 0.000000 0.500000 0.500000
O O7 0.018952 0.632321 0.515240
O O8 0.524971 0.828528 0.750000
O O9 0.603437 0.856037 0.989566
O O10 0.446745 0.856013 0.989943
O O11 0.525042 0.750000 0.000000
O O12 0.772346 0.084055 0.250000
O O13 0.698701 0.124247 0.007854
O O14 0.840215 0.131056 0.005050
O O15 0.315835 0.174009 0.250000
O O16 0.309043 0.250000 0.000000
O O17 0.903610 0.327348 0.250000
O O18 0.907981 0.250000 0.000000
O O19 0.633983 0.325769 0.750000
O O20 0.641064 0.250000 0.000000
#
# Coordination Sequence:
#
# PCOD9440074 Si02
#       7
#     8   8   8   8   8   8   8
#     4  11  23  38  57  82 112 147 186 226 277 336
#     4  11  23  40  62  84 109 145 186 226 274 330
#     4   8  14  29  51  75 105 140 180 225 276 327
#     4  11  22  36  55  80 112 150 188 229 278 330
#     4   9  19  35  57  82 109 143 183 232 281 329
#     4  11  24  40  60  86 114 145 183 228 276 329
#     4   9  18  31  51  79 108 142 184 229 275 327
#
# _framework density 18.248076999999999
#
# number of rings (size 3 to 8) (size 9 to 14) (size 15 to 20)
#    0.000    2.000    1.429    2.143    0.000    5.714 
#    0.000    3.571    0.000    0.000    0.000    0.000 
#    0.000    0.000    0.000    0.000    0.000    0.000 
#
# Total GULP energy -312427.834134 kJ/mol
# GULP energy per Si atom -5579.068467 kJ/mol
# Density = 1.820654 g / cm^3
# Si number density = 18.248077 Si / 1000 Ang^3
#
#
#
# Elastic Constant Matrix: (Units=GPa)
#
#
# Indices 1 2 3 4 5 6 
#
# 1 227.1536 97.4077 36.0781 0.0000 0.0000 0.0000
# 2 97.4077 117.4724 23.2932 0.0000 0.0000 0.0000
# 3 36.0781 23.2932 27.4021 0.0000 0.0000 0.0000
# 4 0.0000 0.0000 0.0000 26.4443 0.0000 0.0000
# 5 0.0000 0.0000 0.0000 0.0000 18.9165 0.0000
# 6 0.0000 0.0000 0.0000 0.0000 0.0000 14.7947
#
#
#
# Elastic Compliance Matrix: (Units=1/GPa)
#
#
# Indices 1 2 3 4 5 6 
#
# 1 0.007460 -0.005097 -0.005489 0.000000 0.000000 0.000000
# 2 -0.005097 0.013721 -0.004953 0.000000 0.000000 0.000000
# 3 -0.005489 -0.004953 0.047930 0.000000 0.000000 0.000000
# 4 0.000000 0.000000 0.000000 0.037815 0.000000 0.000000
# 5 0.000000 0.000000 0.000000 0.000000 0.052864 0.000000
# 6 0.000000 0.000000 0.000000 0.000000 0.000000 0.067592
#
#
# Mechanical properties :
#
#
# Convention : Reuss Voigt Hill
#
# Bulk Modulus (GPa) = 26.29230 76.17627 51.23428
# Shear Modulus (GPa) = 18.44076 26.38103 22.41089
#
# Velocity S-wave (km/s) = 3.18238 3.80635 3.50826
# Velocity P-wave (km/s) = 5.28610 7.82005 6.67443
#
# Compressibility (1/GPa) = 0.03803395
#
# Stress axis : x y z
#
# Youngs Moduli (GPa) = 134.04928 72.87878 20.86362
#
# Poissons Ratio (x) = 0.37149 0.11452
# Poissons Ratio (y) = 0.68330 0.10333
# Poissons Ratio (z) = 0.73578 0.36094
#
# Static dielectric constant tensor:
#      x y z
#    x 1.664110 0.000000 0.000000 
#    y 0.000000 1.579370 0.000000 
#    z 0.000000 0.000000 1.623200 
# 
# From -- ./inp_files/5186.got.cif
#   From: 2010.05.17/outbox.cif.g08.bks.cpg/sg57_3_cif.got.tgz:5186.got - 2010.06.03 13:58:18.
