data_PCOD9440170
_publ_section_title
;
Structure prediction by ZEFSAII (Michael W. Deem and Ramdas Pophale) SiO2 
 PCOD9440170
Probable space group: P B C M
;
_chemical_formula_sum "Si O2"
_cell_formula_units_Z 64
_cell_length_a 13.550417
_cell_length_b 9.903108
_cell_length_c 23.438996
_cell_angle_alpha 90.000000
_cell_angle_beta 90.000000
_cell_angle_gamma 90.000000
_cell_volume 3145.308008
_symmetry_space_group_name_H-M "P B C M"
_symmetry_group_IT_number 57
_symmetry_cell_setting 'orthorhombic'
loop_
_space_group_symop_operation_xyz
x,y,z
-x,-y,1/2+z
x,1/2-y,-z
-x,1/2+y,1/2-z
-x,-y,-z
x,y,1/2-z
-x,1/2+y,z
x,1/2-y,1/2+z
loop_
_atom_site_type_symbol
_atom_site_label
_atom_site_fract_x
_atom_site_fract_y
_atom_site_fract_z
Si Si1 0.296605 0.232583 0.817729
Si Si2 0.288852 0.765765 0.184931
Si Si3 0.368695 0.015288 0.386207
Si Si4 0.686043 0.087360 0.494500
Si Si5 0.399859 0.520472 0.130781
Si Si6 0.087498 0.901871 0.518448
Si Si7 0.072206 0.359528 0.313924
Si Si8 0.921400 0.154675 0.148796
O O1 0.312562 0.260425 0.750000
O O2 0.307819 0.363718 0.857221
O O3 0.187767 0.167373 0.823373
O O4 0.372353 0.123257 0.842393
O O5 0.302127 0.810409 0.250000
O O6 0.351938 0.633080 0.171238
O O7 0.175385 0.724735 0.174443
O O8 0.324800 0.879652 0.141589
O O9 0.483057 0.035613 0.371382
O O10 0.363645 0.994967 0.454219
O O11 0.669084 0.250000 0.500000
O O12 0.647695 0.040670 0.432398
O O13 0.803264 0.064338 0.503983
O O14 0.062922 0.750000 0.500000
O O15 0.100919 0.899153 0.586084
O O16 0.000000 0.000000 0.500000
O O17 0.047469 0.312672 0.250000
O O18 0.050479 0.518218 0.318232
O O19 0.006674 0.266089 0.354096
#
# Coordination Sequence:
#
# PCOD9440170 Si02
#       8
#     8   8   8   8   8   8   8   8
#     4  11  26  45  65 102 146 174 223 294 345 409
#     4  12  24  44  71  98 137 188 232 284 357 425
#     4  12  27  43  71 101 134 180 237 290 348 414
#     4  11  23  47  71  98 139 177 231 293 349 417
#     4  12  24  47  71  98 135 187 231 289 350 415
#     4  11  23  41  67  97 131 173 220 278 342 401
#     4  11  24  42  66  97 134 175 218 273 336 408
#     4  12  24  44  69 100 135 179 228 277 346 419
#
# _framework density 20.347767999999999
#
# number of rings (size 3 to 8) (size 9 to 14) (size 15 to 20)
#    0.000    0.500    3.750    4.500    3.500    3.500 
#    0.000    0.000    0.000    0.000    0.000    0.000 
#    0.000    0.000    0.000    0.000    0.000    0.000 
#
# Total GULP energy -357931.900704 kJ/mol
# GULP energy per Si atom -5592.685948 kJ/mol
# Density = 2.030146 g / cm^3
# Si number density = 20.347768 Si / 1000 Ang^3
#
#
#
# Elastic Constant Matrix: (Units=GPa)
#
#
# Indices 1 2 3 4 5 6 
#
# 1 64.6877 3.3556 -2.3180 0.0000 0.0000 0.0000
# 2 3.3556 62.2583 -1.6433 0.0000 0.0000 0.0000
# 3 -2.3180 -1.6433 64.5600 0.0000 0.0000 0.0000
# 4 0.0000 0.0000 0.0000 34.7449 0.0000 0.0000
# 5 0.0000 0.0000 0.0000 0.0000 0.9501 0.0000
# 6 0.0000 0.0000 0.0000 0.0000 0.0000 17.9324
#
#
#
# Elastic Compliance Matrix: (Units=1/GPa)
#
#
# Indices 1 2 3 4 5 6 
#
# 1 0.015521 -0.000822 0.000536 0.000000 0.000000 0.000000
# 2 -0.000822 0.016116 0.000381 0.000000 0.000000 0.000000
# 3 0.000536 0.000381 0.015518 0.000000 0.000000 0.000000
# 4 0.000000 0.000000 0.000000 0.028781 0.000000 0.000000
# 5 0.000000 0.000000 0.000000 0.000000 1.052479 0.000000
# 6 0.000000 0.000000 0.000000 0.000000 0.000000 0.055765
#
#
# Mechanical properties :
#
#
# Convention : Reuss Voigt Hill
#
# Bulk Modulus (GPa) = 21.12155 21.14383 21.13269
# Shear Modulus (GPa) = 4.16745 23.53293 13.85019
#
# Velocity S-wave (km/s) = 1.43268 3.40448 2.61180
# Velocity P-wave (km/s) = 3.62485 5.08603 4.41629
#
# Compressibility (1/GPa) = 0.04734502
#
# Stress axis : x y z
#
# Youngs Moduli (GPa) = 64.42979 62.04822 64.43952
#
# Poissons Ratio (x) = 0.05103 -0.03456
# Poissons Ratio (y) = 0.05299 -0.02453
# Poissons Ratio (z) = -0.03456 -0.02362
#
# Static dielectric constant tensor:
#      x y z
#    x 1.777520 0.000000 0.000000 
#    y 0.000000 1.721980 0.000000 
#    z 0.000000 0.000000 2.240150 
# 
# From -- ./inp_files/27489.got.cif
#   From: 2010.05.17/outbox.cif.g08.bks.cpg/sg57_14_cif.got.tgz:27489.got - 2010.06.03 13:58:18.
