data_PCOD9440718
_publ_section_title
;
Structure prediction by ZEFSAII (Michael W. Deem and Ramdas Pophale) SiO2 
 PCOD9440718
Probable space group: P N N M
;
_chemical_formula_sum "Si O2"
_cell_formula_units_Z 40
_cell_length_a 14.196726
_cell_length_b 13.107512
_cell_length_c 10.031895
_cell_angle_alpha 90.000000
_cell_angle_beta 90.000000
_cell_angle_gamma 90.000000
_cell_volume 1866.772705
_symmetry_space_group_name_H-M "P N N M"
_symmetry_group_IT_number 58
_symmetry_cell_setting 'orthorhombic'
loop_
_space_group_symop_operation_xyz
x,y,z
-x,-y,z
1/2+x,1/2-y,1/2-z
1/2-x,1/2+y,1/2-z
-x,-y,-z
x,y,-z
1/2-x,1/2+y,1/2+z
1/2+x,1/2-y,1/2+z
loop_
_atom_site_type_symbol
_atom_site_label
_atom_site_fract_x
_atom_site_fract_y
_atom_site_fract_z
Si Si1 0.217249 0.708706 0.847867
Si Si2 0.937658 0.602649 0.348972
Si Si3 0.893468 0.915449 0.339518
Si Si4 0.785523 0.526082 0.845978
Si Si5 0.929544 0.199096 0.342620
O O1 0.326437 0.683682 0.816583
O O2 0.177252 0.591891 0.845031
O O3 0.162125 0.776408 0.743231
O O4 0.208501 0.745518 0.000000
O O5 0.899575 0.606356 0.500000
O O6 0.852242 0.591671 0.246226
O O7 0.006795 0.698327 0.332577
O O8 0.000000 0.500000 0.337466
O O9 0.900080 0.925444 0.500000
O O10 0.822716 0.006403 0.298574
O O11 0.998135 0.889119 0.293930
O O12 0.785738 0.559770 0.000000
O O13 0.908921 0.183729 0.500000
#
# Coordination Sequence:
#
# PCOD9440718 Si02
#       5
#     8   8   8   8   8
#     4   8  15  27  40  56  79 104 134 165 191 225
#     4  10  17  23  35  61  87 103 123 157 202 244
#     4   7  14  28  41  54  76 110 141 158 187 238
#     4   8  15  27  40  51  75 109 134 155 185 231
#     4  10  17  26  42  61  83 109 133 159 198 245
#
# _framework density 21.427354999999999
#
# number of rings (size 3 to 8) (size 9 to 14) (size 15 to 20)
#    1.200    2.200    2.000    0.000    0.000    1.200 
#    0.000    2.000    0.000    0.000    0.000    1.400 
#    0.000   11.200    0.000    0.000    0.000    0.000 
#
# Total GULP energy -222910.642966 kJ/mol
# GULP energy per Si atom -5572.766074 kJ/mol
# Density = 2.137859 g / cm^3
# Si number density = 21.427355 Si / 1000 Ang^3
#
#
#
# Elastic Constant Matrix: (Units=GPa)
#
#
# Indices 1 2 3 4 5 6 
#
# 1 133.2994 26.3835 69.7935 0.0000 0.0000 0.0000
# 2 26.3835 98.2291 22.6664 0.0000 0.0000 0.0000
# 3 69.7935 22.6664 67.1788 0.0000 0.0000 0.0000
# 4 0.0000 0.0000 0.0000 -500.6385 0.0000 0.0000
# 5 0.0000 0.0000 0.0000 0.0000 7.0253 0.0000
# 6 0.0000 0.0000 0.0000 0.0000 0.0000 45.1475
#
#
#
# Elastic Compliance Matrix: (Units=1/GPa)
#
#
# Indices 1 2 3 4 5 6 
#
# 1 0.016474 -0.000516 -0.016942 0.000000 0.000000 0.000000
# 2 -0.000516 0.011056 -0.003195 0.000000 0.000000 0.000000
# 3 -0.016942 -0.003195 0.033564 0.000000 0.000000 0.000000
# 4 0.000000 0.000000 0.000000 -0.001997 0.000000 0.000000
# 5 0.000000 0.000000 0.000000 0.000000 0.142343 0.000000
# 6 0.000000 0.000000 0.000000 0.000000 0.000000 0.022150
#
#
# Mechanical properties :
#
#
# Convention : Reuss Voigt Hill
#
# Bulk Modulus (GPa) = 50.52772 59.59936 55.06354
# Shear Modulus (GPa) = 18.41683 -77.70222 -29.64269
#
# Velocity S-wave (km/s) = 2.93491 -6.02842 -3.72345
# Velocity P-wave (km/s) = 5.92596 4.53660 2.69595
#
# Compressibility (1/GPa) = 0.01979112
#
# Stress axis : x y z
#
# Youngs Moduli (GPa) = 60.70075 90.44916 29.79344
#
# Poissons Ratio (x) = 0.04663 0.50475
# Poissons Ratio (y) = 0.03130 0.09518
# Poissons Ratio (z) = 1.02836 0.28895
#
# Static dielectric constant tensor:
#      x y z
#    x 1.810840 0.000000 0.000000 
#    y 0.000000 1.904170 0.000000 
#    z 0.000000 0.000000 1.697850 
# 
# From -- ./inp_files/7790.got.cif
#   From: 2010.05.17/outbox.cif.g08.bks.cpg/sg58_4_cif.got.tgz:7790.got - 2010.06.03 14:20:14.
