data_PCOD9440372
_publ_section_title
;
Structure prediction by ZEFSAII (Michael W. Deem and Ramdas Pophale) SiO2 
 PCOD9440372
Probable space group: P B C M
;
_chemical_formula_sum "Si O2"
_cell_formula_units_Z 48
_cell_length_a 9.854506
_cell_length_b 32.878965
_cell_length_c 7.537933
_cell_angle_alpha 90.000000
_cell_angle_beta 90.000000
_cell_angle_gamma 90.000000
_cell_volume 2442.335202
_symmetry_space_group_name_H-M "P B C M"
_symmetry_group_IT_number 57
_symmetry_cell_setting 'orthorhombic'
loop_
_space_group_symop_operation_xyz
x,y,z
-x,-y,1/2+z
x,1/2-y,-z
-x,1/2+y,1/2-z
-x,-y,-z
x,y,1/2-z
-x,1/2+y,z
x,1/2-y,1/2+z
loop_
_atom_site_type_symbol
_atom_site_label
_atom_site_fract_x
_atom_site_fract_y
_atom_site_fract_z
Si Si1 0.662776 0.295615 0.962838
Si Si2 0.833348 0.630637 0.468356
Si Si3 0.134208 0.956771 0.461838
Si Si4 0.181415 0.042525 0.047932
Si Si5 0.353686 0.295594 0.962478
Si Si6 0.854354 0.132641 0.462964
O O1 0.656316 0.299830 0.750000
O O2 0.508180 0.298617 0.031339
O O3 0.759696 0.331224 0.030989
O O4 0.713219 0.250000 0.000000
O O5 0.833830 0.629544 0.250000
O O6 0.780039 0.586313 0.530134
O O7 0.742096 0.668269 0.527181
O O8 0.989759 0.635659 0.526017
O O9 0.115561 0.961323 0.250000
O O10 0.197763 0.912767 0.495125
O O11 0.983894 0.955686 0.546374
O O12 0.209372 0.997599 0.528087
O O13 0.231839 0.042295 0.250000
O O14 0.359510 0.299658 0.750000
O O15 0.302977 0.250000 0.000000
O O16 0.859272 0.135942 0.250000
#
# Coordination Sequence:
#
# PCOD9440372 Si02
#       6
#     8   8   8   8   8   8
#     4   9  18  31  46  62  81 108 140 171 205 247
#     4   8  14  26  44  62  81 107 137 167 200 241
#     4   9  15  23  39  63  86 109 139 173 206 241
#     4   8  14  25  40  59  85 114 140 168 205 248
#     4   9  17  30  46  62  80 106 139 170 203 246
#     4   9  17  29  43  61  86 113 138 167 206 248
#
# _framework density 19.653321999999999
#
# number of rings (size 3 to 8) (size 9 to 14) (size 15 to 20)
#    0.000    3.333    0.000    1.500    0.000    2.000 
#    0.000    3.333    0.000    1.000    0.000    0.000 
#    0.000    0.000    0.000    0.000    0.000    1.500 
#
# Total GULP energy -267240.755498 kJ/mol
# GULP energy per Si atom -5567.515740 kJ/mol
# Density = 1.960859 g / cm^3
# Si number density = 19.653322 Si / 1000 Ang^3
#
#
#
# Elastic Constant Matrix: (Units=GPa)
#
#
# Indices 1 2 3 4 5 6 
#
# 1 42.0004 80.0773 2.7513 0.0000 0.0000 0.0000
# 2 80.0773 249.8559 -3.0170 0.0000 0.0000 0.0000
# 3 2.7513 -3.0170 53.7015 0.0000 0.0000 0.0000
# 4 0.0000 0.0000 0.0000 20.9473 0.0000 0.0000
# 5 0.0000 0.0000 0.0000 0.0000 0.3209 0.0000
# 6 0.0000 0.0000 0.0000 0.0000 0.0000 -12.8972
#
#
#
# Elastic Compliance Matrix: (Units=1/GPa)
#
#
# Indices 1 2 3 4 5 6 
#
# 1 0.062195 -0.019985 -0.004309 0.000000 0.000000 0.000000
# 2 -0.019985 0.010427 0.001610 0.000000 0.000000 0.000000
# 3 -0.004309 0.001610 0.018933 0.000000 0.000000 0.000000
# 4 0.000000 0.000000 0.000000 0.047739 0.000000 0.000000
# 5 0.000000 0.000000 0.000000 0.000000 3.115844 0.000000
# 6 0.000000 0.000000 0.000000 0.000000 0.000000 -0.077536
#
#
# Mechanical properties :
#
#
# Convention : Reuss Voigt Hill
#
# Bulk Modulus (GPa) = 21.65202 56.13123 38.89163
# Shear Modulus (GPa) = 1.54399 19.39061 10.46730
#
# Velocity S-wave (km/s) = 0.88731 3.14448 2.31031
# Velocity P-wave (km/s) = 3.47716 6.46578 5.19119
#
# Compressibility (1/GPa) = 0.04618507
#
# Stress axis : x y z
#
# Youngs Moduli (GPa) = 16.07850 95.90626 52.81876
#
# Poissons Ratio (x) = 1.91670 0.22761
# Poissons Ratio (y) = 0.32133 -0.08502
# Poissons Ratio (z) = 0.06929 -0.15438
#
# Static dielectric constant tensor:
#      x y z
#    x 1.654640 0.000000 0.000000 
#    y 0.000000 1.744550 0.000000 
#    z 0.000000 0.000000 1.767410 
# 
# From -- ./inp_files/3291.got.cif
#   From: 2010.05.17/outbox.cif.g08.bks.cpg/sg57_2_cif.got.tgz:3291.got - 2010.06.03 13:58:18.
