data_PCOD9440549
_publ_section_title
;
Structure prediction by ZEFSAII (Michael W. Deem and Ramdas Pophale) SiO2 
 PCOD9440549
Probable space group: P B C M
;
_chemical_formula_sum "Si O2"
_cell_formula_units_Z 56
_cell_length_a 21.000000
_cell_length_b 15.000000
_cell_length_c 9.000000
_cell_angle_alpha 90.000000
_cell_angle_beta 90.000000
_cell_angle_gamma 90.000000
_cell_volume 2835.000000
_symmetry_space_group_name_H-M "P B C M"
_symmetry_group_IT_number 57
_symmetry_cell_setting 'orthorhombic'
loop_
_space_group_symop_operation_xyz
x,y,z
-x,-y,1/2+z
x,1/2-y,-z
-x,1/2+y,1/2-z
-x,-y,-z
x,y,1/2-z
-x,1/2+y,z
x,1/2-y,1/2+z
loop_
_atom_site_type_symbol
_atom_site_label
_atom_site_fract_x
_atom_site_fract_y
_atom_site_fract_z
Si Si1 0.781868 0.986025 0.071953
Si Si2 0.607650 0.338981 0.425009
Si Si3 0.117294 0.336557 0.073442
Si Si4 0.016367 0.594416 0.571063
Si Si5 0.527752 0.589567 0.926663
Si Si6 0.651275 0.961181 0.928915
Si Si7 0.841051 0.155487 0.928626
O O1 0.776027 0.994663 0.250000
O O2 0.842649 0.924205 0.037297
O O3 0.719075 0.942730 0.001856
O O4 0.795453 0.080198 0.995035
O O5 0.633721 0.250000 0.500000
O O6 0.619285 0.333017 0.250000
O O7 0.531049 0.343562 0.448303
O O8 0.634788 0.435437 0.472777
O O9 0.118195 0.326276 0.250000
O O10 0.044090 0.346649 0.024860
O O11 0.146756 0.250000 0.000000
O O12 0.015714 0.586579 0.750000
O O13 0.085719 0.630600 0.528761
O O14 0.000000 0.500000 0.500000
O O15 0.536894 0.578311 0.750000
O O16 0.500000 0.500000 0.000000
O O17 0.595331 0.601267 0.006436
O O18 0.652212 0.956324 0.750000
O O19 0.836658 0.157772 0.750000
O O20 0.825714 0.250000 0.000000
#
# Coordination Sequence:
#
# PCOD9440549 Si02
#       7
#     8   8   8   8   8   8   8
#     4  11  23  40  60  83 116 155 197 245 293 349
#     4   9  19  33  53  82 113 141 176 224 272 328
#     4  10  22  39  60  86 114 147 191 241 296 353
#     4  10  20  36  59  87 116 148 188 239 296 352
#     4   9  17  32  53  79 107 138 177 220 268 319
#     4  10  21  37  56  80 110 147 191 232 278 338
#     4  11  23  38  59  86 117 155 195 240 295 353
#
# _framework density 19.753086
#
# number of rings (size 3 to 8) (size 9 to 14) (size 15 to 20)
#    0.000    2.000    1.429    3.000    0.000    6.286 
#    0.000    2.143    0.000    0.000    0.000    0.000 
#    0.000    0.000    0.000    0.000    0.000    0.000 
#
# Total GULP energy -312425.372110 kJ/mol
# GULP energy per Si atom -5579.024502 kJ/mol
# Density = 1.970813 g / cm^3
# Si number density = 19.753086 Si / 1000 Ang^3
#
#
#
# Elastic Constant Matrix: (Units=GPa)
#
#
# Indices 1 2 3 4 5 6 
#
# 1 71.9352 -20.5851 19.4906 0.0000 0.0000 0.0000
# 2 -20.5851 53.5833 19.3187 0.0000 0.0000 0.0000
# 3 19.4906 19.3187 30.5864 0.0000 0.0000 0.0000
# 4 0.0000 0.0000 0.0000 29.2848 0.0000 0.0000
# 5 0.0000 0.0000 0.0000 0.0000 29.8411 0.0000
# 6 0.0000 0.0000 0.0000 0.0000 0.0000 6.7159
#
#
#
# Elastic Compliance Matrix: (Units=1/GPa)
#
#
# Indices 1 2 3 4 5 6 
#
# 1 0.029971 0.023825 -0.034147 0.000000 0.000000 0.000000
# 2 0.023825 0.043105 -0.042408 0.000000 0.000000 0.000000
# 3 -0.034147 -0.042408 0.081239 0.000000 0.000000 0.000000
# 4 0.000000 0.000000 0.000000 0.034147 0.000000 0.000000
# 5 0.000000 0.000000 0.000000 0.000000 0.033511 0.000000
# 6 0.000000 0.000000 0.000000 0.000000 0.000000 0.148900
#
#
# Mechanical properties :
#
#
# Convention : Reuss Voigt Hill
#
# Bulk Modulus (GPa) = 20.46816 21.39481 20.93148
# Shear Modulus (GPa) = 10.14984 22.36040 16.25512
#
# Velocity S-wave (km/s) = 2.26925 3.36816 2.87176
# Velocity P-wave (km/s) = 4.15337 5.09712 4.64926
#
# Compressibility (1/GPa) = 0.04885638
#
# Stress axis : x y z
#
# Youngs Moduli (GPa) = 33.36524 23.19911 12.30935
#
# Poissons Ratio (x) = -0.55273 0.42033
# Poissons Ratio (y) = -0.79494 0.52201
# Poissons Ratio (z) = 1.13932 0.98383
#
# Static dielectric constant tensor:
#      x y z
#    x 1.697240 0.000000 0.000000 
#    y 0.000000 1.705940 0.000000 
#    z 0.000000 0.000000 1.650960 
# 
# From -- ./inp_files/8208.got.cif
#   From: 2010.05.17/outbox.ucp.g08.bks.cvg/sg57_5_cif.got.tgz:8208.got - 2010.06.11 16:39:23.
