data_PCOD9440079
_publ_section_title
;
Structure prediction by ZEFSAII (Michael W. Deem and Ramdas Pophale) SiO2 
 PCOD9440079
Probable space group: P B C M
;
_chemical_formula_sum "Si O2"
_cell_formula_units_Z 48
_cell_length_a 14.613713
_cell_length_b 8.154616
_cell_length_c 15.075512
_cell_angle_alpha 90.000000
_cell_angle_beta 90.000000
_cell_angle_gamma 90.000000
_cell_volume 1796.536974
_symmetry_space_group_name_H-M "P B C M"
_symmetry_group_IT_number 57
_symmetry_cell_setting 'orthorhombic'
loop_
_space_group_symop_operation_xyz
x,y,z
-x,-y,1/2+z
x,1/2-y,-z
-x,1/2+y,1/2-z
-x,-y,-z
x,y,1/2-z
-x,1/2+y,z
x,1/2-y,1/2+z
loop_
_atom_site_type_symbol
_atom_site_label
_atom_site_fract_x
_atom_site_fract_y
_atom_site_fract_z
Si Si1 0.861955 0.159332 0.850851
Si Si2 0.690654 0.982528 0.648144
Si Si3 0.357094 0.960807 0.643908
Si Si4 0.974022 0.025998 0.101494
Si Si5 0.524682 0.785031 0.642759
Si Si6 0.196931 0.173762 0.597696
O O1 0.844377 0.209280 0.750000
O O2 0.921604 0.303185 0.891904
O O3 0.763996 0.110207 0.890817
O O4 0.929916 0.002799 0.850618
O O5 0.671279 0.033540 0.750000
O O6 0.596340 0.920305 0.605440
O O7 0.749413 0.812735 0.651409
O O8 0.338099 0.950959 0.750000
O O9 0.427802 0.111571 0.628851
O O10 0.264462 0.016165 0.597033
O O11 0.419730 0.807956 0.614649
O O12 0.899942 0.890523 0.131408
O O13 0.000000 0.000000 0.000000
O O14 0.522966 0.808665 0.750000
O O15 0.185298 0.250000 0.500000
#
# Coordination Sequence:
#
# PCOD9440079 Si02
#       6
#     8   8   8   8   8   8
#     4  11  23  38  60  88 112 141 189 244 287 330
#     4   9  19  37  59  84 116 150 185 232 285 331
#     4   9  18  33  55  81 109 144 184 227 274 324
#     4  12  25  41  59  81 114 154 190 230 291 359
#     4   8  15  30  53  80 111 145 179 219 274 334
#     4  11  22  37  57  80 110 150 192 230 275 336
#
# _framework density 26.718070000000001
#
# number of rings (size 3 to 8) (size 9 to 14) (size 15 to 20)
#    0.000    2.000    0.000    5.500    0.000    5.333 
#    0.000    6.667    0.000    2.000    0.000    0.000 
#    0.000    0.000    0.000    0.000    0.000    0.000 
#
# Total GULP energy -268598.777724 kJ/mol
# GULP energy per Si atom -5595.807869 kJ/mol
# Density = 2.665726 g / cm^3
# Si number density = 26.718070 Si / 1000 Ang^3
#
#
#
# Elastic Constant Matrix: (Units=GPa)
#
#
# Indices 1 2 3 4 5 6 
#
# 1 174.7543 18.1472 -3.0911 0.0000 0.0000 0.0000
# 2 18.1472 79.2603 3.0326 0.0000 0.0000 0.0000
# 3 -3.0911 3.0326 58.2621 0.0000 0.0000 0.0000
# 4 0.0000 0.0000 0.0000 26.1413 0.0000 0.0000
# 5 0.0000 0.0000 0.0000 0.0000 36.5871 0.0000
# 6 0.0000 0.0000 0.0000 0.0000 0.0000 59.9057
#
#
#
# Elastic Compliance Matrix: (Units=1/GPa)
#
#
# Indices 1 2 3 4 5 6 
#
# 1 0.005870 -0.001359 0.000382 0.000000 0.000000 0.000000
# 2 -0.001359 0.012956 -0.000746 0.000000 0.000000 0.000000
# 3 0.000382 -0.000746 0.017223 0.000000 0.000000 0.000000
# 4 0.000000 0.000000 0.000000 0.038254 0.000000 0.000000
# 5 0.000000 0.000000 0.000000 0.000000 0.027332 0.000000
# 6 0.000000 0.000000 0.000000 0.000000 0.000000 0.016693
#
#
# Mechanical properties :
#
#
# Convention : Reuss Voigt Hill
#
# Bulk Modulus (GPa) = 30.67155 38.71712 34.69434
# Shear Modulus (GPa) = 37.69554 44.13936 40.91745
#
# Velocity S-wave (km/s) = 3.76022 4.06894 3.91762
# Velocity P-wave (km/s) = 5.50972 6.04959 5.78595
#
# Compressibility (1/GPa) = 0.03260350
#
# Stress axis : x y z
#
# Youngs Moduli (GPa) = 170.35288 77.18261 58.06208
#
# Poissons Ratio (x) = 0.10486 -0.02219
# Poissons Ratio (y) = 0.23145 0.04334
# Poissons Ratio (z) = -0.06510 0.05761
#
# Static dielectric constant tensor:
#      x y z
#    x 2.066550 0.000000 0.000000 
#    y 0.000000 2.221980 0.000000 
#    z 0.000000 0.000000 2.125060 
# 
# From -- ./inp_files/22393.got.cif
#   From: 2010.05.17/outbox.cif.g08.bks.cpg/sg57_12_cif.got.tgz:22393.got - 2010.06.03 13:58:18.
