data_PCOD9440430
_publ_section_title
;
Structure prediction by ZEFSAII (Michael W. Deem and Ramdas Pophale) SiO2 
 PCOD9440430
Probable space group: P B C M
;
_chemical_formula_sum "Si O2"
_cell_formula_units_Z 64
_cell_length_a 24.000000
_cell_length_b 15.000000
_cell_length_c 9.000000
_cell_angle_alpha 90.000000
_cell_angle_beta 90.000000
_cell_angle_gamma 90.000000
_cell_volume 3240.000000
_symmetry_space_group_name_H-M "P B C M"
_symmetry_group_IT_number 57
_symmetry_cell_setting 'orthorhombic'
loop_
_space_group_symop_operation_xyz
x,y,z
-x,-y,1/2+z
x,1/2-y,-z
-x,1/2+y,1/2-z
-x,-y,-z
x,y,1/2-z
-x,1/2+y,z
x,1/2-y,1/2+z
loop_
_atom_site_type_symbol
_atom_site_label
_atom_site_fract_x
_atom_site_fract_y
_atom_site_fract_z
Si Si1 0.598037 0.162920 0.573568
Si Si2 0.781446 0.345942 0.072005
Si Si3 0.024959 0.657187 0.424023
Si Si4 0.518769 0.592306 0.928171
Si Si5 0.887585 0.461708 0.070627
Si Si6 0.315804 0.984228 0.428593
Si Si7 0.642142 0.844426 0.428135
Si Si8 0.890828 0.658391 0.423778
O O1 0.623613 0.250000 0.500000
O O2 0.603970 0.170918 0.750000
O O3 0.533131 0.155763 0.535470
O O4 0.629285 0.072681 0.529742
O O5 0.779432 0.335450 0.250000
O O6 0.840420 0.390035 0.031743
O O7 0.734828 0.418940 0.032653
O O8 0.773211 0.250000 0.000000
O O9 0.042929 0.750000 0.500000
O O10 0.038538 0.659253 0.250000
O O11 0.055708 0.574884 0.500750
O O12 0.958134 0.652386 0.438818
O O13 0.520564 0.581458 0.750000
O O14 0.578792 0.628679 0.975838
O O15 0.500000 0.500000 0.000000
O O16 0.893270 0.465143 0.250000
O O17 0.870930 0.561545 0.020795
O O18 0.315500 0.998744 0.250000
O O19 0.318325 0.077414 0.512014
O O20 0.656025 0.750000 0.500000
O O21 0.643567 0.839300 0.250000
O O22 0.872205 0.750000 0.500000
O O23 0.877198 0.665344 0.250000
#
# Coordination Sequence:
#
# PCOD9440430 Si02
#       8
#     8   8   8   8   8   8   8   8
#     4  10  20  33  52  78 107 139 174 214 263 316
#     4  10  22  39  60  84 111 143 179 224 276 327
#     4  10  19  31  50  78 110 146 185 225 273 329
#     4  10  20  34  53  80 111 145 180 218 266 320
#     4  10  20  35  54  79 111 146 184 228 277 326
#     4  10  21  39  59  79 108 143 181 227 275 321
#     4  11  23  38  59  85 112 146 185 226 273 326
#     4   9  19  34  52  76 109 146 184 227 273 324
#
# _framework density 19.753086
#
# number of rings (size 3 to 8) (size 9 to 14) (size 15 to 20)
#    0.000    2.000    1.250    2.250    0.000    4.500 
#    0.000    0.625    0.000    1.500    0.000    0.000 
#    0.000    0.000    0.000    0.000    0.000    0.000 
#
# Total GULP energy -357228.893652 kJ/mol
# GULP energy per Si atom -5581.701463 kJ/mol
# Density = 1.970813 g / cm^3
# Si number density = 19.753086 Si / 1000 Ang^3
#
#
#
# Elastic Constant Matrix: (Units=GPa)
#
#
# Indices 1 2 3 4 5 6 
#
# 1 25.5369 21.8162 23.4466 0.0000 0.0000 0.0000
# 2 21.8162 173.9926 51.0519 0.0000 0.0000 0.0000
# 3 23.4466 51.0519 18.8286 0.0000 0.0000 0.0000
# 4 0.0000 0.0000 0.0000 37.6742 0.0000 0.0000
# 5 0.0000 0.0000 0.0000 0.0000 11.5557 0.0000
# 6 0.0000 0.0000 0.0000 0.0000 0.0000 17.8161
#
#
#
# Elastic Compliance Matrix: (Units=1/GPa)
#
#
# Indices 1 2 3 4 5 6 
#
# 1 -0.018982 -0.022284 0.084059 0.000000 0.000000 0.000000
# 2 -0.022284 0.001953 0.022453 0.000000 0.000000 0.000000
# 3 0.084059 0.022453 -0.112445 0.000000 0.000000 0.000000
# 4 0.000000 0.000000 0.000000 0.026543 0.000000 0.000000
# 5 0.000000 0.000000 0.000000 0.000000 0.086538 0.000000
# 6 0.000000 0.000000 0.000000 0.000000 0.000000 0.056129
#
#
# Mechanical properties :
#
#
# Convention : Reuss Voigt Hill
#
# Bulk Modulus (GPa) = 25.65239 45.66528 35.65883
# Shear Modulus (GPa) = -43.20544 21.54541 -10.83001
#
# Velocity S-wave (km/s) = -4.68191 3.30621 -2.34406
# Velocity P-wave (km/s) = 4.02645 6.14353 3.28106
#
# Compressibility (1/GPa) = 0.03898273
#
# Stress axis : x y z
#
# Youngs Moduli (GPa) = -52.68029 511.92513 -8.89325
#
# Poissons Ratio (x) = 11.40777 0.74756
# Poissons Ratio (y) = -1.17393 0.19968
# Poissons Ratio (z) = 4.42827 -11.49431
#
# Static dielectric constant tensor:
#      x y z
#    x 1.707600 0.000000 0.000000 
#    y 0.000000 1.677880 0.000000 
#    z 0.000000 0.000000 1.660230 
# 
# From -- ./inp_files/9414.got.cif
#   From: 2010.05.17/outbox.ucp.g08.bks.cvg/sg57_5_cif.got.tgz:9414.got - 2010.06.11 16:39:23.
