data_PCOD9440399
_publ_section_title
;
Structure prediction by ZEFSAII (Michael W. Deem and Ramdas Pophale) SiO2 
 PCOD9440399
Probable space group: P B C M
;
_chemical_formula_sum "Si O2"
_cell_formula_units_Z 64
_cell_length_a 21.000000
_cell_length_b 21.000000
_cell_length_c 9.000000
_cell_angle_alpha 90.000000
_cell_angle_beta 90.000000
_cell_angle_gamma 90.000000
_cell_volume 3969.000000
_symmetry_space_group_name_H-M "P B C M"
_symmetry_group_IT_number 57
_symmetry_cell_setting 'orthorhombic'
loop_
_space_group_symop_operation_xyz
x,y,z
-x,-y,1/2+z
x,1/2-y,-z
-x,1/2+y,1/2-z
-x,-y,-z
x,y,1/2-z
-x,1/2+y,z
x,1/2-y,1/2+z
loop_
_atom_site_type_symbol
_atom_site_label
_atom_site_fract_x
_atom_site_fract_y
_atom_site_fract_z
Si Si1 0.936546 0.181803 0.928759
Si Si2 0.298907 0.054248 0.079461
Si Si3 0.572583 0.569403 0.578800
Si Si4 0.817080 0.385731 0.927457
Si Si5 0.027913 0.064176 0.571054
Si Si6 0.169253 0.463751 0.427329
Si Si7 0.314387 0.899982 0.421354
Si Si8 0.443439 0.914928 0.578533
O O1 0.934448 0.186720 0.750000
O O2 0.987320 0.126486 0.969734
O O3 0.952111 0.250000 0.000000
O O4 0.868707 0.157756 0.991161
O O5 0.299234 0.074142 0.250000
O O6 0.307549 0.977188 0.075406
O O7 0.359484 0.082914 0.995151
O O8 0.230844 0.065686 0.004942
O O9 0.571841 0.588499 0.750000
O O10 0.511811 0.597804 0.494370
O O11 0.564683 0.492157 0.574056
O O12 0.820376 0.377260 0.750000
O O13 0.833021 0.460254 0.961054
O O14 0.745629 0.374297 0.986457
O O15 0.024850 0.057555 0.750000
O O16 0.102274 0.067217 0.528906
O O17 0.000000 0.000000 0.500000
O O18 0.177241 0.458657 0.250000
O O19 0.311015 0.879871 0.250000
O O20 0.383179 0.886377 0.491880
O O21 0.442125 0.895748 0.750000
#
# Coordination Sequence:
#
# PCOD9440399 Si02
#       8
#     8   8   8   8   8   8   8   8
#     4  11  23  37  53  73  99 129 162 199 245 297
#     4   9  16  24  35  54  79 109 145 185 227 274
#     4   9  15  22  32  46  70 106 144 183 227 273
#     4  10  18  30  48  67  90 119 153 194 240 285
#     4  10  20  34  53  75  97 124 159 201 246 295
#     4   9  17  29  45  66  90 116 149 192 239 285
#     4   9  16  25  37  55  80 109 146 188 229 273
#     4   9  15  22  32  48  71 103 145 187 226 270
#
# _framework density 16.124969
#
# number of rings (size 3 to 8) (size 9 to 14) (size 15 to 20)
#    0.000    2.500    1.250    2.250    0.000    7.500 
#    0.000    0.000    0.000    0.000    0.000    0.000 
#    0.000    0.000    0.000    1.125    0.000   17.250 
#
# Total GULP energy -356707.450861 kJ/mol
# GULP energy per Si atom -5573.553920 kJ/mol
# Density = 1.608827 g / cm^3
# Si number density = 16.124969 Si / 1000 Ang^3
#
#
#
# Elastic Constant Matrix: (Units=GPa)
#
#
# Indices 1 2 3 4 5 6 
#
# 1 163.2906 41.3410 67.0009 0.0000 0.0000 0.0000
# 2 41.3410 45.8845 31.2726 0.0000 0.0000 0.0000
# 3 67.0009 31.2726 80.1403 0.0000 0.0000 0.0000
# 4 0.0000 0.0000 0.0000 12.9907 0.0000 0.0000
# 5 0.0000 0.0000 0.0000 0.0000 30.2169 0.0000
# 6 0.0000 0.0000 0.0000 0.0000 0.0000 8.4604
#
#
#
# Elastic Compliance Matrix: (Units=1/GPa)
#
#
# Indices 1 2 3 4 5 6 
#
# 1 0.009958 -0.004493 -0.006572 0.000000 0.000000 0.000000
# 2 -0.004493 0.031717 -0.008621 0.000000 0.000000 0.000000
# 3 -0.006572 -0.008621 0.021337 0.000000 0.000000 0.000000
# 4 0.000000 0.000000 0.000000 0.076978 0.000000 0.000000
# 5 0.000000 0.000000 0.000000 0.000000 0.033094 0.000000
# 6 0.000000 0.000000 0.000000 0.000000 0.000000 0.118198
#
#
# Mechanical properties :
#
#
# Convention : Reuss Voigt Hill
#
# Bulk Modulus (GPa) = 42.29984 63.17161 52.73572
# Shear Modulus (GPa) = 14.76954 20.31364 17.54159
#
# Velocity S-wave (km/s) = 3.02974 3.55316 3.30184
# Velocity P-wave (km/s) = 6.20714 7.48963 6.87834
#
# Compressibility (1/GPa) = 0.02364075
#
# Stress axis : x y z
#
# Youngs Moduli (GPa) = 100.41913 31.52873 46.86717
#
# Poissons Ratio (x) = 0.14165 0.30803
# Poissons Ratio (y) = 0.45116 0.40402
# Poissons Ratio (z) = 0.65999 0.27180
#
# Static dielectric constant tensor:
#      x y z
#    x 1.547230 0.000000 0.000000 
#    y 0.000000 1.507630 0.000000 
#    z 0.000000 0.000000 1.543510 
# 
# From -- ./inp_files/7262.got.cif
#   From: 2010.05.17/outbox.ucp.g08.bks.cvg/sg57_4_cif.got.tgz:7262.got - 2010.06.11 16:39:23.
