data_PCOD9440480
_publ_section_title
;
Structure prediction by ZEFSAII (Michael W. Deem and Ramdas Pophale) SiO2 
 PCOD9440480
Probable space group: P B C M
;
_chemical_formula_sum "Si O2"
_cell_formula_units_Z 64
_cell_length_a 12.000000
_cell_length_b 30.000000
_cell_length_c 9.000000
_cell_angle_alpha 90.000000
_cell_angle_beta 90.000000
_cell_angle_gamma 90.000000
_cell_volume 3240.000000
_symmetry_space_group_name_H-M "P B C M"
_symmetry_group_IT_number 57
_symmetry_cell_setting 'orthorhombic'
loop_
_space_group_symop_operation_xyz
x,y,z
-x,-y,1/2+z
x,1/2-y,-z
-x,1/2+y,1/2-z
-x,-y,-z
x,y,1/2-z
-x,1/2+y,z
x,1/2-y,1/2+z
loop_
_atom_site_type_symbol
_atom_site_label
_atom_site_fract_x
_atom_site_fract_y
_atom_site_fract_z
Si Si1 0.118044 0.296003 0.426843
Si Si2 0.920061 0.606330 0.922690
Si Si3 0.238799 0.039225 0.424967
Si Si4 0.341538 0.891922 0.574412
Si Si5 0.848015 0.443249 0.421638
Si Si6 0.627926 0.821231 0.076699
Si Si7 0.441316 0.075627 0.578034
Si Si8 0.595036 0.294442 0.926093
O O1 0.081006 0.250000 0.500000
O O2 0.109287 0.290727 0.250000
O O3 0.057929 0.342493 0.467689
O O4 0.248297 0.305588 0.463012
O O5 0.880196 0.607784 0.750000
O O6 0.028199 0.575518 0.928994
O O7 0.829243 0.582165 0.022004
O O8 0.256263 0.040912 0.250000
O O9 0.357212 0.040868 0.505566
O O10 0.168958 0.994874 0.461552
O O11 0.357517 0.891699 0.750000
O O12 0.227365 0.913846 0.527524
O O13 0.441000 0.919837 0.501594
O O14 0.349349 0.840615 0.521967
O O15 0.809823 0.438079 0.250000
O O16 0.607039 0.809573 0.250000
O O17 0.612882 0.874663 0.064981
O O18 0.533777 0.799884 0.974335
O O19 0.457014 0.065639 0.750000
O O20 0.603699 0.290954 0.750000
O O21 0.641331 0.250000 0.000000
#
# Coordination Sequence:
#
# PCOD9440480 Si02
#       8
#     8   8   8   8   8   8   8   8
#     4  10  20  34  53  81 113 147 186 227 279 338
#     4  10  21  41  62  82 114 153 194 236 283 341
#     4  11  22  36  59  92 119 144 188 240 293 344
#     4  10  22  39  58  84 117 150 191 242 287 336
#     4  10  23  41  61  83 111 153 198 239 287 345
#     4   9  17  31  51  78 111 147 183 222 273 335
#     4  10  19  35  59  85 117 155 187 224 281 344
#     4  10  20  33  52  80 110 145 187 233 282 335
#
# _framework density 19.753086
#
# number of rings (size 3 to 8) (size 9 to 14) (size 15 to 20)
#    0.000    2.000    1.250    2.250    0.000    6.000 
#    0.000    0.625    0.000    3.000    0.000    0.000 
#    0.000    0.000    0.000    0.000    0.000    0.000 
#
# Total GULP energy -357292.082467 kJ/mol
# GULP energy per Si atom -5582.688789 kJ/mol
# Density = 1.970813 g / cm^3
# Si number density = 19.753086 Si / 1000 Ang^3
#
#
#
# Elastic Constant Matrix: (Units=GPa)
#
#
# Indices 1 2 3 4 5 6 
#
# 1 20.2903 -1.3774 23.7456 0.0000 0.0000 0.0000
# 2 -1.3774 52.4737 23.4233 0.0000 0.0000 0.0000
# 3 23.7456 23.4233 39.6128 0.0000 0.0000 0.0000
# 4 0.0000 0.0000 0.0000 27.7352 0.0000 0.0000
# 5 0.0000 0.0000 0.0000 0.0000 24.0565 0.0000
# 6 0.0000 0.0000 0.0000 0.0000 0.0000 12.4575
#
#
#
# Elastic Compliance Matrix: (Units=1/GPa)
#
#
# Indices 1 2 3 4 5 6 
#
# 1 -10.132062 -4.044676 8.465226 0.000000 0.000000 0.000000
# 2 -4.044676 -1.588727 3.363973 0.000000 0.000000 0.000000
# 3 8.465226 3.363973 -7.038306 0.000000 0.000000 0.000000
# 4 0.000000 0.000000 0.000000 0.036055 0.000000 0.000000
# 5 0.000000 0.000000 0.000000 0.000000 0.041569 0.000000
# 6 0.000000 0.000000 0.000000 0.000000 0.000000 0.080273
#
#
# Mechanical properties :
#
#
# Convention : Reuss Voigt Hill
#
# Bulk Modulus (GPa) = -0.31347 22.66223 11.17438
# Shear Modulus (GPa) = -0.14191 17.28886 8.57348
#
# Velocity S-wave (km/s) = -0.26832 2.96167 2.08560
# Velocity P-wave (km/s) = 0.50501 4.81591 3.38659
#
# Compressibility (1/GPa) = -3.19004964
#
# Stress axis : x y z
#
# Youngs Moduli (GPa) = -0.09870 -0.62943 -0.14208
#
# Poissons Ratio (x) = -2.54586 1.20274
# Poissons Ratio (y) = -0.39920 0.47795
# Poissons Ratio (z) = 0.83549 2.11740
#
# Static dielectric constant tensor:
#      x y z
#    x 1.684740 0.000000 0.000000 
#    y 0.000000 1.720970 0.000000 
#    z 0.000000 0.000000 1.669460 
# 
# From -- ./inp_files/3722.got.cif
#   From: 2010.05.17/outbox.ucp.g08.bks.cvg/sg57_2_cif.got.tgz:3722.got - 2010.06.11 16:39:23.
