data_PCOD9440045
_publ_section_title
;
Structure prediction by ZEFSAII (Michael W. Deem and Ramdas Pophale) SiO2 
 PCOD9440045
Probable space group: P B C M
;
_chemical_formula_sum "Si O2"
_cell_formula_units_Z 40
_cell_length_a 9.390809
_cell_length_b 14.155054
_cell_length_c 14.548648
_cell_angle_alpha 90.000000
_cell_angle_beta 90.000000
_cell_angle_gamma 90.000000
_cell_volume 1933.914076
_symmetry_space_group_name_H-M "P B C M"
_symmetry_group_IT_number 57
_symmetry_cell_setting 'orthorhombic'
loop_
_space_group_symop_operation_xyz
x,y,z
-x,-y,1/2+z
x,1/2-y,-z
-x,1/2+y,1/2-z
-x,-y,-z
x,y,1/2-z
-x,1/2+y,z
x,1/2-y,1/2+z
loop_
_atom_site_type_symbol
_atom_site_label
_atom_site_fract_x
_atom_site_fract_y
_atom_site_fract_z
Si Si1 0.638429 0.498896 0.438547
Si Si2 0.123585 0.361702 0.601942
Si Si3 0.039416 0.983905 0.250000
Si Si4 0.181730 0.652504 0.454782
Si Si5 0.764311 0.204587 0.250000
Si Si6 0.915123 0.787831 0.250000
Si Si7 0.354232 0.597913 0.750000
O O1 0.500000 0.500000 0.500000
O O2 0.724771 0.596933 0.427943
O O3 0.752899 0.431221 0.487113
O O4 0.592517 0.452920 0.341558
O O5 0.053141 0.444875 0.665029
O O6 0.146472 0.266208 0.661015
O O7 0.990308 0.347412 0.534696
O O8 0.187675 0.928983 0.250000
O O9 0.920270 0.901805 0.250000
O O10 0.233576 0.750000 0.500000
O O11 0.233843 0.650880 0.348015
O O12 0.646885 0.288285 0.250000
O O13 0.921083 0.252105 0.250000
#
# Coordination Sequence:
#
# PCOD9440045 Si02
#       7
#     8   8   4   8   4   4   4
#     4  11  23  39  61  89 128 167 210 257 324 388
#     4   9  19  34  58  95 125 158 211 265 312 380
#     4   8  15  31  60  90 128 161 201 258 329 376
#     4  11  21  37  66  92 118 164 210 261 319 386
#     4   9  17  34  61  91 116 151 214 253 301 382
#     4   8  15  31  60  92 122 162 200 257 326 374
#     4   9  17  36  61  83 118 164 205 256 314 376
#
# _framework density 20.683441999999999
#
# number of rings (size 3 to 8) (size 9 to 14) (size 15 to 20)
#    0.000    2.400    2.000    1.800    2.800    0.800 
#    0.000    1.000    0.000    4.800    0.000    0.000 
#    0.000    0.000    0.000    0.000    0.000    0.000 
#
# Total GULP energy -222821.913878 kJ/mol
# GULP energy per Si atom -5570.547847 kJ/mol
# Density = 2.063637 g / cm^3
# Si number density = 20.683442 Si / 1000 Ang^3
#
#
#
# Elastic Constant Matrix: (Units=GPa)
#
#
# Indices 1 2 3 4 5 6 
#
# 1 66.9726 17.3229 35.0024 0.0000 0.0000 0.0000
# 2 17.3229 74.4002 16.1132 0.0000 0.0000 0.0000
# 3 35.0024 16.1132 111.8693 0.0000 0.0000 0.0000
# 4 0.0000 0.0000 0.0000 -38.5503 0.0000 0.0000
# 5 0.0000 0.0000 0.0000 0.0000 29.8351 0.0000
# 6 0.0000 0.0000 0.0000 0.0000 0.0000 7.3870
#
#
#
# Elastic Compliance Matrix: (Units=1/GPa)
#
#
# Indices 1 2 3 4 5 6 
#
# 1 0.018543 -0.003159 -0.005347 0.000000 0.000000 0.000000
# 2 -0.003159 0.014412 -0.001087 0.000000 0.000000 0.000000
# 3 -0.005347 -0.001087 0.010769 0.000000 0.000000 0.000000
# 4 0.000000 0.000000 0.000000 -0.025940 0.000000 0.000000
# 5 0.000000 0.000000 0.000000 0.000000 0.033518 0.000000
# 6 0.000000 0.000000 0.000000 0.000000 0.000000 0.135373
#
#
# Mechanical properties :
#
#
# Convention : Reuss Voigt Hill
#
# Bulk Modulus (GPa) = 40.75565 43.34657 42.05111
# Shear Modulus (GPa) = 23.36016 12.05462 17.70739
#
# Velocity S-wave (km/s) = 3.36432 2.41677 2.92912
# Velocity P-wave (km/s) = 5.90244 5.36567 5.64044
#
# Compressibility (1/GPa) = 0.02453647
#
# Stress axis : x y z
#
# Youngs Moduli (GPa) = 53.92826 69.38692 92.86299
#
# Poissons Ratio (x) = 0.21923 0.49652
# Poissons Ratio (y) = 0.17039 0.10097
# Poissons Ratio (z) = 0.28834 0.07544
#
# Static dielectric constant tensor:
#      x y z
#    x 1.720930 0.000000 0.000000 
#    y 0.000000 1.799260 0.000000 
#    z 0.000000 0.000000 1.804170 
# 
# From -- ./inp_files/15985.got.cif
#   From: 2010.05.17/outbox.cif.g08.bks.cpg/sg57_8_cif.got.tgz:15985.got - 2010.06.03 13:58:18.
