data_PCOD9440023
_publ_section_title
;
Structure prediction by ZEFSAII (Michael W. Deem and Ramdas Pophale) SiO2 
 PCOD9440023
Probable space group: P B C M
;
_chemical_formula_sum "Si O2"
_cell_formula_units_Z 40
_cell_length_a 26.879836
_cell_length_b 9.206813
_cell_length_c 8.596969
_cell_angle_alpha 90.000000
_cell_angle_beta 90.000000
_cell_angle_gamma 90.000000
_cell_volume 2127.557458
_symmetry_space_group_name_H-M "P B C M"
_symmetry_group_IT_number 57
_symmetry_cell_setting 'orthorhombic'
loop_
_space_group_symop_operation_xyz
x,y,z
-x,-y,1/2+z
x,1/2-y,-z
-x,1/2+y,1/2-z
-x,-y,-z
x,y,1/2-z
-x,1/2+y,z
x,1/2-y,1/2+z
loop_
_atom_site_type_symbol
_atom_site_label
_atom_site_fract_x
_atom_site_fract_y
_atom_site_fract_z
Si Si1 0.047598 0.586531 0.063689
Si Si2 0.759442 0.413958 0.062665
Si Si3 0.650050 0.415205 0.436730
Si Si4 0.857518 0.913085 0.937574
Si Si5 0.452889 0.585763 0.064587
O O1 0.046664 0.587824 0.250000
O O2 0.046520 0.750000 0.000000
O O3 0.097113 0.506861 0.003965
O O4 0.000000 0.500000 0.000000
O O5 0.760172 0.405145 0.250000
O O6 0.704626 0.474188 0.018828
O O7 0.805404 0.513153 0.013157
O O8 0.764995 0.250000 0.000000
O O9 0.651278 0.250000 0.500000
O O10 0.645613 0.413871 0.250000
O O11 0.599831 0.480658 0.507649
O O12 0.860061 0.912795 0.750000
O O13 0.860814 0.750000 0.000000
O O14 0.453616 0.589188 0.250000
O O15 0.455257 0.750000 0.000000
O O16 0.500000 0.500000 0.000000
#
# Coordination Sequence:
#
# PCOD9440023 Si02
#       5
#     8   8   8   8   8
#     4  12  25  43  65  91 120 154 192 236 283 334
#     4   9  19  34  56  82 110 142 183 230 279 331
#     4   9  16  30  51  77 106 140 180 227 276 331
#     4  11  23  40  59  85 118 155 193 234 281 334
#     4  11  21  35  54  79 108 143 183 229 279 334
#
# _framework density 18.800903000000002
#
# number of rings (size 3 to 8) (size 9 to 14) (size 15 to 20)
#    0.000    1.600    0.000    7.200    0.000    4.000 
#    0.000    1.000    0.000    2.400    0.000    0.000 
#    0.000    0.000    0.000    0.000    0.000    0.000 
#
# Total GULP energy -223400.648813 kJ/mol
# GULP energy per Si atom -5585.016220 kJ/mol
# Density = 1.875811 g / cm^3
# Si number density = 18.800903 Si / 1000 Ang^3
#
#
#
# Elastic Constant Matrix: (Units=GPa)
#
#
# Indices 1 2 3 4 5 6 
#
# 1 230.7612 92.6959 77.6711 0.0000 0.0000 0.0000
# 2 92.6959 110.2693 44.0405 0.0000 0.0000 0.0000
# 3 77.6711 44.0405 127.6082 0.0000 0.0000 0.0000
# 4 0.0000 0.0000 0.0000 29.6501 0.0000 0.0000
# 5 0.0000 0.0000 0.0000 0.0000 32.2778 0.0000
# 6 0.0000 0.0000 0.0000 0.0000 0.0000 34.9408
#
#
#
# Elastic Compliance Matrix: (Units=1/GPa)
#
#
# Indices 1 2 3 4 5 6 
#
# 1 0.007256 -0.005029 -0.002681 0.000000 0.000000 0.000000
# 2 -0.005029 0.014004 -0.001772 0.000000 0.000000 0.000000
# 3 -0.002681 -0.001772 0.010080 0.000000 0.000000 0.000000
# 4 0.000000 0.000000 0.000000 0.033727 0.000000 0.000000
# 5 0.000000 0.000000 0.000000 0.000000 0.030981 0.000000
# 6 0.000000 0.000000 0.000000 0.000000 0.000000 0.028620
#
#
# Mechanical properties :
#
#
# Convention : Reuss Voigt Hill
#
# Bulk Modulus (GPa) = 80.80214 99.71707 90.25960
# Shear Modulus (GPa) = 33.83953 36.32250 35.08101
#
# Velocity S-wave (km/s) = 4.24711 4.40017 4.32432
# Velocity P-wave (km/s) = 8.19278 8.88645 8.54665
#
# Compressibility (1/GPa) = 0.01237591
#
# Stress axis : x y z
#
# Youngs Moduli (GPa) = 137.81919 71.40879 99.20770
#
# Poissons Ratio (x) = 0.35910 0.26596
# Poissons Ratio (y) = 0.69307 0.17581
# Poissons Ratio (z) = 0.36948 0.12655
#
# Static dielectric constant tensor:
#      x y z
#    x 1.688960 0.000000 0.000000 
#    y 0.000000 1.628530 0.000000 
#    z 0.000000 0.000000 1.632390 
# 
# From -- ./inp_files/9635.got.cif
#   From: 2010.05.17/outbox.cif.g08.bks.cpg/sg57_5_cif.got.tgz:9635.got - 2010.06.03 13:58:18.
