data_PCOD9440622
_publ_section_title
;
Structure prediction by ZEFSAII (Michael W. Deem and Ramdas Pophale) SiO2 
 PCOD9440622
Probable space group: P B C M
;
_chemical_formula_sum "Si O2"
_cell_formula_units_Z 64
_cell_length_a 12.000000
_cell_length_b 15.000000
_cell_length_c 18.000000
_cell_angle_alpha 90.000000
_cell_angle_beta 90.000000
_cell_angle_gamma 90.000000
_cell_volume 3240.000000
_symmetry_space_group_name_H-M "P B C M"
_symmetry_group_IT_number 57
_symmetry_cell_setting 'orthorhombic'
loop_
_space_group_symop_operation_xyz
x,y,z
-x,-y,1/2+z
x,1/2-y,-z
-x,1/2+y,1/2-z
-x,-y,-z
x,y,1/2-z
-x,1/2+y,z
x,1/2-y,1/2+z
loop_
_atom_site_type_symbol
_atom_site_label
_atom_site_fract_x
_atom_site_fract_y
_atom_site_fract_z
Si Si1 0.233732 0.311957 0.665984
Si Si2 0.998988 0.557572 0.661166
Si Si3 0.555329 0.728666 0.912998
Si Si4 0.478947 0.968343 0.415853
Si Si5 0.401315 0.869281 0.838238
Si Si6 0.259355 0.522394 0.833792
Si Si7 0.981409 0.754198 0.412201
Si Si8 0.858986 0.381436 0.660951
O O1 0.209056 0.281717 0.750000
O O2 0.336994 0.260693 0.631439
O O3 0.263790 0.415545 0.668774
O O4 0.125809 0.299400 0.616048
O O5 0.982168 0.569780 0.750000
O O6 0.131395 0.545304 0.649345
O O7 0.965862 0.645653 0.617135
O O8 0.928445 0.470014 0.638803
O O9 0.540942 0.624038 0.903415
O O10 0.451073 0.784433 0.881105
O O11 0.567701 0.750000 0.000000
O O12 0.500000 0.000000 0.500000
O O13 0.526464 0.045746 0.363242
O O14 0.350392 0.950376 0.394259
O O15 0.411828 0.855412 0.750000
O O16 0.271891 0.887130 0.856259
O O17 0.286095 0.556472 0.750000
O O18 0.990467 0.750000 0.500000
O O19 0.087150 0.705428 0.375827
O O20 0.871287 0.373355 0.750000
#
# Coordination Sequence:
#
# PCOD9440622 Si02
#       8
#     8   8   8   8   8   8   8   8
#     4  11  22  43  69  93 129 171 219 275 321 380
#     4  10  22  43  69  95 123 169 224 272 319 381
#     4  12  25  44  67  98 133 176 220 268 339 392
#     4  12  25  43  67  96 135 177 212 273 331 397
#     4  11  25  44  66  98 135 173 222 275 328 397
#     4  10  21  41  69  94 124 168 224 273 318 383
#     4  12  26  41  63  99 134 171 213 265 327 395
#     4  10  23  45  67  91 130 172 217 273 325 376
#
# _framework density 19.753086
#
# number of rings (size 3 to 8) (size 9 to 14) (size 15 to 20)
#    0.000    1.000    3.750    2.250    3.500    4.000 
#    0.000    0.000    0.000    0.000    0.000    0.000 
#    0.000    0.000    0.000    0.000    0.000    0.000 
#
# Total GULP energy -357791.651942 kJ/mol
# GULP energy per Si atom -5590.494562 kJ/mol
# Density = 1.970813 g / cm^3
# Si number density = 19.753086 Si / 1000 Ang^3
#
#
#
# Elastic Constant Matrix: (Units=GPa)
#
#
# Indices 1 2 3 4 5 6 
#
# 1 52.5768 -14.7516 -0.7136 0.0000 0.0000 0.0000
# 2 -14.7516 46.5721 9.9681 0.0000 0.0000 0.0000
# 3 -0.7136 9.9681 8.7575 0.0000 0.0000 0.0000
# 4 0.0000 0.0000 0.0000 39.0293 0.0000 0.0000
# 5 0.0000 0.0000 0.0000 0.0000 -52.5501 0.0000
# 6 0.0000 0.0000 0.0000 0.0000 0.0000 14.2306
#
#
#
# Elastic Compliance Matrix: (Units=1/GPa)
#
#
# Indices 1 2 3 4 5 6 
#
# 1 0.021275 0.008419 -0.007849 0.000000 0.000000 0.000000
# 2 0.008419 0.031720 -0.035418 0.000000 0.000000 0.000000
# 3 -0.007849 -0.035418 0.153862 0.000000 0.000000 0.000000
# 4 0.000000 0.000000 0.000000 0.025622 0.000000 0.000000
# 5 0.000000 0.000000 0.000000 0.000000 -0.019029 0.000000
# 6 0.000000 0.000000 0.000000 0.000000 0.000000 0.070271
#
#
# Mechanical properties :
#
#
# Convention : Reuss Voigt Hill
#
# Bulk Modulus (GPa) = 7.29074 10.76805 9.02940
# Shear Modulus (GPa) = 12.52700 7.70220 10.11460
#
# Velocity S-wave (km/s) = 2.52102 1.97679 2.26531
# Velocity P-wave (km/s) = 3.48899 3.26702 3.37983
#
# Compressibility (1/GPa) = 0.13716021
#
# Stress axis : x y z
#
# Youngs Moduli (GPa) = 47.00274 31.52634 6.49931
#
# Poissons Ratio (x) = -0.26542 0.05101
# Poissons Ratio (y) = -0.39571 0.23019
# Poissons Ratio (z) = 0.36893 1.11661
#
# Static dielectric constant tensor:
#      x y z
#    x 1.607990 0.000000 0.000000 
#    y 0.000000 1.650310 0.000000 
#    z 0.000000 0.000000 1.683990 
# 
# From -- ./inp_files/22089.got.cif
#   From: 2010.05.17/outbox.ucp.g08.bks.cvg/sg57_12_cif.got.tgz:22089.got - 2010.06.11 16:39:23.
