data_PCOD9440672
_publ_section_title
;
Structure prediction by ZEFSAII (Michael W. Deem and Ramdas Pophale) SiO2 
 PCOD9440672
Probable space group: P N N M
;
_chemical_formula_sum "Si O2"
_cell_formula_units_Z 56
_cell_length_a 5.301295
_cell_length_b 25.164405
_cell_length_c 21.223365
_cell_angle_alpha 90.000000
_cell_angle_beta 90.000000
_cell_angle_gamma 90.000000
_cell_volume 2831.280392
_symmetry_space_group_name_H-M "P N N M"
_symmetry_group_IT_number 58
_symmetry_cell_setting 'orthorhombic'
loop_
_space_group_symop_operation_xyz
x,y,z
-x,-y,z
1/2+x,1/2-y,1/2-z
1/2-x,1/2+y,1/2-z
-x,-y,-z
x,y,-z
1/2-x,1/2+y,1/2+z
1/2+x,1/2-y,1/2+z
loop_
_atom_site_type_symbol
_atom_site_label
_atom_site_fract_x
_atom_site_fract_y
_atom_site_fract_z
Si Si1 0.294259 0.939681 0.135593
Si Si2 0.705132 0.367753 0.365139
Si Si3 0.266778 0.714653 0.250115
Si Si4 0.208400 0.942690 0.000000
Si Si5 0.208703 0.627174 0.500000
Si Si6 0.750197 0.479916 0.102576
Si Si7 0.259400 0.111533 0.313569
Si Si8 0.758955 0.053553 0.728354
O O1 0.567099 0.911028 0.138086
O O2 0.257892 0.970167 0.201586
O O3 0.068884 0.895857 0.136670
O O4 0.255955 0.969027 0.068451
O O5 0.731517 0.324818 0.310300
O O6 0.742404 0.343069 0.434750
O O7 0.520950 0.748681 0.248794
O O8 0.255050 0.674357 0.190952
O O9 0.425889 0.896901 0.000000
O O10 0.924684 0.919306 0.000000
O O11 0.500000 0.500000 0.070877
O O12 0.753146 0.418050 0.119218
O O13 0.749184 0.511510 0.171113
O O14 0.000000 0.500000 0.070758
O O15 0.519396 0.091772 0.282033
O O16 0.014222 0.087313 0.278711
#
# Coordination Sequence:
#
# PCOD9440672 Si02
#       8
#     8   8   8   4   4   8   8   8
#     4  10  15  26  41  58  79 102 127 171 209 243
#     4  10  18  30  42  59  81 105 138 173 210 239
#     4  12  22  30  42  61  85 114 136 164 208 256
#     4   8  16  22  36  60  77  96 128 158 214 255
#     4   8  16  28  44  56  73 102 136 176 206 239
#     4   8  16  25  40  58  72  92 132 167 199 234
#     4  10  18  30  39  56  79 103 132 169 199 235
#     4  10  15  26  44  59  73 100 127 169 207 235
#
# _framework density 19.779038
#
# number of rings (size 3 to 8) (size 9 to 14) (size 15 to 20)
#    0.000    2.286    2.857    1.714    0.000    0.000 
#    0.000    0.000    0.000    0.000    0.000   10.000 
#    0.000    0.000    0.000    0.000    0.000    0.000 
#
# Total GULP energy -312285.267996 kJ/mol
# GULP energy per Si atom -5576.522643 kJ/mol
# Density = 1.973402 g / cm^3
# Si number density = 19.779038 Si / 1000 Ang^3
#
#
#
# Elastic Constant Matrix: (Units=GPa)
#
#
# Indices 1 2 3 4 5 6 
#
# 1 178.8292 47.3627 2.2353 0.0000 0.0000 0.0000
# 2 47.3627 84.5066 9.7199 0.0000 0.0000 0.0000
# 3 2.2353 9.7199 88.7214 0.0000 0.0000 0.0000
# 4 0.0000 0.0000 0.0000 -0.1202 0.0000 0.0000
# 5 0.0000 0.0000 0.0000 0.0000 120.5618 0.0000
# 6 0.0000 0.0000 0.0000 0.0000 0.0000 34.9240
#
#
#
# Elastic Compliance Matrix: (Units=1/GPa)
#
#
# Indices 1 2 3 4 5 6 
#
# 1 0.006572 -0.003711 0.000241 0.000000 0.000000 0.000000
# 2 -0.003711 0.014080 -0.001449 0.000000 0.000000 0.000000
# 3 0.000241 -0.001449 0.011424 0.000000 0.000000 0.000000
# 4 0.000000 0.000000 0.000000 -8.318651 0.000000 0.000000
# 5 0.000000 0.000000 0.000000 0.000000 0.008295 0.000000
# 6 0.000000 0.000000 0.000000 0.000000 0.000000 0.028634
#
#
# Mechanical properties :
#
#
# Convention : Reuss Voigt Hill
#
# Bulk Modulus (GPa) = 44.96890 52.29923 48.63406
# Shear Modulus (GPa) = -0.60736 50.58906 24.99085
#
# Velocity S-wave (km/s) = -0.55474 5.06287 3.55843
# Velocity P-wave (km/s) = 4.73019 7.78948 6.44402
#
# Compressibility (1/GPa) = 0.02223759
#
# Stress axis : x y z
#
# Youngs Moduli (GPa) = 152.16641 71.02329 87.53569
#
# Poissons Ratio (x) = 0.26356 -0.02109
# Poissons Ratio (y) = 0.56468 0.12684
# Poissons Ratio (z) = -0.03667 0.10291
#
# Static dielectric constant tensor:
#      x y z
#    x 1.826650 0.000000 0.000000 
#    y 0.000000 1.677250 0.000000 
#    z 0.000000 0.000000 1.751980 
# 
# From -- ./inp_files/31085.got.cif
#   From: 2010.05.17/outbox.cif.g08.bks.cpg/sg58_16_cif.got.tgz:31085.got - 2010.06.03 14:20:14.
