data_PCOD9440437
_publ_section_title
;
Structure prediction by ZEFSAII (Michael W. Deem and Ramdas Pophale) SiO2 
 PCOD9440437
Probable space group: P B C M
;
_chemical_formula_sum "Si O2"
_cell_formula_units_Z 64
_cell_length_a 15.000000
_cell_length_b 30.000000
_cell_length_c 9.000000
_cell_angle_alpha 90.000000
_cell_angle_beta 90.000000
_cell_angle_gamma 90.000000
_cell_volume 4050.000000
_symmetry_space_group_name_H-M "P B C M"
_symmetry_group_IT_number 57
_symmetry_cell_setting 'orthorhombic'
loop_
_space_group_symop_operation_xyz
x,y,z
-x,-y,1/2+z
x,1/2-y,-z
-x,1/2+y,1/2-z
-x,-y,-z
x,y,1/2-z
-x,1/2+y,z
x,1/2-y,1/2+z
loop_
_atom_site_type_symbol
_atom_site_label
_atom_site_fract_x
_atom_site_fract_y
_atom_site_fract_z
Si Si1 0.502969 0.703482 0.427919
Si Si2 0.293227 0.704543 0.427519
Si Si3 0.797127 0.386669 0.572231
Si Si4 0.362150 0.940241 0.071813
Si Si5 0.331345 0.040718 0.072039
Si Si6 0.457000 0.387807 0.427564
Si Si7 0.877145 0.531910 0.073659
Si Si8 0.954089 0.433143 0.074411
O O1 0.533191 0.750000 0.500000
O O2 0.511337 0.704984 0.250000
O O3 0.397569 0.698528 0.466539
O O4 0.549139 0.660097 0.495167
O O5 0.261252 0.750000 0.500000
O O6 0.288833 0.708202 0.250000
O O7 0.237628 0.661812 0.474791
O O8 0.796888 0.389424 0.750000
O O9 0.724897 0.421073 0.507392
O O10 0.893800 0.397503 0.509021
O O11 0.348699 0.937442 0.250000
O O12 0.448637 0.911307 0.031659
O O13 0.372498 0.992313 0.034828
O O14 0.340956 0.047344 0.250000
O O15 0.226165 0.038618 0.037516
O O16 0.380775 0.079319 0.984605
O O17 0.454922 0.383086 0.250000
O O18 0.888787 0.539138 0.250000
O O19 0.906803 0.480989 0.043517
O O20 0.945826 0.562628 0.985133
O O21 0.952434 0.425899 0.250000
#
# Coordination Sequence:
#
# PCOD9440437 Si02
#       8
#     8   8   8   8   8   8   8   8
#     4  10  19  34  52  72  98 129 166 208 254 297
#     4   9  19  32  48  71  97 128 164 203 246 295
#     4  11  20  31  49  74 101 131 168 204 246 299
#     4  10  20  34  48  68 100 137 174 208 243 290
#     4  10  20  35  51  68  99 137 173 212 251 292
#     4  11  22  33  49  74 101 134 173 209 250 300
#     4   9  18  33  50  70  96 128 166 207 248 289
#     4  10  19  32  50  72  98 128 163 203 248 295
#
# _framework density 15.802469
#
# number of rings (size 3 to 8) (size 9 to 14) (size 15 to 20)
#    0.000    2.000    2.500    1.875    0.000    3.500 
#    0.000    0.000    0.000    0.000    0.000    0.875 
#    0.000    4.000    0.000    0.000    0.000    0.000 
#
# Total GULP energy -357104.401993 kJ/mol
# GULP energy per Si atom -5579.756281 kJ/mol
# Density = 1.576650 g / cm^3
# Si number density = 15.802469 Si / 1000 Ang^3
#
#
#
# Elastic Constant Matrix: (Units=GPa)
#
#
# Indices 1 2 3 4 5 6 
#
# 1 44.1999 31.6905 22.4357 0.0000 0.0000 0.0000
# 2 31.6905 115.3278 41.3571 0.0000 0.0000 0.0000
# 3 22.4357 41.3571 18.6770 0.0000 0.0000 0.0000
# 4 0.0000 0.0000 0.0000 24.4240 0.0000 0.0000
# 5 0.0000 0.0000 0.0000 0.0000 24.2518 0.0000
# 6 0.0000 0.0000 0.0000 0.0000 0.0000 16.7911
#
#
#
# Elastic Compliance Matrix: (Units=1/GPa)
#
#
# Indices 1 2 3 4 5 6 
#
# 1 0.276056 0.209104 -0.794636 0.000000 0.000000 0.000000
# 2 0.209104 0.200495 -0.695148 0.000000 0.000000 0.000000
# 3 -0.794636 -0.695148 2.547383 0.000000 0.000000 0.000000
# 4 0.000000 0.000000 0.000000 0.040943 0.000000 0.000000
# 5 0.000000 0.000000 0.000000 0.000000 0.041234 0.000000
# 6 0.000000 0.000000 0.000000 0.000000 0.000000 0.059555
#
#
# Mechanical properties :
#
#
# Convention : Reuss Voigt Hill
#
# Bulk Modulus (GPa) = 2.16182 41.01902 21.59042
# Shear Modulus (GPa) = 0.85016 18.60812 9.72914
#
# Velocity S-wave (km/s) = 0.73428 3.43526 2.48397
# Velocity P-wave (km/s) = 1.44564 6.46130 4.68179
#
# Compressibility (1/GPa) = 0.46257381
#
# Stress axis : x y z
#
# Youngs Moduli (GPa) = 3.62246 4.98764 0.39256
#
# Poissons Ratio (x) = -1.04293 0.31194
# Poissons Ratio (y) = -0.75747 0.27289
# Poissons Ratio (z) = 2.87853 3.46715
#
# Static dielectric constant tensor:
#      x y z
#    x 1.509970 0.000000 0.000000 
#    y 0.000000 1.523830 0.000000 
#    z 0.000000 0.000000 1.525990 
# 
# From -- ./inp_files/5956.got.cif
#   From: 2010.05.17/outbox.ucp.g08.bks.cvg/sg57_3_cif.got.tgz:5956.got - 2010.06.11 16:39:23.
