data_PCOD9440299
_publ_section_title
;
Structure prediction by ZEFSAII (Michael W. Deem and Ramdas Pophale) SiO2 
 PCOD9440299
Probable space group: P B C M
;
_chemical_formula_sum "Si O2"
_cell_formula_units_Z 48
_cell_length_a 4.863253
_cell_length_b 16.857737
_cell_length_c 25.757907
_cell_angle_alpha 90.000000
_cell_angle_beta 90.000000
_cell_angle_gamma 90.000000
_cell_volume 2111.721824
_symmetry_space_group_name_H-M "P B C M"
_symmetry_group_IT_number 57
_symmetry_cell_setting 'orthorhombic'
loop_
_space_group_symop_operation_xyz
x,y,z
-x,-y,1/2+z
x,1/2-y,-z
-x,1/2+y,1/2-z
-x,-y,-z
x,y,1/2-z
-x,1/2+y,z
x,1/2-y,1/2+z
loop_
_atom_site_type_symbol
_atom_site_label
_atom_site_fract_x
_atom_site_fract_y
_atom_site_fract_z
Si Si1 0.609260 0.857001 0.809331
Si Si2 0.861134 0.917675 0.015237
Si Si3 0.880528 0.214634 0.363194
Si Si4 0.381819 0.961144 0.189629
Si Si5 0.123743 0.108761 0.633323
Si Si6 0.368869 0.829116 0.526017
O O1 0.705537 0.847668 0.750000
O O2 0.859133 0.838572 0.847760
O O3 0.356206 0.798978 0.820793
O O4 0.516660 0.948206 0.816047
O O5 0.781956 0.914575 0.075561
O O6 0.400002 0.103897 0.020025
O O7 0.100778 0.853472 0.006403
O O8 0.000000 0.000000 0.000000
O O9 0.996551 0.303379 0.366715
O O10 0.735928 0.187955 0.416447
O O11 0.310950 0.948366 0.250000
O O12 0.116402 0.947970 0.154172
O O13 0.618225 0.901761 0.171050
O O14 0.490518 0.750000 0.500000
#
# Coordination Sequence:
#
# PCOD9440299 Si02
#       6
#     8   8   8   8   8   8
#     4  11  26  47  72 105 141 185 241 294 356 429
#     4  12  28  46  70 107 143 187 240 295 347 427
#     4  12  26  44  74 105 139 188 234 293 356 426
#     4  11  26  47  71 100 141 186 232 293 359 418
#     4  12  26  45  71 106 141 184 239 291 355 424
#     4  12  26  48  72 102 147 187 230 288 361 421
#
# _framework density 22.730267000000001
#
# number of rings (size 3 to 8) (size 9 to 14) (size 15 to 20)
#    0.000    0.333    1.667    6.000    9.333    6.667 
#    0.000    0.000    0.000    0.000    0.000    0.000 
#    0.000    0.000    0.000    0.000    0.000    0.000 
#
# Total GULP energy -268975.865164 kJ/mol
# GULP energy per Si atom -5603.663858 kJ/mol
# Density = 2.267853 g / cm^3
# Si number density = 22.730267 Si / 1000 Ang^3
#
#
#
# Elastic Constant Matrix: (Units=GPa)
#
#
# Indices 1 2 3 4 5 6 
#
# 1 101.7910 22.4325 17.0052 0.0000 0.0000 0.0000
# 2 22.4325 82.5340 56.7003 0.0000 0.0000 0.0000
# 3 17.0052 56.7003 98.0231 0.0000 0.0000 0.0000
# 4 0.0000 0.0000 0.0000 28.8338 0.0000 0.0000
# 5 0.0000 0.0000 0.0000 0.0000 32.5854 0.0000
# 6 0.0000 0.0000 0.0000 0.0000 0.0000 43.9744
#
#
#
# Elastic Compliance Matrix: (Units=1/GPa)
#
#
# Indices 1 2 3 4 5 6 
#
# 1 0.010455 -0.002648 -0.000282 0.000000 0.000000 0.000000
# 2 -0.002648 0.020777 -0.011559 0.000000 0.000000 0.000000
# 3 -0.000282 -0.011559 0.016937 0.000000 0.000000 0.000000
# 4 0.000000 0.000000 0.000000 0.034681 0.000000 0.000000
# 5 0.000000 0.000000 0.000000 0.000000 0.030689 0.000000
# 6 0.000000 0.000000 0.000000 0.000000 0.000000 0.022740
#
#
# Mechanical properties :
#
#
# Convention : Reuss Voigt Hill
#
# Bulk Modulus (GPa) = 52.10823 52.73602 52.42213
# Shear Modulus (GPa) = 29.12865 33.49274 31.31069
#
# Velocity S-wave (km/s) = 3.58368 3.84277 3.71548
# Velocity P-wave (km/s) = 6.33230 6.55288 6.44354
#
# Compressibility (1/GPa) = 0.01919083
#
# Stress axis : x y z
#
# Youngs Moduli (GPa) = 95.65091 48.13117 59.04379
#
# Poissons Ratio (x) = 0.12744 0.01666
# Poissons Ratio (y) = 0.25326 0.68247
# Poissons Ratio (z) = 0.02699 0.55633
#
# Static dielectric constant tensor:
#      x y z
#    x 1.815100 0.000000 0.000000 
#    y 0.000000 1.877310 0.000000 
#    z 0.000000 0.000000 1.887020 
# 
# From -- ./inp_files/27953.got.cif
#   From: 2010.05.17/outbox.cif.g08.bks.cpg/sg57_14_cif.got.tgz:27953.got - 2010.06.03 13:58:18.
