data_PCOD9440037
_publ_section_title
;
Structure prediction by ZEFSAII (Michael W. Deem and Ramdas Pophale) SiO2 
 PCOD9440037
Probable space group: P B C M
;
_chemical_formula_sum "Si O2"
_cell_formula_units_Z 40
_cell_length_a 26.849475
_cell_length_b 9.248372
_cell_length_c 8.580222
_cell_angle_alpha 90.000000
_cell_angle_beta 90.000000
_cell_angle_gamma 90.000000
_cell_volume 2130.588669
_symmetry_space_group_name_H-M "P B C M"
_symmetry_group_IT_number 57
_symmetry_cell_setting 'orthorhombic'
loop_
_space_group_symop_operation_xyz
x,y,z
-x,-y,1/2+z
x,1/2-y,-z
-x,1/2+y,1/2-z
-x,-y,-z
x,y,1/2-z
-x,1/2+y,z
x,1/2-y,1/2+z
loop_
_atom_site_type_symbol
_atom_site_label
_atom_site_fract_x
_atom_site_fract_y
_atom_site_fract_z
Si Si1 0.745967 0.914521 0.562745
Si Si2 0.855399 0.586672 0.062195
Si Si3 0.452545 0.587269 0.936448
Si Si4 0.047203 0.587930 0.937502
Si Si5 0.358014 0.085405 0.563910
O O1 0.747516 0.750000 0.500000
O O2 0.741125 0.914102 0.750000
O O3 0.800561 0.974093 0.518970
O O4 0.695693 0.976789 0.489244
O O5 0.856321 0.594444 0.250000
O O6 0.901716 0.490171 0.010411
O O7 0.860462 0.750000 0.000000
O O8 0.453634 0.588398 0.750000
O O9 0.454057 0.750000 0.000000
O O10 0.500000 0.500000 0.000000
O O11 0.402841 0.507794 0.995416
O O12 0.045993 0.588670 0.750000
O O13 0.045414 0.750000 0.000000
O O14 0.000000 0.500000 0.000000
O O15 0.361823 0.250000 0.500000
O O16 0.360562 0.089621 0.750000
#
# Coordination Sequence:
#
# PCOD9440037 Si02
#       5
#     8   8   8   8   8
#     4   9  16  30  52  80 111 146 185 230 276 328
#     4   9  19  34  55  81 111 144 184 229 278 330
#     4  12  25  43  63  87 116 150 189 234 283 336
#     4  11  23  39  57  81 110 145 185 231 281 336
#     4  11  21  36  58  87 118 153 192 234 279 330
#
# _framework density 18.774153999999999
#
# number of rings (size 3 to 8) (size 9 to 14) (size 15 to 20)
#    0.000    1.600    0.000    7.200    0.000    4.000 
#    0.000    1.000    0.000    2.400    0.000    0.000 
#    0.000    0.000    0.000    0.000    0.000    0.000 
#
# Total GULP energy -223409.055064 kJ/mol
# GULP energy per Si atom -5585.226377 kJ/mol
# Density = 1.873142 g / cm^3
# Si number density = 18.774154 Si / 1000 Ang^3
#
#
#
# Elastic Constant Matrix: (Units=GPa)
#
#
# Indices 1 2 3 4 5 6 
#
# 1 232.6115 98.9729 74.1979 0.0000 0.0000 0.0000
# 2 98.9729 112.6785 45.1263 0.0000 0.0000 0.0000
# 3 74.1979 45.1263 130.1325 0.0000 0.0000 0.0000
# 4 0.0000 0.0000 0.0000 30.1089 0.0000 0.0000
# 5 0.0000 0.0000 0.0000 0.0000 33.5914 0.0000
# 6 0.0000 0.0000 0.0000 0.0000 0.0000 35.0428
#
#
#
# Elastic Compliance Matrix: (Units=1/GPa)
#
#
# Indices 1 2 3 4 5 6 
#
# 1 0.007406 -0.005591 -0.002284 0.000000 0.000000 0.000000
# 2 -0.005591 0.014526 -0.001850 0.000000 0.000000 0.000000
# 3 -0.002284 -0.001850 0.009628 0.000000 0.000000 0.000000
# 4 0.000000 0.000000 0.000000 0.033213 0.000000 0.000000
# 5 0.000000 0.000000 0.000000 0.000000 0.029770 0.000000
# 6 0.000000 0.000000 0.000000 0.000000 0.000000 0.028537
#
#
# Mechanical properties :
#
#
# Convention : Reuss Voigt Hill
#
# Bulk Modulus (GPa) = 82.56410 101.33517 91.94964
# Shear Modulus (GPa) = 34.11427 36.89031 35.50229
#
# Velocity S-wave (km/s) = 4.26736 4.43759 4.35330
# Velocity P-wave (km/s) = 8.26761 8.96378 8.62272
#
# Compressibility (1/GPa) = 0.01211180
#
# Stress axis : x y z
#
# Youngs Moduli (GPa) = 135.01828 68.84083 103.86087
#
# Poissons Ratio (x) = 0.38487 0.23724
# Poissons Ratio (y) = 0.75485 0.19210
# Poissons Ratio (z) = 0.30841 0.12733
#
# Static dielectric constant tensor:
#      x y z
#    x 1.685290 0.000000 0.000000 
#    y 0.000000 1.635400 0.000000 
#    z 0.000000 0.000000 1.632520 
# 
# From -- ./inp_files/8926.got.cif
#   From: 2010.05.17/outbox.cif.g08.bks.cpg/sg57_5_cif.got.tgz:8926.got - 2010.06.03 13:58:18.
