data_PCOD9440497
_publ_section_title
;
Structure prediction by ZEFSAII (Michael W. Deem and Ramdas Pophale) SiO2 
 PCOD9440497
Probable space group: P B C M
;
_chemical_formula_sum "Si O2"
_cell_formula_units_Z 64
_cell_length_a 21.000000
_cell_length_b 18.000000
_cell_length_c 9.000000
_cell_angle_alpha 90.000000
_cell_angle_beta 90.000000
_cell_angle_gamma 90.000000
_cell_volume 3402.000000
_symmetry_space_group_name_H-M "P B C M"
_symmetry_group_IT_number 57
_symmetry_cell_setting 'orthorhombic'
loop_
_space_group_symop_operation_xyz
x,y,z
-x,-y,1/2+z
x,1/2-y,-z
-x,1/2+y,1/2-z
-x,-y,-z
x,y,1/2-z
-x,1/2+y,z
x,1/2-y,1/2+z
loop_
_atom_site_type_symbol
_atom_site_label
_atom_site_fract_x
_atom_site_fract_y
_atom_site_fract_z
Si Si1 0.768839 0.357218 0.418070
Si Si2 0.892469 0.320367 0.576033
Si Si3 0.065027 0.980272 0.574624
Si Si4 0.350314 0.599572 0.077266
Si Si5 0.682907 0.549765 0.076082
Si Si6 0.454319 0.673190 0.580270
Si Si7 0.606261 0.826872 0.421670
Si Si8 0.818220 0.528637 0.414904
O O1 0.775624 0.329089 0.250000
O O2 0.818548 0.323496 0.532195
O O3 0.698105 0.350874 0.480436
O O4 0.788809 0.444760 0.414154
O O5 0.923242 0.250000 0.500000
O O6 0.899756 0.315714 0.750000
O O7 0.919374 0.397534 0.519439
O O8 0.059376 0.979324 0.750000
O O9 0.124467 0.030788 0.528236
O O10 0.000000 0.000000 0.500000
O O11 0.344599 0.615661 0.250000
O O12 0.329743 0.516718 0.037545
O O13 0.420688 0.610726 0.016150
O O14 0.676058 0.526941 0.250000
O O15 0.755672 0.576715 0.056485
O O16 0.634249 0.611658 0.028905
O O17 0.437529 0.750000 0.500000
O O18 0.431624 0.671702 0.750000
O O19 0.529985 0.666593 0.581097
O O20 0.622889 0.750000 0.500000
O O21 0.628374 0.831972 0.250000
O O22 0.843442 0.543132 0.250000
#
# Coordination Sequence:
#
# PCOD9440497 Si02
#       8
#     8   8   8   8   8   8   8   8
#     4   9  17  31  49  70  99 133 166 204 249 298
#     4  10  20  33  50  75 104 137 176 216 255 299
#     4  10  20  33  53  79 107 140 176 211 251 303
#     4  11  21  33  51  76 105 137 174 215 260 311
#     4  10  20  35  56  80 106 136 170 214 263 310
#     4  10  21  37  53  71  98 133 173 216 264 317
#     4  10  21  37  57  78 101 132 171 217 268 323
#     4   8  16  31  51  75 102 130 161 200 246 293
#
# _framework density 18.812463000000001
#
# number of rings (size 3 to 8) (size 9 to 14) (size 15 to 20)
#    0.000    2.250    0.000    4.125    0.000    7.500 
#    0.000    2.500    0.000    0.750    0.000    3.500 
#    0.000    0.000    0.000    0.000    0.000    0.000 
#
# Total GULP energy -356366.829586 kJ/mol
# GULP energy per Si atom -5568.231712 kJ/mol
# Density = 1.876965 g / cm^3
# Si number density = 18.812463 Si / 1000 Ang^3
#
#
#
# Elastic Constant Matrix: (Units=GPa)
#
#
# Indices 1 2 3 4 5 6 
#
# 1 -12.0671 20.8223 24.9327 0.0000 0.0000 0.0000
# 2 20.8223 16.7558 2.0752 0.0000 0.0000 0.0000
# 3 24.9327 2.0752 50.9440 0.0000 0.0000 0.0000
# 4 0.0000 0.0000 0.0000 15.5107 0.0000 0.0000
# 5 0.0000 0.0000 0.0000 0.0000 157.8850 0.0000
# 6 0.0000 0.0000 0.0000 0.0000 0.0000 -353.3701
#
#
#
# Elastic Compliance Matrix: (Units=1/GPa)
#
#
# Indices 1 2 3 4 5 6 
#
# 1 -0.020920 0.024854 0.009226 0.000000 0.000000 0.000000
# 2 0.024854 0.030455 -0.013405 0.000000 0.000000 0.000000
# 3 0.009226 -0.013405 0.015660 0.000000 0.000000 0.000000
# 4 0.000000 0.000000 0.000000 0.064471 0.000000 0.000000
# 5 0.000000 0.000000 0.000000 0.000000 0.006334 0.000000
# 6 0.000000 0.000000 0.000000 0.000000 0.000000 -0.002830
#
#
# Mechanical properties :
#
#
# Convention : Reuss Voigt Hill
#
# Bulk Modulus (GPa) = 15.02713 16.81034 15.91874
# Shear Modulus (GPa) = 67.56720 -35.47470 16.04625
#
# Velocity S-wave (km/s) = 5.99951 -4.34718 2.92371
# Velocity P-wave (km/s) = 7.48314 4.03015 4.45843
#
# Compressibility (1/GPa) = 0.06654631
#
# Stress axis : x y z
#
# Youngs Moduli (GPa) = -47.80135 32.83585 63.85672
#
# Poissons Ratio (x) = -0.81611 -0.58915
# Poissons Ratio (y) = 1.18807 0.85598
# Poissons Ratio (z) = 0.44102 0.44015
#
# Static dielectric constant tensor:
#      x y z
#    x 1.702590 0.000000 0.000000 
#    y 0.000000 1.566250 0.000000 
#    z 0.000000 0.000000 1.636020 
# 
# From -- ./inp_files/8592.got.cif
#   From: 2010.05.17/outbox.ucp.g08.bks.cvg/sg57_5_cif.got.tgz:8592.got - 2010.06.11 16:39:23.
