data_PCOD9440764
_publ_section_title
;
Structure prediction by ZEFSAII (Michael W. Deem and Ramdas Pophale) SiO2 
 PCOD9440764
Probable space group: P N N M
;
_chemical_formula_sum "Si O2"
_cell_formula_units_Z 52
_cell_length_a 27.767002
_cell_length_b 5.570528
_cell_length_c 14.825781
_cell_angle_alpha 90.000000
_cell_angle_beta 90.000000
_cell_angle_gamma 90.000000
_cell_volume 2293.205284
_symmetry_space_group_name_H-M "P N N M"
_symmetry_group_IT_number 58
_symmetry_cell_setting 'orthorhombic'
loop_
_space_group_symop_operation_xyz
x,y,z
-x,-y,z
1/2+x,1/2-y,1/2-z
1/2-x,1/2+y,1/2-z
-x,-y,-z
x,y,-z
1/2-x,1/2+y,1/2+z
1/2+x,1/2-y,1/2+z
loop_
_atom_site_type_symbol
_atom_site_label
_atom_site_fract_x
_atom_site_fract_y
_atom_site_fract_z
Si Si1 0.432247 0.340370 0.098138
Si Si2 0.702207 0.431898 0.159905
Si Si3 0.651841 0.426794 0.358207
Si Si4 0.340787 0.067139 0.857786
Si Si5 0.552432 0.375790 0.274194
Si Si6 0.000000 0.500000 0.317124
Si Si7 0.816559 0.426385 0.148420
O O1 0.393134 0.128076 0.104529
O O2 0.424945 0.513407 0.182453
O O3 0.482786 0.214345 0.119877
O O4 0.430240 0.452704 0.000000
O O5 0.679637 0.434774 0.260627
O O6 0.688986 0.690664 0.117859
O O7 0.759481 0.410806 0.164317
O O8 0.680837 0.190021 0.114817
O O9 0.594288 0.410212 0.345883
O O10 0.665764 0.683371 0.397939
O O11 0.670324 0.176959 0.397916
O O12 0.341216 0.063178 0.748176
O O13 0.500000 0.500000 0.292522
O O14 0.540764 0.101780 0.249068
#
# Coordination Sequence:
#
# PCOD9440764 Si02
#       7
#     8   8   8   8   8   4   8
#     4  11  22  34  45  60  79 113 152 198 238 272
#     4  10  17  28  47  66  85 102 124 161 228 275
#     4  10  17  28  43  62  87 102 131 166 216 271
#     4  10  18  30  44  62  86 103 129 169 220 276
#     4  10  21  33  45  59  80 113 147 192 233 273
#     4  10  21  34  48  58  72 104 160 198 238 270
#     4  10  17  27  47  67  84 102 124 162 226 276
#
# _framework density 22.675685000000001
#
# number of rings (size 3 to 8) (size 9 to 14) (size 15 to 20)
#    0.000    1.846    3.077    6.692    2.154    3.385 
#    0.000    0.000    0.000    0.000    0.000    0.000 
#    0.000    0.000    0.000    0.000    0.000    0.000 
#
# Total GULP energy -290264.481181 kJ/mol
# GULP energy per Si atom -5582.009253 kJ/mol
# Density = 2.262407 g / cm^3
# Si number density = 22.675685 Si / 1000 Ang^3
#
#
#
# Elastic Constant Matrix: (Units=GPa)
#
#
# Indices 1 2 3 4 5 6 
#
# 1 122.3265 19.9253 18.4132 0.0000 0.0000 0.0000
# 2 19.9253 168.0381 8.6863 0.0000 0.0000 0.0000
# 3 18.4132 8.6863 40.7836 0.0000 0.0000 0.0000
# 4 0.0000 0.0000 0.0000 -35.7398 0.0000 0.0000
# 5 0.0000 0.0000 0.0000 0.0000 -6.0730 0.0000
# 6 0.0000 0.0000 0.0000 0.0000 0.0000 42.1946
#
#
#
# Elastic Compliance Matrix: (Units=1/GPa)
#
#
# Indices 1 2 3 4 5 6 
#
# 1 0.008891 -0.000856 -0.003832 0.000000 0.000000 0.000000
# 2 -0.000856 0.006100 -0.000913 0.000000 0.000000 0.000000
# 3 -0.003832 -0.000913 0.026444 0.000000 0.000000 0.000000
# 4 0.000000 0.000000 0.000000 -0.027980 0.000000 0.000000
# 5 0.000000 0.000000 0.000000 0.000000 -0.164665 0.000000
# 6 0.000000 0.000000 0.000000 0.000000 0.000000 0.023700
#
#
# Mechanical properties :
#
#
# Convention : Reuss Voigt Hill
#
# Bulk Modulus (GPa) = 33.07576 47.24420 40.15998
# Shear Modulus (GPa) = -47.06730 19.01794 -14.02468
#
# Velocity S-wave (km/s) = -4.56090 2.89916 -2.48964
# Velocity P-wave (km/s) = 3.62182 5.66452 3.07971
#
# Compressibility (1/GPa) = 0.03023362
#
# Stress axis : x y z
#
# Youngs Moduli (GPa) = 112.47213 163.94168 37.81571
#
# Poissons Ratio (x) = 0.14037 0.14490
# Poissons Ratio (y) = 0.09630 0.03451
# Poissons Ratio (z) = 0.43097 0.14961
#
# Static dielectric constant tensor:
#      x y z
#    x 1.869140 0.000000 0.000000 
#    y 0.000000 1.929570 0.000000 
#    z 0.000000 0.000000 1.842020 
# 
# From -- ./inp_files/24406.got.cif
#   From: 2010.05.17/outbox.cif.g08.bks.cpg/sg58_13_cif.got.tgz:24406.got - 2010.06.03 14:20:14.
