data_PCOD9440839
_publ_section_title
;
Structure prediction by ZEFSAII (Michael W. Deem and Ramdas Pophale) SiO2 
 PCOD9440839
Probable space group: P N N M
;
_chemical_formula_sum "Si O2"
_cell_formula_units_Z 64
_cell_length_a 12.254652
_cell_length_b 31.602298
_cell_length_c 7.421577
_cell_angle_alpha 90.000000
_cell_angle_beta 90.000000
_cell_angle_gamma 90.000000
_cell_volume 2874.192453
_symmetry_space_group_name_H-M "P N N M"
_symmetry_group_IT_number 58
_symmetry_cell_setting 'orthorhombic'
loop_
_space_group_symop_operation_xyz
x,y,z
-x,-y,z
1/2+x,1/2-y,1/2-z
1/2-x,1/2+y,1/2-z
-x,-y,-z
x,y,-z
1/2-x,1/2+y,1/2+z
1/2+x,1/2-y,1/2+z
loop_
_atom_site_type_symbol
_atom_site_label
_atom_site_fract_x
_atom_site_fract_y
_atom_site_fract_z
Si Si1 0.219177 0.052486 0.220198
Si Si2 0.239157 0.460729 0.279916
Si Si3 0.796873 0.789218 0.287965
Si Si4 0.855453 0.366118 0.282586
Si Si5 0.103290 0.379983 0.720115
Si Si6 0.738121 0.696314 0.718417
Si Si7 0.477602 0.435956 0.704840
Si Si8 0.996173 0.160223 0.709630
O O1 0.278071 0.095380 0.280218
O O2 0.093590 0.050013 0.283676
O O3 0.281245 0.009398 0.270095
O O4 0.215415 0.054222 0.000000
O O5 0.239516 0.458923 0.500000
O O6 0.155310 0.424586 0.221192
O O7 0.361538 0.449185 0.216081
O O8 0.818794 0.783296 0.500000
O O9 0.695863 0.821177 0.268785
O O10 0.774192 0.742517 0.215719
O O11 0.902758 0.813319 0.213430
O O12 0.856079 0.367592 0.500000
O O13 0.979246 0.372890 0.220964
O O14 0.102849 0.380115 0.500000
O O15 0.181210 0.341314 0.776290
O O16 0.738524 0.696386 0.500000
O O17 0.615610 0.685796 0.775817
O O18 0.475879 0.452127 0.500000
O O19 0.481427 0.385170 0.700816
O O20 0.018946 0.151059 0.500000
#
# Coordination Sequence:
#
# PCOD9440839 Si02
#       8
#     8   8   8   8   8   8   8   8
#     4   9  17  28  48  82 111 136 178 228 268 314
#     4   9  16  28  50  79 110 139 174 224 277 316
#     4  10  23  39  56  79 110 144 176 217 271 324
#     4  10  20  34  55  81 109 141 183 226 264 316
#     4   9  18  32  53  79 107 140 175 222 274 315
#     4  10  21  39  58  78 106 142 180 216 266 324
#     4  10  17  31  54  79 108 144 179 219 269 323
#     4  11  22  36  57  84 110 139 176 224 270 313
#
# _framework density 22.267125
#
# number of rings (size 3 to 8) (size 9 to 14) (size 15 to 20)
#    0.000    2.250    2.500    0.750    1.750    3.000 
#    0.000    3.125    0.000    2.250    0.000    0.875 
#    0.000    0.000    0.000    0.000    0.000    0.000 
#
# Total GULP energy -357641.591106 kJ/mol
# GULP energy per Si atom -5588.149861 kJ/mol
# Density = 2.221644 g / cm^3
# Si number density = 22.267125 Si / 1000 Ang^3
#
#
#
# Elastic Constant Matrix: (Units=GPa)
#
#
# Indices 1 2 3 4 5 6 
#
# 1 33.6553 -85.9149 -12.0455 0.0000 0.0000 0.0000
# 2 -85.9149 -64.7633 -11.4584 0.0000 0.0000 0.0000
# 3 -12.0455 -11.4584 73.3810 0.0000 0.0000 0.0000
# 4 0.0000 0.0000 0.0000 7.6510 0.0000 0.0000
# 5 0.0000 0.0000 0.0000 0.0000 -4.2810 0.0000
# 6 0.0000 0.0000 0.0000 0.0000 0.0000 51.5128
#
#
#
# Elastic Compliance Matrix: (Units=1/GPa)
#
#
# Indices 1 2 3 4 5 6 
#
# 1 0.006780 -0.008944 -0.000284 0.000000 0.000000 0.000000
# 2 -0.008944 -0.003227 -0.001972 0.000000 0.000000 0.000000
# 3 -0.000284 -0.001972 0.013273 0.000000 0.000000 0.000000
# 4 0.000000 0.000000 0.000000 0.130702 0.000000 0.000000
# 5 0.000000 0.000000 0.000000 0.000000 -0.233591 0.000000
# 6 0.000000 0.000000 0.000000 0.000000 0.000000 0.019413
#
#
# Mechanical properties :
#
#
# Convention : Reuss Voigt Hill
#
# Bulk Modulus (GPa) = -179.42445 -19.61829 -99.52137
# Shear Modulus (GPa) = -108.43773 21.08935 -43.67419
#
# Velocity S-wave (km/s) = -6.98601 3.08085 -4.43355
# Velocity P-wave (km/s) = 12.07582 1.95600 8.42614
#
# Compressibility (1/GPa) = -0.00557338
#
# Stress axis : x y z
#
# Youngs Moduli (GPa) = 147.49794 -309.87873 75.34085
#
# Poissons Ratio (x) = -2.77150 0.02137
# Poissons Ratio (y) = 1.31920 0.14857
# Poissons Ratio (z) = 0.04184 -0.61109
#
# Static dielectric constant tensor:
#      x y z
#    x 1.780650 0.000000 0.000000 
#    y 0.000000 1.788590 0.000000 
#    z 0.000000 0.000000 1.880870 
# 
# From -- ./inp_files/4674.got.cif
#   From: 2010.05.17/outbox.cif.g08.bks.cpg/sg58_3_cif.got.tgz:4674.got - 2010.06.03 14:20:14.
