data_PCOD9440911
_publ_section_title
;
Structure prediction by ZEFSAII (Michael W. Deem and Ramdas Pophale) SiO2 
 PCOD9440911
Probable space group: P N N M
;
_chemical_formula_sum "Si O2"
_cell_formula_units_Z 56
_cell_length_a 13.942893
_cell_length_b 29.800296
_cell_length_c 9.228940
_cell_angle_alpha 90.000000
_cell_angle_beta 90.000000
_cell_angle_gamma 90.000000
_cell_volume 3834.646152
_symmetry_space_group_name_H-M "P N N M"
_symmetry_group_IT_number 58
_symmetry_cell_setting 'orthorhombic'
loop_
_space_group_symop_operation_xyz
x,y,z
-x,-y,z
1/2+x,1/2-y,1/2-z
1/2-x,1/2+y,1/2-z
-x,-y,-z
x,y,-z
1/2-x,1/2+y,1/2+z
1/2+x,1/2-y,1/2+z
loop_
_atom_site_type_symbol
_atom_site_label
_atom_site_fract_x
_atom_site_fract_y
_atom_site_fract_z
Si Si1 0.085748 0.773840 0.826207
Si Si2 0.886314 0.770445 0.674004
Si Si3 0.190037 0.680228 0.172943
Si Si4 0.616401 0.997213 0.333213
Si Si5 0.394029 0.093838 0.171997
Si Si6 0.280195 0.820051 0.176203
Si Si7 0.877424 0.588051 0.673102
O O1 0.123163 0.723364 0.794598
O O2 0.172415 0.806752 0.780054
O O3 0.985445 0.782268 0.749495
O O4 0.075520 0.777362 0.000000
O O5 0.898259 0.769663 0.500000
O O6 0.798456 0.804015 0.706380
O O7 0.850043 0.720788 0.720354
O O8 0.156132 0.636999 0.259373
O O9 0.183968 0.672041 0.000000
O O10 0.647446 0.995026 0.500000
O O11 0.641029 0.951994 0.247233
O O12 0.500000 0.000000 0.331727
O O13 0.650234 0.042520 0.254940
O O14 0.509117 0.096893 0.197090
O O15 0.378916 0.091774 0.000000
O O16 0.318552 0.868329 0.222727
O O17 0.281170 0.819813 0.000000
O O18 0.864619 0.582095 0.500000
#
# Coordination Sequence:
#
# PCOD9440911 Si02
#       7
#     8   8   8   8   8   8   8
#     4   9  17  29  44  62  85 113 144 176 209 246
#     4   9  17  30  45  61  85 116 146 175 209 248
#     4   9  18  30  43  61  87 117 144 172 212 255
#     4   9  17  28  41  59  86 115 139 169 212 256
#     4  10  18  27  43  65  86 111 145 179 207 245
#     4   8  15  28  44  61  84 115 144 170 208 252
#     4   9  16  27  43  62  85 113 144 175 206 246
#
# _framework density 14.603695
#
# number of rings (size 3 to 8) (size 9 to 14) (size 15 to 20)
#    0.000    3.000    0.000    3.429    0.000    4.571 
#    0.000    3.571    0.000    0.000    0.000    1.000 
#    0.000    8.000    0.000    0.000    0.000    0.000 
#
# Total GULP energy -311950.289747 kJ/mol
# GULP energy per Si atom -5570.540888 kJ/mol
# Density = 1.457046 g / cm^3
# Si number density = 14.603695 Si / 1000 Ang^3
#
#
#
# Elastic Constant Matrix: (Units=GPa)
#
#
# Indices 1 2 3 4 5 6 
#
# 1 75.1593 53.9784 42.6458 0.0000 0.0000 0.0000
# 2 53.9784 141.4502 67.1447 0.0000 0.0000 0.0000
# 3 42.6458 67.1447 50.6454 0.0000 0.0000 0.0000
# 4 0.0000 0.0000 0.0000 26.5632 0.0000 0.0000
# 5 0.0000 0.0000 0.0000 0.0000 22.6791 0.0000
# 6 0.0000 0.0000 0.0000 0.0000 0.0000 21.7887
#
#
#
# Elastic Compliance Matrix: (Units=1/GPa)
#
#
# Indices 1 2 3 4 5 6 
#
# 1 0.025559 0.001248 -0.023177 0.000000 0.000000 0.000000
# 2 0.001248 0.019134 -0.026418 0.000000 0.000000 0.000000
# 3 -0.023177 -0.026418 0.074286 0.000000 0.000000 0.000000
# 4 0.000000 0.000000 0.000000 0.037646 0.000000 0.000000
# 5 0.000000 0.000000 0.000000 0.000000 0.044093 0.000000
# 6 0.000000 0.000000 0.000000 0.000000 0.000000 0.045895
#
#
# Mechanical properties :
#
#
# Convention : Reuss Voigt Hill
#
# Bulk Modulus (GPa) = 44.87312 66.08807 55.48060
# Shear Modulus (GPa) = 14.25575 21.10528 17.68052
#
# Velocity S-wave (km/s) = 3.12777 3.80570 3.48327
# Velocity P-wave (km/s) = 6.62102 8.04138 7.36552
#
# Compressibility (1/GPa) = 0.02228505
#
# Stress axis : x y z
#
# Youngs Moduli (GPa) = 39.12458 52.26398 13.46152
#
# Poissons Ratio (x) = -0.06524 0.31200
# Poissons Ratio (y) = -0.04884 0.35563
# Poissons Ratio (z) = 0.90679 1.38071
#
# Static dielectric constant tensor:
#      x y z
#    x 1.463430 0.000000 0.000000 
#    y 0.000000 1.474210 0.000000 
#    z 0.000000 0.000000 1.485240 
# 
# From -- ./inp_files/7096.got.cif
#   From: 2010.05.17/outbox.cif.g08.bks.cpg/sg58_4_cif.got.tgz:7096.got - 2010.06.03 14:20:14.
