data_PCOD9440562
_publ_section_title
;
Structure prediction by ZEFSAII (Michael W. Deem and Ramdas Pophale) SiO2 
 PCOD9440562
Probable space group: P B C M
;
_chemical_formula_sum "Si O2"
_cell_formula_units_Z 56
_cell_length_a 21.000000
_cell_length_b 15.000000
_cell_length_c 9.000000
_cell_angle_alpha 90.000000
_cell_angle_beta 90.000000
_cell_angle_gamma 90.000000
_cell_volume 2835.000000
_symmetry_space_group_name_H-M "P B C M"
_symmetry_group_IT_number 57
_symmetry_cell_setting 'orthorhombic'
loop_
_space_group_symop_operation_xyz
x,y,z
-x,-y,1/2+z
x,1/2-y,-z
-x,1/2+y,1/2-z
-x,-y,-z
x,y,1/2-z
-x,1/2+y,z
x,1/2-y,1/2+z
loop_
_atom_site_type_symbol
_atom_site_label
_atom_site_fract_x
_atom_site_fract_y
_atom_site_fract_z
Si Si1 0.384629 0.163201 0.073689
Si Si2 0.897362 0.155472 0.927570
Si Si3 0.846918 0.982259 0.072702
Si Si4 0.281001 0.477597 0.573183
Si Si5 0.954909 0.844224 0.072002
Si Si6 0.520063 0.093709 0.071046
Si Si7 0.651723 0.341751 0.072823
O O1 0.381203 0.171121 0.250000
O O2 0.458517 0.153255 0.034855
O O3 0.343975 0.077255 0.031173
O O4 0.356192 0.250000 0.000000
O O5 0.891281 0.159497 0.750000
O O6 0.971643 0.135702 0.966291
O O7 0.881471 0.250000 0.000000
O O8 0.856126 0.077019 0.995182
O O9 0.848130 0.991013 0.250000
O O10 0.905378 0.919453 0.025188
O O11 0.779682 0.945410 0.017162
O O12 0.269949 0.466961 0.750000
O O13 0.297953 0.580125 0.544303
O O14 0.951712 0.836099 0.250000
O O15 0.938252 0.750000 0.000000
O O16 0.526413 0.087000 0.250000
O O17 0.584321 0.130415 0.999299
O O18 0.500000 0.000000 0.000000
O O19 0.643387 0.333145 0.250000
O O20 0.672675 0.250000 0.000000
#
# Coordination Sequence:
#
# PCOD9440562 Si02
#       7
#     8   8   8   8   8   8   8
#     4  10  22  40  60  85 115 151 192 237 289 345
#     4  10  20  37  61  88 118 154 191 236 292 343
#     4  11  23  38  58  87 119 153 197 241 288 346
#     4  10  23  43  59  78 116 159 198 241 290 345
#     4   9  20  37  59  88 120 152 192 239 287 344
#     4  11  21  37  62  90 120 153 190 240 297 350
#     4  11  23  41  62  87 117 151 195 244 295 354
#
# _framework density 19.753086
#
# number of rings (size 3 to 8) (size 9 to 14) (size 15 to 20)
#    0.000    1.714    1.429    2.571    0.000    6.857 
#    0.000    4.286    0.000    0.000    0.000    0.000 
#    0.000    0.000    0.000    0.000    0.000    0.000 
#
# Total GULP energy -312740.349440 kJ/mol
# GULP energy per Si atom -5584.649097 kJ/mol
# Density = 1.970813 g / cm^3
# Si number density = 19.753086 Si / 1000 Ang^3
#
#
#
# Elastic Constant Matrix: (Units=GPa)
#
#
# Indices 1 2 3 4 5 6 
#
# 1 43.1029 17.2371 18.6908 0.0000 0.0000 0.0000
# 2 17.2371 79.5687 25.7939 0.0000 0.0000 0.0000
# 3 18.6908 25.7939 20.5247 0.0000 0.0000 0.0000
# 4 0.0000 0.0000 0.0000 32.6026 0.0000 0.0000
# 5 0.0000 0.0000 0.0000 0.0000 28.8092 0.0000
# 6 0.0000 0.0000 0.0000 0.0000 0.0000 -12.3989
#
#
#
# Elastic Compliance Matrix: (Units=1/GPa)
#
#
# Indices 1 2 3 4 5 6 
#
# 1 0.039599 0.005251 -0.042659 0.000000 0.000000 0.000000
# 2 0.005251 0.021904 -0.032308 0.000000 0.000000 0.000000
# 3 -0.042659 -0.032308 0.128172 0.000000 0.000000 0.000000
# 4 0.000000 0.000000 0.000000 0.030672 0.000000 0.000000
# 5 0.000000 0.000000 0.000000 0.000000 0.034711 0.000000
# 6 0.000000 0.000000 0.000000 0.000000 0.000000 -0.080652
#
#
# Mechanical properties :
#
#
# Convention : Reuss Voigt Hill
#
# Bulk Modulus (GPa) = 19.90423 29.62666 24.76545
# Shear Modulus (GPa) = 15.12458 15.23422 15.17940
#
# Velocity S-wave (km/s) = 2.77010 2.78012 2.77511
# Velocity P-wave (km/s) = 4.50884 5.03354 4.77840
#
# Compressibility (1/GPa) = 0.05024057
#
# Stress axis : x y z
#
# Youngs Moduli (GPa) = 25.25312 45.65413 7.80201
#
# Poissons Ratio (x) = -0.23971 0.33283
# Poissons Ratio (y) = -0.13259 0.25207
# Poissons Ratio (z) = 1.07728 1.47502
#
# Static dielectric constant tensor:
#      x y z
#    x 1.696150 0.000000 0.000000 
#    y 0.000000 1.698000 0.000000 
#    z 0.000000 0.000000 1.646000 
# 
# From -- ./inp_files/8009.got.cif
#   From: 2010.05.17/outbox.ucp.g08.bks.cvg/sg57_5_cif.got.tgz:8009.got - 2010.06.11 16:39:23.
