data_PCOD9440537
_publ_section_title
;
Structure prediction by ZEFSAII (Michael W. Deem and Ramdas Pophale) SiO2 
 PCOD9440537
Probable space group: P B C M
;
_chemical_formula_sum "Si O2"
_cell_formula_units_Z 64
_cell_length_a 15.000000
_cell_length_b 9.000000
_cell_length_c 24.000000
_cell_angle_alpha 90.000000
_cell_angle_beta 90.000000
_cell_angle_gamma 90.000000
_cell_volume 3240.000000
_symmetry_space_group_name_H-M "P B C M"
_symmetry_group_IT_number 57
_symmetry_cell_setting 'orthorhombic'
loop_
_space_group_symop_operation_xyz
x,y,z
-x,-y,1/2+z
x,1/2-y,-z
-x,1/2+y,1/2-z
-x,-y,-z
x,y,1/2-z
-x,1/2+y,z
x,1/2-y,1/2+z
loop_
_atom_site_type_symbol
_atom_site_label
_atom_site_fract_x
_atom_site_fract_y
_atom_site_fract_z
Si Si1 0.281904 0.430304 0.384131
Si Si2 0.570228 0.408393 0.813445
Si Si3 0.909668 0.932010 0.955063
Si Si4 0.165338 0.621661 0.455455
Si Si5 0.023527 0.791121 0.394756
Si Si6 0.384949 0.564478 0.686048
Si Si7 0.131481 0.208899 0.685026
Si Si8 0.746270 0.603154 0.114859
O O1 0.361946 0.509406 0.353546
O O2 0.248050 0.525690 0.435835
O O3 0.192637 0.414417 0.345679
O O4 0.305262 0.258193 0.394995
O O5 0.592636 0.453536 0.750000
O O6 0.582230 0.232668 0.818056
O O7 0.468981 0.456895 0.822570
O O8 0.805364 0.922821 0.939153
O O9 0.955107 0.776366 0.941007
O O10 0.951468 0.042883 0.909948
O O11 0.906386 0.016153 0.013474
O O12 0.186367 0.750000 0.500000
O O13 0.113777 0.698886 0.404123
O O14 0.968179 0.786601 0.338458
O O15 0.352105 0.540597 0.750000
O O16 0.313587 0.525986 0.638981
O O17 0.134903 0.191390 0.750000
O O18 0.182539 0.355901 0.663532
#
# Coordination Sequence:
#
# PCOD9440537 Si02
#       8
#     8   8   8   8   8   8   8   8
#     4  10  21  37  58  84 116 154 198 235 298 353
#     4  10  21  35  61  92 121 152 190 234 287 350
#     4  10  21  37  57  82 111 152 196 255 299 335
#     4  10  22  37  60  82 115 151 199 264 302 345
#     4  10  20  36  55  82 110 150 205 242 297 343
#     4  10  20  36  60  92 122 155 191 234 286 349
#     4   9  19  36  57  78 115 158 191 236 289 351
#     4   9  21  36  57  83 120 152 195 238 290 357
#
# _framework density 19.753086
#
# number of rings (size 3 to 8) (size 9 to 14) (size 15 to 20)
#    0.750    1.500    0.000    2.625    3.500    3.500 
#    0.000    6.875    0.000    0.750    0.000    0.000 
#    0.000    0.000    0.000    0.000    0.000    0.000 
#
# Total GULP energy -356528.078434 kJ/mol
# GULP energy per Si atom -5570.751226 kJ/mol
# Density = 1.970813 g / cm^3
# Si number density = 19.753086 Si / 1000 Ang^3
#
#
#
# Elastic Constant Matrix: (Units=GPa)
#
#
# Indices 1 2 3 4 5 6 
#
# 1 17.4300 2.6798 -4.5060 0.0000 0.0000 0.0000
# 2 2.6798 62.0649 11.1649 0.0000 0.0000 0.0000
# 3 -4.5060 11.1649 21.9088 0.0000 0.0000 0.0000
# 4 0.0000 0.0000 0.0000 13.0467 0.0000 0.0000
# 5 0.0000 0.0000 0.0000 0.0000 28.9099 0.0000
# 6 0.0000 0.0000 0.0000 0.0000 0.0000 36.6822
#
#
#
# Elastic Compliance Matrix: (Units=1/GPa)
#
#
# Indices 1 2 3 4 5 6 
#
# 1 0.062251 -0.005495 0.015603 0.000000 0.000000 0.000000
# 2 -0.005495 0.018223 -0.010417 0.000000 0.000000 0.000000
# 3 0.015603 -0.010417 0.054161 0.000000 0.000000 0.000000
# 4 0.000000 0.000000 0.000000 0.076648 0.000000 0.000000
# 5 0.000000 0.000000 0.000000 0.000000 0.034590 0.000000
# 6 0.000000 0.000000 0.000000 0.000000 0.000000 0.027261
#
#
# Mechanical properties :
#
#
# Convention : Reuss Voigt Hill
#
# Bulk Modulus (GPa) = 7.46159 13.34232 10.40196
# Shear Modulus (GPa) = 15.70231 21.86543 18.78387
#
# Velocity S-wave (km/s) = 2.82251 3.33068 3.08707
# Velocity P-wave (km/s) = 3.79575 4.64332 4.24076
#
# Compressibility (1/GPa) = 0.13401962
#
# Stress axis : x y z
#
# Youngs Moduli (GPa) = 16.06397 54.87484 18.46332
#
# Poissons Ratio (x) = 0.30152 -0.28809
# Poissons Ratio (y) = 0.08827 0.19233
# Poissons Ratio (z) = -0.25065 0.57162
#
# Static dielectric constant tensor:
#      x y z
#    x 1.707810 0.000000 0.000000 
#    y 0.000000 1.735800 0.000000 
#    z 0.000000 0.000000 1.674840 
# 
# From -- ./inp_files/27464.got.cif
#   From: 2010.05.17/outbox.ucp.g08.bks.cvg/sg57_14_cif.got.tgz:27464.got - 2010.06.11 16:39:23.
