data_PCOD9440615
_publ_section_title
;
Structure prediction by ZEFSAII (Michael W. Deem and Ramdas Pophale) SiO2 
 PCOD9440615
Probable space group: P B C M
;
_chemical_formula_sum "Si O2"
_cell_formula_units_Z 64
_cell_length_a 21.000000
_cell_length_b 9.000000
_cell_length_c 18.000000
_cell_angle_alpha 90.000000
_cell_angle_beta 90.000000
_cell_angle_gamma 90.000000
_cell_volume 3402.000000
_symmetry_space_group_name_H-M "P B C M"
_symmetry_group_IT_number 57
_symmetry_cell_setting 'orthorhombic'
loop_
_space_group_symop_operation_xyz
x,y,z
-x,-y,1/2+z
x,1/2-y,-z
-x,1/2+y,1/2-z
-x,-y,-z
x,y,1/2-z
-x,1/2+y,z
x,1/2-y,1/2+z
loop_
_atom_site_type_symbol
_atom_site_label
_atom_site_fract_x
_atom_site_fract_y
_atom_site_fract_z
Si Si1 0.555531 0.085664 0.337447
Si Si2 0.070182 0.446916 0.161107
Si Si3 0.308321 0.127090 0.442310
Si Si4 0.183106 0.946089 0.084000
Si Si5 0.421388 0.266809 0.662825
Si Si6 0.808367 0.102429 0.091843
Si Si7 0.062031 0.399038 0.840239
Si Si8 0.331067 0.614139 0.054970
O O1 0.564930 0.125044 0.250000
O O2 0.485098 0.141999 0.358835
O O3 0.611145 0.149654 0.390126
O O4 0.562140 0.907662 0.344263
O O5 0.069564 0.455180 0.250000
O O6 0.137201 0.514045 0.134781
O O7 0.064289 0.274632 0.140091
O O8 0.006326 0.533415 0.135950
O O9 0.282069 0.250000 0.500000
O O10 0.359067 0.192720 0.384646
O O11 0.248673 0.039723 0.405924
O O12 0.346448 0.015839 0.496907
O O13 0.187561 0.776632 0.111740
O O14 0.122030 0.021906 0.121163
O O15 0.176781 0.928605 0.994947
O O16 0.409171 0.297782 0.750000
O O17 0.733013 0.065964 0.099027
O O18 0.067201 0.414130 0.750000
O O19 0.313584 0.750000 0.000000
#
# Coordination Sequence:
#
# PCOD9440615 Si02
#       8
#     8   8   8   8   8   8   8   8
#     4  10  23  41  61  86 119 157 197 245 298 352
#     4  10  22  39  61  87 118 155 196 242 290 347
#     4  11  22  39  61  89 120 156 195 245 298 347
#     4  10  22  38  60  86 118 154 192 241 290 349
#     4  10  23  41  60  87 120 155 198 245 295 354
#     4  10  21  40  59  85 119 153 196 239 289 347
#     4  10  22  39  60  88 118 154 198 242 292 348
#     4  11  22  41  61  88 121 156 200 244 290 356
#
# _framework density 18.812463000000001
#
# number of rings (size 3 to 8) (size 9 to 14) (size 15 to 20)
#    0.000    1.750    3.750    0.750    5.250    4.000 
#    0.000    2.500    0.000    0.000    0.000    0.000 
#    0.000    0.000    0.000    0.000    0.000    0.000 
#
# Total GULP energy -357101.636666 kJ/mol
# GULP energy per Si atom -5579.713073 kJ/mol
# Density = 1.876965 g / cm^3
# Si number density = 18.812463 Si / 1000 Ang^3
#
#
#
# Elastic Constant Matrix: (Units=GPa)
#
#
# Indices 1 2 3 4 5 6 
#
# 1 152.6603 56.0781 46.3955 0.0000 0.0000 0.0000
# 2 56.0781 84.3456 30.1753 0.0000 0.0000 0.0000
# 3 46.3955 30.1753 28.8614 0.0000 0.0000 0.0000
# 4 0.0000 0.0000 0.0000 28.2405 0.0000 0.0000
# 5 0.0000 0.0000 0.0000 0.0000 42.8837 0.0000
# 6 0.0000 0.0000 0.0000 0.0000 0.0000 38.6403
#
#
#
# Elastic Compliance Matrix: (Units=1/GPa)
#
#
# Indices 1 2 3 4 5 6 
#
# 1 0.012988 -0.001862 -0.018932 0.000000 0.000000 0.000000
# 2 -0.001862 0.019208 -0.017088 0.000000 0.000000 0.000000
# 3 -0.018932 -0.017088 0.082948 0.000000 0.000000 0.000000
# 4 0.000000 0.000000 0.000000 0.035410 0.000000 0.000000
# 5 0.000000 0.000000 0.000000 0.000000 0.023319 0.000000
# 6 0.000000 0.000000 0.000000 0.000000 0.000000 0.025880
#
#
# Mechanical properties :
#
#
# Convention : Reuss Voigt Hill
#
# Bulk Modulus (GPa) = 25.39418 59.01835 42.20626
# Shear Modulus (GPa) = 17.32234 30.83410 24.07822
#
# Velocity S-wave (km/s) = 3.03775 4.05288 3.58146
# Velocity P-wave (km/s) = 5.08250 7.30350 6.29178
#
# Compressibility (1/GPa) = 0.03937910
#
# Stress axis : x y z
#
# Youngs Moduli (GPa) = 76.99246 52.06260 12.05570
#
# Poissons Ratio (x) = 0.09696 0.22824
# Poissons Ratio (y) = 0.14339 0.20601
# Poissons Ratio (z) = 1.45762 0.88966
#
# Static dielectric constant tensor:
#      x y z
#    x 1.622730 0.000000 0.000000 
#    y 0.000000 1.702860 0.000000 
#    z 0.000000 0.000000 1.641220 
# 
# From -- ./inp_files/23076.got.cif
#   From: 2010.05.17/outbox.ucp.g08.bks.cvg/sg57_12_cif.got.tgz:23076.got - 2010.06.11 16:39:23.
