data_PCOD9440337
_publ_section_title
;
Structure prediction by ZEFSAII (Michael W. Deem and Ramdas Pophale) SiO2 
 PCOD9440337
Probable space group: P B C M
;
_chemical_formula_sum "Si O2"
_cell_formula_units_Z 24
_cell_length_a 7.179661
_cell_length_b 9.399176
_cell_length_c 16.606161
_cell_angle_alpha 90.000000
_cell_angle_beta 90.000000
_cell_angle_gamma 90.000000
_cell_volume 1120.631858
_symmetry_space_group_name_H-M "P B C M"
_symmetry_group_IT_number 57
_symmetry_cell_setting 'orthorhombic'
loop_
_space_group_symop_operation_xyz
x,y,z
-x,-y,1/2+z
x,1/2-y,-z
-x,1/2+y,1/2-z
-x,-y,-z
x,y,1/2-z
-x,1/2+y,z
x,1/2-y,1/2+z
loop_
_atom_site_type_symbol
_atom_site_label
_atom_site_fract_x
_atom_site_fract_y
_atom_site_fract_z
Si Si1 0.780702 0.310675 0.156511
Si Si2 0.947644 0.027457 0.092988
Si Si3 0.415895 0.377371 0.057485
O O1 0.761711 0.275127 0.250000
O O2 0.903672 0.190358 0.112409
O O3 0.888052 0.459500 0.144910
O O4 0.349241 0.250000 0.000000
O O5 0.754505 0.943237 0.106571
O O6 0.417809 0.820946 0.113025
O O7 0.000000 0.000000 0.000000
O O8 0.500000 0.500000 0.000000
#
# Coordination Sequence:
#
# PCOD9440337 Si02
#       3
#     8   8   8
#     4  12  27  44  66 105 142 177 228 293 353 398
#     4  12  24  46  73  98 136 184 238 282 338 426
#     4  12  23  45  71 100 131 181 239 277 334 420
#
# _framework density 21.41649
#
# number of rings (size 3 to 8) (size 9 to 14) (size 15 to 20)
#    0.000    0.000    6.667    4.000    0.000    2.667 
#    0.000    0.000    0.000    0.000    0.000    0.000 
#    0.000    0.000    0.000    0.000    0.000    0.000 
#
# Total GULP energy -134436.595249 kJ/mol
# GULP energy per Si atom -5601.524802 kJ/mol
# Density = 2.136774 g / cm^3
# Si number density = 21.416490 Si / 1000 Ang^3
#
#
#
# Elastic Constant Matrix: (Units=GPa)
#
#
# Indices 1 2 3 4 5 6 
#
# 1 78.3468 -2.9176 4.1751 0.0000 0.0000 0.0000
# 2 -2.9176 64.1412 7.6509 0.0000 0.0000 0.0000
# 3 4.1751 7.6509 111.2740 0.0000 0.0000 0.0000
# 4 0.0000 0.0000 0.0000 24.4717 0.0000 0.0000
# 5 0.0000 0.0000 0.0000 0.0000 26.0345 0.0000
# 6 0.0000 0.0000 0.0000 0.0000 0.0000 47.1601
#
#
#
# Elastic Compliance Matrix: (Units=1/GPa)
#
#
# Indices 1 2 3 4 5 6 
#
# 1 0.012816 0.000646 -0.000525 0.000000 0.000000 0.000000
# 2 0.000646 0.015752 -0.001107 0.000000 0.000000 0.000000
# 3 -0.000525 -0.001107 0.009083 0.000000 0.000000 0.000000
# 4 0.000000 0.000000 0.000000 0.040864 0.000000 0.000000
# 5 0.000000 0.000000 0.000000 0.000000 0.038411 0.000000
# 6 0.000000 0.000000 0.000000 0.000000 0.000000 0.021204
#
#
# Mechanical properties :
#
#
# Convention : Reuss Voigt Hill
#
# Bulk Modulus (GPa) = 28.02954 30.17542 29.10248
# Shear Modulus (GPa) = 32.89579 35.85683 34.37631
#
# Velocity S-wave (km/s) = 3.92344 4.09621 4.01076
# Velocity P-wave (km/s) = 5.80006 6.04089 5.92170
#
# Compressibility (1/GPa) = 0.03567664
#
# Stress axis : x y z
#
# Youngs Moduli (GPa) = 78.02868 63.48379 110.09987
#
# Poissons Ratio (x) = -0.04099 0.05783
# Poissons Ratio (y) = -0.05038 0.12191
# Poissons Ratio (z) = 0.04098 0.07029
#
# Static dielectric constant tensor:
#      x y z
#    x 1.772490 0.000000 0.000000 
#    y 0.000000 1.813330 0.000000 
#    z 0.000000 0.000000 1.749830 
# 
# From -- ./inp_files/10520.got.cif
#   From: 2010.05.17/outbox.cif.g08.bks.cpg/sg57_6_cif.got.tgz:10520.got - 2010.06.03 13:58:18.
