data_PCOD9440528
_publ_section_title
;
Structure prediction by ZEFSAII (Michael W. Deem and Ramdas Pophale) SiO2 
 PCOD9440528
Probable space group: P B C M
;
_chemical_formula_sum "Si O2"
_cell_formula_units_Z 64
_cell_length_a 24.000000
_cell_length_b 15.000000
_cell_length_c 9.000000
_cell_angle_alpha 90.000000
_cell_angle_beta 90.000000
_cell_angle_gamma 90.000000
_cell_volume 3240.000000
_symmetry_space_group_name_H-M "P B C M"
_symmetry_group_IT_number 57
_symmetry_cell_setting 'orthorhombic'
loop_
_space_group_symop_operation_xyz
x,y,z
-x,-y,1/2+z
x,1/2-y,-z
-x,1/2+y,1/2-z
-x,-y,-z
x,y,1/2-z
-x,1/2+y,z
x,1/2-y,1/2+z
loop_
_atom_site_type_symbol
_atom_site_label
_atom_site_fract_x
_atom_site_fract_y
_atom_site_fract_z
Si Si1 0.352850 0.652059 0.571650
Si Si2 0.597366 0.848456 0.070334
Si Si3 0.817938 0.972116 0.074981
Si Si4 0.864400 0.160281 0.425977
Si Si5 0.476364 0.652278 0.571743
Si Si6 0.103308 0.163361 0.075143
Si Si7 0.985343 0.094357 0.071133
Si Si8 0.305554 0.017475 0.928548
O O1 0.345601 0.750000 0.500000
O O2 0.348683 0.659132 0.750000
O O3 0.415524 0.616994 0.530264
O O4 0.312605 0.577415 0.506973
O O5 0.599568 0.839718 0.250000
O O6 0.536176 0.888186 0.029404
O O7 0.646461 0.914230 0.023707
O O8 0.602726 0.750000 0.000000
O O9 0.829087 0.956938 0.250000
O O10 0.824718 0.076901 0.047458
O O11 0.755428 0.943665 0.039672
O O12 0.863905 0.921685 0.981882
O O13 0.844585 0.250000 0.500000
O O14 0.868498 0.174198 0.250000
O O15 0.926503 0.133654 0.480680
O O16 0.477785 0.750000 0.500000
O O17 0.476222 0.659758 0.750000
O O18 0.107144 0.170630 0.250000
O O19 0.038507 0.154188 0.033984
O O20 0.128417 0.250000 0.000000
O O21 0.982190 0.084113 0.250000
O O22 0.000000 0.000000 0.000000
O O23 0.309382 0.004545 0.750000
#
# Coordination Sequence:
#
# PCOD9440528 Si02
#       8
#     8   8   8   8   8   8   8   8
#     4  10  20  35  56  81 110 144 182 226 277 333
#     4   9  18  34  55  79 109 142 180 227 278 333
#     4  10  22  41  59  78 111 150 190 236 280 323
#     4  10  21  37  58  83 111 144 181 224 274 326
#     4   8  15  29  50  77 107 139 175 219 274 332
#     4  11  23  38  60  88 115 148 188 229 279 334
#     4  10  20  35  58  87 116 147 180 222 276 331
#     4  10  22  38  56  80 110 147 188 231 280 329
#
# _framework density 19.753086
#
# number of rings (size 3 to 8) (size 9 to 14) (size 15 to 20)
#    0.000    2.250    1.250    1.125    0.000    4.500 
#    0.000    2.500    0.000    0.000    0.000    0.000 
#    0.000    0.000    0.000    0.000    0.000    0.000 
#
# Total GULP energy -356865.762462 kJ/mol
# GULP energy per Si atom -5576.027538 kJ/mol
# Density = 1.970813 g / cm^3
# Si number density = 19.753086 Si / 1000 Ang^3
#
#
#
# Elastic Constant Matrix: (Units=GPa)
#
#
# Indices 1 2 3 4 5 6 
#
# 1 63.7730 -0.8015 25.2286 0.0000 0.0000 0.0000
# 2 -0.8015 57.2114 26.0589 0.0000 0.0000 0.0000
# 3 25.2286 26.0589 -5.7595 0.0000 0.0000 0.0000
# 4 0.0000 0.0000 0.0000 29.9800 0.0000 0.0000
# 5 0.0000 0.0000 0.0000 0.0000 -25.5259 0.0000
# 6 0.0000 0.0000 0.0000 0.0000 0.0000 28.9307
#
#
#
# Elastic Compliance Matrix: (Units=1/GPa)
#
#
# Indices 1 2 3 4 5 6 
#
# 1 0.009909 -0.006414 0.014386 0.000000 0.000000 0.000000
# 2 -0.006414 0.009862 0.016526 0.000000 0.000000 0.000000
# 3 0.014386 0.016526 -0.035840 0.000000 0.000000 0.000000
# 4 0.000000 0.000000 0.000000 0.033356 0.000000 0.000000
# 5 0.000000 0.000000 0.000000 0.000000 -0.039176 0.000000
# 6 0.000000 0.000000 0.000000 0.000000 0.000000 0.034565
#
#
# Mechanical properties :
#
#
# Convention : Reuss Voigt Hill
#
# Bulk Modulus (GPa) = 30.36988 24.02187 27.19588
# Shear Modulus (GPa) = -197.28387 10.99290 -93.14549
#
# Velocity S-wave (km/s) = -10.00459 2.36162 -6.87439
# Velocity P-wave (km/s) = 10.86497 4.42987 7.01512
#
# Compressibility (1/GPa) = 0.03292736
#
# Stress axis : x y z
#
# Youngs Moduli (GPa) = 100.91869 101.40061 -27.90207
#
# Poissons Ratio (x) = 0.65035 0.40140
# Poissons Ratio (y) = 0.64726 0.46111
# Poissons Ratio (z) = -1.45180 -1.67574
#
# Static dielectric constant tensor:
#      x y z
#    x 1.733280 0.000000 0.000000 
#    y 0.000000 1.657570 0.000000 
#    z 0.000000 0.000000 1.674170 
# 
# From -- ./inp_files/9258.got.cif
#   From: 2010.05.17/outbox.ucp.g08.bks.cvg/sg57_5_cif.got.tgz:9258.got - 2010.06.11 16:39:23.
