data_PCOD9440793
_publ_section_title
;
Structure prediction by ZEFSAII (Michael W. Deem and Ramdas Pophale) SiO2 
 PCOD9440793
Probable space group: P N N M
;
_chemical_formula_sum "Si O2"
_cell_formula_units_Z 64
_cell_length_a 8.254967
_cell_length_b 17.111853
_cell_length_c 24.037751
_cell_angle_alpha 90.000000
_cell_angle_beta 90.000000
_cell_angle_gamma 90.000000
_cell_volume 3395.519386
_symmetry_space_group_name_H-M "P N N M"
_symmetry_group_IT_number 58
_symmetry_cell_setting 'orthorhombic'
loop_
_space_group_symop_operation_xyz
x,y,z
-x,-y,z
1/2+x,1/2-y,1/2-z
1/2-x,1/2+y,1/2-z
-x,-y,-z
x,y,-z
1/2-x,1/2+y,1/2+z
1/2+x,1/2-y,1/2+z
loop_
_atom_site_type_symbol
_atom_site_label
_atom_site_fract_x
_atom_site_fract_y
_atom_site_fract_z
Si Si1 0.973600 0.280583 0.812767
Si Si2 0.345034 0.396476 0.564762
Si Si3 0.355240 0.902733 0.256585
Si Si4 0.470949 0.322439 0.798844
Si Si5 0.659909 0.447556 0.742849
Si Si6 0.852538 0.450467 0.435269
Si Si7 0.352456 0.800255 0.854228
Si Si8 0.159542 0.155368 0.866520
O O1 0.998742 0.369430 0.794065
O O2 0.994060 0.232538 0.755323
O O3 0.112216 0.243949 0.852414
O O4 0.803084 0.253357 0.837243
O O5 0.376732 0.378760 0.500000
O O6 0.294024 0.487078 0.568235
O O7 0.197708 0.344228 0.589489
O O8 0.497587 0.377306 0.603334
O O9 0.366759 0.865842 0.194533
O O10 0.200715 0.862580 0.287537
O O11 0.306560 0.992747 0.251830
O O12 0.601783 0.392228 0.793241
O O13 0.502471 0.262327 0.848897
O O14 0.500000 0.500000 0.729029
O O15 0.689639 0.391419 0.690571
O O16 0.887493 0.435639 0.500000
O O17 0.806095 0.371149 0.405223
O O18 0.000000 0.500000 0.410357
#
# Coordination Sequence:
#
# PCOD9440793 Si02
#       8
#     8   8   8   8   8   8   8   8
#     4   8  16  26  39  58  79 105 136 168 199 239
#     4  10  19  30  46  63  80 112 153 181 204 243
#     4   9  15  26  42  59  82 110 136 163 202 251
#     4   8  15  25  39  57  79 108 133 160 200 248
#     4   9  15  25  42  62  83 108 140 169 200 247
#     4  10  20  30  39  57  85 110 136 175 212 237
#     4   9  16  28  42  58  84 108 134 171 209 240
#     4  10  17  29  45  60  80 111 146 173 202 240
#
# _framework density 18.848369000000002
#
# number of rings (size 3 to 8) (size 9 to 14) (size 15 to 20)
#    0.000    2.875    0.000    4.500    0.000    2.000 
#    0.000    5.625    0.000    0.000    0.000    0.000 
#    0.000   13.500    0.000    0.000    0.000    0.000 
#
# Total GULP energy -356910.624792 kJ/mol
# GULP energy per Si atom -5576.728512 kJ/mol
# Density = 1.880547 g / cm^3
# Si number density = 18.848369 Si / 1000 Ang^3
#
#
#
# Elastic Constant Matrix: (Units=GPa)
#
#
# Indices 1 2 3 4 5 6 
#
# 1 40.4352 6.1220 4.3841 0.0000 0.0000 0.0000
# 2 6.1220 67.9964 26.3375 0.0000 0.0000 0.0000
# 3 4.3841 26.3375 44.4120 0.0000 0.0000 0.0000
# 4 0.0000 0.0000 0.0000 5.9581 0.0000 0.0000
# 5 0.0000 0.0000 0.0000 0.0000 18.6357 0.0000
# 6 0.0000 0.0000 0.0000 0.0000 0.0000 32.3147
#
#
#
# Elastic Compliance Matrix: (Units=1/GPa)
#
#
# Indices 1 2 3 4 5 6 
#
# 1 0.025147 -0.001691 -0.001480 0.000000 0.000000 0.000000
# 2 -0.001691 0.019206 -0.011223 0.000000 0.000000 0.000000
# 3 -0.001480 -0.011223 0.029318 0.000000 0.000000 0.000000
# 4 0.000000 0.000000 0.000000 0.167840 0.000000 0.000000
# 5 0.000000 0.000000 0.000000 0.000000 0.053661 0.000000
# 6 0.000000 0.000000 0.000000 0.000000 0.000000 0.030946
#
#
# Mechanical properties :
#
#
# Convention : Reuss Voigt Hill
#
# Bulk Modulus (GPa) = 22.27940 25.17009 23.72474
# Shear Modulus (GPa) = 13.51844 19.11502 16.31673
#
# Velocity S-wave (km/s) = 2.68100 3.18802 2.94544
# Velocity P-wave (km/s) = 4.62922 5.18983 4.91752
#
# Compressibility (1/GPa) = 0.04488452
#
# Stress axis : x y z
#
# Youngs Moduli (GPa) = 39.76554 52.06752 34.10899
#
# Poissons Ratio (x) = 0.08805 0.05047
# Poissons Ratio (y) = 0.06724 0.38279
# Poissons Ratio (z) = 0.05884 0.58433
#
# Static dielectric constant tensor:
#      x y z
#    x 1.817590 0.000000 0.000000 
#    y 0.000000 1.683650 0.000000 
#    z 0.000000 0.000000 1.626670 
# 
# From -- ./inp_files/31681.got.cif
#   From: 2010.05.17/outbox.cif.g08.bks.cpg/sg58_16_cif.got.tgz:31681.got - 2010.06.03 14:20:14.
