data_PCOD9440203
_publ_section_title
;
Structure prediction by ZEFSAII (Michael W. Deem and Ramdas Pophale) SiO2 
 PCOD9440203
Probable space group: P B C M
;
_chemical_formula_sum "Si O2"
_cell_formula_units_Z 24
_cell_length_a 11.703785
_cell_length_b 8.671369
_cell_length_c 9.583081
_cell_angle_alpha 90.000000
_cell_angle_beta 90.000000
_cell_angle_gamma 90.000000
_cell_volume 972.566176
_symmetry_space_group_name_H-M "P B C M"
_symmetry_group_IT_number 57
_symmetry_cell_setting 'orthorhombic'
loop_
_space_group_symop_operation_xyz
x,y,z
-x,-y,1/2+z
x,1/2-y,-z
-x,1/2+y,1/2-z
-x,-y,-z
x,y,1/2-z
-x,1/2+y,z
x,1/2-y,1/2+z
loop_
_atom_site_type_symbol
_atom_site_label
_atom_site_fract_x
_atom_site_fract_y
_atom_site_fract_z
Si Si1 0.635858 0.465663 0.750000
Si Si2 0.769779 0.494055 0.479328
Si Si3 0.895284 0.280354 0.250000
Si Si4 0.052050 0.250000 0.500000
Si Si5 0.381540 0.163918 0.250000
O O1 0.706410 0.420452 0.612256
O O2 0.625586 0.651188 0.750000
O O3 0.512707 0.388588 0.750000
O O4 0.828758 0.379311 0.372260
O O5 0.864556 0.610110 0.540085
O O6 0.680469 0.593611 0.386346
O O7 0.976475 0.201631 0.370332
#
# Coordination Sequence:
#
# PCOD9440203 Si02
#       5
#     4   8   4   4   4
#     4  12  23  46  77 106 150 194 244 305 374 447
#     4  11  24  45  71 102 147 193 245 297 376 440
#     4  11  26  41  69 104 134 193 245 305 353 445
#     4  12  22  46  72  96 150 192 248 294 368 446
#     4  11  23  45  74 108 144 197 247 296 373 442
#
# _framework density 24.676984999999998
#
# number of rings (size 3 to 8) (size 9 to 14) (size 15 to 20)
#    0.000    0.667    3.333    5.000    0.000    1.333 
#   12.000    0.000    0.000    0.000    0.000    0.000 
#    0.000    0.000    0.000    0.000    0.000    0.000 
#
# Total GULP energy -133746.950274 kJ/mol
# GULP energy per Si atom -5572.789595 kJ/mol
# Density = 2.462082 g / cm^3
# Si number density = 24.676985 Si / 1000 Ang^3
#
#
#
# Elastic Constant Matrix: (Units=GPa)
#
#
# Indices 1 2 3 4 5 6 
#
# 1 103.5670 41.2691 13.8962 0.0000 0.0000 0.0000
# 2 41.2691 67.1628 -4.9039 0.0000 0.0000 0.0000
# 3 13.8962 -4.9039 173.0786 0.0000 0.0000 0.0000
# 4 0.0000 0.0000 0.0000 -1.5141 0.0000 0.0000
# 5 0.0000 0.0000 0.0000 0.0000 50.8754 0.0000
# 6 0.0000 0.0000 0.0000 0.0000 0.0000 31.7350
#
#
#
# Elastic Compliance Matrix: (Units=1/GPa)
#
#
# Indices 1 2 3 4 5 6 
#
# 1 0.013063 -0.008120 -0.001279 0.000000 0.000000 0.000000
# 2 -0.008120 0.019968 0.001218 0.000000 0.000000 0.000000
# 3 -0.001279 0.001218 0.005915 0.000000 0.000000 0.000000
# 4 0.000000 0.000000 0.000000 -0.660437 0.000000 0.000000
# 5 0.000000 0.000000 0.000000 0.000000 0.019656 0.000000
# 6 0.000000 0.000000 0.000000 0.000000 0.000000 0.031511
#
#
# Mechanical properties :
#
#
# Convention : Reuss Voigt Hill
#
# Bulk Modulus (GPa) = 44.28125 49.37014 46.82570
# Shear Modulus (GPa) = -9.15022 35.78904 13.31941
#
# Velocity S-wave (km/s) = -1.92771 3.81241 2.32577
# Velocity P-wave (km/s) = 3.60951 6.27928 5.12142
#
# Compressibility (1/GPa) = 0.02258292
#
# Stress axis : x y z
#
# Youngs Moduli (GPa) = 76.55311 50.08122 169.06455
#
# Poissons Ratio (x) = 0.40666 0.21621
# Poissons Ratio (y) = 0.62161 -0.20587
# Poissons Ratio (z) = 0.09790 -0.06098
#
# Static dielectric constant tensor:
#      x y z
#    x 1.994900 0.000000 0.000000 
#    y 0.000000 1.992130 0.000000 
#    z 0.000000 0.000000 3.981280 
# 
# From -- ./inp_files/2304.got.cif
#   From: 2010.05.17/outbox.cif.g08.bks.cpg/sg57_2_cif.got.tgz:2304.got - 2010.06.03 13:58:18.
