data_PCOD9440511
_publ_section_title
;
Structure prediction by ZEFSAII (Michael W. Deem and Ramdas Pophale) SiO2 
 PCOD9440511
Probable space group: P B C M
;
_chemical_formula_sum "Si O2"
_cell_formula_units_Z 48
_cell_length_a 21.000000
_cell_length_b 15.000000
_cell_length_c 9.000000
_cell_angle_alpha 90.000000
_cell_angle_beta 90.000000
_cell_angle_gamma 90.000000
_cell_volume 2835.000000
_symmetry_space_group_name_H-M "P B C M"
_symmetry_group_IT_number 57
_symmetry_cell_setting 'orthorhombic'
loop_
_space_group_symop_operation_xyz
x,y,z
-x,-y,1/2+z
x,1/2-y,-z
-x,1/2+y,1/2-z
-x,-y,-z
x,y,1/2-z
-x,1/2+y,z
x,1/2-y,1/2+z
loop_
_atom_site_type_symbol
_atom_site_label
_atom_site_fract_x
_atom_site_fract_y
_atom_site_fract_z
Si Si1 0.241445 0.008388 0.927439
Si Si2 0.337414 0.650990 0.429097
Si Si3 0.997372 0.151351 0.928306
Si Si4 0.569102 0.492567 0.071587
Si Si5 0.332541 0.151431 0.072342
Si Si6 0.906756 0.007694 0.072002
O O1 0.248133 0.023147 0.750000
O O2 0.167354 0.000615 0.964298
O O3 0.277165 0.914612 0.960431
O O4 0.274283 0.091601 0.009899
O O5 0.332912 0.750000 0.500000
O O6 0.344276 0.658704 0.250000
O O7 0.394523 0.591873 0.498894
O O8 0.993405 0.160594 0.750000
O O9 0.056888 0.085170 0.963958
O O10 0.000978 0.250000 0.000000
O O11 0.938904 0.091552 0.989781
O O12 0.566574 0.481403 0.250000
O O13 0.607896 0.584637 0.041108
O O14 0.500000 0.500000 0.000000
O O15 0.327267 0.161647 0.250000
O O16 0.336944 0.250000 0.000000
O O17 0.913613 0.021301 0.250000
#
# Coordination Sequence:
#
# PCOD9440511 Si02
#       6
#     8   8   8   8   8   8
#     4   9  19  36  56  78 106 138 173 216 263 311
#     4  10  20  35  55  78 106 139 174 215 262 312
#     4  10  20  34  53  76 105 139 175 217 262 311
#     4  10  21  37  56  79 107 139 176 217 261 310
#     4  10  21  36  55  79 107 139 175 215 259 309
#     4   9  19  36  55  77 105 137 175 217 262 311
#
# _framework density 16.931217
#
# number of rings (size 3 to 8) (size 9 to 14) (size 15 to 20)
#    0.000    2.333    0.000    2.000    0.000    6.000 
#    0.000    5.000    0.000    0.000    0.000    0.000 
#    0.000    0.000    0.000    0.000    0.000    0.000 
#
# Total GULP energy -267693.535137 kJ/mol
# GULP energy per Si atom -5576.948649 kJ/mol
# Density = 1.689268 g / cm^3
# Si number density = 16.931217 Si / 1000 Ang^3
#
#
#
# Elastic Constant Matrix: (Units=GPa)
#
#
# Indices 1 2 3 4 5 6 
#
# 1 151.3055 86.7564 63.2257 0.0000 0.0000 0.0000
# 2 86.7564 204.7049 83.4263 0.0000 0.0000 0.0000
# 3 63.2257 83.4263 87.4751 0.0000 0.0000 0.0000
# 4 0.0000 0.0000 0.0000 41.2209 0.0000 0.0000
# 5 0.0000 0.0000 0.0000 0.0000 25.0883 0.0000
# 6 0.0000 0.0000 0.0000 0.0000 0.0000 12.2914
#
#
#
# Elastic Compliance Matrix: (Units=1/GPa)
#
#
# Indices 1 2 3 4 5 6 
#
# 1 0.009999 -0.002114 -0.005211 0.000000 0.000000 0.000000
# 2 -0.002114 0.008438 -0.006520 0.000000 0.000000 0.000000
# 3 -0.005211 -0.006520 0.021416 0.000000 0.000000 0.000000
# 4 0.000000 0.000000 0.000000 0.024260 0.000000 0.000000
# 5 0.000000 0.000000 0.000000 0.000000 0.039859 0.000000
# 6 0.000000 0.000000 0.000000 0.000000 0.000000 0.081358
#
#
# Mechanical properties :
#
#
# Convention : Reuss Voigt Hill
#
# Bulk Modulus (GPa) = 82.20954 101.14468 91.67711
# Shear Modulus (GPa) = 23.03382 29.72526 26.37954
#
# Velocity S-wave (km/s) = 3.69241 4.19459 3.95149
# Velocity P-wave (km/s) = 8.17551 9.12840 8.66506
#
# Compressibility (1/GPa) = 0.01216404
#
# Stress axis : x y z
#
# Youngs Moduli (GPa) = 100.01338 118.51184 46.69429
#
# Poissons Ratio (x) = 0.25052 0.24332
# Poissons Ratio (y) = 0.21142 0.30442
# Poissons Ratio (z) = 0.52115 0.77264
#
# Static dielectric constant tensor:
#      x y z
#    x 1.581500 0.000000 0.000000 
#    y 0.000000 1.530100 0.000000 
#    z 0.000000 0.000000 1.570110 
# 
# From -- ./inp_files/7868.got.cif
#   From: 2010.05.17/outbox.ucp.g08.bks.cvg/sg57_4_cif.got.tgz:7868.got - 2010.06.11 16:39:23.
