data_PCOD9440024
_publ_section_title
;
Structure prediction by ZEFSAII (Michael W. Deem and Ramdas Pophale) SiO2 
 PCOD9440024
Probable space group: P B C M
;
_chemical_formula_sum "Si O2"
_cell_formula_units_Z 56
_cell_length_a 15.416765
_cell_length_b 21.213866
_cell_length_c 8.363952
_cell_angle_alpha 90.000000
_cell_angle_beta 90.000000
_cell_angle_gamma 90.000000
_cell_volume 2735.423701
_symmetry_space_group_name_H-M "P B C M"
_symmetry_group_IT_number 57
_symmetry_cell_setting 'orthorhombic'
loop_
_space_group_symop_operation_xyz
x,y,z
-x,-y,1/2+z
x,1/2-y,-z
-x,1/2+y,1/2-z
-x,-y,-z
x,y,1/2-z
-x,1/2+y,z
x,1/2-y,1/2+z
loop_
_atom_site_type_symbol
_atom_site_label
_atom_site_fract_x
_atom_site_fract_y
_atom_site_fract_z
Si Si1 0.946594 0.061724 0.556910
Si Si2 0.794084 0.609293 0.569289
Si Si3 0.455238 0.816171 0.440366
Si Si4 0.764732 0.482331 0.065924
Si Si5 0.578611 0.454355 0.938505
Si Si6 0.948669 0.682398 0.439426
Si Si7 0.648773 0.817397 0.936751
O O1 0.949044 0.062133 0.750000
O O2 0.845092 0.059796 0.507503
O O3 0.990593 0.124431 0.489787
O O4 0.000000 0.000000 0.500000
O O5 0.811434 0.588892 0.750000
O O6 0.805950 0.551809 0.449352
O O7 0.857175 0.665871 0.522529
O O8 0.696272 0.631662 0.544341
O O9 0.412442 0.750000 0.500000
O O10 0.468562 0.810999 0.250000
O O11 0.417085 0.884979 0.479797
O O12 0.546766 0.818818 0.532909
O O13 0.744840 0.467714 0.250000
O O14 0.674591 0.481974 0.971215
O O15 0.564580 0.446187 0.750000
O O16 0.500000 0.500000 0.000000
O O17 0.980452 0.750000 0.500000
O O18 0.937615 0.683856 0.250000
O O19 0.668382 0.826426 0.750000
O O20 0.679451 0.750000 0.000000
#
# Coordination Sequence:
#
# PCOD9440024 Si02
#       7
#     8   8   8   8   8   8   8
#     4  11  23  42  69  97 130 169 215 264 319 383
#     4  12  23  37  58  87 124 164 209 259 322 390
#     4  11  22  40  63  89 122 165 215 267 327 391
#     4  11  24  42  65  95 127 166 215 266 322 386
#     4  12  25  43  66  96 133 173 219 275 332 389
#     4  12  25  42  64  93 130 170 216 269 328 388
#     4  11  21  35  54  81 118 159 206 256 316 385
#
# _framework density 20.472149000000002
#
# number of rings (size 3 to 8) (size 9 to 14) (size 15 to 20)
#    0.000    0.571    1.429    9.429    0.000    1.714 
#    0.000    0.714    0.000    3.429    0.000    0.000 
#    0.000    0.000    0.000    0.000    0.000    0.000 
#
# Total GULP energy -312873.779917 kJ/mol
# GULP energy per Si atom -5587.031784 kJ/mol
# Density = 2.042555 g / cm^3
# Si number density = 20.472149 Si / 1000 Ang^3
#
#
#
# Elastic Constant Matrix: (Units=GPa)
#
#
# Indices 1 2 3 4 5 6 
#
# 1 74.9869 27.7531 17.5482 0.0000 0.0000 0.0000
# 2 27.7531 124.9728 15.4320 0.0000 0.0000 0.0000
# 3 17.5482 15.4320 98.9218 0.0000 0.0000 0.0000
# 4 0.0000 0.0000 0.0000 32.0118 0.0000 0.0000
# 5 0.0000 0.0000 0.0000 0.0000 28.7337 0.0000
# 6 0.0000 0.0000 0.0000 0.0000 0.0000 -142.3826
#
#
#
# Elastic Compliance Matrix: (Units=1/GPa)
#
#
# Indices 1 2 3 4 5 6 
#
# 1 0.014977 -0.003057 -0.002180 0.000000 0.000000 0.000000
# 2 -0.003057 0.008783 -0.000828 0.000000 0.000000 0.000000
# 3 -0.002180 -0.000828 0.010625 0.000000 0.000000 0.000000
# 4 0.000000 0.000000 0.000000 0.031238 0.000000 0.000000
# 5 0.000000 0.000000 0.000000 0.000000 0.034802 0.000000
# 6 0.000000 0.000000 0.000000 0.000000 0.000000 -0.007023
#
#
# Mechanical properties :
#
#
# Convention : Reuss Voigt Hill
#
# Bulk Modulus (GPa) = 44.93285 46.70536 45.81910
# Shear Modulus (GPa) = 44.26730 -0.45086 21.90822
#
# Velocity S-wave (km/s) = 4.65512 -0.46979 3.27486
# Velocity P-wave (km/s) = 7.13368 4.75072 6.06048
#
# Compressibility (1/GPa) = 0.02225543
#
# Stress axis : x y z
#
# Youngs Moduli (GPa) = 66.76826 113.85879 94.11885
#
# Poissons Ratio (x) = 0.34805 0.20518
# Poissons Ratio (y) = 0.20410 0.07792
# Poissons Ratio (z) = 0.14556 0.09426
#
# Static dielectric constant tensor:
#      x y z
#    x 1.740300 0.000000 0.000000 
#    y 0.000000 1.795540 0.000000 
#    z 0.000000 0.000000 1.680050 
# 
# From -- ./inp_files/5264.got.cif
#   From: 2010.05.17/outbox.cif.g08.bks.cpg/sg57_3_cif.got.tgz:5264.got - 2010.06.03 13:58:18.
