data_PCOD9440200
_publ_section_title
;
Structure prediction by ZEFSAII (Michael W. Deem and Ramdas Pophale) SiO2 
 PCOD9440200
Probable space group: P B C M
;
_chemical_formula_sum "Si O2"
_cell_formula_units_Z 40
_cell_length_a 5.015155
_cell_length_b 10.168008
_cell_length_c 30.806879
_cell_angle_alpha 90.000000
_cell_angle_beta 90.000000
_cell_angle_gamma 90.000000
_cell_volume 1570.970182
_symmetry_space_group_name_H-M "P B C M"
_symmetry_group_IT_number 57
_symmetry_cell_setting 'orthorhombic'
loop_
_space_group_symop_operation_xyz
x,y,z
-x,-y,1/2+z
x,1/2-y,-z
-x,1/2+y,1/2-z
-x,-y,-z
x,y,1/2-z
-x,1/2+y,z
x,1/2-y,1/2+z
loop_
_atom_site_type_symbol
_atom_site_label
_atom_site_fract_x
_atom_site_fract_y
_atom_site_fract_z
Si Si1 0.761402 0.733113 0.702025
Si Si2 0.473965 0.338707 0.382744
Si Si3 0.547403 0.655499 0.040067
Si Si4 0.082394 0.971020 0.576121
Si Si5 0.911760 0.988222 0.836313
O O1 0.654103 0.704358 0.750000
O O2 0.563300 0.740693 0.661382
O O3 0.877204 0.879214 0.700356
O O4 0.951038 0.613515 0.686596
O O5 0.572187 0.249401 0.421759
O O6 0.194085 0.388922 0.404813
O O7 0.658796 0.456500 0.364450
O O8 0.299719 0.556363 0.038681
O O9 0.805235 0.574045 0.054939
O O10 0.598613 0.750000 0.000000
O O11 0.067149 0.911083 0.625084
#
# Coordination Sequence:
#
# PCOD9440200 Si02
#       5
#     8   8   8   8   8
#     4  11  24  42  72 109 147 193 249 309 375 454
#     4  11  24  44  73  99 149 199 249 309 381 451
#     4  12  26  44  70 107 148 197 256 315 379 449
#     4  11  23  45  67 103 142 192 246 304 373 444
#     4  11  23  47  73 105 153 198 249 307 384 450
#
# _framework density 25.461974999999999
#
# number of rings (size 3 to 8) (size 9 to 14) (size 15 to 20)
#    0.000    0.800    4.000    2.400    2.800    4.800 
#    0.000    0.000    0.000    0.000    0.000    0.000 
#    0.000    0.000    0.000    0.000    0.000    0.000 
#
# Total GULP energy -222707.615637 kJ/mol
# GULP energy per Si atom -5567.690391 kJ/mol
# Density = 2.540402 g / cm^3
# Si number density = 25.461975 Si / 1000 Ang^3
#
#
#
# Elastic Constant Matrix: (Units=GPa)
#
#
# Indices 1 2 3 4 5 6 
#
# 1 76.4640 8.9188 7.9588 0.0000 0.0000 0.0000
# 2 8.9188 70.1459 19.3099 0.0000 0.0000 0.0000
# 3 7.9588 19.3099 145.2209 0.0000 0.0000 0.0000
# 4 0.0000 0.0000 0.0000 19.9862 0.0000 0.0000
# 5 0.0000 0.0000 0.0000 0.0000 12.6291 0.0000
# 6 0.0000 0.0000 0.0000 0.0000 0.0000 28.8501
#
#
#
# Elastic Compliance Matrix: (Units=1/GPa)
#
#
# Indices 1 2 3 4 5 6 
#
# 1 0.013313 -0.001549 -0.000524 0.000000 0.000000 0.000000
# 2 -0.001549 0.014978 -0.001907 0.000000 0.000000 0.000000
# 3 -0.000524 -0.001907 0.007168 0.000000 0.000000 0.000000
# 4 0.000000 0.000000 0.000000 0.050035 0.000000 0.000000
# 5 0.000000 0.000000 0.000000 0.000000 0.079182 0.000000
# 6 0.000000 0.000000 0.000000 0.000000 0.000000 0.034662
#
#
# Mechanical properties :
#
#
# Convention : Reuss Voigt Hill
#
# Bulk Modulus (GPa) = 36.36193 40.46732 38.41463
# Shear Modulus (GPa) = 23.09864 29.33598 26.21731
#
# Velocity S-wave (km/s) = 3.01521 3.39801 3.21232
# Velocity P-wave (km/s) = 5.14139 5.59670 5.37387
#
# Compressibility (1/GPa) = 0.02750129
#
# Stress axis : x y z
#
# Youngs Moduli (GPa) = 75.11352 66.76558 139.50315
#
# Poissons Ratio (x) = 0.10339 0.07306
# Poissons Ratio (y) = 0.11632 0.26599
# Poissons Ratio (z) = 0.03934 0.12730
#
# Static dielectric constant tensor:
#      x y z
#    x 2.374540 0.000000 0.000000 
#    y 0.000000 2.259200 0.000000 
#    z 0.000000 0.000000 2.010580 
# 
# From -- ./inp_files/27788.got.cif
#   From: 2010.05.17/outbox.cif.g08.bks.cpg/sg57_14_cif.got.tgz:27788.got - 2010.06.03 13:58:18.
