data_PCOD9440883
_publ_section_title
;
Structure prediction by ZEFSAII (Michael W. Deem and Ramdas Pophale) SiO2 
 PCOD9440883
Probable space group: P N N M
;
_chemical_formula_sum "Si O2"
_cell_formula_units_Z 36
_cell_length_a 8.179594
_cell_length_b 16.732612
_cell_length_c 14.086912
_cell_angle_alpha 90.000000
_cell_angle_beta 90.000000
_cell_angle_gamma 90.000000
_cell_volume 1928.018913
_symmetry_space_group_name_H-M "P N N M"
_symmetry_group_IT_number 58
_symmetry_cell_setting 'orthorhombic'
loop_
_space_group_symop_operation_xyz
x,y,z
-x,-y,z
1/2+x,1/2-y,1/2-z
1/2-x,1/2+y,1/2-z
-x,-y,-z
x,y,-z
1/2-x,1/2+y,1/2+z
1/2+x,1/2-y,1/2+z
loop_
_atom_site_type_symbol
_atom_site_label
_atom_site_fract_x
_atom_site_fract_y
_atom_site_fract_z
Si Si1 0.569910 0.358618 0.800392
Si Si2 0.187948 0.912110 0.000000
Si Si3 0.000000 0.000000 0.840831
Si Si4 0.772696 0.257825 0.337908
Si Si5 0.821425 0.847283 0.500000
Si Si6 0.482810 0.178101 0.000000
Si Si7 0.990405 0.743177 0.000000
O O1 0.559623 0.428603 0.724973
O O2 0.698798 0.295068 0.757440
O O3 0.396568 0.313563 0.812980
O O4 0.628903 0.388858 0.902606
O O5 0.375622 0.886590 0.000000
O O6 0.075445 0.831280 0.000000
O O7 0.138535 0.963981 0.090887
O O8 0.873280 0.319942 0.404982
O O9 0.623252 0.234173 0.407195
O O10 0.634014 0.821138 0.500000
O O11 0.925324 0.764207 0.500000
#
# Coordination Sequence:
#
# PCOD9440883 Si02
#       7
#     8   4   4   8   4   4   4
#     4  11  22  38  59  89 118 164 201 242 296 357
#     4  10  20  40  61  93 123 154 184 246 325 367
#     4  11  24  37  62  88 130 159 186 239 322 368
#     4  10  20  34  63  91 116 156 208 244 291 350
#     4   9  20  36  58  85 113 157 206 253 280 337
#     4   8  19  35  62  92 116 146 201 254 290 347
#     4  10  17  38  65  87 118 147 206 264 287 347
#
# _framework density 18.672015999999999
#
# number of rings (size 3 to 8) (size 9 to 14) (size 15 to 20)
#    0.000    2.000    2.222    2.000    6.222    0.444 
#    0.000    2.222    0.000    1.333    0.000    0.000 
#    0.000    0.000    0.000    0.000    0.000    0.000 
#
# Total GULP energy -200960.376921 kJ/mol
# GULP energy per Si atom -5582.232692 kJ/mol
# Density = 1.862952 g / cm^3
# Si number density = 18.672016 Si / 1000 Ang^3
#
#
#
# Elastic Constant Matrix: (Units=GPa)
#
#
# Indices 1 2 3 4 5 6 
#
# 1 98.0972 21.9296 34.1218 0.0000 0.0000 0.0000
# 2 21.9296 50.7114 27.5244 0.0000 0.0000 0.0000
# 3 34.1218 27.5244 123.2628 0.0000 0.0000 0.0000
# 4 0.0000 0.0000 0.0000 80.8275 0.0000 0.0000
# 5 0.0000 0.0000 0.0000 0.0000 41.8887 0.0000
# 6 0.0000 0.0000 0.0000 0.0000 0.0000 13.0429
#
#
#
# Elastic Compliance Matrix: (Units=1/GPa)
#
#
# Indices 1 2 3 4 5 6 
#
# 1 0.011897 -0.003820 -0.002440 0.000000 0.000000 0.000000
# 2 -0.003820 0.023666 -0.004227 0.000000 0.000000 0.000000
# 3 -0.002440 -0.004227 0.009732 0.000000 0.000000 0.000000
# 4 0.000000 0.000000 0.000000 0.012372 0.000000 0.000000
# 5 0.000000 0.000000 0.000000 0.000000 0.023873 0.000000
# 6 0.000000 0.000000 0.000000 0.000000 0.000000 0.076670
#
#
# Mechanical properties :
#
#
# Convention : Reuss Voigt Hill
#
# Bulk Modulus (GPa) = 41.11878 48.80254 44.96066
# Shear Modulus (GPa) = 26.69641 39.71817 33.20729
#
# Velocity S-wave (km/s) = 3.78531 4.61711 4.22175
# Velocity P-wave (km/s) = 6.41671 7.39033 6.92067
#
# Compressibility (1/GPa) = 0.02431979
#
# Stress axis : x y z
#
# Youngs Moduli (GPa) = 84.05641 42.25529 102.75232
#
# Poissons Ratio (x) = 0.16142 0.25074
# Poissons Ratio (y) = 0.32111 0.43433
# Poissons Ratio (z) = 0.20512 0.17861
#
# Static dielectric constant tensor:
#      x y z
#    x 1.646090 0.000000 0.000000 
#    y 0.000000 1.643580 0.000000 
#    z 0.000000 0.000000 1.669430 
# 
# From -- ./inp_files/19433.got.cif
#   From: 2010.05.17/outbox.cif.g08.bks.cpg/sg58_10_cif.got.tgz:19433.got - 2010.06.03 14:20:14.
