data_PCOD9440921
_publ_section_title
;
Structure prediction by ZEFSAII (Michael W. Deem and Ramdas Pophale) SiO2 
 PCOD9440921
Probable space group: P N N M
;
_chemical_formula_sum "Si O2"
_cell_formula_units_Z 56
_cell_length_a 18.335562
_cell_length_b 22.818651
_cell_length_c 8.753503
_cell_angle_alpha 90.000000
_cell_angle_beta 90.000000
_cell_angle_gamma 90.000000
_cell_volume 3662.402544
_symmetry_space_group_name_H-M "P N N M"
_symmetry_group_IT_number 58
_symmetry_cell_setting 'orthorhombic'
loop_
_space_group_symop_operation_xyz
x,y,z
-x,-y,z
1/2+x,1/2-y,1/2-z
1/2-x,1/2+y,1/2-z
-x,-y,-z
x,y,-z
1/2-x,1/2+y,1/2+z
1/2+x,1/2-y,1/2+z
loop_
_atom_site_type_symbol
_atom_site_label
_atom_site_fract_x
_atom_site_fract_y
_atom_site_fract_z
Si Si1 0.625797 0.152737 0.182822
Si Si2 0.877962 0.344586 0.182946
Si Si3 0.007763 0.432435 0.183884
Si Si4 0.574575 0.718613 0.181349
Si Si5 0.717614 0.684179 0.318260
Si Si6 0.236516 0.190267 0.817500
Si Si7 0.921220 0.778717 0.817985
O O1 0.575679 0.100125 0.239336
O O2 0.711709 0.145276 0.221342
O O3 0.597021 0.212947 0.259370
O O4 0.620418 0.159748 0.000000
O O5 0.909318 0.283032 0.247106
O O6 0.797782 0.353434 0.254699
O O7 0.935166 0.395367 0.221472
O O8 0.872161 0.339858 0.000000
O O9 0.000000 0.500000 0.229106
O O10 0.016975 0.429831 0.000000
O O11 0.639993 0.676587 0.237402
O O12 0.494960 0.700443 0.238651
O O13 0.576385 0.723772 0.000000
O O14 0.707070 0.683158 0.500000
O O15 0.743163 0.748842 0.265410
O O16 0.150763 0.182197 0.786410
O O17 0.245257 0.197153 0.000000
O O18 0.931952 0.776027 0.000000
#
# Coordination Sequence:
#
# PCOD9440921 Si02
#       7
#     8   8   8   8   8   8   8
#     4  10  19  30  45  63  83 112 147 186 223 256
#     4  10  18  29  44  59  82 114 145 181 221 256
#     4  10  21  34  47  63  85 118 155 187 222 263
#     4  11  19  26  41  64  88 114 146 178 211 256
#     4   9  17  28  41  59  84 112 143 174 214 263
#     4   9  17  27  41  60  82 110 144 176 211 258
#     4  10  18  28  42  61  87 118 145 174 214 260
#
# _framework density 15.290509
#
# number of rings (size 3 to 8) (size 9 to 14) (size 15 to 20)
#    0.000    2.143    1.429    5.143    0.000    4.286 
#    0.000    0.000    0.000    0.000    0.000    0.000 
#    0.000    1.143    0.000   12.857    0.000    5.714 
#
# Total GULP energy -312031.432963 kJ/mol
# GULP energy per Si atom -5571.989874 kJ/mol
# Density = 1.525571 g / cm^3
# Si number density = 15.290509 Si / 1000 Ang^3
#
#
#
# Elastic Constant Matrix: (Units=GPa)
#
#
# Indices 1 2 3 4 5 6 
#
# 1 158.1484 37.8979 50.7930 0.0000 0.0000 0.0000
# 2 37.8979 43.1808 18.1908 0.0000 0.0000 0.0000
# 3 50.7930 18.1908 55.2739 0.0000 0.0000 0.0000
# 4 0.0000 0.0000 0.0000 9.8553 0.0000 0.0000
# 5 0.0000 0.0000 0.0000 0.0000 31.6881 0.0000
# 6 0.0000 0.0000 0.0000 0.0000 0.0000 12.5581
#
#
#
# Elastic Compliance Matrix: (Units=1/GPa)
#
#
# Indices 1 2 3 4 5 6 
#
# 1 0.010059 -0.005729 -0.007359 0.000000 0.000000 0.000000
# 2 -0.005729 0.030148 -0.004658 0.000000 0.000000 0.000000
# 3 -0.007359 -0.004658 0.026387 0.000000 0.000000 0.000000
# 4 0.000000 0.000000 0.000000 0.101468 0.000000 0.000000
# 5 0.000000 0.000000 0.000000 0.000000 0.031558 0.000000
# 6 0.000000 0.000000 0.000000 0.000000 0.000000 0.079630
#
#
# Mechanical properties :
#
#
# Convention : Reuss Voigt Hill
#
# Bulk Modulus (GPa) = 32.14961 52.26293 42.20627
# Shear Modulus (GPa) = 15.37952 20.80174 18.09063
#
# Velocity S-wave (km/s) = 3.17491 3.69241 3.44339
# Velocity P-wave (km/s) = 5.87465 7.24104 6.59334
#
# Compressibility (1/GPa) = 0.03110457
#
# Stress axis : x y z
#
# Youngs Moduli (GPa) = 99.41027 33.16931 37.89813
#
# Poissons Ratio (x) = 0.19002 0.27887
# Poissons Ratio (y) = 0.56949 0.17651
# Poissons Ratio (z) = 0.73151 0.15449
#
# Static dielectric constant tensor:
#      x y z
#    x 1.572320 0.000000 0.000000 
#    y 0.000000 1.465250 0.000000 
#    z 0.000000 0.000000 1.511580 
# 
# From -- ./inp_files/8438.got.cif
#   From: 2010.05.17/outbox.cif.g08.bks.cpg/sg58_5_cif.got.tgz:8438.got - 2010.06.03 14:20:14.
