data_PCOD9440274
_publ_section_title
;
Structure prediction by ZEFSAII (Michael W. Deem and Ramdas Pophale) SiO2 
 PCOD9440274
Probable space group: P B C M
;
_chemical_formula_sum "Si O2"
_cell_formula_units_Z 36
_cell_length_a 5.322216
_cell_length_b 9.439753
_cell_length_c 25.585183
_cell_angle_alpha 90.000000
_cell_angle_beta 90.000000
_cell_angle_gamma 90.000000
_cell_volume 1285.409942
_symmetry_space_group_name_H-M "P B C M"
_symmetry_group_IT_number 57
_symmetry_cell_setting 'orthorhombic'
loop_
_space_group_symop_operation_xyz
x,y,z
-x,-y,1/2+z
x,1/2-y,-z
-x,1/2+y,1/2-z
-x,-y,-z
x,y,1/2-z
-x,1/2+y,z
x,1/2-y,1/2+z
loop_
_atom_site_type_symbol
_atom_site_label
_atom_site_fract_x
_atom_site_fract_y
_atom_site_fract_z
Si Si1 0.012870 0.346001 0.304786
Si Si2 0.340880 0.833724 0.579756
Si Si3 0.718503 0.750000 0.500000
Si Si4 0.488285 0.657301 0.193343
Si Si5 0.040307 0.936698 0.419316
O O1 0.016901 0.428255 0.250000
O O2 0.256908 0.247370 0.306618
O O3 0.014913 0.433237 0.357200
O O4 0.760068 0.254294 0.304548
O O5 0.539656 0.852732 0.534197
O O6 0.463013 0.895082 0.633439
O O7 0.289323 0.663411 0.580217
O O8 0.071654 0.907143 0.569297
O O9 0.867871 0.847801 0.459414
O O10 0.493793 0.576917 0.250000
#
# Coordination Sequence:
#
# PCOD9440274 Si02
#       5
#     8   8   4   8   8
#     4   9  18  38  66  99 136 177 223 278 344 415
#     4  11  25  44  68  99 136 179 231 290 352 419
#     4  12  24  44  66  96 130 184 234 296 340 416
#     4   9  18  38  66  99 136 177 223 278 344 415
#     4  11  25  44  68  99 136 179 231 290 352 419
#
# _framework density 28.006629
#
# number of rings (size 3 to 8) (size 9 to 14) (size 15 to 20)
#    0.000    1.778    2.222    1.333    0.000    6.222 
#    0.000    0.000    0.000    8.000    0.000    0.000 
#    0.000    0.000    0.000    0.000    0.000    0.000 
#
# Total GULP energy -201073.376749 kJ/mol
# GULP energy per Si atom -5585.371576 kJ/mol
# Density = 2.794289 g / cm^3
# Si number density = 28.006629 Si / 1000 Ang^3
#
#
#
# Elastic Constant Matrix: (Units=GPa)
#
#
# Indices 1 2 3 4 5 6 
#
# 1 141.2766 19.5023 24.2768 0.0000 0.0000 0.0000
# 2 19.5023 83.9841 38.8352 0.0000 0.0000 0.0000
# 3 24.2768 38.8352 211.7562 0.0000 0.0000 0.0000
# 4 0.0000 0.0000 0.0000 -0.5102 0.0000 0.0000
# 5 0.0000 0.0000 0.0000 0.0000 33.0034 0.0000
# 6 0.0000 0.0000 0.0000 0.0000 0.0000 28.6372
#
#
#
# Elastic Compliance Matrix: (Units=1/GPa)
#
#
# Indices 1 2 3 4 5 6 
#
# 1 0.007378 -0.001445 -0.000581 0.000000 0.000000 0.000000
# 2 -0.001445 0.013293 -0.002272 0.000000 0.000000 0.000000
# 3 -0.000581 -0.002272 0.005206 0.000000 0.000000 0.000000
# 4 0.000000 0.000000 0.000000 -1.960016 0.000000 0.000000
# 5 0.000000 0.000000 0.000000 0.000000 0.030300 0.000000
# 6 0.000000 0.000000 0.000000 0.000000 0.000000 0.034920
#
#
# Mechanical properties :
#
#
# Convention : Reuss Voigt Hill
#
# Bulk Modulus (GPa) = 57.86702 66.91616 62.39159
# Shear Modulus (GPa) = -2.69605 35.85291 16.57843
#
# Velocity S-wave (km/s) = -0.98221 3.58181 2.43563
# Velocity P-wave (km/s) = 4.40686 6.40708 5.49869
#
# Compressibility (1/GPa) = 0.01728100
#
# Stress axis : x y z
#
# Youngs Moduli (GPa) = 135.54647 75.22641 192.09570
#
# Poissons Ratio (x) = 0.10867 0.11158
# Poissons Ratio (y) = 0.19581 0.43650
# Poissons Ratio (z) = 0.07874 0.17094
#
# Static dielectric constant tensor:
#      x y z
#    x 2.175400 0.000000 0.000000 
#    y 0.000000 2.313310 0.000000 
#    z 0.000000 0.000000 2.118430 
# 
# From -- ./inp_files/27804.got.cif
#   From: 2010.05.17/outbox.cif.g08.bks.cpg/sg57_14_cif.got.tgz:27804.got - 2010.06.03 13:58:18.
