data_PCOD9440986
_publ_section_title
;
Structure prediction by ZEFSAII (Michael W. Deem and Ramdas Pophale) SiO2 
 PCOD9440986
Probable space group: P N N M
;
_chemical_formula_sum "Si O2"
_cell_formula_units_Z 56
_cell_length_a 19.012605
_cell_length_b 21.345617
_cell_length_c 8.699254
_cell_angle_alpha 90.000000
_cell_angle_beta 90.000000
_cell_angle_gamma 90.000000
_cell_volume 3530.468572
_symmetry_space_group_name_H-M "P N N M"
_symmetry_group_IT_number 58
_symmetry_cell_setting 'orthorhombic'
loop_
_space_group_symop_operation_xyz
x,y,z
-x,-y,z
1/2+x,1/2-y,1/2-z
1/2-x,1/2+y,1/2-z
-x,-y,-z
x,y,-z
1/2-x,1/2+y,1/2+z
1/2+x,1/2-y,1/2+z
loop_
_atom_site_type_symbol
_atom_site_label
_atom_site_fract_x
_atom_site_fract_y
_atom_site_fract_z
Si Si1 0.356538 0.870165 0.181949
Si Si2 0.722472 0.684374 0.177200
Si Si3 0.082302 0.498077 0.815737
Si Si4 0.917411 0.246806 0.685932
Si Si5 0.071584 0.245705 0.185407
Si Si6 0.704676 0.321938 0.322903
Si Si7 0.155159 0.621672 0.313185
O O1 0.275062 0.857748 0.225199
O O2 0.383105 0.935514 0.248806
O O3 0.400901 0.812992 0.255425
O O4 0.365973 0.868640 0.000000
O O5 0.643165 0.697199 0.231833
O O6 0.757274 0.753877 0.174914
O O7 0.721724 0.662426 0.000000
O O8 0.120537 0.559557 0.751721
O O9 0.000000 0.500000 0.772311
O O10 0.086981 0.497095 0.000000
O O11 0.921207 0.245423 0.500000
O O12 0.889983 0.316477 0.729242
O O13 0.993134 0.234630 0.756896
O O14 0.128023 0.193638 0.243437
O O15 0.074190 0.246455 0.000000
O O16 0.693957 0.341517 0.500000
O O17 0.764427 0.367351 0.256533
O O18 0.156552 0.619549 0.500000
#
# Coordination Sequence:
#
# PCOD9440986 Si02
#       7
#     8   8   8   8   8   8   8
#     4  11  21  32  47  66  90 122 159 193 225 268
#     4   8  15  30  48  65  90 121 150 184 228 272
#     4  11  23  35  46  64  91 122 154 187 226 270
#     4   9  17  29  47  71  97 123 150 185 229 273
#     4  10  18  29  46  68  96 125 151 185 229 272
#     4   7  13  27  45  63  85 117 150 180 221 267
#     4   9  17  31  48  64  87 120 156 188 219 262
#
# _framework density 15.861917
#
# number of rings (size 3 to 8) (size 9 to 14) (size 15 to 20)
#    0.000    2.714    0.000    5.571    0.000    4.571 
#    0.000    6.429    0.000    0.000    0.000    1.000 
#    0.000    8.000    0.000    0.000    0.000    0.000 
#
# Total GULP energy -311929.761130 kJ/mol
# GULP energy per Si atom -5570.174306 kJ/mol
# Density = 1.582581 g / cm^3
# Si number density = 15.861917 Si / 1000 Ang^3
#
#
#
# Elastic Constant Matrix: (Units=GPa)
#
#
# Indices 1 2 3 4 5 6 
#
# 1 165.4181 60.4804 39.0597 0.0000 0.0000 0.0000
# 2 60.4804 68.1016 26.2638 0.0000 0.0000 0.0000
# 3 39.0597 26.2638 36.8028 0.0000 0.0000 0.0000
# 4 0.0000 0.0000 0.0000 8.3957 0.0000 0.0000
# 5 0.0000 0.0000 0.0000 0.0000 232.5684 0.0000
# 6 0.0000 0.0000 0.0000 0.0000 0.0000 25.1327
#
#
#
# Elastic Compliance Matrix: (Units=1/GPa)
#
#
# Indices 1 2 3 4 5 6 
#
# 1 0.009763 -0.006450 -0.005759 0.000000 0.000000 0.000000
# 2 -0.006450 0.024520 -0.010653 0.000000 0.000000 0.000000
# 3 -0.005759 -0.010653 0.040887 0.000000 0.000000 0.000000
# 4 0.000000 0.000000 0.000000 0.119108 0.000000 0.000000
# 5 0.000000 0.000000 0.000000 0.000000 0.004300 0.000000
# 6 0.000000 0.000000 0.000000 0.000000 0.000000 0.039789
#
#
# Mechanical properties :
#
#
# Convention : Reuss Voigt Hill
#
# Bulk Modulus (GPa) = 33.96059 57.99224 45.97642
# Shear Modulus (GPa) = 17.01213 62.85393 39.93303
#
# Velocity S-wave (km/s) = 3.27848 6.30172 5.02295
# Velocity P-wave (km/s) = 5.98229 9.46515 7.91760
#
# Compressibility (1/GPa) = 0.02944590
#
# Stress axis : x y z
#
# Youngs Moduli (GPa) = 102.42378 40.78246 24.45753
#
# Poissons Ratio (x) = 0.26303 0.14086
# Poissons Ratio (y) = 0.66059 0.26056
# Poissons Ratio (z) = 0.58990 0.43447
#
# Static dielectric constant tensor:
#      x y z
#    x 1.565270 0.000000 0.000000 
#    y 0.000000 1.499920 0.000000 
#    z 0.000000 0.000000 1.536680 
# 
# From -- ./inp_files/8198.got.cif
#   From: 2010.05.17/outbox.cif.g08.bks.cpg/sg58_5_cif.got.tgz:8198.got - 2010.06.03 14:20:14.
