data_PCOD9440719
_publ_section_title
;
Structure prediction by ZEFSAII (Michael W. Deem and Ramdas Pophale) SiO2 
 PCOD9440719
Probable space group: P N N M
;
_chemical_formula_sum "Si O2"
_cell_formula_units_Z 52
_cell_length_a 10.371504
_cell_length_b 7.000080
_cell_length_c 27.427651
_cell_angle_alpha 90.000000
_cell_angle_beta 90.000000
_cell_angle_gamma 90.000000
_cell_volume 1991.284702
_symmetry_space_group_name_H-M "P N N M"
_symmetry_group_IT_number 58
_symmetry_cell_setting 'orthorhombic'
loop_
_space_group_symop_operation_xyz
x,y,z
-x,-y,z
1/2+x,1/2-y,1/2-z
1/2-x,1/2+y,1/2-z
-x,-y,-z
x,y,-z
1/2-x,1/2+y,1/2+z
1/2+x,1/2-y,1/2+z
loop_
_atom_site_type_symbol
_atom_site_label
_atom_site_fract_x
_atom_site_fract_y
_atom_site_fract_z
Si Si1 0.598265 0.274698 0.287427
Si Si2 0.500000 0.500000 0.129450
Si Si3 0.155568 0.632914 0.761902
Si Si4 0.532303 0.788580 0.441334
Si Si5 0.247707 0.172531 0.054828
Si Si6 0.173592 0.659407 0.345318
Si Si7 0.192639 0.132055 0.555850
O O1 0.693408 0.322011 0.241895
O O2 0.446604 0.294991 0.278112
O O3 0.672420 0.354460 0.333926
O O4 0.627145 0.049176 0.293836
O O5 0.604585 0.631810 0.156366
O O6 0.420864 0.642527 0.094406
O O7 0.124199 0.576140 0.705683
O O8 0.545036 0.808226 0.500000
O O9 0.406294 0.659146 0.435952
O O10 0.500000 0.000000 0.420821
O O11 0.680153 0.754044 0.426854
O O12 0.333711 0.094302 0.099061
O O13 0.271790 0.403948 0.055065
O O14 0.275694 0.105054 0.000000
O O15 0.156298 0.178756 0.500000
#
# Coordination Sequence:
#
# PCOD9440719 Si02
#       7
#     8   4   8   8   8   8   8
#     4   9  20  37  57  79 107 138 179 229 278 320
#     4  10  17  24  34  64  90 136 166 214 253 310
#     4   9  20  37  55  80 108 140 176 231 273 323
#     4   7  10  18  32  49  76 119 163 201 243 294
#     4   8  13  25  40  63  97 131 165 211 259 314
#     4   9  20  30  48  74 103 138 182 216 271 333
#     4   8  13  21  32  51  85 130 172 202 247 308
#
# _framework density 26.113793000000001
#
# number of rings (size 3 to 8) (size 9 to 14) (size 15 to 20)
#    0.923    2.615    0.000    2.077    2.154    1.231 
#   13.846    0.000    0.000    0.000    0.000    2.154 
#    0.000    3.692    0.000    0.000    0.000    0.000 
#
# Total GULP energy -289492.927258 kJ/mol
# GULP energy per Si atom -5567.171678 kJ/mol
# Density = 2.605436 g / cm^3
# Si number density = 26.113793 Si / 1000 Ang^3
#
#
#
# Elastic Constant Matrix: (Units=GPa)
#
#
# Indices 1 2 3 4 5 6 
#
# 1 113.4143 21.5998 29.5196 0.0000 0.0000 0.0000
# 2 21.5998 60.7146 7.9552 0.0000 0.0000 0.0000
# 3 29.5196 7.9552 90.5139 0.0000 0.0000 0.0000
# 4 0.0000 0.0000 0.0000 -38.1799 0.0000 0.0000
# 5 0.0000 0.0000 0.0000 0.0000 -8.1119 0.0000
# 6 0.0000 0.0000 0.0000 0.0000 0.0000 41.7535
#
#
#
# Elastic Compliance Matrix: (Units=1/GPa)
#
#
# Indices 1 2 3 4 5 6 
#
# 1 0.010228 -0.003239 -0.003051 0.000000 0.000000 0.000000
# 2 -0.003239 0.017688 -0.000498 0.000000 0.000000 0.000000
# 3 -0.003051 -0.000498 0.012087 0.000000 0.000000 0.000000
# 4 0.000000 0.000000 0.000000 -0.026192 0.000000 0.000000
# 5 0.000000 0.000000 0.000000 0.000000 -0.123275 0.000000
# 6 0.000000 0.000000 0.000000 0.000000 0.000000 0.023950
#
#
# Mechanical properties :
#
#
# Convention : Reuss Voigt Hill
#
# Bulk Modulus (GPa) = 37.84079 42.53245 40.18662
# Shear Modulus (GPa) = -79.20434 12.79687 -33.20373
#
# Velocity S-wave (km/s) = -5.51328 2.21609 -3.56968
# Velocity P-wave (km/s) = 5.09963 4.78234 1.25208
#
# Compressibility (1/GPa) = 0.02642651
#
# Stress axis : x y z
#
# Youngs Moduli (GPa) = 97.76848 56.53516 82.73429
#
# Poissons Ratio (x) = 0.18312 0.25243
# Poissons Ratio (y) = 0.31667 0.04122
# Poissons Ratio (z) = 0.29830 0.02817
#
# Static dielectric constant tensor:
#      x y z
#    x 2.150490 0.000000 0.000000 
#    y 0.000000 2.178060 0.000000 
#    z 0.000000 0.000000 1.982430 
# 
# From -- ./inp_files/34971.got.cif
#   From: 2010.05.17/outbox.cif.g08.bks.cpg/sg58_18_cif.got.tgz:34971.got - 2010.06.03 14:20:14.
