data_PCOD9440830
_publ_section_title
;
Structure prediction by ZEFSAII (Michael W. Deem and Ramdas Pophale) SiO2 
 PCOD9440830
Probable space group: P N N M
;
_chemical_formula_sum "Si O2"
_cell_formula_units_Z 52
_cell_length_a 24.845898
_cell_length_b 7.699147
_cell_length_c 15.269006
_cell_angle_alpha 90.000000
_cell_angle_beta 90.000000
_cell_angle_gamma 90.000000
_cell_volume 2920.842071
_symmetry_space_group_name_H-M "P N N M"
_symmetry_group_IT_number 58
_symmetry_cell_setting 'orthorhombic'
loop_
_space_group_symop_operation_xyz
x,y,z
-x,-y,z
1/2+x,1/2-y,1/2-z
1/2-x,1/2+y,1/2-z
-x,-y,-z
x,y,-z
1/2-x,1/2+y,1/2+z
1/2+x,1/2-y,1/2+z
loop_
_atom_site_type_symbol
_atom_site_label
_atom_site_fract_x
_atom_site_fract_y
_atom_site_fract_z
Si Si1 0.711044 0.290581 0.500000
Si Si2 0.754506 0.406339 0.000000
Si Si3 0.304662 0.931532 0.000000
Si Si4 0.591834 0.811609 0.396525
Si Si5 0.521894 0.305258 0.399279
Si Si6 0.803930 0.228888 0.828051
Si Si7 0.132302 0.304947 0.844351
Si Si8 0.195081 0.471509 0.691835
O O1 0.747407 0.462531 0.500000
O O2 0.672838 0.276199 0.584671
O O3 0.747683 0.114543 0.500000
O O4 0.784864 0.344790 0.088226
O O5 0.703604 0.277173 0.000000
O O6 0.328528 0.980160 0.905997
O O7 0.591686 0.775148 0.500000
O O8 0.530071 0.801043 0.367221
O O9 0.634693 0.681914 0.351549
O O10 0.614222 0.003379 0.377900
O O11 0.500000 0.500000 0.402953
O O12 0.535356 0.250581 0.500000
O O13 0.575613 0.292868 0.343092
O O14 0.805867 0.346804 0.741833
O O15 0.757211 0.089258 0.815270
O O16 0.162977 0.336312 0.753246
#
# Coordination Sequence:
#
# PCOD9440830 Si02
#       8
#     4   4   4   8   8   8   8   8
#     4  12  18  34  55  73 109 148 175 213 267 317
#     4  10  18  34  49  73 106 136 180 204 269 310
#     4  10  24  34  50  77 104 144 179 236 261 307
#     4  10  17  31  52  68 102 139 171 206 254 327
#     4  10  21  32  47  78 110 138 174 215 263 329
#     4  10  18  33  48  76 100 141 175 217 256 323
#     4  11  19  34  50  75 103 146 181 210 264 324
#     4  10  21  32  50  73 105 136 185 219 267 306
#
# _framework density 17.803084999999999
#
# number of rings (size 3 to 8) (size 9 to 14) (size 15 to 20)
#    0.000    1.692    5.385    1.385    0.000    4.923 
#    0.000    0.000    0.000    0.000    0.000    9.154 
#    0.000    0.000    0.000    0.000    0.000    0.000 
#
# Total GULP energy -289993.849419 kJ/mol
# GULP energy per Si atom -5576.804797 kJ/mol
# Density = 1.776256 g / cm^3
# Si number density = 17.803085 Si / 1000 Ang^3
#
#
#
# Elastic Constant Matrix: (Units=GPa)
#
#
# Indices 1 2 3 4 5 6 
#
# 1 78.8404 27.9977 28.8026 0.0000 0.0000 0.0000
# 2 27.9977 38.9665 9.2192 0.0000 0.0000 0.0000
# 3 28.8026 9.2192 121.2396 0.0000 0.0000 0.0000
# 4 0.0000 0.0000 0.0000 14.7549 0.0000 0.0000
# 5 0.0000 0.0000 0.0000 0.0000 18.9736 0.0000
# 6 0.0000 0.0000 0.0000 0.0000 0.0000 27.5892
#
#
#
# Elastic Compliance Matrix: (Units=1/GPa)
#
#
# Indices 1 2 3 4 5 6 
#
# 1 0.018318 -0.012354 -0.003412 0.000000 0.000000 0.000000
# 2 -0.012354 0.034465 0.000314 0.000000 0.000000 0.000000
# 3 -0.003412 0.000314 0.009035 0.000000 0.000000 0.000000
# 4 0.000000 0.000000 0.000000 0.067774 0.000000 0.000000
# 5 0.000000 0.000000 0.000000 0.000000 0.052705 0.000000
# 6 0.000000 0.000000 0.000000 0.000000 0.000000 0.036246
#
#
# Mechanical properties :
#
#
# Convention : Reuss Voigt Hill
#
# Bulk Modulus (GPa) = 32.34841 41.23172 36.79006
# Shear Modulus (GPa) = 19.24917 23.79867 21.52392
#
# Velocity S-wave (km/s) = 3.29177 3.66016 3.48084
# Velocity P-wave (km/s) = 5.71465 6.40878 6.07164
#
# Compressibility (1/GPa) = 0.03091342
#
# Stress axis : x y z
#
# Youngs Moduli (GPa) = 54.59236 29.01479 110.68208
#
# Poissons Ratio (x) = 0.35845 0.37767
# Poissons Ratio (y) = 0.67443 -0.03477
# Poissons Ratio (z) = 0.18628 -0.00911
#
# Static dielectric constant tensor:
#      x y z
#    x 1.650650 0.000000 0.000000 
#    y 0.000000 1.690690 0.000000 
#    z 0.000000 0.000000 1.610960 
# 
# From -- ./inp_files/23488.got.cif
#   From: 2010.05.17/outbox.cif.g08.bks.cpg/sg58_12_cif.got.tgz:23488.got - 2010.06.03 14:20:14.
