data_PCOD9440096
_publ_section_title
;
Structure prediction by ZEFSAII (Michael W. Deem and Ramdas Pophale) SiO2 
 PCOD9440096
Probable space group: P B C M
;
_chemical_formula_sum "Si O2"
_cell_formula_units_Z 48
_cell_length_a 31.657790
_cell_length_b 9.348184
_cell_length_c 8.597976
_cell_angle_alpha 90.000000
_cell_angle_beta 90.000000
_cell_angle_gamma 90.000000
_cell_volume 2544.509487
_symmetry_space_group_name_H-M "P B C M"
_symmetry_group_IT_number 57
_symmetry_cell_setting 'orthorhombic'
loop_
_space_group_symop_operation_xyz
x,y,z
-x,-y,1/2+z
x,1/2-y,-z
-x,1/2+y,1/2-z
-x,-y,-z
x,y,1/2-z
-x,1/2+y,z
x,1/2-y,1/2+z
loop_
_atom_site_type_symbol
_atom_site_label
_atom_site_fract_x
_atom_site_fract_y
_atom_site_fract_z
Si Si1 0.460602 0.911564 0.563682
Si Si2 0.123425 0.910686 0.937045
Si Si3 0.371234 0.588706 0.563758
Si Si4 0.960351 0.911201 0.063574
Si Si5 0.201947 0.411275 0.563848
Si Si6 0.292737 0.410804 0.063699
O O1 0.464025 0.750000 0.500000
O O2 0.460199 0.910404 0.750000
O O3 0.415800 0.970016 0.500852
O O4 0.500000 0.000000 0.500000
O O5 0.126528 0.907520 0.750000
O O6 0.082486 0.005096 0.980244
O O7 0.119061 0.750000 0.000000
O O8 0.164618 0.986910 0.006669
O O9 0.367939 0.750000 0.500000
O O10 0.372187 0.589622 0.750000
O O11 0.331331 0.502102 0.501589
O O12 0.962717 0.906067 0.250000
O O13 0.960233 0.750000 0.000000
O O14 0.000000 0.000000 0.000000
O O15 0.194965 0.250000 0.500000
O O16 0.203546 0.405930 0.750000
O O17 0.247164 0.462072 0.498058
O O18 0.292785 0.410822 0.250000
O O19 0.297288 0.250000 0.000000
#
# Coordination Sequence:
#
# PCOD9440096 Si02
#       6
#     8   8   8   8   8   8
#     4  11  22  39  60  86 116 152 193 239 291 347
#     4  11  24  41  61  89 121 157 198 245 294 349
#     4  11  22  39  60  86 117 153 193 238 290 348
#     4  11  24  41  64  91 123 159 200 245 296 351
#     4  11  22  39  62  88 118 155 195 241 292 348
#     4  11  22  39  61  88 119 154 195 242 291 347
#
# _framework density 18.864146999999999
#
# number of rings (size 3 to 8) (size 9 to 14) (size 15 to 20)
#    0.000    1.000    0.000   10.000    0.000    6.667 
#    0.000    6.667    0.000    0.000    0.000    0.000 
#    0.000    0.000    0.000    0.000    0.000    0.000 
#
# Total GULP energy -268540.483240 kJ/mol
# GULP energy per Si atom -5594.593401 kJ/mol
# Density = 1.882121 g / cm^3
# Si number density = 18.864147 Si / 1000 Ang^3
#
#
#
# Elastic Constant Matrix: (Units=GPa)
#
#
# Indices 1 2 3 4 5 6 
#
# 1 220.9378 110.6316 96.2395 0.0000 0.0000 0.0000
# 2 110.6316 114.0951 59.7262 0.0000 0.0000 0.0000
# 3 96.2395 59.7262 187.5345 0.0000 0.0000 0.0000
# 4 0.0000 0.0000 0.0000 37.5098 0.0000 0.0000
# 5 0.0000 0.0000 0.0000 0.0000 34.8848 0.0000
# 6 0.0000 0.0000 0.0000 0.0000 0.0000 44.3155
#
#
#
# Elastic Compliance Matrix: (Units=1/GPa)
#
#
# Indices 1 2 3 4 5 6 
#
# 1 0.009591 -0.008068 -0.002352 0.000000 0.000000 0.000000
# 2 -0.008068 0.017306 -0.001371 0.000000 0.000000 0.000000
# 3 -0.002352 -0.001371 0.006976 0.000000 0.000000 0.000000
# 4 0.000000 0.000000 0.000000 0.026660 0.000000 0.000000
# 5 0.000000 0.000000 0.000000 0.000000 0.028666 0.000000
# 6 0.000000 0.000000 0.000000 0.000000 0.000000 0.022565
#
#
# Mechanical properties :
#
#
# Convention : Reuss Voigt Hill
#
# Bulk Modulus (GPa) = 97.18646 117.30689 107.24668
# Shear Modulus (GPa) = 36.02899 40.40671 38.21785
#
# Velocity S-wave (km/s) = 4.37500 4.63318 4.50594
# Velocity P-wave (km/s) = 8.78361 9.53635 9.16771
#
# Compressibility (1/GPa) = 0.01028950
#
# Stress axis : x y z
#
# Youngs Moduli (GPa) = 104.26467 57.78398 143.34606
#
# Poissons Ratio (x) = 0.46623 0.33719
# Poissons Ratio (y) = 0.84126 0.19652
# Poissons Ratio (z) = 0.24526 0.07922
#
# Static dielectric constant tensor:
#      x y z
#    x 1.648180 0.000000 0.000000 
#    y 0.000000 1.618410 0.000000 
#    z 0.000000 0.000000 1.627790 
# 
# From -- ./inp_files/10003.got.cif
#   From: 2010.05.17/outbox.cif.g08.bks.cpg/sg57_6_cif.got.tgz:10003.got - 2010.06.03 13:58:18.
