data_PCOD9440702
_publ_section_title
;
Structure prediction by ZEFSAII (Michael W. Deem and Ramdas Pophale) SiO2 
 PCOD9440702
Probable space group: P N N M
;
_chemical_formula_sum "Si O2"
_cell_formula_units_Z 52
_cell_length_a 5.235437
_cell_length_b 18.905560
_cell_length_c 18.967756
_cell_angle_alpha 90.000000
_cell_angle_beta 90.000000
_cell_angle_gamma 90.000000
_cell_volume 1877.407024
_symmetry_space_group_name_H-M "P N N M"
_symmetry_group_IT_number 58
_symmetry_cell_setting 'orthorhombic'
loop_
_space_group_symop_operation_xyz
x,y,z
-x,-y,z
1/2+x,1/2-y,1/2-z
1/2-x,1/2+y,1/2-z
-x,-y,-z
x,y,-z
1/2-x,1/2+y,1/2+z
1/2+x,1/2-y,1/2+z
loop_
_atom_site_type_symbol
_atom_site_label
_atom_site_fract_x
_atom_site_fract_y
_atom_site_fract_z
Si Si1 0.250251 0.550038 0.926138
Si Si2 0.004276 0.109551 0.000000
Si Si3 0.225149 0.796633 0.737915
Si Si4 0.773181 0.687445 0.609683
Si Si5 0.269237 0.783026 0.417758
Si Si6 0.251917 0.048658 0.129363
Si Si7 0.250283 0.049548 0.721487
O O1 0.500000 0.500000 0.926811
O O2 0.250637 0.590944 0.852516
O O3 0.000000 0.500000 0.926731
O O4 0.250497 0.591313 0.000000
O O5 0.786716 0.123035 0.940006
O O6 0.214825 0.095716 0.938272
O O7 0.951098 0.760260 0.749479
O O8 0.260693 0.840057 0.809903
O O9 0.252567 0.826091 0.657675
O O10 0.026420 0.731378 0.591692
O O11 0.533438 0.739549 0.589717
O O12 0.260554 0.811236 0.500000
O O13 0.500000 0.000000 0.126770
O O14 0.251654 0.088628 0.204579
O O15 0.000000 0.000000 0.129312
O O16 0.500000 0.000000 0.720388
O O17 0.000000 0.000000 0.720132
#
# Coordination Sequence:
#
# PCOD9440702 Si02
#       7
#     8   4   8   8   8   8   8
#     4   8  12  18  32  54  75  94 117 154 205 257
#     4  12  22  34  52  68  94 124 160 212 246 278
#     4   8  16  28  44  63  95 126 149 184 229 275
#     4  10  20  30  44  70  96 122 157 194 241 275
#     4  10  16  30  47  70  97 126 155 189 222 283
#     4  10  22  36  48  64  87 123 165 204 250 297
#     4   8  14  26  40  54  77 104 136 178 223 275
#
# _framework density 27.697773999999999
#
# number of rings (size 3 to 8) (size 9 to 14) (size 15 to 20)
#    0.000    2.769    1.538    0.462    0.000    2.462 
#    0.000    0.000    0.000    0.000    0.000    1.077 
#    0.000    0.000    0.000   56.000    0.000    2.769 
#
# Total GULP energy -289579.588143 kJ/mol
# GULP energy per Si atom -5568.838234 kJ/mol
# Density = 2.763473 g / cm^3
# Si number density = 27.697774 Si / 1000 Ang^3
#
#
#
# Elastic Constant Matrix: (Units=GPa)
#
#
# Indices 1 2 3 4 5 6 
#
# 1 249.2007 58.3805 -3.5428 0.0000 0.0000 0.0000
# 2 58.3805 34.6393 39.2202 0.0000 0.0000 0.0000
# 3 -3.5428 39.2202 389.0338 0.0000 0.0000 0.0000
# 4 0.0000 0.0000 0.0000 -1.5782 0.0000 0.0000
# 5 0.0000 0.0000 0.0000 0.0000 46.6157 0.0000
# 6 0.0000 0.0000 0.0000 0.0000 0.0000 68.6760
#
#
#
# Elastic Compliance Matrix: (Units=1/GPa)
#
#
# Indices 1 2 3 4 5 6 
#
# 1 0.007314 -0.013999 0.001478 0.000000 0.000000 0.000000
# 2 -0.013999 0.059387 -0.006115 0.000000 0.000000 0.000000
# 3 0.001478 -0.006115 0.003200 0.000000 0.000000 0.000000
# 4 0.000000 0.000000 0.000000 -0.633632 0.000000 0.000000
# 5 0.000000 0.000000 0.000000 0.000000 0.021452 0.000000
# 6 0.000000 0.000000 0.000000 0.000000 0.000000 0.014561
#
#
# Mechanical properties :
#
#
# Convention : Reuss Voigt Hill
#
# Bulk Modulus (GPa) = 30.64817 95.66548 63.15683
# Shear Modulus (GPa) = -10.42601 61.33042 25.45220
#
# Velocity S-wave (km/s) = -1.94226 4.71071 3.03467
# Velocity P-wave (km/s) = 2.46158 8.01260 5.92711
#
# Compressibility (1/GPa) = 0.03262837
#
# Stress axis : x y z
#
# Youngs Moduli (GPa) = 136.73320 16.83883 312.46494
#
# Poissons Ratio (x) = 0.23573 -0.46181
# Poissons Ratio (y) = 1.91419 1.91057
# Poissons Ratio (z) = -0.20208 0.10296
#
# Static dielectric constant tensor:
#      x y z
#    x 2.150120 0.000000 0.000000 
#    y 0.000000 2.142900 0.000000 
#    z 0.000000 0.000000 2.293990 
# 
# From -- ./inp_files/24404.got.cif
#   From: 2010.05.17/outbox.cif.g08.bks.cpg/sg58_13_cif.got.tgz:24404.got - 2010.06.03 14:20:14.
