data_PCOD9440765
_publ_section_title
;
Structure prediction by ZEFSAII (Michael W. Deem and Ramdas Pophale) SiO2 
 PCOD9440765
Probable space group: P N N M
;
_chemical_formula_sum "Si O2"
_cell_formula_units_Z 64
_cell_length_a 21.661079
_cell_length_b 19.794442
_cell_length_c 7.378060
_cell_angle_alpha 90.000000
_cell_angle_beta 90.000000
_cell_angle_gamma 90.000000
_cell_volume 3163.483201
_symmetry_space_group_name_H-M "P N N M"
_symmetry_group_IT_number 58
_symmetry_cell_setting 'orthorhombic'
loop_
_space_group_symop_operation_xyz
x,y,z
-x,-y,z
1/2+x,1/2-y,1/2-z
1/2-x,1/2+y,1/2-z
-x,-y,-z
x,y,-z
1/2-x,1/2+y,1/2+z
1/2+x,1/2-y,1/2+z
loop_
_atom_site_type_symbol
_atom_site_label
_atom_site_fract_x
_atom_site_fract_y
_atom_site_fract_z
Si Si1 0.687524 0.032197 0.710422
Si Si2 0.256646 0.677833 0.779953
Si Si3 0.436212 0.471173 0.786928
Si Si4 0.311303 0.539834 0.221998
Si Si5 0.742664 0.170759 0.218581
Si Si6 0.562350 0.963473 0.278140
Si Si7 0.114011 0.677029 0.220343
Si Si8 0.884199 0.171002 0.781918
O O1 0.686909 0.011644 0.500000
O O2 0.696913 0.112261 0.721373
O O3 0.750366 0.999969 0.786137
O O4 0.623374 0.003997 0.783537
O O5 0.301022 0.617431 0.723912
O O6 0.273285 0.753417 0.721294
O O7 0.185468 0.663992 0.726501
O O8 0.256407 0.678248 0.000000
O O9 0.500000 0.500000 0.710348
O O10 0.374183 0.505892 0.712389
O O11 0.427631 0.390719 0.770896
O O12 0.436547 0.487684 0.000000
O O13 0.311814 0.536741 0.000000
O O14 0.813459 0.156906 0.279251
O O15 0.743220 0.170237 0.000000
O O16 0.561064 0.964068 0.500000
O O17 0.571823 0.885472 0.222023
O O18 0.500000 0.000000 0.217738
O O19 0.098140 0.753330 0.279285
O O20 0.113283 0.677469 0.000000
O O21 0.882546 0.172654 0.000000
#
# Coordination Sequence:
#
# PCOD9440765 Si02
#       8
#     8   8   8   8   8   8   8   8
#     4  10  17  27  47  70  91 118 149 184 228 271
#     4   8  13  24  43  65  86 113 153 191 221 263
#     4  10  20  32  46  67  94 122 153 191 229 264
#     4   9  15  26  45  66  86 113 151 189 221 259
#     4   9  17  28  45  69  92 114 147 193 233 266
#     4   9  16  26  43  70  98 120 149 190 228 264
#     4   8  13  24  42  65  89 114 149 187 223 268
#     4   9  17  29  47  68  89 117 151 187 228 273
#
# _framework density 20.230862999999999
#
# number of rings (size 3 to 8) (size 9 to 14) (size 15 to 20)
#    0.000    3.000    2.500    1.500    0.000    0.250 
#    0.000    1.250    0.000    2.625    0.000    0.000 
#    0.000    0.000    0.000    0.000    0.000    0.000 
#
# Total GULP energy -356977.303921 kJ/mol
# GULP energy per Si atom -5577.770374 kJ/mol
# Density = 2.018482 g / cm^3
# Si number density = 20.230863 Si / 1000 Ang^3
#
#
#
# Elastic Constant Matrix: (Units=GPa)
#
#
# Indices 1 2 3 4 5 6 
#
# 1 148.8696 105.7980 9.4561 0.0000 0.0000 0.0000
# 2 105.7980 169.5738 -8.7427 0.0000 0.0000 0.0000
# 3 9.4561 -8.7427 68.6207 0.0000 0.0000 0.0000
# 4 0.0000 0.0000 0.0000 8.9858 0.0000 0.0000
# 5 0.0000 0.0000 0.0000 0.0000 -6.5804 0.0000
# 6 0.0000 0.0000 0.0000 0.0000 0.0000 32.4817
#
#
#
# Elastic Compliance Matrix: (Units=1/GPa)
#
#
# Indices 1 2 3 4 5 6 
#
# 1 0.012563 -0.007980 -0.002748 0.000000 0.000000 0.000000
# 2 -0.007980 0.011005 0.002502 0.000000 0.000000 0.000000
# 3 -0.002748 0.002502 0.015270 0.000000 0.000000 0.000000
# 4 0.000000 0.000000 0.000000 0.111286 0.000000 0.000000
# 5 0.000000 0.000000 0.000000 0.000000 -0.151967 0.000000
# 6 0.000000 0.000000 0.000000 0.000000 0.000000 0.030787
#
#
# Mechanical properties :
#
#
# Convention : Reuss Voigt Hill
#
# Bulk Modulus (GPa) = 44.67066 66.67634 55.67350
# Shear Modulus (GPa) = 94.59484 25.68094 60.13789
#
# Velocity S-wave (km/s) = 6.84538 3.56672 5.45805
# Velocity P-wave (km/s) = 9.19822 7.07045 8.20361
#
# Compressibility (1/GPa) = 0.02238606
#
# Stress axis : x y z
#
# Youngs Moduli (GPa) = 79.60020 90.87050 65.48680
#
# Poissons Ratio (x) = 0.72512 0.17995
# Poissons Ratio (y) = 0.63518 -0.16383
# Poissons Ratio (z) = 0.21873 -0.22733
#
# Static dielectric constant tensor:
#      x y z
#    x 1.682540 0.000000 0.000000 
#    y 0.000000 1.726450 0.000000 
#    z 0.000000 0.000000 1.787570 
# 
# From -- ./inp_files/17211.got.cif
#   From: 2010.05.17/outbox.cif.g08.bks.cpg/sg58_9_cif.got.tgz:17211.got - 2010.06.03 14:20:14.
