data_PCOD9440724
_publ_section_title
;
Structure prediction by ZEFSAII (Michael W. Deem and Ramdas Pophale) SiO2 
 PCOD9440724
Probable space group: P N N M
;
_chemical_formula_sum "Si O2"
_cell_formula_units_Z 40
_cell_length_a 19.561161
_cell_length_b 9.550426
_cell_length_c 8.202009
_cell_angle_alpha 90.000000
_cell_angle_beta 90.000000
_cell_angle_gamma 90.000000
_cell_volume 1532.278165
_symmetry_space_group_name_H-M "P N N M"
_symmetry_group_IT_number 58
_symmetry_cell_setting 'orthorhombic'
loop_
_space_group_symop_operation_xyz
x,y,z
-x,-y,z
1/2+x,1/2-y,1/2-z
1/2-x,1/2+y,1/2-z
-x,-y,-z
x,y,-z
1/2-x,1/2+y,1/2+z
1/2+x,1/2-y,1/2+z
loop_
_atom_site_type_symbol
_atom_site_label
_atom_site_fract_x
_atom_site_fract_y
_atom_site_fract_z
Si Si1 0.550897 0.311496 0.304862
Si Si2 0.438337 0.117417 0.688445
Si Si3 0.736746 0.779330 0.185716
Si Si4 0.158965 0.978605 0.696026
Si Si5 0.844185 0.598497 0.321536
O O1 0.557603 0.283041 0.500000
O O2 0.474053 0.262880 0.264040
O O3 0.589460 0.456514 0.271334
O O4 0.593787 0.206321 0.192498
O O5 0.417630 0.120180 0.500000
O O6 0.375572 0.053192 0.788708
O O7 0.500000 0.000000 0.698851
O O8 0.779118 0.909463 0.262954
O O9 0.677821 0.677579 0.259230
O O10 0.795139 0.657944 0.185340
O O11 0.722106 0.815172 0.000000
O O12 0.152639 0.972634 0.500000
O O13 0.812642 0.612704 0.500000
#
# Coordination Sequence:
#
# PCOD9440724 Si02
#       5
#     8   8   8   8   8
#     4   9  16  26  41  60  86 119 148 181 227 272
#     4   8  14  24  37  56  84 116 146 177 222 274
#     4  10  20  33  48  67  94 125 154 189 231 272
#     4  10  20  32  48  70  93 121 157 192 227 270
#     4  10  17  24  39  62  87 116 149 186 225 266
#
# _framework density 26.104918999999999
#
# number of rings (size 3 to 8) (size 9 to 14) (size 15 to 20)
#    0.000    2.600    0.000    7.200    0.000    7.600 
#    0.000    0.000    0.000    0.000    0.000    1.400 
#    0.000   11.200    0.000    0.000    0.000    0.000 
#
# Total GULP energy -223176.643997 kJ/mol
# GULP energy per Si atom -5579.416100 kJ/mol
# Density = 2.604550 g / cm^3
# Si number density = 26.104919 Si / 1000 Ang^3
#
#
#
# Elastic Constant Matrix: (Units=GPa)
#
#
# Indices 1 2 3 4 5 6 
#
# 1 37.9721 21.9389 1.5974 0.0000 0.0000 0.0000
# 2 21.9389 187.6746 10.0715 0.0000 0.0000 0.0000
# 3 1.5974 10.0715 85.8089 0.0000 0.0000 0.0000
# 4 0.0000 0.0000 0.0000 9.4854 0.0000 0.0000
# 5 0.0000 0.0000 0.0000 0.0000 0.6662 0.0000
# 6 0.0000 0.0000 0.0000 0.0000 0.0000 27.6582
#
#
#
# Elastic Compliance Matrix: (Units=1/GPa)
#
#
# Indices 1 2 3 4 5 6 
#
# 1 0.028244 -0.003294 -0.000139 0.000000 0.000000 0.000000
# 2 -0.003294 0.005746 -0.000613 0.000000 0.000000 0.000000
# 3 -0.000139 -0.000613 0.011728 0.000000 0.000000 0.000000
# 4 0.000000 0.000000 0.000000 0.105425 0.000000 0.000000
# 5 0.000000 0.000000 0.000000 0.000000 1.500992 0.000000
# 6 0.000000 0.000000 0.000000 0.000000 0.000000 0.036156
#
#
# Mechanical properties :
#
#
# Convention : Reuss Voigt Hill
#
# Bulk Modulus (GPa) = 26.57738 42.07458 34.32598
# Shear Modulus (GPa) = 2.92581 26.08515 14.50548
#
# Velocity S-wave (km/s) = 1.05982 3.16451 2.35980
# Velocity P-wave (km/s) = 3.42063 5.43182 4.53902
#
# Compressibility (1/GPa) = 0.03762599
#
# Stress axis : x y z
#
# Youngs Moduli (GPa) = 35.40537 174.02293 85.26348
#
# Poissons Ratio (x) = 0.57328 0.01186
# Poissons Ratio (y) = 0.11663 0.05228
# Poissons Ratio (z) = 0.00493 0.10670
#
# Static dielectric constant tensor:
#      x y z
#    x 2.181850 0.000000 0.000000 
#    y 0.000000 2.144930 0.000000 
#    z 0.000000 0.000000 1.868910 
# 
# From -- ./inp_files/4302.got.cif
#   From: 2010.05.17/outbox.cif.g08.bks.cpg/sg58_3_cif.got.tgz:4302.got - 2010.06.03 14:20:14.
