data_PCOD9440256
_publ_section_title
;
Structure prediction by ZEFSAII (Michael W. Deem and Ramdas Pophale) SiO2 
 PCOD9440256
Probable space group: P B C M
;
_chemical_formula_sum "Si O2"
_cell_formula_units_Z 32
_cell_length_a 7.374416
_cell_length_b 11.679999
_cell_length_c 15.393060
_cell_angle_alpha 90.000000
_cell_angle_beta 90.000000
_cell_angle_gamma 90.000000
_cell_volume 1325.853077
_symmetry_space_group_name_H-M "P B C M"
_symmetry_group_IT_number 57
_symmetry_cell_setting 'orthorhombic'
loop_
_space_group_symop_operation_xyz
x,y,z
-x,-y,1/2+z
x,1/2-y,-z
-x,1/2+y,1/2-z
-x,-y,-z
x,y,1/2-z
-x,1/2+y,z
x,1/2-y,1/2+z
loop_
_atom_site_type_symbol
_atom_site_label
_atom_site_fract_x
_atom_site_fract_y
_atom_site_fract_z
Si Si1 0.687015 0.368033 0.977629
Si Si2 0.165067 0.449362 0.345031
Si Si3 0.305362 0.282417 0.905059
Si Si4 0.247564 0.527988 0.846392
O O1 0.787803 0.461526 0.920385
O O2 0.510356 0.324627 0.925308
O O3 0.789310 0.250000 0.000000
O O4 0.642893 0.426578 0.070440
O O5 0.195280 0.502736 0.250000
O O6 0.279593 0.333447 0.352607
O O7 0.952677 0.418202 0.351191
O O8 0.218402 0.392246 0.859991
O O9 0.228909 0.250000 0.000000
O O10 0.324372 0.548612 0.750000
#
# Coordination Sequence:
#
# PCOD9440256 Si02
#       4
#     8   8   8   8
#     4  11  26  45  72 103 144 190 240 287 357 426
#     4  11  26  45  72 109 146 188 240 299 359 421
#     4  11  24  45  72 101 142 187 239 292 356 421
#     4  11  25  45  72 106 144 189 240 295 360 424
#
# _framework density 24.135403
#
# number of rings (size 3 to 8) (size 9 to 14) (size 15 to 20)
#    0.000    1.000    2.500    2.250    7.000    3.000 
#    0.000    3.750    0.000    0.000    0.000    0.000 
#    0.000    0.000    0.000    0.000    0.000    0.000 
#
# Total GULP energy -179010.771349 kJ/mol
# GULP energy per Si atom -5594.086605 kJ/mol
# Density = 2.408047 g / cm^3
# Si number density = 24.135403 Si / 1000 Ang^3
#
#
#
# Elastic Constant Matrix: (Units=GPa)
#
#
# Indices 1 2 3 4 5 6 
#
# 1 79.9680 1.8586 8.3895 0.0000 0.0000 0.0000
# 2 1.8586 120.7732 24.6462 0.0000 0.0000 0.0000
# 3 8.3895 24.6462 144.7354 0.0000 0.0000 0.0000
# 4 0.0000 0.0000 0.0000 26.4186 0.0000 0.0000
# 5 0.0000 0.0000 0.0000 0.0000 -94.5525 0.0000
# 6 0.0000 0.0000 0.0000 0.0000 0.0000 28.4486
#
#
#
# Elastic Compliance Matrix: (Units=1/GPa)
#
#
# Indices 1 2 3 4 5 6 
#
# 1 0.012582 -0.000046 -0.000721 0.000000 0.000000 0.000000
# 2 -0.000046 0.008578 -0.001458 0.000000 0.000000 0.000000
# 3 -0.000721 -0.001458 0.007199 0.000000 0.000000 0.000000
# 4 0.000000 0.000000 0.000000 0.037852 0.000000 0.000000
# 5 0.000000 0.000000 0.000000 0.000000 -0.010576 0.000000
# 6 0.000000 0.000000 0.000000 0.000000 0.000000 0.035151
#
#
# Mechanical properties :
#
#
# Convention : Reuss Voigt Hill
#
# Bulk Modulus (GPa) = 41.82779 46.14058 43.98418
# Shear Modulus (GPa) = 48.44623 12.76842 30.60733
#
# Velocity S-wave (km/s) = 4.48512 2.30257 3.56497
# Velocity P-wave (km/s) = 6.64754 5.12133 5.93371
#
# Compressibility (1/GPa) = 0.02390755
#
# Stress axis : x y z
#
# Youngs Moduli (GPa) = 79.48017 116.57397 138.90313
#
# Poissons Ratio (x) = 0.00541 0.10020
# Poissons Ratio (y) = 0.00369 0.20253
# Poissons Ratio (z) = 0.05734 0.16997
#
# Static dielectric constant tensor:
#      x y z
#    x 1.967950 0.000000 0.000000 
#    y 0.000000 1.921240 0.000000 
#    z 0.000000 0.000000 1.899880 
# 
# From -- ./inp_files/15520.got.cif
#   From: 2010.05.17/outbox.cif.g08.bks.cpg/sg57_8_cif.got.tgz:15520.got - 2010.06.03 13:58:18.
