data_PCOD9440222
_publ_section_title
;
Structure prediction by ZEFSAII (Michael W. Deem and Ramdas Pophale) SiO2 
 PCOD9440222
Probable space group: P B C M
;
_chemical_formula_sum "Si O2"
_cell_formula_units_Z 40
_cell_length_a 13.115992
_cell_length_b 9.219793
_cell_length_c 14.784589
_cell_angle_alpha 90.000000
_cell_angle_beta 90.000000
_cell_angle_gamma 90.000000
_cell_volume 1787.852020
_symmetry_space_group_name_H-M "P B C M"
_symmetry_group_IT_number 57
_symmetry_cell_setting 'orthorhombic'
loop_
_space_group_symop_operation_xyz
x,y,z
-x,-y,1/2+z
x,1/2-y,-z
-x,1/2+y,1/2-z
-x,-y,-z
x,y,1/2-z
-x,1/2+y,z
x,1/2-y,1/2+z
loop_
_atom_site_type_symbol
_atom_site_label
_atom_site_fract_x
_atom_site_fract_y
_atom_site_fract_z
Si Si1 0.554661 0.485592 0.750000
Si Si2 0.746926 0.881323 0.563476
Si Si3 0.656946 0.113782 0.438039
Si Si4 0.359916 0.308985 0.750000
Si Si5 0.894713 0.330891 0.592074
Si Si6 0.063627 0.532724 0.650385
O O1 0.598515 0.418681 0.655563
O O2 0.436360 0.445188 0.750000
O O3 0.580275 0.656176 0.750000
O O4 0.779472 0.750000 0.500000
O O5 0.703384 0.821158 0.657585
O O6 0.843238 0.980670 0.587967
O O7 0.665690 0.976746 0.506231
O O8 0.620963 0.250000 0.500000
O O9 0.773983 0.145384 0.408416
O O10 0.924569 0.250000 0.500000
O O11 0.957640 0.474829 0.611294
O O12 0.928985 0.204367 0.658528
O O13 0.077923 0.468074 0.750000
#
# Coordination Sequence:
#
# PCOD9440222 Si02
#       6
#     4   8   8   4   8   8
#     4  12  30  50  75 112 139 182 235 296 362 428
#     4  12  25  48  72 104 144 186 239 286 356 418
#     4  11  26  47  76 104 144 192 235 295 349 424
#     4  12  30  50  77 108 141 180 235 298 358 438
#     4  11  24  42  64  98 139 188 237 282 345 411
#     4  12  25  40  65 101 140 188 234 289 341 414
#
# _framework density 22.373215999999999
#
# number of rings (size 3 to 8) (size 9 to 14) (size 15 to 20)
#    0.000    0.400    7.000    1.800    8.400    1.600 
#    0.000    0.000    0.000    0.000    0.000    0.000 
#    0.000    0.000    0.000    0.000    0.000    0.000 
#
# Total GULP energy -223671.493435 kJ/mol
# GULP energy per Si atom -5591.787336 kJ/mol
# Density = 2.232229 g / cm^3
# Si number density = 22.373216 Si / 1000 Ang^3
#
#
#
# Elastic Constant Matrix: (Units=GPa)
#
#
# Indices 1 2 3 4 5 6 
#
# 1 30.6726 -5.5032 11.8287 0.0000 0.0000 0.0000
# 2 -5.5032 73.6951 8.3553 0.0000 0.0000 0.0000
# 3 11.8287 8.3553 142.5918 0.0000 0.0000 0.0000
# 4 0.0000 0.0000 0.0000 24.4045 0.0000 0.0000
# 5 0.0000 0.0000 0.0000 0.0000 14.2615 0.0000
# 6 0.0000 0.0000 0.0000 0.0000 0.0000 32.4410
#
#
#
# Elastic Compliance Matrix: (Units=1/GPa)
#
#
# Indices 1 2 3 4 5 6 
#
# 1 0.034285 0.002902 -0.003014 0.000000 0.000000 0.000000
# 2 0.002902 0.013906 -0.001056 0.000000 0.000000 0.000000
# 3 -0.003014 -0.001056 0.007325 0.000000 0.000000 0.000000
# 4 0.000000 0.000000 0.000000 0.040976 0.000000 0.000000
# 5 0.000000 0.000000 0.000000 0.000000 0.070119 0.000000
# 6 0.000000 0.000000 0.000000 0.000000 0.000000 0.030825
#
#
# Mechanical properties :
#
#
# Convention : Reuss Voigt Hill
#
# Bulk Modulus (GPa) = 18.80380 30.70233 24.75307
# Shear Modulus (GPa) = 22.98863 29.70663 26.34763
#
# Velocity S-wave (km/s) = 3.20895 3.64782 3.43540
# Velocity P-wave (km/s) = 4.70666 5.61202 5.17916
#
# Compressibility (1/GPa) = 0.05318074
#
# Stress axis : x y z
#
# Youngs Moduli (GPa) = 29.16686 71.91238 136.52028
#
# Poissons Ratio (x) = -0.20869 0.41150
# Poissons Ratio (y) = -0.08464 0.14411
# Poissons Ratio (z) = 0.08791 0.07591
#
# Static dielectric constant tensor:
#      x y z
#    x 1.772430 0.000000 0.000000 
#    y 0.000000 1.839040 0.000000 
#    z 0.000000 0.000000 1.889570 
# 
# From -- ./inp_files/18275.got.cif
#   From: 2010.05.17/outbox.cif.g08.bks.cpg/sg57_10_cif.got.tgz:18275.got - 2010.06.03 13:58:18.
