data_PCOD9440435
_publ_section_title
;
Structure prediction by ZEFSAII (Michael W. Deem and Ramdas Pophale) SiO2 
 PCOD9440435
Probable space group: P B C M
;
_chemical_formula_sum "Si O2"
_cell_formula_units_Z 64
_cell_length_a 12.000000
_cell_length_b 30.000000
_cell_length_c 9.000000
_cell_angle_alpha 90.000000
_cell_angle_beta 90.000000
_cell_angle_gamma 90.000000
_cell_volume 3240.000000
_symmetry_space_group_name_H-M "P B C M"
_symmetry_group_IT_number 57
_symmetry_cell_setting 'orthorhombic'
loop_
_space_group_symop_operation_xyz
x,y,z
-x,-y,1/2+z
x,1/2-y,-z
-x,1/2+y,1/2-z
-x,-y,-z
x,y,1/2-z
-x,1/2+y,z
x,1/2-y,1/2+z
loop_
_atom_site_type_symbol
_atom_site_label
_atom_site_fract_x
_atom_site_fract_y
_atom_site_fract_z
Si Si1 0.123568 0.204662 0.076701
Si Si2 0.248594 0.534165 0.074717
Si Si3 0.633943 0.203438 0.071615
Si Si4 0.121202 0.668983 0.074804
Si Si5 0.172901 0.114456 0.579343
Si Si6 0.429268 0.606587 0.425286
Si Si7 0.382317 0.449722 0.079431
Si Si8 0.055549 0.922606 0.425777
O O1 0.146192 0.207397 0.250000
O O2 0.990207 0.198063 0.055480
O O3 0.160556 0.250000 0.000000
O O4 0.176856 0.159754 0.012137
O O5 0.234446 0.525491 0.250000
O O6 0.312108 0.581156 0.055735
O O7 0.328482 0.494952 0.015970
O O8 0.128805 0.539512 0.001825
O O9 0.621271 0.206244 0.250000
O O10 0.765219 0.194754 0.040522
O O11 0.574867 0.157538 0.018505
O O12 0.597941 0.250000 0.000000
O O13 0.126414 0.655461 0.250000
O O14 0.104270 0.625509 0.974596
O O15 0.145745 0.126806 0.750000
O O16 0.284634 0.086639 0.578124
O O17 0.072909 0.082301 0.526592
O O18 0.450450 0.609166 0.250000
O O19 0.517655 0.573431 0.495527
O O20 0.416045 0.458929 0.250000
O O21 0.061895 0.928382 0.250000
#
# Coordination Sequence:
#
# PCOD9440435 Si02
#       8
#     8   8   8   8   8   8   8   8
#     4  10  19  31  53  81 108 145 187 227 274 329
#     4  10  20  37  59  83 113 145 178 225 285 337
#     4  10  20  34  53  79 111 145 177 217 271 325
#     4   9  17  32  51  75 112 148 177 214 273 332
#     4   9  20  38  54  77 114 147 183 231 277 324
#     4  10  21  38  58  80 113 146 179 230 278 324
#     4  10  22  39  60  81 105 145 190 231 277 328
#     4  10  19  31  53  83 114 145 179 222 270 323
#
# _framework density 19.753086
#
# number of rings (size 3 to 8) (size 9 to 14) (size 15 to 20)
#    0.000    2.250    1.250    1.500    0.000    4.000 
#    0.000    0.625    0.000    1.500    0.000    0.000 
#    0.000    0.000    0.000    0.000    0.000    0.000 
#
# Total GULP energy -356999.718694 kJ/mol
# GULP energy per Si atom -5578.120605 kJ/mol
# Density = 1.970813 g / cm^3
# Si number density = 19.753086 Si / 1000 Ang^3
#
#
#
# Elastic Constant Matrix: (Units=GPa)
#
#
# Indices 1 2 3 4 5 6 
#
# 1 16.8085 -15.6020 22.8070 0.0000 0.0000 0.0000
# 2 -15.6020 46.8588 23.6844 0.0000 0.0000 0.0000
# 3 22.8070 23.6844 15.6916 0.0000 0.0000 0.0000
# 4 0.0000 0.0000 0.0000 29.5748 0.0000 0.0000
# 5 0.0000 0.0000 0.0000 0.0000 14.1595 0.0000
# 6 0.0000 0.0000 0.0000 0.0000 0.0000 14.1983
#
#
#
# Elastic Compliance Matrix: (Units=1/GPa)
#
#
# Indices 1 2 3 4 5 6 
#
# 1 -0.004139 -0.018638 0.034147 0.000000 0.000000 0.000000
# 2 -0.018638 0.006088 0.017900 0.000000 0.000000 0.000000
# 3 0.034147 0.017900 -0.012921 0.000000 0.000000 0.000000
# 4 0.000000 0.000000 0.000000 0.033813 0.000000 0.000000
# 5 0.000000 0.000000 0.000000 0.000000 0.070624 0.000000
# 6 0.000000 0.000000 0.000000 0.000000 0.000000 0.070431
#
#
# Mechanical properties :
#
#
# Convention : Reuss Voigt Hill
#
# Bulk Modulus (GPa) = 17.90598 15.68196 16.79397
# Shear Modulus (GPa) = 43.21831 14.81780 29.01806
#
# Velocity S-wave (km/s) = 4.68260 2.74186 3.83696
# Velocity P-wave (km/s) = 6.19034 4.24028 5.30567
#
# Compressibility (1/GPa) = 0.05584726
#
# Stress axis : x y z
#
# Youngs Moduli (GPa) = -241.59542 164.26563 -77.39494
#
# Poissons Ratio (x) = 3.06151 2.64281
# Poissons Ratio (y) = -4.50274 1.38538
# Poissons Ratio (z) = 8.24978 -2.94039
#
# Static dielectric constant tensor:
#      x y z
#    x 1.740170 0.000000 0.000000 
#    y 0.000000 1.687230 0.000000 
#    z 0.000000 0.000000 1.682750 
# 
# From -- ./inp_files/3861.got.cif
#   From: 2010.05.17/outbox.ucp.g08.bks.cvg/sg57_2_cif.got.tgz:3861.got - 2010.06.11 16:39:23.
