data_PCOD9440774
_publ_section_title
;
Structure prediction by ZEFSAII (Michael W. Deem and Ramdas Pophale) SiO2 
 PCOD9440774
Probable space group: P N N M
;
_chemical_formula_sum "Si O2"
_cell_formula_units_Z 56
_cell_length_a 5.479836
_cell_length_b 31.031495
_cell_length_c 22.502951
_cell_angle_alpha 90.000000
_cell_angle_beta 90.000000
_cell_angle_gamma 90.000000
_cell_volume 3826.570637
_symmetry_space_group_name_H-M "P N N M"
_symmetry_group_IT_number 58
_symmetry_cell_setting 'orthorhombic'
loop_
_space_group_symop_operation_xyz
x,y,z
-x,-y,z
1/2+x,1/2-y,1/2-z
1/2-x,1/2+y,1/2-z
-x,-y,-z
x,y,-z
1/2-x,1/2+y,1/2+z
1/2+x,1/2-y,1/2+z
loop_
_atom_site_type_symbol
_atom_site_label
_atom_site_fract_x
_atom_site_fract_y
_atom_site_fract_z
Si Si1 0.750000 0.616817 0.684281
Si Si2 0.750000 0.351981 0.276425
Si Si3 0.750000 0.398239 0.500000
Si Si4 0.250000 0.453092 0.500000
Si Si5 0.750000 0.765330 0.718032
Si Si6 0.250000 0.679592 0.411808
Si Si7 0.250000 0.795118 0.894027
Si Si8 0.250000 0.477888 0.368172
O O1 0.500378 0.621420 0.721361
O O2 0.750000 0.658062 0.639907
O O3 0.750000 0.572294 0.648982
O O4 0.999623 0.621420 0.721361
O O5 0.750000 0.316806 0.224532
O O6 0.750000 0.325798 0.339836
O O7 0.498885 0.424934 0.500000
O O8 0.750000 0.367034 0.442591
O O9 0.001115 0.424934 0.500000
O O10 0.250000 0.480167 0.439738
O O11 0.500000 0.750000 0.750000
O O12 0.750000 0.742815 0.654136
O O13 0.496797 0.703909 0.428454
O O14 0.003204 0.703909 0.428454
O O15 0.500000 0.500000 0.346677
O O16 0.000000 0.500000 0.346677
#
# Coordination Sequence:
#
# PCOD9440774 Si02
#       8
#     8   8   4   4   8   8   8   8
#     4  10  18  30  43  57  76 100 122 150 197 248
#     4  10  17  28  44  63  83 101 120 152 192 256
#     4  12  22  33  50  64  76 106 138 176 216 272
#     4  12  22  37  50  60  72  90 132 186 242 270
#     4  12  16  27  43  69  87 104 120 141 190 254
#     4  10  18  28  39  58  81 101 130 155 191 235
#     4  10  18  29  44  63  82 102 121 154 193 255
#     4  12  24  37  48  60  75  98 134 181 228 271
#
# _framework density 14.634513
#
# number of rings (size 3 to 8) (size 9 to 14) (size 15 to 20)
#    0.000    1.143    5.714    6.429    0.000    0.000 
#    0.000    0.000    0.000    0.000    0.000    0.000 
#    0.000    0.000    0.000    0.000    0.000    0.000 
#
# Total GULP energy -312331.685644 kJ/mol
# GULP energy per Si atom -5577.351529 kJ/mol
# Density = 1.460120 g / cm^3
# Si number density = 14.634513 Si / 1000 Ang^3
#
#
#
# Elastic Constant Matrix: (Units=GPa)
#
#
# Indices 1 2 3 4 5 6 
#
# 1 172.5101 25.1353 15.1786 0.0000 0.0000 0.0000
# 2 25.1353 56.7359 19.7981 0.0000 0.0000 0.0000
# 3 15.1786 19.7981 21.3138 0.0000 0.0000 0.0000
# 4 0.0000 0.0000 0.0000 31.6908 0.0000 0.0000
# 5 0.0000 0.0000 0.0000 0.0000 0.8251 0.0000
# 6 0.0000 0.0000 0.0000 0.0000 0.0000 29.0110
#
#
#
# Elastic Compliance Matrix: (Units=1/GPa)
#
#
# Indices 1 2 3 4 5 6 
#
# 1 0.006308 -0.001816 -0.002806 0.000000 0.000000 0.000000
# 2 -0.001816 0.026601 -0.023416 0.000000 0.000000 0.000000
# 3 -0.002806 -0.023416 0.070667 0.000000 0.000000 0.000000
# 4 0.000000 0.000000 0.000000 0.031555 0.000000 0.000000
# 5 0.000000 0.000000 0.000000 0.000000 1.211978 0.000000
# 6 0.000000 0.000000 0.000000 0.000000 0.000000 0.034470
#
#
# Mechanical properties :
#
#
# Convention : Reuss Voigt Hill
#
# Bulk Modulus (GPa) = 21.05227 41.19818 31.12522
# Shear Modulus (GPa) = 3.44000 25.00190 14.22095
#
# Velocity S-wave (km/s) = 1.53483 4.13779 3.12066
# Velocity P-wave (km/s) = 4.19017 7.14429 5.85655
#
# Compressibility (1/GPa) = 0.04750082
#
# Stress axis : x y z
#
# Youngs Moduli (GPa) = 158.52441 37.59257 14.15083
#
# Poissons Ratio (x) = 0.06825 0.03971
# Poissons Ratio (y) = 0.28781 0.33136
# Poissons Ratio (z) = 0.44481 0.88028
#
# Static dielectric constant tensor:
#      x y z
#    x 1.593050 0.000000 0.000000 
#    y 0.000000 1.479800 0.000000 
#    z 0.000000 0.000000 1.464220 
# 
# From -- ./inp_files/31091.got.cif
#   From: 2010.05.17/outbox.cif.g08.bks.cpg/sg58_16_cif.got.tgz:31091.got - 2010.06.03 14:20:14.
