data_PCOD9440360
_publ_section_title
;
Structure prediction by ZEFSAII (Michael W. Deem and Ramdas Pophale) SiO2 
 PCOD9440360
Probable space group: P B C M
;
_chemical_formula_sum "Si O2"
_cell_formula_units_Z 24
_cell_length_a 4.717579
_cell_length_b 8.880736
_cell_length_c 23.556129
_cell_angle_alpha 90.000000
_cell_angle_beta 90.000000
_cell_angle_gamma 90.000000
_cell_volume 986.897538
_symmetry_space_group_name_H-M "P B C M"
_symmetry_group_IT_number 57
_symmetry_cell_setting 'orthorhombic'
loop_
_space_group_symop_operation_xyz
x,y,z
-x,-y,1/2+z
x,1/2-y,-z
-x,1/2+y,1/2-z
-x,-y,-z
x,y,1/2-z
-x,1/2+y,z
x,1/2-y,1/2+z
loop_
_atom_site_type_symbol
_atom_site_label
_atom_site_fract_x
_atom_site_fract_y
_atom_site_fract_z
Si Si1 0.898794 0.103779 0.685648
Si Si2 0.414844 0.911002 0.646598
Si Si3 0.744001 0.909347 0.972249
O O1 0.000757 0.134069 0.750000
O O2 0.745751 0.254231 0.660990
O O3 0.652248 0.977373 0.688552
O O4 0.159752 0.036240 0.648308
O O5 0.617900 0.893735 0.591417
O O6 0.777223 0.750000 0.000000
O O7 0.500000 0.000000 0.000000
O O8 0.000000 0.000000 0.000000
#
# Coordination Sequence:
#
# PCOD9440360 Si02
#       3
#     8   8   8
#     4  12  25  47  76 114 156 203 255 316 386 467
#     4  12  27  47  75 112 155 203 255 317 385 458
#     4  12  27  50  77 110 149 198 257 319 381 453
#
# _framework density 24.318636999999999
#
# number of rings (size 3 to 8) (size 9 to 14) (size 15 to 20)
#    0.000    0.000    0.000   10.000    0.000    5.333 
#    0.000    3.333    0.000    0.000    0.000    0.000 
#    0.000    0.000    0.000    0.000    0.000    0.000 
#
# Total GULP energy -133813.200782 kJ/mol
# GULP energy per Si atom -5575.550033 kJ/mol
# Density = 2.426329 g / cm^3
# Si number density = 24.318637 Si / 1000 Ang^3
#
#
#
# Elastic Constant Matrix: (Units=GPa)
#
#
# Indices 1 2 3 4 5 6 
#
# 1 219.5190 89.5303 59.3048 0.0000 0.0000 0.0000
# 2 89.5303 192.8053 91.2181 0.0000 0.0000 0.0000
# 3 59.3048 91.2181 183.5534 0.0000 0.0000 0.0000
# 4 0.0000 0.0000 0.0000 25.4736 0.0000 0.0000
# 5 0.0000 0.0000 0.0000 0.0000 496.2201 0.0000
# 6 0.0000 0.0000 0.0000 0.0000 0.0000 39.8952
#
#
#
# Elastic Compliance Matrix: (Units=1/GPa)
#
#
# Indices 1 2 3 4 5 6 
#
# 1 0.005685 -0.002315 -0.000686 0.000000 0.000000 0.000000
# 2 -0.002315 0.007724 -0.003090 0.000000 0.000000 0.000000
# 3 -0.000686 -0.003090 0.007205 0.000000 0.000000 0.000000
# 4 0.000000 0.000000 0.000000 0.039256 0.000000 0.000000
# 5 0.000000 0.000000 0.000000 0.000000 0.002015 0.000000
# 6 0.000000 0.000000 0.000000 0.000000 0.000000 0.025066
#
#
# Mechanical properties :
#
#
# Convention : Reuss Voigt Hill
#
# Bulk Modulus (GPa) = 118.61415 119.55380 119.08397
# Shear Modulus (GPa) = 49.04590 136.03941 92.54265
#
# Velocity S-wave (km/s) = 4.49575 7.48744 6.17550
# Velocity P-wave (km/s) = 8.70804 11.13630 9.99618
#
# Compressibility (1/GPa) = 0.00843070
#
# Stress axis : x y z
#
# Youngs Moduli (GPa) = 175.89941 129.47096 138.78314
#
# Poissons Ratio (x) = 0.29976 0.09524
# Poissons Ratio (y) = 0.40725 0.42889
# Poissons Ratio (z) = 0.12071 0.40011
#
# Static dielectric constant tensor:
#      x y z
#    x 1.871200 0.000000 0.000000 
#    y 0.000000 1.966740 0.000000 
#    z 0.000000 0.000000 2.922010 
# 
# From -- ./inp_files/25939.got.cif
#   From: 2010.05.17/outbox.cif.g08.bks.cpg/sg57_13_cif.got.tgz:25939.got - 2010.06.03 13:58:18.
