data_PCOD9440940
_publ_section_title
;
Structure prediction by ZEFSAII (Michael W. Deem and Ramdas Pophale) SiO2 
 PCOD9440940
Probable space group: P N N M
;
_chemical_formula_sum "Si O2"
_cell_formula_units_Z 48
_cell_length_a 17.407399
_cell_length_b 18.506899
_cell_length_c 7.356061
_cell_angle_alpha 90.000000
_cell_angle_beta 90.000000
_cell_angle_gamma 90.000000
_cell_volume 2369.806361
_symmetry_space_group_name_H-M "P N N M"
_symmetry_group_IT_number 58
_symmetry_cell_setting 'orthorhombic'
loop_
_space_group_symop_operation_xyz
x,y,z
-x,-y,z
1/2+x,1/2-y,1/2-z
1/2-x,1/2+y,1/2-z
-x,-y,-z
x,y,-z
1/2-x,1/2+y,1/2+z
1/2+x,1/2-y,1/2+z
loop_
_atom_site_type_symbol
_atom_site_label
_atom_site_fract_x
_atom_site_fract_y
_atom_site_fract_z
Si Si1 0.085206 0.020733 0.722071
Si Si2 0.167445 0.166137 0.282426
Si Si3 0.141252 0.332396 0.215583
Si Si4 0.739487 0.553732 0.220643
Si Si5 0.321322 0.095513 0.279164
Si Si6 0.008556 0.583798 0.778090
O O1 0.084320 0.020176 0.500000
O O2 0.153153 0.965862 0.780068
O O3 0.112344 0.100918 0.779980
O O4 0.000000 0.000000 0.782603
O O5 0.169306 0.159712 0.500000
O O6 0.142862 0.246995 0.241191
O O7 0.253848 0.148721 0.217163
O O8 0.217192 0.374284 0.284352
O O9 0.063523 0.369454 0.286242
O O10 0.140788 0.345587 0.000000
O O11 0.793229 0.485259 0.269303
O O12 0.735815 0.555297 0.000000
O O13 0.322678 0.097312 0.500000
O O14 0.407563 0.110208 0.217613
O O15 0.000000 0.500000 0.726621
O O16 0.008302 0.585508 0.000000
#
# Coordination Sequence:
#
# PCOD9440940 Si02
#       6
#     8   8   8   8   8   8
#     4   8  14  27  47  66  83 112 156 193 214 244
#     4   9  18  31  46  64  91 121 147 180 221 265
#     4  10  18  28  45  70  95 114 139 184 232 266
#     4   8  13  23  42  65  84 107 145 186 216 249
#     4   8  13  25  44  64  84 112 149 181 211 253
#     4   9  14  23  44  71  90 108 145 191 223 251
#
# _framework density 20.254819999999999
#
# number of rings (size 3 to 8) (size 9 to 14) (size 15 to 20)
#    0.000    3.333    1.667    2.000    0.000    0.000 
#    3.000    0.000    0.000    5.000    0.000    0.000 
#    0.000    0.000    0.000    0.000    0.000    0.000 
#
# Total GULP energy -267630.681526 kJ/mol
# GULP energy per Si atom -5575.639198 kJ/mol
# Density = 2.020872 g / cm^3
# Si number density = 20.254820 Si / 1000 Ang^3
#
#
#
# Elastic Constant Matrix: (Units=GPa)
#
#
# Indices 1 2 3 4 5 6 
#
# 1 226.7826 117.3635 8.9770 0.0000 0.0000 0.0000
# 2 117.3635 138.0801 -0.7907 0.0000 0.0000 0.0000
# 3 8.9770 -0.7907 71.7374 0.0000 0.0000 0.0000
# 4 0.0000 0.0000 0.0000 12.2100 0.0000 0.0000
# 5 0.0000 0.0000 0.0000 0.0000 -14.2403 0.0000
# 6 0.0000 0.0000 0.0000 0.0000 0.0000 27.3100
#
#
#
# Elastic Compliance Matrix: (Units=1/GPa)
#
#
# Indices 1 2 3 4 5 6 
#
# 1 0.007954 -0.006766 -0.001070 0.000000 0.000000 0.000000
# 2 -0.006766 0.012999 0.000990 0.000000 0.000000 0.000000
# 3 -0.001070 0.000990 0.014085 0.000000 0.000000 0.000000
# 4 0.000000 0.000000 0.000000 0.081900 0.000000 0.000000
# 5 0.000000 0.000000 0.000000 0.000000 -0.070223 0.000000
# 6 0.000000 0.000000 0.000000 0.000000 0.000000 0.036617
#
#
# Mechanical properties :
#
#
# Convention : Reuss Voigt Hill
#
# Bulk Modulus (GPa) = 46.85021 76.41109 61.63065
# Shear Modulus (GPa) = 48.01324 25.79262 36.90293
#
# Velocity S-wave (km/s) = 4.87402 3.57235 4.27304
# Velocity P-wave (km/s) = 7.40644 7.40422 7.40533
#
# Compressibility (1/GPa) = 0.02134462
#
# Stress axis : x y z
#
# Youngs Moduli (GPa) = 125.72958 76.92865 70.99992
#
# Poissons Ratio (x) = 0.52053 0.07596
# Poissons Ratio (y) = 0.85074 -0.07029
# Poissons Ratio (z) = 0.13451 -0.07616
#
# Static dielectric constant tensor:
#      x y z
#    x 1.721870 0.000000 0.000000 
#    y 0.000000 1.685680 0.000000 
#    z 0.000000 0.000000 1.795510 
# 
# From -- ./inp_files/7849.got.cif
#   From: 2010.05.17/outbox.cif.g08.bks.cpg/sg58_4_cif.got.tgz:7849.got - 2010.06.03 14:20:14.
