data_PCOD9440142
_publ_section_title
;
Structure prediction by ZEFSAII (Michael W. Deem and Ramdas Pophale) SiO2 
 PCOD9440142
Probable space group: P B C M
;
_chemical_formula_sum "Si O2"
_cell_formula_units_Z 64
_cell_length_a 16.937774
_cell_length_b 9.426398
_cell_length_c 21.463350
_cell_angle_alpha 90.000000
_cell_angle_beta 90.000000
_cell_angle_gamma 90.000000
_cell_volume 3426.885658
_symmetry_space_group_name_H-M "P B C M"
_symmetry_group_IT_number 57
_symmetry_cell_setting 'orthorhombic'
loop_
_space_group_symop_operation_xyz
x,y,z
-x,-y,1/2+z
x,1/2-y,-z
-x,1/2+y,1/2-z
-x,-y,-z
x,y,1/2-z
-x,1/2+y,z
x,1/2-y,1/2+z
loop_
_atom_site_type_symbol
_atom_site_label
_atom_site_fract_x
_atom_site_fract_y
_atom_site_fract_z
Si Si1 0.590249 0.841916 0.673684
Si Si2 0.071766 0.406509 0.470526
Si Si3 0.762414 0.711850 0.174952
Si Si4 0.822144 0.158962 0.055714
Si Si5 0.080093 0.428817 0.678072
Si Si6 0.964461 0.211757 0.625617
Si Si7 0.266142 0.952050 0.675581
Si Si8 0.443836 0.022500 0.674973
O O1 0.590966 0.845466 0.750000
O O2 0.680691 0.859016 0.652604
O O3 0.523177 0.949039 0.651502
O O4 0.565000 0.684054 0.654231
O O5 0.081780 0.250000 0.500000
O O6 0.148457 0.505384 0.468846
O O7 0.000000 0.500000 0.500000
O O8 0.039161 0.370829 0.402455
O O9 0.762455 0.693073 0.250000
O O10 0.840733 0.638239 0.148583
O O11 0.757871 0.881875 0.166200
O O12 0.902238 0.243817 0.073319
O O13 0.777389 0.136896 0.121640
O O14 0.783080 0.250000 0.000000
O O15 0.082683 0.393664 0.750000
O O16 0.076887 0.596877 0.669081
O O17 0.001658 0.351929 0.654054
O O18 0.251356 0.918620 0.750000
O O19 0.360520 0.944401 0.663829
O O20 0.450222 0.027384 0.750000
#
# Coordination Sequence:
#
# PCOD9440142 Si02
#       8
#     8   8   8   8   8   8   8   8
#     4   8  13  25  47  74 106 144 183 225 272 335
#     4  12  20  38  60  77 100 135 187 246 292 326
#     4   8  16  32  52  75 110 153 194 235 285 342
#     4  12  24  39  60  84 110 147 198 242 285 338
#     4  11  23  36  51  77 114 156 193 228 284 350
#     4  12  22  37  55  75 107 145 191 241 283 332
#     4   9  19  36  57  83 117 154 184 227 293 352
#     4   8  14  27  49  77 110 145 182 220 275 341
#
# _framework density 18.675848999999999
#
# number of rings (size 3 to 8) (size 9 to 14) (size 15 to 20)
#    0.000    2.000    3.750    2.625    0.000    1.000 
#    2.250    0.000    0.000    0.000    0.000    3.500 
#    0.000    0.000    0.000    0.000    0.000    0.000 
#
# Total GULP energy -356366.305011 kJ/mol
# GULP energy per Si atom -5568.223516 kJ/mol
# Density = 1.863334 g / cm^3
# Si number density = 18.675849 Si / 1000 Ang^3
#
#
#
# Elastic Constant Matrix: (Units=GPa)
#
#
# Indices 1 2 3 4 5 6 
#
# 1 69.7914 24.8392 15.2692 0.0000 0.0000 0.0000
# 2 24.8392 56.2448 11.2869 0.0000 0.0000 0.0000
# 3 15.2692 11.2869 35.8669 0.0000 0.0000 0.0000
# 4 0.0000 0.0000 0.0000 25.7264 0.0000 0.0000
# 5 0.0000 0.0000 0.0000 0.0000 9.4716 0.0000
# 6 0.0000 0.0000 0.0000 0.0000 0.0000 13.6464
#
#
#
# Elastic Compliance Matrix: (Units=1/GPa)
#
#
# Indices 1 2 3 4 5 6 
#
# 1 0.017962 -0.006829 -0.005498 0.000000 0.000000 0.000000
# 2 -0.006829 0.021574 -0.003882 0.000000 0.000000 0.000000
# 3 -0.005498 -0.003882 0.031443 0.000000 0.000000 0.000000
# 4 0.000000 0.000000 0.000000 0.038871 0.000000 0.000000
# 5 0.000000 0.000000 0.000000 0.000000 0.105579 0.000000
# 6 0.000000 0.000000 0.000000 0.000000 0.000000 0.073279
#
#
# Mechanical properties :
#
#
# Convention : Reuss Voigt Hill
#
# Bulk Modulus (GPa) = 25.93248 29.41041 27.67145
# Shear Modulus (GPa) = 14.97100 17.13607 16.05354
#
# Velocity S-wave (km/s) = 2.83437 3.03240 2.93505
# Velocity P-wave (km/s) = 4.96258 5.29553 5.13176
#
# Compressibility (1/GPa) = 0.03856168
#
# Stress axis : x y z
#
# Youngs Moduli (GPa) = 55.67396 46.35139 31.80375
#
# Poissons Ratio (x) = 0.31654 0.17484
# Poissons Ratio (y) = 0.38021 0.12346
# Poissons Ratio (z) = 0.30607 0.17993
#
# Static dielectric constant tensor:
#      x y z
#    x 1.692870 0.000000 0.000000 
#    y 0.000000 1.688260 0.000000 
#    z 0.000000 0.000000 1.668310 
# 
# From -- ./inp_files/25633.got.cif
#   From: 2010.05.17/outbox.cif.g08.bks.cpg/sg57_13_cif.got.tgz:25633.got - 2010.06.03 13:58:18.
