data_PCOD9440057
_publ_section_title
;
Structure prediction by ZEFSAII (Michael W. Deem and Ramdas Pophale) SiO2 
 PCOD9440057
Probable space group: P B C M
;
_chemical_formula_sum "Si O2"
_cell_formula_units_Z 64
_cell_length_a 12.020679
_cell_length_b 14.789444
_cell_length_c 17.235825
_cell_angle_alpha 90.000000
_cell_angle_beta 90.000000
_cell_angle_gamma 90.000000
_cell_volume 3064.170472
_symmetry_space_group_name_H-M "P B C M"
_symmetry_group_IT_number 57
_symmetry_cell_setting 'orthorhombic'
loop_
_space_group_symop_operation_xyz
x,y,z
-x,-y,1/2+z
x,1/2-y,-z
-x,1/2+y,1/2-z
-x,-y,-z
x,y,1/2-z
-x,1/2+y,z
x,1/2-y,1/2+z
loop_
_atom_site_type_symbol
_atom_site_label
_atom_site_fract_x
_atom_site_fract_y
_atom_site_fract_z
Si Si1 0.739200 0.527676 0.936308
Si Si2 0.744743 0.319513 0.571425
Si Si3 0.358429 0.423539 0.595652
Si Si4 0.504371 0.257685 0.905968
Si Si5 0.874951 0.514742 0.336831
Si Si6 0.014240 0.680355 0.109356
Si Si7 0.023129 0.121281 0.569403
Si Si8 0.464974 0.060002 0.840312
O O1 0.739350 0.422229 0.958274
O O2 0.862306 0.565992 0.926036
O O3 0.662652 0.538930 0.861155
O O4 0.678978 0.580189 0.006180
O O5 0.760642 0.250000 0.500000
O O6 0.627726 0.295841 0.610667
O O7 0.854045 0.314307 0.624437
O O8 0.409185 0.327484 0.619464
O O9 0.249517 0.456599 0.640726
O O10 0.456663 0.495079 0.608864
O O11 0.489548 0.161973 0.865853
O O12 0.499372 0.250000 0.000000
O O13 0.878544 0.478080 0.250000
O O14 0.949319 0.605490 0.342513
O O15 0.926697 0.440974 0.394925
O O16 0.967781 0.782081 0.112241
O O17 0.001359 0.645541 0.020117
O O18 0.488378 0.045565 0.750000
#
# Coordination Sequence:
#
# PCOD9440057 Si02
#       8
#     8   8   8   8   8   8   8   8
#     4  12  23  44  75  99 134 184 230 288 333 418
#     4  11  21  39  69 103 131 167 230 283 338 385
#     4  12  24  45  72  96 136 177 234 276 340 409
#     4  11  24  43  71 102 133 181 233 284 334 409
#     4  12  27  44  67 100 142 183 221 282 353 413
#     4  11  23  43  70 104 134 176 229 287 334 410
#     4  11  24  43  72 100 133 177 231 284 337 402
#     4  12  28  46  66 103 142 182 229 288 354 406
#
# _framework density 20.886565999999998
#
# number of rings (size 3 to 8) (size 9 to 14) (size 15 to 20)
#    0.000    0.500    6.250    3.375    3.500    2.000 
#    0.000    0.625    0.000    0.000    0.000    0.000 
#    0.000    0.000    0.000    0.000    0.000    0.000 
#
# Total GULP energy -358095.427146 kJ/mol
# GULP energy per Si atom -5595.241049 kJ/mol
# Density = 2.083903 g / cm^3
# Si number density = 20.886566 Si / 1000 Ang^3
#
#
#
# Elastic Constant Matrix: (Units=GPa)
#
#
# Indices 1 2 3 4 5 6 
#
# 1 125.3933 26.4994 12.6742 0.0000 0.0000 0.0000
# 2 26.4994 86.9165 -10.1133 0.0000 0.0000 0.0000
# 3 12.6742 -10.1133 36.6932 0.0000 0.0000 0.0000
# 4 0.0000 0.0000 0.0000 4.0440 0.0000 0.0000
# 5 0.0000 0.0000 0.0000 0.0000 -2.4628 0.0000
# 6 0.0000 0.0000 0.0000 0.0000 0.0000 33.7313
#
#
#
# Elastic Compliance Matrix: (Units=1/GPa)
#
#
# Indices 1 2 3 4 5 6 
#
# 1 0.009064 -0.003231 -0.004022 0.000000 0.000000 0.000000
# 2 -0.003231 0.013039 0.004710 0.000000 0.000000 0.000000
# 3 -0.004022 0.004710 0.029940 0.000000 0.000000 0.000000
# 4 0.000000 0.000000 0.000000 0.247279 0.000000 0.000000
# 5 0.000000 0.000000 0.000000 0.000000 -0.406046 0.000000
# 6 0.000000 0.000000 0.000000 0.000000 0.000000 0.029646
#
#
# Mechanical properties :
#
#
# Convention : Reuss Voigt Hill
#
# Bulk Modulus (GPa) = 21.29627 34.12486 27.71056
# Shear Modulus (GPa) = -88.74824 21.72535 -33.51145
#
# Velocity S-wave (km/s) = -6.52555 3.22865 -4.00990
# Velocity P-wave (km/s) = 6.82340 5.50205 2.85362
#
# Compressibility (1/GPa) = 0.04695659
#
# Stress axis : x y z
#
# Youngs Moduli (GPa) = 110.32291 76.69573 33.39995
#
# Poissons Ratio (x) = 0.24784 0.13432
# Poissons Ratio (y) = 0.35651 -0.15731
# Poissons Ratio (z) = 0.44367 -0.36122
#
# Static dielectric constant tensor:
#      x y z
#    x 1.747970 0.000000 0.000000 
#    y 0.000000 1.736780 0.000000 
#    z 0.000000 0.000000 1.630270 
# 
# From -- ./inp_files/22079.got.cif
#   From: 2010.05.17/outbox.cif.g08.bks.cpg/sg57_12_cif.got.tgz:22079.got - 2010.06.03 13:58:18.
