data_PCOD9440055
_publ_section_title
;
Structure prediction by ZEFSAII (Michael W. Deem and Ramdas Pophale) SiO2 
 PCOD9440055
Probable space group: P B C M
;
_chemical_formula_sum "Si O2"
_cell_formula_units_Z 36
_cell_length_a 5.381585
_cell_length_b 14.135645
_cell_length_c 22.181848
_cell_angle_alpha 90.000000
_cell_angle_beta 90.000000
_cell_angle_gamma 90.000000
_cell_volume 1687.421425
_symmetry_space_group_name_H-M "P B C M"
_symmetry_group_IT_number 57
_symmetry_cell_setting 'orthorhombic'
loop_
_space_group_symop_operation_xyz
x,y,z
-x,-y,1/2+z
x,1/2-y,-z
-x,1/2+y,1/2-z
-x,-y,-z
x,y,1/2-z
-x,1/2+y,z
x,1/2-y,1/2+z
loop_
_atom_site_type_symbol
_atom_site_label
_atom_site_fract_x
_atom_site_fract_y
_atom_site_fract_z
Si Si1 0.156049 0.742317 0.428215
Si Si2 0.490744 0.658302 0.750000
Si Si3 0.495056 0.360544 0.750000
Si Si4 0.659804 0.637598 0.116070
Si Si5 0.223989 0.936302 0.140268
Si Si6 0.875600 0.532821 0.750000
O O1 0.169496 0.750000 0.500000
O O2 0.405001 0.687880 0.405307
O O3 0.145791 0.847719 0.400037
O O4 0.904911 0.687626 0.409457
O O5 0.367893 0.759963 0.750000
O O6 0.415769 0.605665 0.810997
O O7 0.784899 0.642747 0.750000
O O8 0.340536 0.357419 0.688817
O O9 0.670233 0.450949 0.750000
O O10 0.670075 0.525012 0.103244
O O11 0.016503 0.975418 0.186573
#
# Coordination Sequence:
#
# PCOD9440055 Si02
#       6
#     8   4   4   8   8   4
#     4  12  29  50  73 104 144 200 256 295 351 425
#     4  11  21  39  65 103 142 180 222 290 369 433
#     4  12  21  42  74 107 142 180 231 293 377 432
#     4  12  26  46  76 107 146 186 239 306 365 438
#     4  11  25  42  70 104 144 189 234 301 367 431
#     4  11  22  43  65 112 152 180 233 297 382 457
#
# _framework density 21.334326000000001
#
# number of rings (size 3 to 8) (size 9 to 14) (size 15 to 20)
#    0.000    0.444    4.444    4.000    0.000    3.556 
#    0.000    0.000    0.000    0.000    0.000    0.000 
#    0.000    0.000    0.000    0.000    0.000    0.000 
#
# Total GULP energy -201023.679628 kJ/mol
# GULP energy per Si atom -5583.991101 kJ/mol
# Density = 2.128577 g / cm^3
# Si number density = 21.334326 Si / 1000 Ang^3
#
#
#
# Elastic Constant Matrix: (Units=GPa)
#
#
# Indices 1 2 3 4 5 6 
#
# 1 98.3551 55.8392 56.1102 0.0000 0.0000 0.0000
# 2 55.8392 176.8120 58.9563 0.0000 0.0000 0.0000
# 3 56.1102 58.9563 142.1407 0.0000 0.0000 0.0000
# 4 0.0000 0.0000 0.0000 11.3922 0.0000 0.0000
# 5 0.0000 0.0000 0.0000 0.0000 14.4656 0.0000
# 6 0.0000 0.0000 0.0000 0.0000 0.0000 25.3497
#
#
#
# Elastic Compliance Matrix: (Units=1/GPa)
#
#
# Indices 1 2 3 4 5 6 
#
# 1 0.014442 -0.003087 -0.004420 0.000000 0.000000 0.000000
# 2 -0.003087 0.007223 -0.001777 0.000000 0.000000 0.000000
# 3 -0.004420 -0.001777 0.009518 0.000000 0.000000 0.000000
# 4 0.000000 0.000000 0.000000 0.087779 0.000000 0.000000
# 5 0.000000 0.000000 0.000000 0.000000 0.069129 0.000000
# 6 0.000000 0.000000 0.000000 0.000000 0.000000 0.039448
#
#
# Mechanical properties :
#
#
# Convention : Reuss Voigt Hill
#
# Bulk Modulus (GPa) = 79.28496 84.34658 81.81577
# Shear Modulus (GPa) = 19.97498 26.66831 23.32165
#
# Velocity S-wave (km/s) = 3.06319 3.53940 3.30987
# Velocity P-wave (km/s) = 7.05370 7.50497 7.28283
#
# Compressibility (1/GPa) = 0.01261273
#
# Stress axis : x y z
#
# Youngs Moduli (GPa) = 69.24463 138.44143 105.06922
#
# Poissons Ratio (x) = 0.42735 0.46446
# Poissons Ratio (y) = 0.21375 0.18676
# Poissons Ratio (z) = 0.30609 0.24608
#
# Static dielectric constant tensor:
#      x y z
#    x 1.842390 0.000000 0.000000 
#    y 0.000000 1.859120 0.000000 
#    z 0.000000 0.000000 1.728790 
# 
# From -- ./inp_files/23504.got.cif
#   From: 2010.05.17/outbox.cif.g08.bks.cpg/sg57_12_cif.got.tgz:23504.got - 2010.06.03 13:58:18.
