data_PCOD9440397
_publ_section_title
;
Structure prediction by ZEFSAII (Michael W. Deem and Ramdas Pophale) SiO2 
 PCOD9440397
Probable space group: P B C M
;
_chemical_formula_sum "Si O2"
_cell_formula_units_Z 56
_cell_length_a 15.000000
_cell_length_b 21.000000
_cell_length_c 9.000000
_cell_angle_alpha 90.000000
_cell_angle_beta 90.000000
_cell_angle_gamma 90.000000
_cell_volume 2835.000000
_symmetry_space_group_name_H-M "P B C M"
_symmetry_group_IT_number 57
_symmetry_cell_setting 'orthorhombic'
loop_
_space_group_symop_operation_xyz
x,y,z
-x,-y,1/2+z
x,1/2-y,-z
-x,1/2+y,1/2-z
-x,-y,-z
x,y,1/2-z
-x,1/2+y,z
x,1/2-y,1/2+z
loop_
_atom_site_type_symbol
_atom_site_label
_atom_site_fract_x
_atom_site_fract_y
_atom_site_fract_z
Si Si1 0.072824 0.418801 0.418501
Si Si2 0.636353 0.883981 0.572300
Si Si3 0.776651 0.996089 0.928661
Si Si4 0.455677 0.819365 0.570738
Si Si5 0.076331 0.817238 0.429907
Si Si6 0.217316 0.307132 0.085058
Si Si7 0.744006 0.366979 0.929027
O O1 0.056507 0.443442 0.250000
O O2 0.125572 0.469983 0.519301
O O3 0.148577 0.364526 0.408125
O O4 0.985865 0.378796 0.470035
O O5 0.638621 0.881318 0.750000
O O6 0.694872 0.947028 0.532981
O O7 0.533785 0.870044 0.526846
O O8 0.695599 0.828044 0.503374
O O9 0.778019 0.004059 0.750000
O O10 0.755698 0.061152 0.012913
O O11 0.472712 0.750000 0.500000
O O12 0.458979 0.813612 0.750000
O O13 0.355393 0.842133 0.531685
O O14 0.045120 0.750000 0.500000
O O15 0.074962 0.813135 0.250000
O O16 0.175876 0.828997 0.491676
O O17 0.242196 0.287577 0.250000
O O18 0.171834 0.250000 0.000000
O O19 0.753772 0.363464 0.750000
#
# Coordination Sequence:
#
# PCOD9440397 Si02
#       7
#     8   8   8   8   8   8   8
#     4   9  20  37  57  82 114 150 187 230 281 341
#     4   9  19  36  56  81 113 146 184 231 282 338
#     4  10  21  38  61  88 117 150 190 235 285 342
#     4  10  22  39  59  84 114 150 191 236 286 339
#     4  11  23  40  62  88 117 151 193 239 289 341
#     4  10  18  29  48  77 111 146 183 224 276 335
#     4  11  24  41  60  82 114 155 197 242 287 336
#
# _framework density 19.753086
#
# number of rings (size 3 to 8) (size 9 to 14) (size 15 to 20)
#    0.000    2.000    0.000    3.000    0.000    7.429 
#    0.000    0.000    0.000    0.000    0.000    0.000 
#    0.000    0.000    0.000    0.000    0.000    0.000 
#
# Total GULP energy -312392.602419 kJ/mol
# GULP energy per Si atom -5578.439329 kJ/mol
# Density = 1.970813 g / cm^3
# Si number density = 19.753086 Si / 1000 Ang^3
#
#
#
# Elastic Constant Matrix: (Units=GPa)
#
#
# Indices 1 2 3 4 5 6 
#
# 1 127.0050 19.6695 20.1415 0.0000 0.0000 0.0000
# 2 19.6695 76.3189 30.2651 0.0000 0.0000 0.0000
# 3 20.1415 30.2651 26.2097 0.0000 0.0000 0.0000
# 4 0.0000 0.0000 0.0000 33.4323 0.0000 0.0000
# 5 0.0000 0.0000 0.0000 0.0000 1.2773 0.0000
# 6 0.0000 0.0000 0.0000 0.0000 0.0000 21.0576
#
#
#
# Elastic Compliance Matrix: (Units=1/GPa)
#
#
# Indices 1 2 3 4 5 6 
#
# 1 0.008992 0.000780 -0.007810 0.000000 0.000000 0.000000
# 2 0.000780 0.024239 -0.028589 0.000000 0.000000 0.000000
# 3 -0.007810 -0.028589 0.077169 0.000000 0.000000 0.000000
# 4 0.000000 0.000000 0.000000 0.029911 0.000000 0.000000
# 5 0.000000 0.000000 0.000000 0.000000 0.782914 0.000000
# 6 0.000000 0.000000 0.000000 0.000000 0.000000 0.047489
#
#
# Mechanical properties :
#
#
# Convention : Reuss Voigt Hill
#
# Bulk Modulus (GPa) = 25.53608 41.07618 33.30613
# Shear Modulus (GPa) = 4.73931 21.78394 13.26162
#
# Velocity S-wave (km/s) = 1.55064 3.32446 2.59389
# Velocity P-wave (km/s) = 4.02016 5.96457 5.08614
#
# Compressibility (1/GPa) = 0.03916027
#
# Stress axis : x y z
#
# Youngs Moduli (GPa) = 111.21555 41.25540 12.95863
#
# Poissons Ratio (x) = -0.03218 0.10121
# Poissons Ratio (y) = -0.08674 0.37048
# Poissons Ratio (z) = 0.86863 1.17946
#
# Static dielectric constant tensor:
#      x y z
#    x 1.700290 0.000000 0.000000 
#    y 0.000000 1.742420 0.000000 
#    z 0.000000 0.000000 1.733880 
# 
# From -- ./inp_files/5139.got.cif
#   From: 2010.05.17/outbox.ucp.g08.bks.cvg/sg57_3_cif.got.tgz:5139.got - 2010.06.11 16:39:23.
