data_PCOD9440950
_publ_section_title
;
Structure prediction by ZEFSAII (Michael W. Deem and Ramdas Pophale) SiO2 
 PCOD9440950
Probable space group: P N N M
;
_chemical_formula_sum "Si O2"
_cell_formula_units_Z 40
_cell_length_a 12.978784
_cell_length_b 21.704767
_cell_length_c 8.070647
_cell_angle_alpha 90.000000
_cell_angle_beta 90.000000
_cell_angle_gamma 90.000000
_cell_volume 2273.513226
_symmetry_space_group_name_H-M "P N N M"
_symmetry_group_IT_number 58
_symmetry_cell_setting 'orthorhombic'
loop_
_space_group_symop_operation_xyz
x,y,z
-x,-y,z
1/2+x,1/2-y,1/2-z
1/2-x,1/2+y,1/2-z
-x,-y,-z
x,y,-z
1/2-x,1/2+y,1/2+z
1/2+x,1/2-y,1/2+z
loop_
_atom_site_type_symbol
_atom_site_label
_atom_site_fract_x
_atom_site_fract_y
_atom_site_fract_z
Si Si1 0.912456 0.692035 0.806473
Si Si2 0.988261 0.069856 0.702590
Si Si3 0.362990 0.203002 0.194619
Si Si4 0.648032 0.327011 0.193958
Si Si5 0.808520 0.158523 0.297866
O O1 0.886076 0.764515 0.784876
O O2 0.810163 0.657583 0.741309
O O3 0.021923 0.679784 0.723856
O O4 0.923138 0.678328 0.000000
O O5 0.986999 0.068283 0.500000
O O6 0.883553 0.104090 0.756622
O O7 0.082852 0.114252 0.750749
O O8 0.000000 0.000000 0.760981
O O9 0.270456 0.167094 0.282812
O O10 0.355086 0.274761 0.250618
O O11 0.340142 0.202093 0.000000
O O12 0.624092 0.317134 0.000000
O O13 0.807138 0.157881 0.500000
#
# Coordination Sequence:
#
# PCOD9440950 Si02
#       5
#     8   8   8   8   8
#     4  10  18  28  46  70  98 127 154 194 244 291
#     4   9  16  28  48  71  96 126 159 197 238 282
#     4  10  18  30  47  68  97 126 156 199 243 284
#     4  10  18  29  46  71  99 125 159 196 239 292
#     4   8  15  27  42  66  95 119 150 193 236 279
#
# _framework density 17.593916
#
# number of rings (size 3 to 8) (size 9 to 14) (size 15 to 20)
#    0.000    2.600    2.000    3.000    0.000    0.000 
#    0.000    0.000    0.000    3.600    0.000    8.400 
#    0.000    0.000    0.000    0.000    0.000    0.000 
#
# Total GULP energy -222943.678038 kJ/mol
# GULP energy per Si atom -5573.591951 kJ/mol
# Density = 1.755387 g / cm^3
# Si number density = 17.593916 Si / 1000 Ang^3
#
#
#
# Elastic Constant Matrix: (Units=GPa)
#
#
# Indices 1 2 3 4 5 6 
#
# 1 129.7058 45.1862 -6.5960 0.0000 0.0000 0.0000
# 2 45.1862 78.2834 -3.0177 0.0000 0.0000 0.0000
# 3 -6.5960 -3.0177 14.4733 0.0000 0.0000 0.0000
# 4 0.0000 0.0000 0.0000 10.8136 0.0000 0.0000
# 5 0.0000 0.0000 0.0000 0.0000 35.8035 0.0000
# 6 0.0000 0.0000 0.0000 0.0000 0.0000 19.9018
#
#
#
# Elastic Compliance Matrix: (Units=1/GPa)
#
#
# Indices 1 2 3 4 5 6 
#
# 1 0.009806 -0.005532 0.003315 0.000000 0.000000 0.000000
# 2 -0.005532 0.015999 0.000815 0.000000 0.000000 0.000000
# 3 0.003315 0.000815 0.070774 0.000000 0.000000 0.000000
# 4 0.000000 0.000000 0.000000 0.092476 0.000000 0.000000
# 5 0.000000 0.000000 0.000000 0.000000 0.027930 0.000000
# 6 0.000000 0.000000 0.000000 0.000000 0.000000 0.050247
#
#
# Mechanical properties :
#
#
# Convention : Reuss Voigt Hill
#
# Bulk Modulus (GPa) = 10.66400 32.62306 21.64353
# Shear Modulus (GPa) = 16.59513 25.76311 21.17912
#
# Velocity S-wave (km/s) = 3.07454 3.83079 3.47331
# Velocity P-wave (km/s) = 4.32181 6.17650 5.33044
#
# Compressibility (1/GPa) = 0.09377342
#
# Stress axis : x y z
#
# Youngs Moduli (GPa) = 101.98249 62.50507 14.12956
#
# Poissons Ratio (x) = 0.34579 -0.04684
# Poissons Ratio (y) = 0.56418 -0.01151
# Poissons Ratio (z) = -0.33811 -0.05091
#
# Static dielectric constant tensor:
#      x y z
#    x 1.631620 0.000000 0.000000 
#    y 0.000000 1.567800 0.000000 
#    z 0.000000 0.000000 1.621710 
# 
# From -- ./inp_files/3999.got.cif
#   From: 2010.05.17/outbox.cif.g08.bks.cpg/sg58_2_cif.got.tgz:3999.got - 2010.06.03 14:20:14.
