data_PCOD9440605
_publ_section_title
;
Structure prediction by ZEFSAII (Michael W. Deem and Ramdas Pophale) SiO2 
 PCOD9440605
Probable space group: P B C M
;
_chemical_formula_sum "Si O2"
_cell_formula_units_Z 48
_cell_length_a 30.000000
_cell_length_b 9.000000
_cell_length_c 9.000000
_cell_angle_alpha 90.000000
_cell_angle_beta 90.000000
_cell_angle_gamma 90.000000
_cell_volume 2430.000000
_symmetry_space_group_name_H-M "P B C M"
_symmetry_group_IT_number 57
_symmetry_cell_setting 'orthorhombic'
loop_
_space_group_symop_operation_xyz
x,y,z
-x,-y,1/2+z
x,1/2-y,-z
-x,1/2+y,1/2-z
-x,-y,-z
x,y,1/2-z
-x,1/2+y,z
x,1/2-y,1/2+z
loop_
_atom_site_type_symbol
_atom_site_label
_atom_site_fract_x
_atom_site_fract_y
_atom_site_fract_z
Si Si1 0.459079 0.588408 0.928417
Si Si2 0.292488 0.899548 0.578994
Si Si3 0.884539 0.591024 0.075440
Si Si4 0.220749 0.408083 0.922607
Si Si5 0.619448 0.590978 0.923639
Si Si6 0.959956 0.090889 0.427492
O O1 0.461971 0.592801 0.750000
O O2 0.459978 0.750000 0.000000
O O3 0.500000 0.500000 0.000000
O O4 0.414271 0.509598 0.983483
O O5 0.307785 0.750000 0.500000
O O6 0.282496 0.867973 0.750000
O O7 0.249473 0.965744 0.499443
O O8 0.331776 0.019359 0.571164
O O9 0.897152 0.592269 0.250000
O O10 0.831878 0.560848 0.065847
O O11 0.892651 0.750000 0.000000
O O12 0.913566 0.477158 0.982707
O O13 0.232773 0.396470 0.750000
O O14 0.229452 0.250000 0.000000
O O15 0.605605 0.599387 0.750000
O O16 0.619894 0.750000 0.000000
O O17 0.963630 0.250000 0.500000
O O18 0.963016 0.092641 0.250000
O O19 0.000000 0.000000 0.500000
#
# Coordination Sequence:
#
# PCOD9440605 Si02
#       6
#     8   8   8   8   8   8
#     4  12  25  43  66  93 126 163 203 250 301 358
#     4  11  24  40  61  88 122 160 202 250 302 357
#     4  10  21  39  62  90 121 157 198 244 296 353
#     4  10  21  38  62  89 121 158 200 246 296 354
#     4  11  24  42  64  92 123 160 203 250 302 359
#     4  12  25  42  63  88 119 156 197 244 295 353
#
# _framework density 19.753086
#
# number of rings (size 3 to 8) (size 9 to 14) (size 15 to 20)
#    0.000    1.000    0.000    7.000    0.000    8.000 
#    0.000    0.000    0.000    0.000    0.000    0.000 
#    0.000    0.000    0.000    0.000    0.000    0.000 
#
# Total GULP energy -268468.060329 kJ/mol
# GULP energy per Si atom -5593.084590 kJ/mol
# Density = 1.970813 g / cm^3
# Si number density = 19.753086 Si / 1000 Ang^3
#
#
#
# Elastic Constant Matrix: (Units=GPa)
#
#
# Indices 1 2 3 4 5 6 
#
# 1 25.6422 55.1012 59.5317 0.0000 0.0000 0.0000
# 2 55.1012 138.4638 87.2637 0.0000 0.0000 0.0000
# 3 59.5317 87.2637 224.3916 0.0000 0.0000 0.0000
# 4 0.0000 0.0000 0.0000 33.3748 0.0000 0.0000
# 5 0.0000 0.0000 0.0000 0.0000 18.0052 0.0000
# 6 0.0000 0.0000 0.0000 0.0000 0.0000 6.2488
#
#
#
# Elastic Compliance Matrix: (Units=1/GPa)
#
#
# Indices 1 2 3 4 5 6 
#
# 1 12.129210 -3.707413 -1.776133 0.000000 0.000000 0.000000
# 2 -3.707413 1.142774 0.539172 0.000000 0.000000 0.000000
# 3 -1.776133 0.539172 0.265990 0.000000 0.000000 0.000000
# 4 0.000000 0.000000 0.000000 0.029963 0.000000 0.000000
# 5 0.000000 0.000000 0.000000 0.000000 0.055539 0.000000
# 6 0.000000 0.000000 0.000000 0.000000 0.000000 0.160031
#
#
# Mechanical properties :
#
#
# Convention : Reuss Voigt Hill
#
# Bulk Modulus (GPa) = 0.27403 88.03232 44.15317
# Shear Modulus (GPa) = 0.20089 23.96584 12.08336
#
# Velocity S-wave (km/s) = 0.31925 3.48698 2.47598
# Velocity P-wave (km/s) = 0.52434 7.80225 5.52947
#
# Compressibility (1/GPa) = 3.64922727
#
# Stress axis : x y z
#
# Youngs Moduli (GPa) = 0.08245 0.87506 3.75954
#
# Poissons Ratio (x) = 3.24422 6.67744
# Poissons Ratio (y) = 0.30566 -2.02704
# Poissons Ratio (z) = 0.14643 -0.47181
#
# Static dielectric constant tensor:
#      x y z
#    x 1.703920 0.000000 0.000000 
#    y 0.000000 1.643180 0.000000 
#    z 0.000000 0.000000 1.651850 
# 
# From -- ./inp_files/9948.got.cif
#   From: 2010.05.17/outbox.ucp.g08.bks.cvg/sg57_5_cif.got.tgz:9948.got - 2010.06.11 16:39:23.
