data_PCOD9440943
_publ_section_title
;
Structure prediction by ZEFSAII (Michael W. Deem and Ramdas Pophale) SiO2 
 PCOD9440943
Probable space group: P N N M
;
_chemical_formula_sum "Si O2"
_cell_formula_units_Z 64
_cell_length_a 15.190744
_cell_length_b 18.715383
_cell_length_c 14.209590
_cell_angle_alpha 90.000000
_cell_angle_beta 90.000000
_cell_angle_gamma 90.000000
_cell_volume 4039.794849
_symmetry_space_group_name_H-M "P N N M"
_symmetry_group_IT_number 58
_symmetry_cell_setting 'orthorhombic'
loop_
_space_group_symop_operation_xyz
x,y,z
-x,-y,z
1/2+x,1/2-y,1/2-z
1/2-x,1/2+y,1/2-z
-x,-y,-z
x,y,-z
1/2-x,1/2+y,1/2+z
1/2+x,1/2-y,1/2+z
loop_
_atom_site_type_symbol
_atom_site_label
_atom_site_fract_x
_atom_site_fract_y
_atom_site_fract_z
Si Si1 0.562385 0.176431 0.392619
Si Si2 0.016551 0.081528 0.885290
Si Si3 0.472458 0.919302 0.218811
Si Si4 0.648008 0.811833 0.392428
Si Si5 0.807750 0.537848 0.611443
Si Si6 0.825742 0.819359 0.112087
Si Si7 0.832268 0.387086 0.291723
Si Si8 0.837468 0.154346 0.114179
O O1 0.581925 0.151678 0.500000
O O2 0.569397 0.119179 0.309289
O O3 0.458445 0.196641 0.392860
O O4 0.623327 0.244885 0.372365
O O5 0.107691 0.117652 0.855407
O O6 0.933926 0.129321 0.854387
O O7 0.017451 0.081954 0.000000
O O8 0.000000 0.000000 0.856089
O O9 0.401533 0.926985 0.136417
O O10 0.563085 0.881127 0.187746
O O11 0.500000 0.000000 0.245977
O O12 0.675255 0.825374 0.500000
O O13 0.673136 0.873808 0.320109
O O14 0.683932 0.735221 0.357558
O O15 0.799760 0.522714 0.500000
O O16 0.803490 0.464363 0.669548
O O17 0.732762 0.594066 0.639686
O O18 0.731971 0.830129 0.160187
O O19 0.814365 0.826724 0.000000
O O20 0.839838 0.156529 0.000000
#
# Coordination Sequence:
#
# PCOD9440943 Si02
#       8
#     8   8   8   8   8   8   8   8
#     4   9  17  31  49  69  96 124 155 199 247 289
#     4   9  15  24  41  67  97 122 145 180 230 290
#     4   9  20  34  47  68  95 126 169 201 234 281
#     4   9  17  32  50  69  93 125 161 198 245 284
#     4  10  20  33  49  70  99 132 165 199 238 287
#     4  10  18  28  45  71 101 128 150 185 240 294
#     4  10  20  31  47  72  95 127 160 200 239 286
#     4   9  16  28  46  68  94 125 158 193 235 285
#
# _framework density 15.842388
#
# number of rings (size 3 to 8) (size 9 to 14) (size 15 to 20)
#    0.000    2.625    1.250    1.125    1.750    5.000 
#    0.000    1.875    0.000    0.000    0.000    0.000 
#    0.000    4.500    0.000    0.000    0.000    1.000 
#
# Total GULP energy -356280.607543 kJ/mol
# GULP energy per Si atom -5566.884493 kJ/mol
# Density = 1.580633 g / cm^3
# Si number density = 15.842388 Si / 1000 Ang^3
#
#
#
# Elastic Constant Matrix: (Units=GPa)
#
#
# Indices 1 2 3 4 5 6 
#
# 1 68.0276 25.4124 32.2163 0.0000 0.0000 0.0000
# 2 25.4124 48.1487 38.0938 0.0000 0.0000 0.0000
# 3 32.2163 38.0938 53.3109 0.0000 0.0000 0.0000
# 4 0.0000 0.0000 0.0000 25.3286 0.0000 0.0000
# 5 0.0000 0.0000 0.0000 0.0000 15.0285 0.0000
# 6 0.0000 0.0000 0.0000 0.0000 0.0000 20.7217
#
#
#
# Elastic Compliance Matrix: (Units=1/GPa)
#
#
# Indices 1 2 3 4 5 6 
#
# 1 0.020710 -0.002367 -0.010824 0.000000 0.000000 0.000000
# 2 -0.002367 0.048052 -0.032906 0.000000 0.000000 0.000000
# 3 -0.010824 -0.032906 0.048812 0.000000 0.000000 0.000000
# 4 0.000000 0.000000 0.000000 0.039481 0.000000 0.000000
# 5 0.000000 0.000000 0.000000 0.000000 0.066540 0.000000
# 6 0.000000 0.000000 0.000000 0.000000 0.000000 0.048259
#
#
# Mechanical properties :
#
#
# Convention : Reuss Voigt Hill
#
# Bulk Modulus (GPa) = 39.39962 40.10356 39.75159
# Shear Modulus (GPa) = 13.42251 17.13341 15.27796
#
# Velocity S-wave (km/s) = 2.91392 3.29217 3.10880
# Velocity P-wave (km/s) = 6.02038 6.31033 6.16706
#
# Compressibility (1/GPa) = 0.02538095
#
# Stress axis : x y z
#
# Youngs Moduli (GPa) = 48.28568 20.81061 20.48672
#
# Poissons Ratio (x) = 0.04926 0.22175
# Poissons Ratio (y) = 0.11429 0.67413
# Poissons Ratio (z) = 0.52264 0.68479
#
# Static dielectric constant tensor:
#      x y z
#    x 1.546010 0.000000 0.000000 
#    y 0.000000 1.550560 0.000000 
#    z 0.000000 0.000000 1.515260 
# 
# From -- ./inp_files/22434.got.cif
#   From: 2010.05.17/outbox.cif.g08.bks.cpg/sg58_12_cif.got.tgz:22434.got - 2010.06.03 14:20:14.
