data_PCOD9440184
_publ_section_title
;
Structure prediction by ZEFSAII (Michael W. Deem and Ramdas Pophale) SiO2 
 PCOD9440184
Probable space group: P B C M
;
_chemical_formula_sum "Si O2"
_cell_formula_units_Z 40
_cell_length_a 12.329281
_cell_length_b 9.055642
_cell_length_c 16.654727
_cell_angle_alpha 90.000000
_cell_angle_beta 90.000000
_cell_angle_gamma 90.000000
_cell_volume 1859.492856
_symmetry_space_group_name_H-M "P B C M"
_symmetry_group_IT_number 57
_symmetry_cell_setting 'orthorhombic'
loop_
_space_group_symop_operation_xyz
x,y,z
-x,-y,1/2+z
x,1/2-y,-z
-x,1/2+y,1/2-z
-x,-y,-z
x,y,1/2-z
-x,1/2+y,z
x,1/2-y,1/2+z
loop_
_atom_site_type_symbol
_atom_site_label
_atom_site_fract_x
_atom_site_fract_y
_atom_site_fract_z
Si Si1 0.751662 0.004983 0.156532
Si Si2 0.438445 0.698869 0.408301
Si Si3 0.953387 0.125367 0.059453
Si Si4 0.188579 0.299578 0.907758
Si Si5 0.362464 0.010372 0.344335
O O1 0.738406 0.043012 0.250000
O O2 0.654053 0.076239 0.106219
O O3 0.862933 0.066851 0.119077
O O4 0.759361 0.829170 0.145493
O O5 0.448257 0.750000 0.500000
O O6 0.548666 0.624792 0.377838
O O7 0.403999 0.845462 0.360496
O O8 0.940185 0.686672 0.104593
O O9 0.907578 0.250000 0.000000
O O10 0.000000 0.000000 0.000000
O O11 0.250673 0.450825 0.889478
O O12 0.203215 0.250000 0.000000
O O13 0.347758 0.031427 0.250000
#
# Coordination Sequence:
#
# PCOD9440184 Si02
#       5
#     8   8   8   8   8
#     4  12  25  42  67 101 136 174 221 284 338 388
#     4  12  26  46  71  96 134 178 229 267 337 408
#     4  11  23  45  69  95 132 180 225 273 327 403
#     4  11  23  43  69  95 134 177 225 264 333 402
#     4  12  25  43  67 101 135 172 219 281 337 390
#
# _framework density 21.511241999999999
#
# number of rings (size 3 to 8) (size 9 to 14) (size 15 to 20)
#    0.000    0.400    4.000    6.600    2.800    1.600 
#    0.000    0.000    0.000    0.000    0.000    0.000 
#    0.000    0.000    0.000    0.000    0.000    0.000 
#
# Total GULP energy -224019.438677 kJ/mol
# GULP energy per Si atom -5600.485967 kJ/mol
# Density = 2.146228 g / cm^3
# Si number density = 21.511242 Si / 1000 Ang^3
#
#
#
# Elastic Constant Matrix: (Units=GPa)
#
#
# Indices 1 2 3 4 5 6 
#
# 1 73.8567 -6.8782 -0.7938 0.0000 0.0000 0.0000
# 2 -6.8782 62.4688 -23.5615 0.0000 0.0000 0.0000
# 3 -0.7938 -23.5615 56.8178 0.0000 0.0000 0.0000
# 4 0.0000 0.0000 0.0000 39.3560 0.0000 0.0000
# 5 0.0000 0.0000 0.0000 0.0000 10.4326 0.0000
# 6 0.0000 0.0000 0.0000 0.0000 0.0000 29.3537
#
#
#
# Elastic Compliance Matrix: (Units=1/GPa)
#
#
# Indices 1 2 3 4 5 6 
#
# 1 0.013725 0.001877 0.000970 0.000000 0.000000 0.000000
# 2 0.001877 0.019233 0.008002 0.000000 0.000000 0.000000
# 3 0.000970 0.008002 0.020932 0.000000 0.000000 0.000000
# 4 0.000000 0.000000 0.000000 0.025409 0.000000 0.000000
# 5 0.000000 0.000000 0.000000 0.000000 0.095853 0.000000
# 6 0.000000 0.000000 0.000000 0.000000 0.000000 0.034067
#
#
# Mechanical properties :
#
#
# Convention : Reuss Voigt Hill
#
# Bulk Modulus (GPa) = 13.22970 14.51961 13.87466
# Shear Modulus (GPa) = 23.50543 30.78691 27.14617
#
# Velocity S-wave (km/s) = 3.30919 3.78723 3.55625
# Velocity P-wave (km/s) = 4.55681 5.08808 4.82975
#
# Compressibility (1/GPa) = 0.07558748
#
# Stress axis : x y z
#
# Youngs Moduli (GPa) = 72.85988 51.99481 47.77410
#
# Poissons Ratio (x) = -0.09760 -0.04635
# Poissons Ratio (y) = -0.13677 -0.38227
# Poissons Ratio (z) = -0.07069 -0.41605
#
# Static dielectric constant tensor:
#      x y z
#    x 1.769750 0.000000 0.000000 
#    y 0.000000 1.829800 0.000000 
#    z 0.000000 0.000000 1.741550 
# 
# From -- ./inp_files/18207.got.cif
#   From: 2010.05.17/outbox.cif.g08.bks.cpg/sg57_10_cif.got.tgz:18207.got - 2010.06.03 13:58:18.
