data_PCOD9440648
_publ_section_title
;
Structure prediction by ZEFSAII (Michael W. Deem and Ramdas Pophale) SiO2 
 PCOD9440648
Probable space group: P B C M
;
_chemical_formula_sum "Si O2"
_cell_formula_units_Z 40
_cell_length_a 6.000000
_cell_length_b 18.000000
_cell_length_c 18.000000
_cell_angle_alpha 90.000000
_cell_angle_beta 90.000000
_cell_angle_gamma 90.000000
_cell_volume 1944.000000
_symmetry_space_group_name_H-M "P B C M"
_symmetry_group_IT_number 57
_symmetry_cell_setting 'orthorhombic'
loop_
_space_group_symop_operation_xyz
x,y,z
-x,-y,1/2+z
x,1/2-y,-z
-x,1/2+y,1/2-z
-x,-y,-z
x,y,1/2-z
-x,1/2+y,z
x,1/2-y,1/2+z
loop_
_atom_site_type_symbol
_atom_site_label
_atom_site_fract_x
_atom_site_fract_y
_atom_site_fract_z
Si Si1 0.709645 0.178340 0.661749
Si Si2 0.790271 0.880761 0.108487
Si Si3 0.649056 0.559598 0.454866
Si Si4 0.648603 0.354088 0.664773
Si Si5 0.002981 0.021892 0.333726
O O1 0.717206 0.159632 0.750000
O O2 0.461478 0.149998 0.631258
O O3 0.690907 0.267236 0.653802
O O4 0.960757 0.155719 0.628909
O O5 0.817161 0.959669 0.150095
O O6 0.775213 0.894600 0.019683
O O7 0.500000 0.500000 0.500000
O O8 0.506704 0.612217 0.399832
O O9 0.816633 0.517515 0.399020
O O10 0.559591 0.364831 0.750000
O O11 0.879971 0.399167 0.661566
O O12 0.092233 0.012230 0.250000
#
# Coordination Sequence:
#
# PCOD9440648 Si02
#       5
#     8   8   8   8   8
#     4  11  26  49  72 105 147 191 244 296 358 437
#     4  12  26  45  75 109 146 190 234 307 368 425
#     4  12  25  45  70 107 147 183 241 306 366 426
#     4  10  25  47  73 101 140 193 242 293 357 436
#     4  11  24  45  74 101 136 192 248 295 356 433
#
# _framework density 20.576132000000001
#
# number of rings (size 3 to 8) (size 9 to 14) (size 15 to 20)
#    0.000    0.800    2.000    4.200    5.600    0.800 
#    0.000    0.000    0.000    0.000    0.000    0.000 
#    0.000    0.000    0.000    0.000    0.000    0.000 
#
# Total GULP energy -223177.203608 kJ/mol
# GULP energy per Si atom -5579.430090 kJ/mol
# Density = 2.052930 g / cm^3
# Si number density = 20.576132 Si / 1000 Ang^3
#
#
#
# Elastic Constant Matrix: (Units=GPa)
#
#
# Indices 1 2 3 4 5 6 
#
# 1 152.1646 65.6059 78.2746 0.0000 0.0000 0.0000
# 2 65.6059 120.5282 49.2903 0.0000 0.0000 0.0000
# 3 78.2746 49.2903 192.1863 0.0000 0.0000 0.0000
# 4 0.0000 0.0000 0.0000 30.3412 0.0000 0.0000
# 5 0.0000 0.0000 0.0000 0.0000 61.8213 0.0000
# 6 0.0000 0.0000 0.0000 0.0000 0.0000 42.1257
#
#
#
# Elastic Compliance Matrix: (Units=1/GPa)
#
#
# Indices 1 2 3 4 5 6 
#
# 1 0.009894 -0.004176 -0.002959 0.000000 0.000000 0.000000
# 2 -0.004176 0.011031 -0.001129 0.000000 0.000000 0.000000
# 3 -0.002959 -0.001129 0.006698 0.000000 0.000000 0.000000
# 4 0.000000 0.000000 0.000000 0.032959 0.000000 0.000000
# 5 0.000000 0.000000 0.000000 0.000000 0.016176 0.000000
# 6 0.000000 0.000000 0.000000 0.000000 0.000000 0.023738
#
#
# Mechanical properties :
#
#
# Convention : Reuss Voigt Hill
#
# Bulk Modulus (GPa) = 90.11219 94.58010 92.34614
# Shear Modulus (GPa) = 41.41789 44.97152 43.19470
#
# Velocity S-wave (km/s) = 4.49141 4.68013 4.58674
# Velocity P-wave (km/s) = 8.41348 8.67586 8.54568
#
# Compressibility (1/GPa) = 0.01109728
#
# Stress axis : x y z
#
# Youngs Moduli (GPa) = 101.06950 90.65217 149.30247
#
# Poissons Ratio (x) = 0.37852 0.44176
# Poissons Ratio (y) = 0.42202 0.16849
# Poissons Ratio (z) = 0.29905 0.10230
#
# Static dielectric constant tensor:
#      x y z
#    x 1.770800 0.000000 0.000000 
#    y 0.000000 1.758080 0.000000 
#    z 0.000000 0.000000 1.740020 
# 
# From -- ./inp_files/19982.got.cif
#   From: 2010.05.17/outbox.ucp.g08.bks.cvg/sg57_10_cif.got.tgz:19982.got - 2010.06.11 16:39:23.
