data_PCOD9440463
_publ_section_title
;
Structure prediction by ZEFSAII (Michael W. Deem and Ramdas Pophale) SiO2 
 PCOD9440463
Probable space group: P B C M
;
_chemical_formula_sum "Si O2"
_cell_formula_units_Z 64
_cell_length_a 21.000000
_cell_length_b 18.000000
_cell_length_c 9.000000
_cell_angle_alpha 90.000000
_cell_angle_beta 90.000000
_cell_angle_gamma 90.000000
_cell_volume 3402.000000
_symmetry_space_group_name_H-M "P B C M"
_symmetry_group_IT_number 57
_symmetry_cell_setting 'orthorhombic'
loop_
_space_group_symop_operation_xyz
x,y,z
-x,-y,1/2+z
x,1/2-y,-z
-x,1/2+y,1/2-z
-x,-y,-z
x,y,1/2-z
-x,1/2+y,z
x,1/2-y,1/2+z
loop_
_atom_site_type_symbol
_atom_site_label
_atom_site_fract_x
_atom_site_fract_y
_atom_site_fract_z
Si Si1 0.002884 0.674552 0.071076
Si Si2 0.393792 0.068375 0.927681
Si Si3 0.494858 0.326669 0.571152
Si Si4 0.757584 0.427800 0.571977
Si Si5 0.735297 0.912475 0.572732
Si Si6 0.126498 0.394124 0.571322
Si Si7 0.623979 0.393724 0.928366
Si Si8 0.103064 0.553786 0.426653
O O1 0.006602 0.678915 0.250000
O O2 0.044721 0.604044 0.022715
O O3 0.929770 0.660644 0.026441
O O4 0.027058 0.750000 0.000000
O O5 0.399824 0.075232 0.750000
O O6 0.389313 0.980461 0.964774
O O7 0.451615 0.106501 0.012224
O O8 0.328595 0.106580 0.984619
O O9 0.472111 0.250000 0.500000
O O10 0.492527 0.323108 0.750000
O O11 0.566905 0.343061 0.516014
O O12 0.751082 0.445833 0.750000
O O13 0.749437 0.502601 0.476644
O O14 0.697152 0.377449 0.530049
O O15 0.829892 0.402962 0.550003
O O16 0.725155 0.907299 0.750000
O O17 0.801334 0.872186 0.529990
O O18 0.125792 0.400790 0.750000
O O19 0.109295 0.474679 0.505217
O O20 0.620788 0.388715 0.750000
O O21 0.096686 0.540676 0.250000
#
# Coordination Sequence:
#
# PCOD9440463 Si02
#       8
#     8   8   8   8   8   8   8   8
#     4  10  21  35  48  69 100 135 170 206 246 292
#     4  10  19  34  55  78 100 127 163 204 247 296
#     4  11  22  36  51  71 100 134 167 203 244 290
#     4   8  14  28  49  74 100 126 158 201 246 291
#     4   9  16  28  48  75 102 127 156 201 251 294
#     4   9  18  32  51  74 101 129 164 207 250 294
#     4   8  16  31  53  76  99 127 162 201 243 288
#     4   9  17  30  52  77 100 127 164 205 248 295
#
# _framework density 18.812463000000001
#
# number of rings (size 3 to 8) (size 9 to 14) (size 15 to 20)
#    0.000    2.750    0.000    2.625    0.000    1.500 
#    0.000    6.875    0.000    1.500    0.000    0.000 
#    0.000    0.000    0.000    0.000    0.000    0.000 
#
# Total GULP energy -356383.322626 kJ/mol
# GULP energy per Si atom -5568.489416 kJ/mol
# Density = 1.876965 g / cm^3
# Si number density = 18.812463 Si / 1000 Ang^3
#
#
#
# Elastic Constant Matrix: (Units=GPa)
#
#
# Indices 1 2 3 4 5 6 
#
# 1 74.7633 5.8180 10.5921 0.0000 0.0000 0.0000
# 2 5.8180 24.1744 4.2025 0.0000 0.0000 0.0000
# 3 10.5921 4.2025 28.1193 0.0000 0.0000 0.0000
# 4 0.0000 0.0000 0.0000 18.1075 0.0000 0.0000
# 5 0.0000 0.0000 0.0000 0.0000 20.3131 0.0000
# 6 0.0000 0.0000 0.0000 0.0000 0.0000 1.7475
#
#
#
# Elastic Compliance Matrix: (Units=1/GPa)
#
#
# Indices 1 2 3 4 5 6 
#
# 1 0.014283 -0.002569 -0.004996 0.000000 0.000000 0.000000
# 2 -0.002569 0.042932 -0.005449 0.000000 0.000000 0.000000
# 3 -0.004996 -0.005449 0.038259 0.000000 0.000000 0.000000
# 4 0.000000 0.000000 0.000000 0.055226 0.000000 0.000000
# 5 0.000000 0.000000 0.000000 0.000000 0.049229 0.000000
# 6 0.000000 0.000000 0.000000 0.000000 0.000000 0.572249
#
#
# Mechanical properties :
#
#
# Convention : Reuss Voigt Hill
#
# Bulk Modulus (GPa) = 14.39963 18.69803 16.54883
# Shear Modulus (GPa) = 6.08750 15.12992 10.60871
#
# Velocity S-wave (km/s) = 1.80081 2.83901 2.37727
# Velocity P-wave (km/s) = 3.46335 4.55053 4.04365
#
# Compressibility (1/GPa) = 0.06944624
#
# Stress axis : x y z
#
# Youngs Moduli (GPa) = 70.01175 23.29288 26.13752
#
# Poissons Ratio (x) = 0.05984 0.13059
# Poissons Ratio (y) = 0.17986 0.14241
# Poissons Ratio (z) = 0.34981 0.12691
#
# Static dielectric constant tensor:
#      x y z
#    x 1.734510 0.000000 0.000000 
#    y 0.000000 1.649270 0.000000 
#    z 0.000000 0.000000 1.618780 
# 
# From -- ./inp_files/8517.got.cif
#   From: 2010.05.17/outbox.ucp.g08.bks.cvg/sg57_5_cif.got.tgz:8517.got - 2010.06.11 16:39:23.
