data_PCOD9440753
_publ_section_title
;
Structure prediction by ZEFSAII (Michael W. Deem and Ramdas Pophale) SiO2 
 PCOD9440753
Probable space group: P N N M
;
_chemical_formula_sum "Si O2"
_cell_formula_units_Z 40
_cell_length_a 12.878767
_cell_length_b 15.973164
_cell_length_c 7.691667
_cell_angle_alpha 90.000000
_cell_angle_beta 90.000000
_cell_angle_gamma 90.000000
_cell_volume 1582.288642
_symmetry_space_group_name_H-M "P N N M"
_symmetry_group_IT_number 58
_symmetry_cell_setting 'orthorhombic'
loop_
_space_group_symop_operation_xyz
x,y,z
-x,-y,z
1/2+x,1/2-y,1/2-z
1/2-x,1/2+y,1/2-z
-x,-y,-z
x,y,-z
1/2-x,1/2+y,1/2+z
1/2+x,1/2-y,1/2+z
loop_
_atom_site_type_symbol
_atom_site_label
_atom_site_fract_x
_atom_site_fract_y
_atom_site_fract_z
Si Si1 0.318644 0.870752 0.788969
Si Si2 0.508971 0.361492 0.195660
Si Si3 0.155581 0.002302 0.792656
Si Si4 0.961446 0.414125 0.202318
Si Si5 0.656713 0.765594 0.300000
O O1 0.431041 0.863359 0.709782
O O2 0.244414 0.795480 0.726369
O O3 0.265359 0.960619 0.743172
O O4 0.323867 0.867349 0.000000
O O5 0.426916 0.438313 0.207777
O O6 0.618011 0.404203 0.248229
O O7 0.448509 0.290379 0.299631
O O8 0.518950 0.330364 0.000000
O O9 0.144514 0.993032 0.000000
O O10 0.000000 0.500000 0.288543
O O11 0.873010 0.354860 0.281397
O O12 0.934835 0.430356 0.000000
O O13 0.685508 0.781335 0.500000
#
# Coordination Sequence:
#
# PCOD9440753 Si02
#       5
#     8   8   8   8   8
#     4   9  19  36  59  84 114 154 197 239 287 352
#     4  10  17  26  47  81 113 143 189 243 287 332
#     4   9  16  29  49  75 114 156 186 224 290 355
#     4  10  22  41  63  86 117 157 197 243 299 357
#     4   9  19  38  59  80 115 158 195 237 298 363
#
# _framework density 25.279838999999999
#
# number of rings (size 3 to 8) (size 9 to 14) (size 15 to 20)
#    0.000    2.600    0.000    4.800    0.000    5.200 
#    3.600    0.000    0.000    0.000    0.000    0.000 
#    0.000    0.000    0.000    0.000    0.000    0.000 
#
# Total GULP energy -223266.693603 kJ/mol
# GULP energy per Si atom -5581.667340 kJ/mol
# Density = 2.522230 g / cm^3
# Si number density = 25.279839 Si / 1000 Ang^3
#
#
#
# Elastic Constant Matrix: (Units=GPa)
#
#
# Indices 1 2 3 4 5 6 
#
# 1 59.6042 21.2313 0.6110 0.0000 0.0000 0.0000
# 2 21.2313 103.7860 -12.7043 0.0000 0.0000 0.0000
# 3 0.6110 -12.7043 76.3283 0.0000 0.0000 0.0000
# 4 0.0000 0.0000 0.0000 -1.4687 0.0000 0.0000
# 5 0.0000 0.0000 0.0000 0.0000 37.8938 0.0000
# 6 0.0000 0.0000 0.0000 0.0000 0.0000 34.1810
#
#
#
# Elastic Compliance Matrix: (Units=1/GPa)
#
#
# Indices 1 2 3 4 5 6 
#
# 1 0.018141 -0.003806 -0.000779 0.000000 0.000000 0.000000
# 2 -0.003806 0.010634 0.001800 0.000000 0.000000 0.000000
# 3 -0.000779 0.001800 0.013407 0.000000 0.000000 0.000000
# 4 0.000000 0.000000 0.000000 -0.680884 0.000000 0.000000
# 5 0.000000 0.000000 0.000000 0.000000 0.026390 0.000000
# 6 0.000000 0.000000 0.000000 0.000000 0.000000 0.029256
#
#
# Mechanical properties :
#
#
# Convention : Reuss Voigt Hill
#
# Bulk Modulus (GPa) = 27.31256 28.66607 27.98932
# Shear Modulus (GPa) = -8.84514 29.49326 10.32406
#
# Velocity S-wave (km/s) = -1.87256 3.41936 2.02306
# Velocity P-wave (km/s) = 2.48037 5.19168 4.06852
#
# Compressibility (1/GPa) = 0.03661319
#
# Stress axis : x y z
#
# Youngs Moduli (GPa) = 55.12321 94.03558 74.58676
#
# Poissons Ratio (x) = 0.35794 0.05809
# Poissons Ratio (y) = 0.20982 -0.13429
# Poissons Ratio (z) = 0.04293 -0.16931
#
# Static dielectric constant tensor:
#      x y z
#    x 2.038810 0.000000 0.000000 
#    y 0.000000 2.102530 0.000000 
#    z 0.000000 0.000000 1.903520 
# 
# From -- ./inp_files/5562.got.cif
#   From: 2010.05.17/outbox.cif.g08.bks.cpg/sg58_3_cif.got.tgz:5562.got - 2010.06.03 14:20:14.
