data_PCOD9440279
_publ_section_title
;
Structure prediction by ZEFSAII (Michael W. Deem and Ramdas Pophale) SiO2 
 PCOD9440279
Probable space group: P B C M
;
_chemical_formula_sum "Si O2"
_cell_formula_units_Z 40
_cell_length_a 8.950763
_cell_length_b 11.455892
_cell_length_c 18.881201
_cell_angle_alpha 90.000000
_cell_angle_beta 90.000000
_cell_angle_gamma 90.000000
_cell_volume 1936.058983
_symmetry_space_group_name_H-M "P B C M"
_symmetry_group_IT_number 57
_symmetry_cell_setting 'orthorhombic'
loop_
_space_group_symop_operation_xyz
x,y,z
-x,-y,1/2+z
x,1/2-y,-z
-x,1/2+y,1/2-z
-x,-y,-z
x,y,1/2-z
-x,1/2+y,z
x,1/2-y,1/2+z
loop_
_atom_site_type_symbol
_atom_site_label
_atom_site_fract_x
_atom_site_fract_y
_atom_site_fract_z
Si Si1 0.631318 0.672453 0.169617
Si Si2 0.894234 0.324881 0.065899
Si Si3 0.207319 0.397030 0.110939
Si Si4 0.280117 0.653044 0.331550
Si Si5 0.334404 0.474129 0.529380
O O1 0.661497 0.630800 0.250000
O O2 0.723066 0.790156 0.154370
O O3 0.453051 0.692043 0.163942
O O4 0.666239 0.582219 0.106985
O O5 0.817511 0.236591 0.120027
O O6 0.769403 0.411833 0.034811
O O7 0.028711 0.391108 0.104759
O O8 0.955149 0.250000 0.000000
O O9 0.262626 0.519957 0.142313
O O10 0.265456 0.391231 0.030370
O O11 0.233244 0.659822 0.250000
O O12 0.500000 0.500000 0.500000
#
# Coordination Sequence:
#
# PCOD9440279 Si02
#       5
#     8   8   8   8   8
#     4  11  25  45  69 101 139 182 234 290 352 417
#     4  12  25  44  70 101 139 181 229 292 352 413
#     4  12  25  45  72 101 139 183 233 290 350 416
#     4  11  26  46  68  99 140 181 229 285 346 419
#     4  12  23  44  75 102 136 186 238 289 346 419
#
# _framework density 20.660530000000001
#
# number of rings (size 3 to 8) (size 9 to 14) (size 15 to 20)
#    0.000    0.400    4.000    4.200    2.800    2.400 
#    0.000    0.000    0.000    0.000    0.000    0.000 
#    0.000    0.000    0.000    0.000    0.000    0.000 
#
# Total GULP energy -223795.015560 kJ/mol
# GULP energy per Si atom -5594.875389 kJ/mol
# Density = 2.061351 g / cm^3
# Si number density = 20.660530 Si / 1000 Ang^3
#
#
#
# Elastic Constant Matrix: (Units=GPa)
#
#
# Indices 1 2 3 4 5 6 
#
# 1 94.9114 26.9195 9.1116 0.0000 0.0000 0.0000
# 2 26.9195 37.8825 6.9248 0.0000 0.0000 0.0000
# 3 9.1116 6.9248 132.0042 0.0000 0.0000 0.0000
# 4 0.0000 0.0000 0.0000 34.7185 0.0000 0.0000
# 5 0.0000 0.0000 0.0000 0.0000 -1.9060 0.0000
# 6 0.0000 0.0000 0.0000 0.0000 0.0000 50.1629
#
#
#
# Elastic Compliance Matrix: (Units=1/GPa)
#
#
# Indices 1 2 3 4 5 6 
#
# 1 0.013219 -0.009316 -0.000424 0.000000 0.000000 0.000000
# 2 -0.009316 0.033219 -0.001100 0.000000 0.000000 0.000000
# 3 -0.000424 -0.001100 0.007662 0.000000 0.000000 0.000000
# 4 0.000000 0.000000 0.000000 0.028803 0.000000 0.000000
# 5 0.000000 0.000000 0.000000 0.000000 -0.524660 0.000000
# 6 0.000000 0.000000 0.000000 0.000000 0.000000 0.019935
#
#
# Mechanical properties :
#
#
# Convention : Reuss Voigt Hill
#
# Bulk Modulus (GPa) = 30.84398 38.96777 34.90587
# Shear Modulus (GPa) = -12.84237 31.38456 9.27110
#
# Velocity S-wave (km/s) = -2.49587 3.90174 2.12063
# Velocity P-wave (km/s) = 2.57983 6.26099 4.78829
#
# Compressibility (1/GPa) = 0.03242124
#
# Stress axis : x y z
#
# Youngs Moduli (GPa) = 75.64793 30.10369 130.50659
#
# Poissons Ratio (x) = 0.28045 0.05530
# Poissons Ratio (y) = 0.70475 0.14350
# Poissons Ratio (z) = 0.03205 0.03310
#
# Static dielectric constant tensor:
#      x y z
#    x 1.751730 0.000000 0.000000 
#    y 0.000000 1.708950 0.000000 
#    z 0.000000 0.000000 1.734450 
# 
# From -- ./inp_files/20511.got.cif
#   From: 2010.05.17/outbox.cif.g08.bks.cpg/sg57_11_cif.got.tgz:20511.got - 2010.06.03 13:58:18.
