data_PCOD9440296
_publ_section_title
;
Structure prediction by ZEFSAII (Michael W. Deem and Ramdas Pophale) SiO2 
 PCOD9440296
Probable space group: P B C M
;
_chemical_formula_sum "Si O2"
_cell_formula_units_Z 24
_cell_length_a 5.033535
_cell_length_b 10.712354
_cell_length_c 16.869696
_cell_angle_alpha 90.000000
_cell_angle_beta 90.000000
_cell_angle_gamma 90.000000
_cell_volume 909.631026
_symmetry_space_group_name_H-M "P B C M"
_symmetry_group_IT_number 57
_symmetry_cell_setting 'orthorhombic'
loop_
_space_group_symop_operation_xyz
x,y,z
-x,-y,1/2+z
x,1/2-y,-z
-x,1/2+y,1/2-z
-x,-y,-z
x,y,1/2-z
-x,1/2+y,z
x,1/2-y,1/2+z
loop_
_atom_site_type_symbol
_atom_site_label
_atom_site_fract_x
_atom_site_fract_y
_atom_site_fract_z
Si Si1 0.333411 0.729410 0.750000
Si Si2 0.500000 0.000000 0.000000
Si Si3 0.636360 0.750000 0.500000
Si Si4 0.717412 0.493956 0.750000
Si Si5 0.036508 0.601761 0.885997
O O1 0.545151 0.618918 0.750000
O O2 0.153945 0.704370 0.826991
O O3 0.447046 0.867488 0.750000
O O4 0.529890 0.142336 0.041622
O O5 0.267067 0.960037 0.063238
O O6 0.810045 0.659467 0.556740
O O7 0.897770 0.503138 0.828010
#
# Coordination Sequence:
#
# PCOD9440296 Si02
#       5
#     4   4   4   4   8
#     4  11  26  48  73 105 145 194 245 308 380 447
#     4  12  26  46  74 108 150 200 250 310 382 448
#     4  12  26  46  72 110 152 194 248 308 372 446
#     4  11  26  48  75 111 151 198 253 310 376 455
#     4  11  26  46  75 108 149 195 252 312 370 447
#
# _framework density 26.384323999999999
#
# number of rings (size 3 to 8) (size 9 to 14) (size 15 to 20)
#    0.000    0.667    0.000    6.000    0.000   18.667 
#    0.000    0.000    0.000    0.000    0.000    0.000 
#    0.000    0.000    0.000    0.000    0.000    0.000 
#
# Total GULP energy -133642.965778 kJ/mol
# GULP energy per Si atom -5568.456907 kJ/mol
# Density = 2.632427 g / cm^3
# Si number density = 26.384324 Si / 1000 Ang^3
#
#
#
# Elastic Constant Matrix: (Units=GPa)
#
#
# Indices 1 2 3 4 5 6 
#
# 1 45.3973 -1.8327 34.5317 0.0000 0.0000 0.0000
# 2 -1.8327 202.8586 16.3279 0.0000 0.0000 0.0000
# 3 34.5317 16.3279 134.6611 0.0000 0.0000 0.0000
# 4 0.0000 0.0000 0.0000 15.0586 0.0000 0.0000
# 5 0.0000 0.0000 0.0000 0.0000 46.3296 0.0000
# 6 0.0000 0.0000 0.0000 0.0000 0.0000 9.3256
#
#
#
# Elastic Compliance Matrix: (Units=1/GPa)
#
#
# Indices 1 2 3 4 5 6 
#
# 1 0.027501 0.000824 -0.007152 0.000000 0.000000 0.000000
# 2 0.000824 0.005003 -0.000818 0.000000 0.000000 0.000000
# 3 -0.007152 -0.000818 0.009359 0.000000 0.000000 0.000000
# 4 0.000000 0.000000 0.000000 0.066407 0.000000 0.000000
# 5 0.000000 0.000000 0.000000 0.000000 0.021584 0.000000
# 6 0.000000 0.000000 0.000000 0.000000 0.000000 0.107232
#
#
# Mechanical properties :
#
#
# Convention : Reuss Voigt Hill
#
# Bulk Modulus (GPa) = 36.26939 53.44121 44.85530
# Shear Modulus (GPa) = 19.18873 36.40210 27.79541
#
# Velocity S-wave (km/s) = 2.69973 3.71844 3.24926
# Velocity P-wave (km/s) = 4.84711 6.22372 5.57804
#
# Compressibility (1/GPa) = 0.02757146
#
# Stress axis : x y z
#
# Youngs Moduli (GPa) = 36.36179 199.88721 106.84563
#
# Poissons Ratio (x) = -0.16473 0.76418
# Poissons Ratio (y) = -0.02997 0.08739
# Poissons Ratio (z) = 0.26007 0.16349
#
# Static dielectric constant tensor:
#      x y z
#    x 4.954270 0.000000 0.000000 
#    y 0.000000 1.747930 0.000000 
#    z 0.000000 0.000000 1.593840 
# 
# From -- ./inp_files/19759.got.cif
#   From: 2010.05.17/outbox.cif.g08.bks.cpg/sg57_10_cif.got.tgz:19759.got - 2010.06.03 13:58:18.
