data_PCOD9440797
_publ_section_title
;
Structure prediction by ZEFSAII (Michael W. Deem and Ramdas Pophale) SiO2 
 PCOD9440797
Probable space group: P N N M
;
_chemical_formula_sum "Si O2"
_cell_formula_units_Z 56
_cell_length_a 8.938733
_cell_length_b 18.420448
_cell_length_c 18.902480
_cell_angle_alpha 90.000000
_cell_angle_beta 90.000000
_cell_angle_gamma 90.000000
_cell_volume 3112.396661
_symmetry_space_group_name_H-M "P N N M"
_symmetry_group_IT_number 58
_symmetry_cell_setting 'orthorhombic'
loop_
_space_group_symop_operation_xyz
x,y,z
-x,-y,z
1/2+x,1/2-y,1/2-z
1/2-x,1/2+y,1/2-z
-x,-y,-z
x,y,-z
1/2-x,1/2+y,1/2+z
1/2+x,1/2-y,1/2+z
loop_
_atom_site_type_symbol
_atom_site_label
_atom_site_fract_x
_atom_site_fract_y
_atom_site_fract_z
Si Si1 0.787173 0.189068 0.079829
Si Si2 0.628055 0.262867 0.581807
Si Si3 0.611652 0.097369 0.635173
Si Si4 0.206438 0.548342 0.917160
Si Si5 0.431378 0.671414 0.918375
Si Si6 0.836611 0.657823 0.279589
Si Si7 0.633286 0.757641 0.812555
O O1 0.695972 0.265390 0.083677
O O2 0.721084 0.139836 0.142308
O O3 0.961902 0.205675 0.090628
O O4 0.765904 0.160938 0.000000
O O5 0.671690 0.270849 0.500000
O O6 0.624147 0.177718 0.602778
O O7 0.747868 0.296256 0.635763
O O8 0.438418 0.075499 0.625427
O O9 0.657603 0.099576 0.717253
O O10 0.711741 0.037526 0.595766
O O11 0.351551 0.595734 0.900013
O O12 0.174269 0.562031 0.000000
O O13 0.553484 0.696917 0.862070
O O14 0.486371 0.668557 0.000000
O O15 0.724459 0.720103 0.250315
O O16 0.002142 0.691347 0.285152
#
# Coordination Sequence:
#
# PCOD9440797 Si02
#       7
#     8   8   8   8   8   8   8
#     4   9  17  31  50  68  92 123 159 198 246 295
#     4  10  17  29  47  71  96 127 163 199 243 293
#     4  10  18  28  46  70 100 134 168 198 233 280
#     4  10  18  30  49  73  99 135 173 197 224 277
#     4   9  17  30  47  70  97 130 163 194 232 278
#     4  10  20  32  44  68  95 130 163 204 247 293
#     4  10  20  29  46  65  99 129 165 198 248 287
#
# _framework density 17.992566
#
# number of rings (size 3 to 8) (size 9 to 14) (size 15 to 20)
#    0.000    2.286    1.429    3.857    2.000    0.571 
#    0.000    2.857    0.000    7.714    0.000    2.000 
#    0.000    2.286    0.000    0.000    0.000    0.286 
#
# Total GULP energy -312310.588020 kJ/mol
# GULP energy per Si atom -5576.974786 kJ/mol
# Density = 1.795161 g / cm^3
# Si number density = 17.992566 Si / 1000 Ang^3
#
#
#
# Elastic Constant Matrix: (Units=GPa)
#
#
# Indices 1 2 3 4 5 6 
#
# 1 71.7748 -4.2760 31.3897 0.0000 0.0000 0.0000
# 2 -4.2760 11.1006 -0.1793 0.0000 0.0000 0.0000
# 3 31.3897 -0.1793 99.4128 0.0000 0.0000 0.0000
# 4 0.0000 0.0000 0.0000 17.8351 0.0000 0.0000
# 5 0.0000 0.0000 0.0000 0.0000 39.6089 0.0000
# 6 0.0000 0.0000 0.0000 0.0000 0.0000 13.9608
#
#
#
# Elastic Compliance Matrix: (Units=1/GPa)
#
#
# Indices 1 2 3 4 5 6 
#
# 1 0.016595 0.006308 -0.005228 0.000000 0.000000 0.000000
# 2 0.006308 0.092485 -0.001825 0.000000 0.000000 0.000000
# 3 -0.005228 -0.001825 0.011707 0.000000 0.000000 0.000000
# 4 0.000000 0.000000 0.000000 0.056069 0.000000 0.000000
# 5 0.000000 0.000000 0.000000 0.000000 0.025247 0.000000
# 6 0.000000 0.000000 0.000000 0.000000 0.000000 0.071629
#
#
# Mechanical properties :
#
#
# Convention : Reuss Voigt Hill
#
# Bulk Modulus (GPa) = 8.38251 26.23969 17.31110
# Shear Modulus (GPa) = 15.87359 24.63788 20.25574
#
# Velocity S-wave (km/s) = 2.97346 3.70447 3.35891
# Velocity P-wave (km/s) = 4.05680 5.73696 4.96842
#
# Compressibility (1/GPa) = 0.11929594
#
# Stress axis : x y z
#
# Youngs Moduli (GPa) = 60.25966 10.81252 85.42141
#
# Poissons Ratio (x) = -0.06820 0.44662
# Poissons Ratio (y) = -0.38011 0.15589
# Poissons Ratio (z) = 0.31507 0.01973
#
# Static dielectric constant tensor:
#      x y z
#    x 1.646900 0.000000 0.000000 
#    y 0.000000 1.607960 0.000000 
#    z 0.000000 0.000000 1.647530 
# 
# From -- ./inp_files/25692.got.cif
#   From: 2010.05.17/outbox.cif.g08.bks.cpg/sg58_13_cif.got.tgz:25692.got - 2010.06.03 14:20:14.
