data_PCOD9440177
_publ_section_title
;
Structure prediction by ZEFSAII (Michael W. Deem and Ramdas Pophale) SiO2 
 PCOD9440177
Probable space group: P B C M
;
_chemical_formula_sum "Si O2"
_cell_formula_units_Z 32
_cell_length_a 19.128850
_cell_length_b 8.582858
_cell_length_c 9.275040
_cell_angle_alpha 90.000000
_cell_angle_beta 90.000000
_cell_angle_gamma 90.000000
_cell_volume 1522.777952
_symmetry_space_group_name_H-M "P B C M"
_symmetry_group_IT_number 57
_symmetry_cell_setting 'orthorhombic'
loop_
_space_group_symop_operation_xyz
x,y,z
-x,-y,1/2+z
x,1/2-y,-z
-x,1/2+y,1/2-z
-x,-y,-z
x,y,1/2-z
-x,1/2+y,z
x,1/2-y,1/2+z
loop_
_atom_site_type_symbol
_atom_site_label
_atom_site_fract_x
_atom_site_fract_y
_atom_site_fract_z
Si Si1 0.901088 0.920752 0.250000
Si Si2 0.566569 0.920505 0.425930
Si Si3 0.844018 0.066160 0.974756
Si Si4 0.050471 0.063911 0.250000
Si Si5 0.700631 0.911677 0.916304
O O1 0.929286 0.745299 0.250000
O O2 0.853815 0.962876 0.384238
O O3 0.968439 0.033942 0.250000
O O4 0.567744 0.750000 0.500000
O O5 0.563623 0.920057 0.250000
O O6 0.639078 0.990703 0.488950
O O7 0.500000 0.000000 0.500000
O O8 0.911581 0.019080 0.882726
O O9 0.770455 0.013638 0.909842
O O10 0.844523 0.250000 0.000000
O O11 0.677921 0.881326 0.750000
O O12 0.716672 0.750000 0.000000
#
# Coordination Sequence:
#
# PCOD9440177 Si02
#       5
#     4   8   8   4   8
#     4  12  26  42  74  90 137 170 225 276 340 412
#     4  11  23  42  68 101 139 182 231 281 342 407
#     4  12  26  43  65  98 135 172 223 281 340 404
#     4  12  24  48  64 102 123 180 219 278 342 410
#     4  11  23  42  67  96 132 175 228 277 341 410
#
# _framework density 21.014226000000001
#
# number of rings (size 3 to 8) (size 9 to 14) (size 15 to 20)
#    0.000    0.500    1.250    9.750    3.500    1.000 
#    0.000    2.500    0.000    0.000    0.000    0.000 
#    0.000    0.000    0.000    0.000    0.000    0.000 
#
# Total GULP energy -178791.635261 kJ/mol
# GULP energy per Si atom -5587.238602 kJ/mol
# Density = 2.096640 g / cm^3
# Si number density = 21.014226 Si / 1000 Ang^3
#
#
#
# Elastic Constant Matrix: (Units=GPa)
#
#
# Indices 1 2 3 4 5 6 
#
# 1 114.6784 20.5661 40.4202 0.0000 0.0000 0.0000
# 2 20.5661 102.3192 17.9931 0.0000 0.0000 0.0000
# 3 40.4202 17.9931 186.7455 0.0000 0.0000 0.0000
# 4 0.0000 0.0000 0.0000 17.8322 0.0000 0.0000
# 5 0.0000 0.0000 0.0000 0.0000 42.9845 0.0000
# 6 0.0000 0.0000 0.0000 0.0000 0.0000 27.0720
#
#
#
# Elastic Compliance Matrix: (Units=1/GPa)
#
#
# Indices 1 2 3 4 5 6 
#
# 1 0.009693 -0.001607 -0.001943 0.000000 0.000000 0.000000
# 2 -0.001607 0.010208 -0.000636 0.000000 0.000000 0.000000
# 3 -0.001943 -0.000636 0.005837 0.000000 0.000000 0.000000
# 4 0.000000 0.000000 0.000000 0.056078 0.000000 0.000000
# 5 0.000000 0.000000 0.000000 0.000000 0.023264 0.000000
# 6 0.000000 0.000000 0.000000 0.000000 0.000000 0.036939
#
#
# Mechanical properties :
#
#
# Convention : Reuss Voigt Hill
#
# Bulk Modulus (GPa) = 57.58165 62.41131 59.99648
# Shear Modulus (GPa) = 32.01451 39.22865 35.62158
#
# Velocity S-wave (km/s) = 3.90740 4.32530 4.12165
# Velocity P-wave (km/s) = 6.91504 7.39650 7.15982
#
# Compressibility (1/GPa) = 0.01736664
#
# Stress axis : x y z
#
# Youngs Moduli (GPa) = 103.16637 97.96175 171.32839
#
# Poissons Ratio (x) = 0.15738 0.33293
# Poissons Ratio (y) = 0.16574 0.10893
# Poissons Ratio (z) = 0.20048 0.06229
#
# Static dielectric constant tensor:
#      x y z
#    x 1.768410 0.000000 0.000000 
#    y 0.000000 1.746260 0.000000 
#    z 0.000000 0.000000 1.742430 
# 
# From -- ./inp_files/7557.got.cif
#   From: 2010.05.17/outbox.cif.g08.bks.cpg/sg57_4_cif.got.tgz:7557.got - 2010.06.03 13:58:18.
