data_PCOD9440335
_publ_section_title
;
Structure prediction by ZEFSAII (Michael W. Deem and Ramdas Pophale) SiO2 
 PCOD9440335
Probable space group: P B C M
;
_chemical_formula_sum "Si O2"
_cell_formula_units_Z 48
_cell_length_a 29.285349
_cell_length_b 4.988326
_cell_length_c 15.270686
_cell_angle_alpha 90.000000
_cell_angle_beta 90.000000
_cell_angle_gamma 90.000000
_cell_volume 2230.816146
_symmetry_space_group_name_H-M "P B C M"
_symmetry_group_IT_number 57
_symmetry_cell_setting 'orthorhombic'
loop_
_space_group_symop_operation_xyz
x,y,z
-x,-y,1/2+z
x,1/2-y,-z
-x,1/2+y,1/2-z
-x,-y,-z
x,y,1/2-z
-x,1/2+y,z
x,1/2-y,1/2+z
loop_
_atom_site_type_symbol
_atom_site_label
_atom_site_fract_x
_atom_site_fract_y
_atom_site_fract_z
Si Si1 0.750000 1.000000 0.559737
Si Si2 0.341594 0.200534 0.148306
Si Si3 0.468819 0.868529 0.750000
Si Si4 0.968819 0.631470 0.750000
Si Si5 0.158406 0.799465 0.351693
Si Si6 0.601084 0.184850 0.097279
Si Si7 0.101083 0.315149 0.402721
O O1 0.734765 0.250000 0.500000
O O2 0.792118 0.107224 0.616430
O O3 0.765236 0.750000 0.500000
O O4 0.707883 0.892776 0.616430
O O5 0.340243 0.280924 0.250000
O O6 0.361057 0.450717 0.093978
O O7 0.375488 0.950567 0.135911
O O8 0.489110 0.571243 0.750000
O O9 0.437830 0.908436 0.664225
O O10 0.937830 0.591563 0.835775
O O11 0.010890 0.428754 0.750000
O O12 0.159756 0.719075 0.250000
O O13 0.138942 0.549282 0.406022
O O14 0.124512 0.049433 0.364089
O O15 0.584141 0.250000 0.000000
O O16 0.084141 0.250000 0.500000
#
# Coordination Sequence:
#
# PCOD9440335 Si02
#       7
#     8   8   4   4   8   8   8
#     4  12  25  40  63 102 142 182 236 279 324 391
#     4  12  23  44  68  99 139 186 229 277 332 397
#     4  12  26  46  72 101 138 169 222 290 346 410
#     4  12  26  46  72 101 138 169 222 290 346 410
#     4  12  23  44  68  99 139 186 229 277 332 397
#     4  12  25  45  72 101 136 182 226 276 343 408
#     4  12  25  45  72 101 136 182 226 276 343 408
#
# _framework density 21.51679
#
# number of rings (size 3 to 8) (size 9 to 14) (size 15 to 20)
#    0.000    0.000    3.333    8.500    0.000    1.333 
#    0.000    5.000    0.000    0.000    0.000    0.000 
#    0.000    0.000    0.000    0.000    0.000    0.000 
#
# Total GULP energy -269059.463997 kJ/mol
# GULP energy per Si atom -5605.405500 kJ/mol
# Density = 2.146782 g / cm^3
# Si number density = 21.516790 Si / 1000 Ang^3
#
#
#
# Elastic Constant Matrix: (Units=GPa)
#
#
# Indices 1 2 3 4 5 6 
#
# 1 80.5956 -2.1420 40.9255 0.0000 0.0000 0.0000
# 2 -2.1420 90.3266 1.1212 0.0000 0.0000 0.0000
# 3 40.9255 1.1212 125.0644 0.0000 0.0000 0.0000
# 4 0.0000 0.0000 0.0000 -21.1433 0.0000 0.0000
# 5 0.0000 0.0000 0.0000 0.0000 -7.0873 0.0000
# 6 0.0000 0.0000 0.0000 0.0000 0.0000 45.4184
#
#
#
# Elastic Compliance Matrix: (Units=1/GPa)
#
#
# Indices 1 2 3 4 5 6 
#
# 1 0.014896 0.000414 -0.004878 0.000000 0.000000 0.000000
# 2 0.000414 0.011084 -0.000235 0.000000 0.000000 0.000000
# 3 -0.004878 -0.000235 0.009594 0.000000 0.000000 0.000000
# 4 0.000000 0.000000 0.000000 -0.047296 0.000000 0.000000
# 5 0.000000 0.000000 0.000000 0.000000 -0.141097 0.000000
# 6 0.000000 0.000000 0.000000 0.000000 0.000000 0.022018
#
#
# Mechanical properties :
#
#
# Convention : Reuss Voigt Hill
#
# Bulk Modulus (GPa) = 38.20375 41.75510 39.97943
# Shear Modulus (GPa) = -44.37411 20.50966 -11.93222
#
# Velocity S-wave (km/s) = -4.54618 3.09073 -2.35745
# Velocity P-wave (km/s) = 3.12461 5.67316 3.34825
#
# Compressibility (1/GPa) = 0.02617544
#
# Stress axis : x y z
#
# Youngs Moduli (GPa) = 67.13360 90.22286 104.22881
#
# Poissons Ratio (x) = -0.03733 0.50844
# Poissons Ratio (y) = -0.02778 0.02447
# Poissons Ratio (z) = 0.32748 0.02118
#
# Static dielectric constant tensor:
#      x y z
#    x 1.747770 0.000000 0.000000 
#    y 0.000000 1.737660 0.000000 
#    z 0.000000 0.000000 1.769630 
# 
# From -- ./inp_files/19608.got.cif
#   From: 2010.05.17/outbox.cif.g08.bks.cpg/sg57_10_cif.got.tgz:19608.got - 2010.06.03 13:58:18.
