data_PCOD9440072
_publ_section_title
;
Structure prediction by ZEFSAII (Michael W. Deem and Ramdas Pophale) SiO2 
 PCOD9440072
Probable space group: P B C M
;
_chemical_formula_sum "Si O2"
_cell_formula_units_Z 64
_cell_length_a 7.756106
_cell_length_b 18.492935
_cell_length_c 17.295248
_cell_angle_alpha 90.000000
_cell_angle_beta 90.000000
_cell_angle_gamma 90.000000
_cell_volume 2480.712145
_symmetry_space_group_name_H-M "P B C M"
_symmetry_group_IT_number 57
_symmetry_cell_setting 'orthorhombic'
loop_
_space_group_symop_operation_xyz
x,y,z
-x,-y,1/2+z
x,1/2-y,-z
-x,1/2+y,1/2-z
-x,-y,-z
x,y,1/2-z
-x,1/2+y,z
x,1/2-y,1/2+z
loop_
_atom_site_type_symbol
_atom_site_label
_atom_site_fract_x
_atom_site_fract_y
_atom_site_fract_z
Si Si1 0.454494 0.062529 0.657448
Si Si2 0.732378 0.630237 0.055791
Si Si3 0.846700 0.246925 0.841344
Si Si4 0.082309 0.668653 0.023507
Si Si5 0.385124 0.917607 0.570417
Si Si6 0.518423 0.785464 0.660591
Si Si7 0.172237 0.507990 0.841813
Si Si8 0.894921 0.619617 0.843783
O O1 0.436894 0.047924 0.750000
O O2 0.385698 0.995293 0.607268
O O3 0.661365 0.060797 0.646178
O O4 0.310622 0.124295 0.642120
O O5 0.891222 0.646299 0.001143
O O6 0.555781 0.599746 0.020256
O O7 0.676270 0.703187 0.102048
O O8 0.789096 0.565805 0.113091
O O9 0.851878 0.256030 0.750000
O O10 0.922734 0.317009 0.883511
O O11 0.642813 0.233985 0.859239
O O12 0.970445 0.182160 0.865655
O O13 0.224245 0.607085 0.019848
O O14 0.138245 0.750000 0.000000
O O15 0.424116 0.863125 0.642967
O O16 0.568108 0.777118 0.750000
O O17 0.163901 0.493211 0.750000
O O18 0.994520 0.545791 0.867111
O O19 0.906917 0.620109 0.750000
#
# Coordination Sequence:
#
# PCOD9440072 Si02
#       8
#     8   8   8   8   8   8   8   8
#     4   9  15  26  47  76 104 131 167 211 258 310
#     4   9  18  30  50  75  99 129 170 218 259 304
#     4   9  19  36  52  75 109 142 174 208 251 317
#     4  11  22  36  53  77 102 137 179 216 263 316
#     4   8  17  30  49  72 101 130 162 212 261 303
#     4   8  14  28  48  71 103 132 160 207 260 300
#     4   9  16  27  48  76 104 132 168 214 264 308
#     4   9  17  29  45  70 107 141 167 199 249 306
#
# _framework density 25.799042
#
# number of rings (size 3 to 8) (size 9 to 14) (size 15 to 20)
#    0.750    2.250    0.000    1.500    0.000    2.000 
#    2.250    0.000    0.000    3.000    0.000    3.500 
#    0.000    0.000    0.000    0.000    0.000    0.000 
#
# Total GULP energy -357086.057827 kJ/mol
# GULP energy per Si atom -5579.469654 kJ/mol
# Density = 2.574032 g / cm^3
# Si number density = 25.799042 Si / 1000 Ang^3
#
#
#
# Elastic Constant Matrix: (Units=GPa)
#
#
# Indices 1 2 3 4 5 6 
#
# 1 151.7275 11.3594 45.8262 0.0000 0.0000 0.0000
# 2 11.3594 44.6968 22.6211 0.0000 0.0000 0.0000
# 3 45.8262 22.6211 67.5595 0.0000 0.0000 0.0000
# 4 0.0000 0.0000 0.0000 30.2368 0.0000 0.0000
# 5 0.0000 0.0000 0.0000 0.0000 26.8447 0.0000
# 6 0.0000 0.0000 0.0000 0.0000 0.0000 34.4914
#
#
#
# Elastic Compliance Matrix: (Units=1/GPa)
#
#
# Indices 1 2 3 4 5 6 
#
# 1 0.008318 0.000893 -0.005941 0.000000 0.000000 0.000000
# 2 0.000893 0.027034 -0.009657 0.000000 0.000000 0.000000
# 3 -0.005941 -0.009657 0.022065 0.000000 0.000000 0.000000
# 4 0.000000 0.000000 0.000000 0.033072 0.000000 0.000000
# 5 0.000000 0.000000 0.000000 0.000000 0.037251 0.000000
# 6 0.000000 0.000000 0.000000 0.000000 0.000000 0.028993
#
#
# Mechanical properties :
#
#
# Convention : Reuss Voigt Hill
#
# Bulk Modulus (GPa) = 35.70700 47.06634 41.38667
# Shear Modulus (GPa) = 25.57796 30.59305 28.08551
#
# Velocity S-wave (km/s) = 3.15211 3.44731 3.30301
# Velocity P-wave (km/s) = 5.20752 5.84195 5.53383
#
# Compressibility (1/GPa) = 0.02800571
#
# Stress axis : x y z
#
# Youngs Moduli (GPa) = 120.21548 36.99098 45.31970
#
# Poissons Ratio (x) = -0.03303 0.26926
# Poissons Ratio (y) = -0.10734 0.43767
# Poissons Ratio (z) = 0.71425 0.35724
#
# Static dielectric constant tensor:
#      x y z
#    x 2.099980 0.000000 0.000000 
#    y 0.000000 2.048220 0.000000 
#    z 0.000000 0.000000 2.083790 
# 
# From -- ./inp_files/21427.got.cif
#   From: 2010.05.17/outbox.cif.g08.bks.cpg/sg57_11_cif.got.tgz:21427.got - 2010.06.03 13:58:18.
