data_PCOD9440571
_publ_section_title
;
Structure prediction by ZEFSAII (Michael W. Deem and Ramdas Pophale) SiO2 
 PCOD9440571
Probable space group: P B C M
;
_chemical_formula_sum "Si O2"
_cell_formula_units_Z 64
_cell_length_a 24.000000
_cell_length_b 15.000000
_cell_length_c 9.000000
_cell_angle_alpha 90.000000
_cell_angle_beta 90.000000
_cell_angle_gamma 90.000000
_cell_volume 3240.000000
_symmetry_space_group_name_H-M "P B C M"
_symmetry_group_IT_number 57
_symmetry_cell_setting 'orthorhombic'
loop_
_space_group_symop_operation_xyz
x,y,z
-x,-y,1/2+z
x,1/2-y,-z
-x,1/2+y,1/2-z
-x,-y,-z
x,y,1/2-z
-x,1/2+y,z
x,1/2-y,1/2+z
loop_
_atom_site_type_symbol
_atom_site_label
_atom_site_fract_x
_atom_site_fract_y
_atom_site_fract_z
Si Si1 0.041106 0.600351 0.575967
Si Si2 0.637022 0.155886 0.070906
Si Si3 0.810218 0.538593 0.071743
Si Si4 0.078285 0.081268 0.575213
Si Si5 0.695694 0.976981 0.426782
Si Si6 0.162591 0.662412 0.921871
Si Si7 0.401080 0.335737 0.074026
Si Si8 0.511260 0.095932 0.428670
O O1 0.038895 0.569362 0.750000
O O2 0.057429 0.517957 0.470412
O O3 0.095015 0.662575 0.568737
O O4 0.978971 0.635295 0.540297
O O5 0.638810 0.160927 0.250000
O O6 0.678570 0.076628 0.024203
O O7 0.572876 0.130826 0.030344
O O8 0.651444 0.250000 0.000000
O O9 0.811709 0.541405 0.250000
O O10 0.819207 0.434990 0.021582
O O11 0.863494 0.593366 0.010541
O O12 0.749395 0.561845 0.010062
O O13 0.089409 0.088121 0.750000
O O14 0.707356 0.978015 0.250000
O O15 0.639983 0.918793 0.448780
O O16 0.178252 0.665984 0.750000
O O17 0.185233 0.750000 0.000000
O O18 0.409764 0.325009 0.250000
O O19 0.373260 0.250000 0.000000
O O20 0.460029 0.347890 0.992654
O O21 0.508806 0.091267 0.250000
O O22 0.500000 0.000000 0.500000
#
# Coordination Sequence:
#
# PCOD9440571 Si02
#       8
#     8   8   8   8   8   8   8   8
#     4   8  15  27  43  67  98 126 159 206 256 311
#     4  10  22  39  57  83 117 154 192 233 282 339
#     4  10  21  35  51  74 103 136 182 231 274 324
#     4   9  15  26  47  71  94 125 163 206 263 319
#     4  10  22  41  59  79 113 150 192 241 287 339
#     4   9  18  31  46  69 103 138 174 220 265 318
#     4  11  23  41  63  90 119 149 190 240 294 354
#     4  11  21  37  61  89 122 157 192 236 290 347
#
# _framework density 19.753086
#
# number of rings (size 3 to 8) (size 9 to 14) (size 15 to 20)
#    0.000    2.250    1.250    2.625    0.000    7.000 
#    0.000    2.500    0.000    0.750    0.000    1.750 
#    0.000    0.000    0.000    0.000    0.000    0.000 
#
# Total GULP energy -356803.677935 kJ/mol
# GULP energy per Si atom -5575.057468 kJ/mol
# Density = 1.970813 g / cm^3
# Si number density = 19.753086 Si / 1000 Ang^3
#
#
#
# Elastic Constant Matrix: (Units=GPa)
#
#
# Indices 1 2 3 4 5 6 
#
# 1 95.9033 -12.6966 27.7979 0.0000 0.0000 0.0000
# 2 -12.6966 45.8205 11.1658 0.0000 0.0000 0.0000
# 3 27.7979 11.1658 36.3473 0.0000 0.0000 0.0000
# 4 0.0000 0.0000 0.0000 22.6648 0.0000 0.0000
# 5 0.0000 0.0000 0.0000 0.0000 27.6642 0.0000
# 6 0.0000 0.0000 0.0000 0.0000 0.0000 1.9669
#
#
#
# Elastic Compliance Matrix: (Units=1/GPa)
#
#
# Indices 1 2 3 4 5 6 
#
# 1 0.015624 0.007827 -0.014353 0.000000 0.000000 0.000000
# 2 0.007827 0.027511 -0.014437 0.000000 0.000000 0.000000
# 3 -0.014353 -0.014437 0.042925 0.000000 0.000000 0.000000
# 4 0.000000 0.000000 0.000000 0.044121 0.000000 0.000000
# 5 0.000000 0.000000 0.000000 0.000000 0.036148 0.000000
# 6 0.000000 0.000000 0.000000 0.000000 0.000000 0.508414
#
#
# Mechanical properties :
#
#
# Convention : Reuss Voigt Hill
#
# Bulk Modulus (GPa) = 22.65913 25.62284 24.14099
# Shear Modulus (GPa) = 6.83638 20.57943 13.70791
#
# Velocity S-wave (km/s) = 1.86237 3.23125 2.63718
# Velocity P-wave (km/s) = 4.01505 5.18854 4.63905
#
# Compressibility (1/GPa) = 0.04413231
#
# Stress axis : x y z
#
# Youngs Moduli (GPa) = 64.00537 36.34884 23.29670
#
# Poissons Ratio (x) = -0.28450 0.33438
# Poissons Ratio (y) = -0.50096 0.33634
# Poissons Ratio (z) = 0.91868 0.52478
#
# Static dielectric constant tensor:
#      x y z
#    x 1.736380 0.000000 0.000000 
#    y 0.000000 1.703220 0.000000 
#    z 0.000000 0.000000 1.679080 
# 
# From -- ./inp_files/9326.got.cif
#   From: 2010.05.17/outbox.ucp.g08.bks.cvg/sg57_5_cif.got.tgz:9326.got - 2010.06.11 16:39:23.
