data_PCOD9440881
_publ_section_title
;
Structure prediction by ZEFSAII (Michael W. Deem and Ramdas Pophale) SiO2 
 PCOD9440881
Probable space group: P N N M
;
_chemical_formula_sum "Si O2"
_cell_formula_units_Z 36
_cell_length_a 7.475066
_cell_length_b 14.241467
_cell_length_c 14.760556
_cell_angle_alpha 90.000000
_cell_angle_beta 90.000000
_cell_angle_gamma 90.000000
_cell_volume 1571.348359
_symmetry_space_group_name_H-M "P N N M"
_symmetry_group_IT_number 58
_symmetry_cell_setting 'orthorhombic'
loop_
_space_group_symop_operation_xyz
x,y,z
-x,-y,z
1/2+x,1/2-y,1/2-z
1/2-x,1/2+y,1/2-z
-x,-y,-z
x,y,-z
1/2-x,1/2+y,1/2+z
1/2+x,1/2-y,1/2+z
loop_
_atom_site_type_symbol
_atom_site_label
_atom_site_fract_x
_atom_site_fract_y
_atom_site_fract_z
Si Si1 0.573084 0.216331 0.500000
Si Si2 0.312475 0.379001 0.500000
Si Si3 0.326318 0.672842 0.000000
Si Si4 0.431107 0.790881 0.696610
Si Si5 0.171444 0.120655 0.695900
Si Si6 0.697128 0.044623 0.185898
O O1 0.499101 0.323109 0.500000
O O2 0.389806 0.154436 0.500000
O O3 0.659268 0.201712 0.597536
O O4 0.173488 0.288116 0.500000
O O5 0.287212 0.439905 0.410658
O O6 0.399591 0.629851 0.093347
O O7 0.631160 0.831334 0.690243
O O8 0.433044 0.685834 0.733600
O O9 0.333900 0.854802 0.769327
O O10 0.201578 0.020239 0.741416
O O11 0.500000 0.000000 0.171578
#
# Coordination Sequence:
#
# PCOD9440881 Si02
#       6
#     4   4   4   8   8   8
#     4   8  18  31  58  72 105 145 176 218 279 310
#     4  10  17  37  53  80 112 147 173 227 277 329
#     4   8  16  34  55  70 106 149 175 206 278 326
#     4  10  18  37  51  80 108 142 181 225 267 329
#     4  10  20  34  57  78 108 147 183 222 277 319
#     4  10  20  31  56  83 111 138 187 228 263 323
#
# _framework density 22.910260000000001
#
# number of rings (size 3 to 8) (size 9 to 14) (size 15 to 20)
#    0.667    1.778    2.222    0.333    0.000    1.778 
#    0.000   12.222    0.000    0.000    0.000    7.778 
#    0.000    0.000    0.000    0.000    0.000    0.000 
#
# Total GULP energy -201004.293931 kJ/mol
# GULP energy per Si atom -5583.452609 kJ/mol
# Density = 2.285812 g / cm^3
# Si number density = 22.910260 Si / 1000 Ang^3
#
#
#
# Elastic Constant Matrix: (Units=GPa)
#
#
# Indices 1 2 3 4 5 6 
#
# 1 48.0626 4.2040 8.4268 0.0000 0.0000 0.0000
# 2 4.2040 44.6269 4.9559 0.0000 0.0000 0.0000
# 3 8.4268 4.9559 178.7083 0.0000 0.0000 0.0000
# 4 0.0000 0.0000 0.0000 47.2671 0.0000 0.0000
# 5 0.0000 0.0000 0.0000 0.0000 8.4585 0.0000
# 6 0.0000 0.0000 0.0000 0.0000 0.0000 20.1228
#
#
#
# Elastic Compliance Matrix: (Units=1/GPa)
#
#
# Indices 1 2 3 4 5 6 
#
# 1 0.021137 -0.001886 -0.000944 0.000000 0.000000 0.000000
# 2 -0.001886 0.022646 -0.000539 0.000000 0.000000 0.000000
# 3 -0.000944 -0.000539 0.005655 0.000000 0.000000 0.000000
# 4 0.000000 0.000000 0.000000 0.021156 0.000000 0.000000
# 5 0.000000 0.000000 0.000000 0.000000 0.118224 0.000000
# 6 0.000000 0.000000 0.000000 0.000000 0.000000 0.049695
#
#
# Mechanical properties :
#
#
# Convention : Reuss Voigt Hill
#
# Bulk Modulus (GPa) = 23.42023 34.06346 28.74184
# Shear Modulus (GPa) = 19.26893 32.09041 25.67967
#
# Velocity S-wave (km/s) = 2.90325 3.74665 3.35159
# Velocity P-wave (km/s) = 4.63501 5.79802 5.24882
#
# Compressibility (1/GPa) = 0.04269814
#
# Stress axis : x y z
#
# Youngs Moduli (GPa) = 47.31094 44.15876 176.82867
#
# Poissons Ratio (x) = 0.08329 0.16699
# Poissons Ratio (y) = 0.08924 0.09532
# Poissons Ratio (z) = 0.04468 0.02380
#
# Static dielectric constant tensor:
#      x y z
#    x 1.920700 0.000000 0.000000 
#    y 0.000000 1.805040 0.000000 
#    z 0.000000 0.000000 1.838180 
# 
# From -- ./inp_files/19427.got.cif
#   From: 2010.05.17/outbox.cif.g08.bks.cpg/sg58_10_cif.got.tgz:19427.got - 2010.06.03 14:20:14.
