data_PCOD9440731
_publ_section_title
;
Structure prediction by ZEFSAII (Michael W. Deem and Ramdas Pophale) SiO2 
 PCOD9440731
Probable space group: P N N M
;
_chemical_formula_sum "Si O2"
_cell_formula_units_Z 56
_cell_length_a 18.179947
_cell_length_b 14.265869
_cell_length_c 8.925460
_cell_angle_alpha 90.000000
_cell_angle_beta 90.000000
_cell_angle_gamma 90.000000
_cell_volume 2314.842528
_symmetry_space_group_name_H-M "P N N M"
_symmetry_group_IT_number 58
_symmetry_cell_setting 'orthorhombic'
loop_
_space_group_symop_operation_xyz
x,y,z
-x,-y,z
1/2+x,1/2-y,1/2-z
1/2-x,1/2+y,1/2-z
-x,-y,-z
x,y,-z
1/2-x,1/2+y,1/2+z
1/2+x,1/2-y,1/2+z
loop_
_atom_site_type_symbol
_atom_site_label
_atom_site_fract_x
_atom_site_fract_y
_atom_site_fract_z
Si Si1 0.351060 0.380379 0.327656
Si Si2 0.448349 0.097693 0.175773
Si Si3 0.579910 0.447626 0.169743
Si Si4 0.509434 0.276226 0.672204
Si Si5 0.797712 0.390809 0.827327
Si Si6 0.122452 0.428844 0.826663
Si Si7 0.278209 0.762789 0.321853
O O1 0.325758 0.384955 0.500000
O O2 0.369245 0.483779 0.266664
O O3 0.428773 0.324932 0.323956
O O4 0.291858 0.323623 0.231780
O O5 0.498624 0.170998 0.266807
O O6 0.366334 0.135789 0.220806
O O7 0.432327 0.988717 0.222698
O O8 0.461428 0.105639 0.000000
O O9 0.500000 0.500000 0.165573
O O10 0.561253 0.346316 0.236587
O O11 0.608079 0.441686 0.000000
O O12 0.533452 0.273609 0.500000
O O13 0.728869 0.335264 0.764442
O O14 0.804487 0.503167 0.824632
O O15 0.812051 0.362346 0.000000
O O16 0.151807 0.327530 0.784837
O O17 0.096612 0.433172 0.000000
O O18 0.277068 0.749163 0.500000
#
# Coordination Sequence:
#
# PCOD9440731 Si02
#       7
#     8   8   8   8   8   8   8
#     4  10  18  26  36  53  76 102 132 164 198 238
#     4  10  17  26  41  57  74  98 133 167 194 233
#     4   9  17  26  36  51  72  97 131 169 195 227
#     4  10  17  26  39  53  74 103 130 162 203 238
#     4   9  17  30  41  55  78 104 132 166 203 241
#     4   8  18  31  40  56  81 104 131 168 208 241
#     4  11  19  28  44  61  78 107 140 171 204 240
#
# _framework density 24.19171
#
# number of rings (size 3 to 8) (size 9 to 14) (size 15 to 20)
#    0.857    1.571    1.429    3.000    0.000    4.000 
#    0.000    0.000    0.000    0.000    0.000    0.000 
#    0.000    0.000    0.000    1.286    0.000   25.000 
#
# Total GULP energy -313047.316960 kJ/mol
# GULP energy per Si atom -5590.130660 kJ/mol
# Density = 2.413665 g / cm^3
# Si number density = 24.191710 Si / 1000 Ang^3
#
#
#
# Elastic Constant Matrix: (Units=GPa)
#
#
# Indices 1 2 3 4 5 6 
#
# 1 49.3018 4.8437 -12.5437 0.0000 0.0000 0.0000
# 2 4.8437 165.9122 52.3224 0.0000 0.0000 0.0000
# 3 -12.5437 52.3224 84.8695 0.0000 0.0000 0.0000
# 4 0.0000 0.0000 0.0000 37.3484 0.0000 0.0000
# 5 0.0000 0.0000 0.0000 0.0000 15.6026 0.0000
# 6 0.0000 0.0000 0.0000 0.0000 0.0000 29.0271
#
#
#
# Elastic Compliance Matrix: (Units=1/GPa)
#
#
# Indices 1 2 3 4 5 6 
#
# 1 0.021615 -0.002034 0.004449 0.000000 0.000000 0.000000
# 2 -0.002034 0.007673 -0.005031 0.000000 0.000000 0.000000
# 3 0.004449 -0.005031 0.015542 0.000000 0.000000 0.000000
# 4 0.000000 0.000000 0.000000 0.026775 0.000000 0.000000
# 5 0.000000 0.000000 0.000000 0.000000 0.064092 0.000000
# 6 0.000000 0.000000 0.000000 0.000000 0.000000 0.034451
#
#
# Mechanical properties :
#
#
# Convention : Reuss Voigt Hill
#
# Bulk Modulus (GPa) = 25.25431 43.25869 34.25650
# Shear Modulus (GPa) = 26.51397 33.42637 29.97017
#
# Velocity S-wave (km/s) = 3.31417 3.72119 3.52356
# Velocity P-wave (km/s) = 5.01068 6.03187 5.54483
#
# Compressibility (1/GPa) = 0.03959719
#
# Stress axis : x y z
#
# Youngs Moduli (GPa) = 46.26431 130.32139 64.34131
#
# Poissons Ratio (x) = 0.26507 -0.28623
# Poissons Ratio (y) = 0.09410 0.32372
# Poissons Ratio (z) = -0.20581 0.65568
#
# Static dielectric constant tensor:
#      x y z
#    x 2.055210 0.000000 0.000000 
#    y 0.000000 1.956650 0.000000 
#    z 0.000000 0.000000 1.812560 
# 
# From -- ./inp_files/11109.got.cif
#   From: 2010.05.17/outbox.cif.g08.bks.cpg/sg58_6_cif.got.tgz:11109.got - 2010.06.03 14:20:14.
