data_PCOD9440600
_publ_section_title
;
Structure prediction by ZEFSAII (Michael W. Deem and Ramdas Pophale) SiO2 
 PCOD9440600
Probable space group: P B C M
;
_chemical_formula_sum "Si O2"
_cell_formula_units_Z 40
_cell_length_a 24.000000
_cell_length_b 9.000000
_cell_length_c 9.000000
_cell_angle_alpha 90.000000
_cell_angle_beta 90.000000
_cell_angle_gamma 90.000000
_cell_volume 1944.000000
_symmetry_space_group_name_H-M "P B C M"
_symmetry_group_IT_number 57
_symmetry_cell_setting 'orthorhombic'
loop_
_space_group_symop_operation_xyz
x,y,z
-x,-y,1/2+z
x,1/2-y,-z
-x,1/2+y,1/2-z
-x,-y,-z
x,y,1/2-z
-x,1/2+y,z
x,1/2-y,1/2+z
loop_
_atom_site_type_symbol
_atom_site_label
_atom_site_fract_x
_atom_site_fract_y
_atom_site_fract_z
Si Si1 0.650069 0.892805 0.416929
Si Si2 0.147432 0.609691 0.080728
Si Si3 0.044035 0.099193 0.583699
Si Si4 0.264373 0.595141 0.926190
Si Si5 0.456030 0.900701 0.915357
O O1 0.627037 0.750000 0.500000
O O2 0.668527 0.856525 0.250000
O O3 0.699735 0.960880 0.511564
O O4 0.601669 0.012729 0.409098
O O5 0.164356 0.647105 0.250000
O O6 0.103311 0.480585 0.085999
O O7 0.119681 0.750000 0.000000
O O8 0.201617 0.575452 0.984326
O O9 0.050311 0.250000 0.500000
O O10 0.024007 0.124725 0.750000
O O11 0.000000 0.000000 0.500000
O O12 0.267775 0.605126 0.750000
O O13 0.284246 0.750000 0.000000
O O14 0.476822 0.870104 0.750000
O O15 0.447298 0.750000 0.000000
O O16 0.500000 0.000000 0.000000
#
# Coordination Sequence:
#
# PCOD9440600 Si02
#       5
#     8   8   8   8   8
#     4  11  24  41  61  88 121 158 199 245 295 350
#     4  10  21  38  60  87 118 154 196 243 294 351
#     4  11  24  40  61  87 118 155 196 242 293 349
#     4  11  22  38  62  89 119 157 198 244 294 349
#     4  11  24  41  64  91 122 158 198 244 295 351
#
# _framework density 20.576132000000001
#
# number of rings (size 3 to 8) (size 9 to 14) (size 15 to 20)
#    0.000    1.200    0.000    7.200    0.000   12.000 
#    0.000    2.000    0.000    0.000    0.000    0.000 
#    0.000    0.000    0.000    0.000    0.000    0.000 
#
# Total GULP energy -223440.878507 kJ/mol
# GULP energy per Si atom -5586.021963 kJ/mol
# Density = 2.052930 g / cm^3
# Si number density = 20.576132 Si / 1000 Ang^3
#
#
#
# Elastic Constant Matrix: (Units=GPa)
#
#
# Indices 1 2 3 4 5 6 
#
# 1 32.3833 33.8234 42.4198 0.0000 0.0000 0.0000
# 2 33.8234 107.0403 78.4873 0.0000 0.0000 0.0000
# 3 42.4198 78.4873 222.5669 0.0000 0.0000 0.0000
# 4 0.0000 0.0000 0.0000 28.1298 0.0000 0.0000
# 5 0.0000 0.0000 0.0000 0.0000 9.9724 0.0000
# 6 0.0000 0.0000 0.0000 0.0000 0.0000 27.8307
#
#
#
# Elastic Compliance Matrix: (Units=1/GPa)
#
#
# Indices 1 2 3 4 5 6 
#
# 1 0.050468 -0.011996 -0.005389 0.000000 0.000000 0.000000
# 2 -0.011996 0.015452 -0.003163 0.000000 0.000000 0.000000
# 3 -0.005389 -0.003163 0.006635 0.000000 0.000000 0.000000
# 4 0.000000 0.000000 0.000000 0.035549 0.000000 0.000000
# 5 0.000000 0.000000 0.000000 0.000000 0.100277 0.000000
# 6 0.000000 0.000000 0.000000 0.000000 0.000000 0.035931
#
#
# Mechanical properties :
#
#
# Convention : Reuss Voigt Hill
#
# Bulk Modulus (GPa) = 31.78556 74.60572 53.19564
# Shear Modulus (GPa) = 16.89787 27.00393 21.95090
#
# Velocity S-wave (km/s) = 2.86883 3.62662 3.26975
# Velocity P-wave (km/s) = 5.14343 7.33987 6.33753
#
# Compressibility (1/GPa) = 0.03146082
#
# Stress axis : x y z
#
# Youngs Moduli (GPa) = 19.81442 64.71677 150.70799
#
# Poissons Ratio (x) = 0.77636 0.81209
# Poissons Ratio (y) = 0.23770 0.47664
# Poissons Ratio (z) = 0.10677 0.20468
#
# Static dielectric constant tensor:
#      x y z
#    x 1.721890 0.000000 0.000000 
#    y 0.000000 1.769060 0.000000 
#    z 0.000000 0.000000 1.671830 
# 
# From -- ./inp_files/8880.got.cif
#   From: 2010.05.17/outbox.ucp.g08.bks.cvg/sg57_5_cif.got.tgz:8880.got - 2010.06.11 16:39:23.
