data_PCOD9440130
_publ_section_title
;
Structure prediction by ZEFSAII (Michael W. Deem and Ramdas Pophale) SiO2 
 PCOD9440130
Probable space group: P B C M
;
_chemical_formula_sum "Si O2"
_cell_formula_units_Z 32
_cell_length_a 5.092363
_cell_length_b 9.600438
_cell_length_c 25.769230
_cell_angle_alpha 90.000000
_cell_angle_beta 90.000000
_cell_angle_gamma 90.000000
_cell_volume 1259.829702
_symmetry_space_group_name_H-M "P B C M"
_symmetry_group_IT_number 57
_symmetry_cell_setting 'orthorhombic'
loop_
_space_group_symop_operation_xyz
x,y,z
-x,-y,1/2+z
x,1/2-y,-z
-x,1/2+y,1/2-z
-x,-y,-z
x,y,1/2-z
-x,1/2+y,z
x,1/2-y,1/2+z
loop_
_atom_site_type_symbol
_atom_site_label
_atom_site_fract_x
_atom_site_fract_y
_atom_site_fract_z
Si Si1 0.319949 0.484217 0.807319
Si Si2 0.806966 0.825191 0.553810
Si Si3 0.306156 0.566825 0.102913
Si Si4 0.960460 0.782215 0.155890
O O1 0.425033 0.511145 0.750000
O O2 0.523809 0.514524 0.853351
O O3 0.062661 0.579190 0.817712
O O4 0.215710 0.325717 0.812213
O O5 0.852487 0.750000 0.500000
O O6 0.029333 0.936200 0.571188
O O7 0.824232 0.707558 0.599220
O O8 0.523785 0.894586 0.559925
O O9 0.223331 0.698150 0.139847
#
# Coordination Sequence:
#
# PCOD9440130 Si02
#       4
#     8   8   8   8
#     4  11  22  42  68  96 134 180 221 277 335 391
#     4   9  18  40  68  95 134 175 215 273 337 388
#     4   9  21  39  62  96 133 165 223 264 326 399
#     4   9  23  41  66  99 136 168 228 273 325 403
#
# _framework density 25.400257
#
# number of rings (size 3 to 8) (size 9 to 14) (size 15 to 20)
#    1.500    1.000    0.000    1.500    0.000    6.000 
#    0.000    6.250    0.000    0.000    0.000    0.000 
#    0.000    0.000    0.000    0.000    0.000    0.000 
#
# Total GULP energy -178339.409845 kJ/mol
# GULP energy per Si atom -5573.106558 kJ/mol
# Density = 2.534244 g / cm^3
# Si number density = 25.400257 Si / 1000 Ang^3
#
#
#
# Elastic Constant Matrix: (Units=GPa)
#
#
# Indices 1 2 3 4 5 6 
#
# 1 151.1742 6.2249 12.8315 0.0000 0.0000 0.0000
# 2 6.2249 33.6413 25.7159 0.0000 0.0000 0.0000
# 3 12.8315 25.7159 117.5625 0.0000 0.0000 0.0000
# 4 0.0000 0.0000 0.0000 15.9201 0.0000 0.0000
# 5 0.0000 0.0000 0.0000 0.0000 9.7931 0.0000
# 6 0.0000 0.0000 0.0000 0.0000 0.0000 24.5807
#
#
#
# Elastic Compliance Matrix: (Units=1/GPa)
#
#
# Indices 1 2 3 4 5 6 
#
# 1 0.006695 -0.000817 -0.000552 0.000000 0.000000 0.000000
# 2 -0.000817 0.035793 -0.007740 0.000000 0.000000 0.000000
# 3 -0.000552 -0.007740 0.010260 0.000000 0.000000 0.000000
# 4 0.000000 0.000000 0.000000 0.062814 0.000000 0.000000
# 5 0.000000 0.000000 0.000000 0.000000 0.102113 0.000000
# 6 0.000000 0.000000 0.000000 0.000000 0.000000 0.040682
#
#
# Mechanical properties :
#
#
# Convention : Reuss Voigt Hill
#
# Bulk Modulus (GPa) = 28.96067 43.54696 36.25382
# Shear Modulus (GPa) = 17.35592 27.23247 22.29420
#
# Velocity S-wave (km/s) = 2.61683 3.27790 2.96584
# Velocity P-wave (km/s) = 4.53397 5.61317 5.10218
#
# Compressibility (1/GPa) = 0.03452959
#
# Stress axis : x y z
#
# Youngs Moduli (GPa) = 149.35663 27.93817 97.47048
#
# Poissons Ratio (x) = 0.02282 0.05381
# Poissons Ratio (y) = 0.12201 0.75446
# Poissons Ratio (z) = 0.08246 0.21625
#
# Static dielectric constant tensor:
#      x y z
#    x 1.987240 0.000000 0.000000 
#    y 0.000000 2.257690 0.000000 
#    z 0.000000 0.000000 2.012480 
# 
# From -- ./inp_files/27762.got.cif
#   From: 2010.05.17/outbox.cif.g08.bks.cpg/sg57_14_cif.got.tgz:27762.got - 2010.06.03 13:58:18.
