data_PCOD9440448
_publ_section_title
;
Structure prediction by ZEFSAII (Michael W. Deem and Ramdas Pophale) SiO2 
 PCOD9440448
Probable space group: P B C M
;
_chemical_formula_sum "Si O2"
_cell_formula_units_Z 64
_cell_length_a 15.000000
_cell_length_b 24.000000
_cell_length_c 9.000000
_cell_angle_alpha 90.000000
_cell_angle_beta 90.000000
_cell_angle_gamma 90.000000
_cell_volume 3240.000000
_symmetry_space_group_name_H-M "P B C M"
_symmetry_group_IT_number 57
_symmetry_cell_setting 'orthorhombic'
loop_
_space_group_symop_operation_xyz
x,y,z
-x,-y,1/2+z
x,1/2-y,-z
-x,1/2+y,1/2-z
-x,-y,-z
x,y,1/2-z
-x,1/2+y,z
x,1/2-y,1/2+z
loop_
_atom_site_type_symbol
_atom_site_label
_atom_site_fract_x
_atom_site_fract_y
_atom_site_fract_z
Si Si1 0.898399 0.893405 0.926683
Si Si2 0.847289 0.495010 0.578515
Si Si3 0.578281 0.862286 0.429091
Si Si4 0.967362 0.308329 0.074059
Si Si5 0.391941 0.897940 0.428391
Si Si6 0.191446 0.881561 0.072358
Si Si7 0.633947 0.512644 0.578653
Si Si8 0.257473 0.193144 0.426216
O O1 0.911315 0.894638 0.750000
O O2 0.806790 0.859354 0.957968
O O3 0.894445 0.955422 0.990840
O O4 0.972792 0.856738 0.005635
O O5 0.875600 0.494025 0.750000
O O6 0.854375 0.434540 0.505098
O O7 0.741238 0.508391 0.572762
O O8 0.586736 0.856286 0.250000
O O9 0.474738 0.859602 0.473977
O O10 0.645806 0.820908 0.507915
O O11 0.606661 0.925642 0.468658
O O12 0.981384 0.305241 0.250000
O O13 0.865678 0.326704 0.043743
O O14 0.989033 0.250000 0.000000
O O15 0.392893 0.899398 0.250000
O O16 0.294061 0.878492 0.478086
O O17 0.403314 0.961201 0.484955
O O18 0.190984 0.891602 0.250000
O O19 0.605913 0.505542 0.750000
O O20 0.222889 0.250000 0.500000
O O21 0.261236 0.200609 0.250000
#
# Coordination Sequence:
#
# PCOD9440448 Si02
#       8
#     8   8   8   8   8   8   8   8
#     4  11  23  39  61  88 116 148 188 233 287 350
#     4  10  19  33  57  88 122 156 189 231 284 340
#     4  10  19  33  53  79 113 150 188 231 277 328
#     4  11  24  42  64  86 111 146 190 241 290 341
#     4   9  18  32  54  81 112 150 188 230 277 327
#     4   9  20  39  59  84 119 154 192 237 286 341
#     4   9  17  29  48  79 116 151 185 227 274 326
#     4  11  24  39  57  80 110 150 190 235 286 341
#
# _framework density 19.753086
#
# number of rings (size 3 to 8) (size 9 to 14) (size 15 to 20)
#    0.000    2.000    1.250    2.250    0.000    5.500 
#    0.000    0.625    0.000    1.500    0.000    0.000 
#    0.000    0.000    0.000    0.000    0.000    0.000 
#
# Total GULP energy -357440.161902 kJ/mol
# GULP energy per Si atom -5585.002530 kJ/mol
# Density = 1.970813 g / cm^3
# Si number density = 19.753086 Si / 1000 Ang^3
#
#
#
# Elastic Constant Matrix: (Units=GPa)
#
#
# Indices 1 2 3 4 5 6 
#
# 1 70.3703 26.8003 33.9859 0.0000 0.0000 0.0000
# 2 26.8003 35.1174 17.5177 0.0000 0.0000 0.0000
# 3 33.9859 17.5177 26.3626 0.0000 0.0000 0.0000
# 4 0.0000 0.0000 0.0000 27.3906 0.0000 0.0000
# 5 0.0000 0.0000 0.0000 0.0000 18.2930 0.0000
# 6 0.0000 0.0000 0.0000 0.0000 0.0000 17.4832
#
#
#
# Elastic Compliance Matrix: (Units=1/GPa)
#
#
# Indices 1 2 3 4 5 6 
#
# 1 0.038761 -0.006962 -0.045343 0.000000 0.000000 0.000000
# 2 -0.006962 0.043845 -0.020159 0.000000 0.000000 0.000000
# 3 -0.045343 -0.020159 0.109783 0.000000 0.000000 0.000000
# 4 0.000000 0.000000 0.000000 0.036509 0.000000 0.000000
# 5 0.000000 0.000000 0.000000 0.000000 0.054666 0.000000
# 6 0.000000 0.000000 0.000000 0.000000 0.000000 0.057198
#
#
# Mechanical properties :
#
#
# Convention : Reuss Voigt Hill
#
# Bulk Modulus (GPa) = 21.07030 32.05091 26.56061
# Shear Modulus (GPa) = 9.96987 16.20312 13.08649
#
# Velocity S-wave (km/s) = 2.24904 2.86717 2.57671
# Velocity P-wave (km/s) = 4.17544 5.21746 4.72526
#
# Compressibility (1/GPa) = 0.04746017
#
# Stress axis : x y z
#
# Youngs Moduli (GPa) = 25.79924 22.80743 9.10885
#
# Poissons Ratio (x) = 0.15879 0.41302
# Poissons Ratio (y) = 0.17962 0.18363
# Poissons Ratio (z) = 1.16982 0.45978
#
# Static dielectric constant tensor:
#      x y z
#    x 1.754730 0.000000 0.000000 
#    y 0.000000 1.647640 0.000000 
#    z 0.000000 0.000000 1.658830 
# 
# From -- ./inp_files/5753.got.cif
#   From: 2010.05.17/outbox.ucp.g08.bks.cvg/sg57_3_cif.got.tgz:5753.got - 2010.06.11 16:39:23.
