data_PCOD9440105
_publ_section_title
;
Structure prediction by ZEFSAII (Michael W. Deem and Ramdas Pophale) SiO2 
 PCOD9440105
Probable space group: P B C M
;
_chemical_formula_sum "Si O2"
_cell_formula_units_Z 48
_cell_length_a 11.991359
_cell_length_b 25.663656
_cell_length_c 8.628549
_cell_angle_alpha 90.000000
_cell_angle_beta 90.000000
_cell_angle_gamma 90.000000
_cell_volume 2655.367896
_symmetry_space_group_name_H-M "P B C M"
_symmetry_group_IT_number 57
_symmetry_cell_setting 'orthorhombic'
loop_
_space_group_symop_operation_xyz
x,y,z
-x,-y,1/2+z
x,1/2-y,-z
-x,1/2+y,1/2-z
-x,-y,-z
x,y,1/2-z
-x,1/2+y,z
x,1/2-y,1/2+z
loop_
_atom_site_type_symbol
_atom_site_label
_atom_site_fract_x
_atom_site_fract_y
_atom_site_fract_z
Si Si1 0.506340 0.441234 0.064647
Si Si2 0.736344 0.400925 0.935036
Si Si3 0.875013 0.001323 0.564557
Si Si4 0.122702 0.192039 0.435511
Si Si5 0.259012 0.097408 0.935547
Si Si6 0.879019 0.192123 0.935435
O O1 0.521936 0.443633 0.250000
O O2 0.389103 0.413000 0.032180
O O3 0.500000 0.500000 0.000000
O O4 0.610599 0.412074 0.988991
O O5 0.123761 0.504512 0.750000
O O6 0.810090 0.449195 0.995828
O O7 0.787625 0.348704 0.007318
O O8 0.742342 0.101340 0.250000
O O9 0.810706 0.949606 0.510531
O O10 0.000000 0.000000 0.500000
O O11 0.143837 0.250000 0.500000
O O12 0.120049 0.193029 0.250000
O O13 0.212661 0.151121 0.496723
O O14 0.000367 0.176040 0.498455
O O15 0.243153 0.096400 0.750000
O O16 0.884431 0.193436 0.750000
O O17 0.856920 0.250000 0.000000
#
# Coordination Sequence:
#
# PCOD9440105 Si02
#       6
#     8   8   8   8   8   8
#     4  11  23  40  63  88 120 161 205 250 302 360
#     4  12  24  40  61  88 122 159 203 249 300 359
#     4  12  24  38  58  86 121 156 197 246 304 361
#     4  11  22  39  63  91 123 160 201 247 301 360
#     4  11  23  40  61  88 121 157 200 248 300 359
#     4  11  22  40  64  91 123 159 201 248 303 362
#
# _framework density 18.076592000000002
#
# number of rings (size 3 to 8) (size 9 to 14) (size 15 to 20)
#    0.000    0.667    1.667    9.000    0.000    2.000 
#    0.000    0.833    0.000    4.000    0.000    0.000 
#    0.000    0.000    0.000    0.000    0.000    0.000 
#
# Total GULP energy -268643.510951 kJ/mol
# GULP energy per Si atom -5596.739811 kJ/mol
# Density = 1.803545 g / cm^3
# Si number density = 18.076592 Si / 1000 Ang^3
#
#
#
# Elastic Constant Matrix: (Units=GPa)
#
#
# Indices 1 2 3 4 5 6 
#
# 1 134.5562 70.7433 78.3570 0.0000 0.0000 0.0000
# 2 70.7433 95.7637 54.5237 0.0000 0.0000 0.0000
# 3 78.3570 54.5237 169.7209 0.0000 0.0000 0.0000
# 4 0.0000 0.0000 0.0000 35.6483 0.0000 0.0000
# 5 0.0000 0.0000 0.0000 0.0000 37.4096 0.0000
# 6 0.0000 0.0000 0.0000 0.0000 0.0000 -394.3024
#
#
#
# Elastic Compliance Matrix: (Units=1/GPa)
#
#
# Indices 1 2 3 4 5 6 
#
# 1 0.013920 -0.008107 -0.003822 0.000000 0.000000 0.000000
# 2 -0.008107 0.017501 -0.001880 0.000000 0.000000 0.000000
# 3 -0.003822 -0.001880 0.008260 0.000000 0.000000 0.000000
# 4 0.000000 0.000000 0.000000 0.028052 0.000000 0.000000
# 5 0.000000 0.000000 0.000000 0.000000 0.026731 0.000000
# 6 0.000000 0.000000 0.000000 0.000000 0.000000 -0.002536
#
#
# Mechanical properties :
#
#
# Convention : Reuss Voigt Hill
#
# Bulk Modulus (GPa) = 82.88839 89.69874 86.29357
# Shear Modulus (GPa) = 40.46393 -51.15444 -5.34525
#
# Velocity S-wave (km/s) = 4.73638 -5.32543 -1.72146
# Velocity P-wave (km/s) = 8.71003 3.45191 6.62496
#
# Compressibility (1/GPa) = 0.01206442
#
# Stress axis : x y z
#
# Youngs Moduli (GPa) = 71.84023 57.13883 121.05821
#
# Poissons Ratio (x) = 0.46321 0.46270
# Poissons Ratio (y) = 0.58239 0.22754
# Poissons Ratio (z) = 0.27459 0.10740
#
# Static dielectric constant tensor:
#      x y z
#    x 1.600060 0.000000 0.000000 
#    y 0.000000 1.592810 0.000000 
#    z 0.000000 0.000000 1.599670 
# 
# From -- ./inp_files/3089.got.cif
#   From: 2010.05.17/outbox.cif.g08.bks.cpg/sg57_2_cif.got.tgz:3089.got - 2010.06.03 13:58:18.
