data_PCOD9440777
_publ_section_title
;
Structure prediction by ZEFSAII (Michael W. Deem and Ramdas Pophale) SiO2 
 PCOD9440777
Probable space group: P N N M
;
_chemical_formula_sum "Si O2"
_cell_formula_units_Z 64
_cell_length_a 31.157020
_cell_length_b 15.189945
_cell_length_c 7.952379
_cell_angle_alpha 90.000000
_cell_angle_beta 90.000000
_cell_angle_gamma 90.000000
_cell_volume 3763.649608
_symmetry_space_group_name_H-M "P N N M"
_symmetry_group_IT_number 58
_symmetry_cell_setting 'orthorhombic'
loop_
_space_group_symop_operation_xyz
x,y,z
-x,-y,z
1/2+x,1/2-y,1/2-z
1/2-x,1/2+y,1/2-z
-x,-y,-z
x,y,-z
1/2-x,1/2+y,1/2+z
1/2+x,1/2-y,1/2+z
loop_
_atom_site_type_symbol
_atom_site_label
_atom_site_fract_x
_atom_site_fract_y
_atom_site_fract_z
Si Si1 0.793673 0.192582 0.796108
Si Si2 0.550793 0.085566 0.809099
Si Si3 0.182268 0.502015 0.202746
Si Si4 0.044121 0.607564 0.805017
Si Si5 0.867934 0.321199 0.795186
Si Si6 0.207532 0.198022 0.795953
Si Si7 0.867723 0.675855 0.798202
Si Si8 0.721143 0.497702 0.304941
O O1 0.836643 0.243128 0.738970
O O2 0.750572 0.247253 0.750239
O O3 0.792807 0.092061 0.731610
O O4 0.794053 0.190172 0.000000
O O5 0.501549 0.113803 0.784804
O O6 0.584141 0.162469 0.766258
O O7 0.557622 0.995976 0.702996
O O8 0.557485 0.057826 0.000000
O O9 0.156429 0.588891 0.248925
O O10 0.155827 0.415405 0.245560
O O11 0.227554 0.500837 0.292939
O O12 0.189322 0.502610 0.000000
O O13 0.083073 0.666959 0.737239
O O14 0.036957 0.629440 0.000000
O O15 0.869879 0.317707 0.000000
O O16 0.164426 0.248010 0.738294
O O17 0.208382 0.097428 0.731839
O O18 0.207204 0.195986 0.000000
O O19 0.869976 0.682192 0.000000
O O20 0.707315 0.497249 0.500000
#
# Coordination Sequence:
#
# PCOD9440777 Si02
#       8
#     8   8   8   8   8   8   8   8
#     4  10  19  31  47  68  95 125 158 194 236 276
#     4  11  21  31  45  70  98 119 148 193 242 279
#     4  10  17  28  46  66  90 124 164 195 221 268
#     4  10  18  32  50  67  92 126 160 186 223 282
#     4   9  17  29  46  67  89 122 161 189 219 270
#     4  10  20  32  46  67  94 125 162 196 230 275
#     4  10  19  32  47  63  89 128 164 190 223 276
#     4  10  20  31  44  68  98 124 154 200 244 268
#
# _framework density 17.004770000000001
#
# number of rings (size 3 to 8) (size 9 to 14) (size 15 to 20)
#    0.000    2.000    3.750    2.250    0.000    1.000 
#    0.000    1.250    0.000    0.000    0.000    0.875 
#    0.000    7.000    0.000    0.000    0.000    0.000 
#
# Total GULP energy -356814.995856 kJ/mol
# GULP energy per Si atom -5575.234310 kJ/mol
# Density = 1.696607 g / cm^3
# Si number density = 17.004770 Si / 1000 Ang^3
#
#
#
# Elastic Constant Matrix: (Units=GPa)
#
#
# Indices 1 2 3 4 5 6 
#
# 1 116.5788 59.4767 3.4384 0.0000 0.0000 0.0000
# 2 59.4767 125.7389 9.0139 0.0000 0.0000 0.0000
# 3 3.4384 9.0139 19.0556 0.0000 0.0000 0.0000
# 4 0.0000 0.0000 0.0000 5.5488 0.0000 0.0000
# 5 0.0000 0.0000 0.0000 0.0000 27.2637 0.0000
# 6 0.0000 0.0000 0.0000 0.0000 0.0000 21.4964
#
#
#
# Elastic Compliance Matrix: (Units=1/GPa)
#
#
# Indices 1 2 3 4 5 6 
#
# 1 0.011311 -0.005387 0.000507 0.000000 0.000000 0.000000
# 2 -0.005387 0.010797 -0.004136 0.000000 0.000000 0.000000
# 3 0.000507 -0.004136 0.054343 0.000000 0.000000 0.000000
# 4 0.000000 0.000000 0.000000 0.180220 0.000000 0.000000
# 5 0.000000 0.000000 0.000000 0.000000 0.036679 0.000000
# 6 0.000000 0.000000 0.000000 0.000000 0.000000 0.046519
#
#
# Mechanical properties :
#
#
# Convention : Reuss Voigt Hill
#
# Bulk Modulus (GPa) = 17.11716 45.02571 31.07143
# Shear Modulus (GPa) = 13.24947 23.49139 18.37043
#
# Velocity S-wave (km/s) = 2.79438 3.72083 3.29037
# Velocity P-wave (km/s) = 4.52762 6.70785 5.72252
#
# Compressibility (1/GPa) = 0.05842092
#
# Stress axis : x y z
#
# Youngs Moduli (GPa) = 88.40836 92.61428 18.40174
#
# Poissons Ratio (x) = 0.49889 -0.00933
# Poissons Ratio (y) = 0.47623 0.07610
# Poissons Ratio (z) = -0.04483 0.38301
#
# Static dielectric constant tensor:
#      x y z
#    x 1.581210 0.000000 0.000000 
#    y 0.000000 1.590700 0.000000 
#    z 0.000000 0.000000 1.620920 
# 
# From -- ./inp_files/11143.got.cif
#   From: 2010.05.17/outbox.cif.g08.bks.cpg/sg58_6_cif.got.tgz:11143.got - 2010.06.03 14:20:14.
