data_PCOD9440669
_publ_section_title
;
Structure prediction by ZEFSAII (Michael W. Deem and Ramdas Pophale) SiO2 
 PCOD9440669
Probable space group: P N N M
;
_chemical_formula_sum "Si O2"
_cell_formula_units_Z 32
_cell_length_a 6.933255
_cell_length_b 12.589369
_cell_length_c 15.331698
_cell_angle_alpha 90.000000
_cell_angle_beta 90.000000
_cell_angle_gamma 90.000000
_cell_volume 1338.231945
_symmetry_space_group_name_H-M "P N N M"
_symmetry_group_IT_number 58
_symmetry_cell_setting 'orthorhombic'
loop_
_space_group_symop_operation_xyz
x,y,z
-x,-y,z
1/2+x,1/2-y,1/2-z
1/2-x,1/2+y,1/2-z
-x,-y,-z
x,y,-z
1/2-x,1/2+y,1/2+z
1/2+x,1/2-y,1/2+z
loop_
_atom_site_type_symbol
_atom_site_label
_atom_site_fract_x
_atom_site_fract_y
_atom_site_fract_z
Si Si1 0.218135 0.140238 0.095709
Si Si2 0.227903 0.473258 0.732282
Si Si3 0.347734 0.805379 0.096477
Si Si4 0.356217 0.366869 0.100594
O O1 0.173633 0.067540 0.177470
O O2 0.451294 0.129710 0.088272
O O3 0.204157 0.267217 0.109455
O O4 0.141681 0.109352 0.000000
O O5 0.305903 0.451417 0.827820
O O6 0.000000 0.500000 0.741625
O O7 0.256452 0.365709 0.674009
O O8 0.435200 0.689276 0.115591
O O9 0.256922 0.805285 0.000000
O O10 0.348429 0.401335 0.000000
#
# Coordination Sequence:
#
# PCOD9440669 Si02
#       4
#     8   8   8   8
#     4   7  13  25  41  63  85 104 134 176 215 242
#     4  10  15  23  47  70  79 103 154 175 194 248
#     4   7  13  25  41  63  85 104 134 176 215 242
#     4   8  16  27  39  62  94 115 131 170 219 252
#
# _framework density 23.912148999999999
#
# number of rings (size 3 to 8) (size 9 to 14) (size 15 to 20)
#    1.500    2.500    0.000    0.750    0.000    3.500 
#    0.000    0.000    0.000    7.500    0.000    7.000 
#    0.000    0.000    0.000    0.000    0.000    0.000 
#
# Total GULP energy -178251.769372 kJ/mol
# GULP energy per Si atom -5570.367793 kJ/mol
# Density = 2.385772 g / cm^3
# Si number density = 23.912149 Si / 1000 Ang^3
#
#
#
# Elastic Constant Matrix: (Units=GPa)
#
#
# Indices 1 2 3 4 5 6 
#
# 1 83.8272 28.2452 39.0741 0.0000 0.0000 0.0000
# 2 28.2452 99.9908 109.9344 0.0000 0.0000 0.0000
# 3 39.0741 109.9344 203.3446 0.0000 0.0000 0.0000
# 4 0.0000 0.0000 0.0000 46.7706 0.0000 0.0000
# 5 0.0000 0.0000 0.0000 0.0000 -36.1407 0.0000
# 6 0.0000 0.0000 0.0000 0.0000 0.0000 19.7897
#
#
#
# Elastic Compliance Matrix: (Units=1/GPa)
#
#
# Indices 1 2 3 4 5 6 
#
# 1 0.013321 -0.002339 -0.001295 0.000000 0.000000 0.000000
# 2 -0.002339 0.025067 -0.013103 0.000000 0.000000 0.000000
# 3 -0.001295 -0.013103 0.012250 0.000000 0.000000 0.000000
# 4 0.000000 0.000000 0.000000 0.021381 0.000000 0.000000
# 5 0.000000 0.000000 0.000000 0.000000 -0.027670 0.000000
# 6 0.000000 0.000000 0.000000 0.000000 0.000000 0.050531
#
#
# Mechanical properties :
#
#
# Convention : Reuss Voigt Hill
#
# Bulk Modulus (GPa) = 58.25754 82.40777 70.33265
# Shear Modulus (GPa) = 37.29194 20.07782 28.68488
#
# Velocity S-wave (km/s) = 3.95338 2.90081 3.46727
# Velocity P-wave (km/s) = 6.72719 6.76440 6.74582
#
# Compressibility (1/GPa) = 0.01716516
#
# Stress axis : x y z
#
# Youngs Moduli (GPa) = 75.06866 39.89251 81.62974
#
# Poissons Ratio (x) = 0.09330 0.10574
# Poissons Ratio (y) = 0.17557 1.06958
# Poissons Ratio (z) = 0.09724 0.52270
#
# Static dielectric constant tensor:
#      x y z
#    x 2.008010 0.000000 0.000000 
#    y 0.000000 1.967110 0.000000 
#    z 0.000000 0.000000 1.877670 
# 
# From -- ./inp_files/13770.got.cif
#   From: 2010.05.17/outbox.cif.g08.bks.cpg/sg58_7_cif.got.tgz:13770.got - 2010.06.03 14:20:14.
