data_PCOD9440071
_publ_section_title
;
Structure prediction by ZEFSAII (Michael W. Deem and Ramdas Pophale) SiO2 
 PCOD9440071
Probable space group: P B C M
;
_chemical_formula_sum "Si O2"
_cell_formula_units_Z 48
_cell_length_a 11.069139
_cell_length_b 24.341586
_cell_length_c 8.014847
_cell_angle_alpha 90.000000
_cell_angle_beta 90.000000
_cell_angle_gamma 90.000000
_cell_volume 2159.523573
_symmetry_space_group_name_H-M "P B C M"
_symmetry_group_IT_number 57
_symmetry_cell_setting 'orthorhombic'
loop_
_space_group_symop_operation_xyz
x,y,z
-x,-y,1/2+z
x,1/2-y,-z
-x,1/2+y,1/2-z
-x,-y,-z
x,y,1/2-z
-x,1/2+y,z
x,1/2-y,1/2+z
loop_
_atom_site_type_symbol
_atom_site_label
_atom_site_fract_x
_atom_site_fract_y
_atom_site_fract_z
Si Si1 0.188928 0.520257 0.547600
Si Si2 0.438506 0.583268 0.549424
Si Si3 0.300539 0.413406 0.554635
Si Si4 0.823127 0.812031 0.443867
Si Si5 0.058388 0.625508 0.545326
Si Si6 0.303095 0.812504 0.049924
O O1 0.179734 0.517367 0.750000
O O2 0.317798 0.549198 0.510334
O O3 0.205681 0.458289 0.483831
O O4 0.086918 0.562979 0.488260
O O5 0.453287 0.581611 0.750000
O O6 0.563626 0.565075 0.469956
O O7 0.406089 0.645269 0.492899
O O8 0.278031 0.406976 0.750000
O O9 0.285723 0.354156 0.472414
O O10 0.804160 0.750000 0.500000
O O11 0.848356 0.807964 0.250000
O O12 0.939226 0.844029 0.519116
O O13 0.055693 0.623467 0.750000
O O14 0.173835 0.662614 0.496135
O O15 0.302603 0.815501 0.250000
O O16 0.319164 0.750000 0.000000
#
# Coordination Sequence:
#
# PCOD9440071 Si02
#       6
#     8   8   8   8   8   8
#     4   8  16  33  57  83 109 137 172 219 272 321
#     4   9  18  34  54  76 106 144 182 219 265 317
#     4  11  22  35  54  80 110 143 179 218 261 314
#     4  11  23  39  58  78 105 142 181 219 261 314
#     4   8  16  33  56  80 105 135 171 214 268 320
#     4   9  17  30  51  77 103 133 171 218 268 316
#
# _framework density 22.227124
#
# number of rings (size 3 to 8) (size 9 to 14) (size 15 to 20)
#    0.000    2.667    0.000    4.000    0.000    2.000 
#    0.000    3.333    0.000    7.000    0.000    0.000 
#    0.000    0.000    0.000    0.000    0.000    0.000 
#
# Total GULP energy -267876.474629 kJ/mol
# GULP energy per Si atom -5580.759888 kJ/mol
# Density = 2.217653 g / cm^3
# Si number density = 22.227124 Si / 1000 Ang^3
#
#
#
# Elastic Constant Matrix: (Units=GPa)
#
#
# Indices 1 2 3 4 5 6 
#
# 1 51.7435 4.5408 -3.4644 0.0000 0.0000 0.0000
# 2 4.5408 112.1534 10.7740 0.0000 0.0000 0.0000
# 3 -3.4644 10.7740 14.3039 0.0000 0.0000 0.0000
# 4 0.0000 0.0000 0.0000 9.2185 0.0000 0.0000
# 5 0.0000 0.0000 0.0000 0.0000 12.1859 0.0000
# 6 0.0000 0.0000 0.0000 0.0000 0.0000 22.5843
#
#
#
# Elastic Compliance Matrix: (Units=1/GPa)
#
#
# Indices 1 2 3 4 5 6 
#
# 1 0.019836 -0.001363 0.005831 0.000000 0.000000 0.000000
# 2 -0.001363 0.009706 -0.007641 0.000000 0.000000 0.000000
# 3 0.005831 -0.007641 0.077078 0.000000 0.000000 0.000000
# 4 0.000000 0.000000 0.000000 0.108477 0.000000 0.000000
# 5 0.000000 0.000000 0.000000 0.000000 0.082062 0.000000
# 6 0.000000 0.000000 0.000000 0.000000 0.000000 0.044279
#
#
# Mechanical properties :
#
#
# Convention : Reuss Voigt Hill
#
# Bulk Modulus (GPa) = 9.97261 22.43352 16.20307
# Shear Modulus (GPa) = 13.11617 19.88776 16.50196
#
# Velocity S-wave (km/s) = 2.43183 2.99449 2.72770
# Velocity P-wave (km/s) = 3.51873 4.69795 4.15043
#
# Compressibility (1/GPa) = 0.10027461
#
# Stress axis : x y z
#
# Youngs Moduli (GPa) = 50.41295 103.03379 12.97381
#
# Poissons Ratio (x) = 0.14047 -0.07565
# Poissons Ratio (y) = 0.06873 0.09913
# Poissons Ratio (z) = -0.29397 0.78724
#
# Static dielectric constant tensor:
#      x y z
#    x 1.841010 0.000000 0.000000 
#    y 0.000000 1.857540 0.000000 
#    z 0.000000 0.000000 1.782630 
# 
# From -- ./inp_files/3150.got.cif
#   From: 2010.05.17/outbox.cif.g08.bks.cpg/sg57_2_cif.got.tgz:3150.got - 2010.06.03 13:58:18.
