data_PCOD9440377
_publ_section_title
;
Structure prediction by ZEFSAII (Michael W. Deem and Ramdas Pophale) SiO2 
 PCOD9440377
Probable space group: P B C M
;
_chemical_formula_sum "Si O2"
_cell_formula_units_Z 48
_cell_length_a 11.575241
_cell_length_b 8.280834
_cell_length_c 23.218570
_cell_angle_alpha 90.000000
_cell_angle_beta 90.000000
_cell_angle_gamma 90.000000
_cell_volume 2225.561446
_symmetry_space_group_name_H-M "P B C M"
_symmetry_group_IT_number 57
_symmetry_cell_setting 'orthorhombic'
loop_
_space_group_symop_operation_xyz
x,y,z
-x,-y,1/2+z
x,1/2-y,-z
-x,1/2+y,1/2-z
-x,-y,-z
x,y,1/2-z
-x,1/2+y,z
x,1/2-y,1/2+z
loop_
_atom_site_type_symbol
_atom_site_label
_atom_site_fract_x
_atom_site_fract_y
_atom_site_fract_z
Si Si1 0.364703 0.180326 0.879830
Si Si2 0.968724 0.566342 0.680649
Si Si3 0.362590 0.995795 0.986913
Si Si4 0.637581 0.318484 0.093690
Si Si5 0.749480 0.121841 0.181714
Si Si6 0.815663 0.614824 0.319508
O O1 0.502605 0.180014 0.888537
O O2 0.303995 0.334182 0.850319
O O3 0.323880 0.141444 0.945619
O O4 0.329246 0.028599 0.839620
O O5 0.977300 0.561258 0.750000
O O6 0.878838 0.425788 0.663419
O O7 0.899107 0.729399 0.668375
O O8 0.097563 0.527446 0.660476
O O9 0.345273 0.840465 0.946172
O O10 0.318388 0.958842 0.050924
O O11 0.500000 0.000000 0.000000
O O12 0.703760 0.282090 0.151980
O O13 0.746084 0.134196 0.250000
O O14 0.796561 0.604513 0.250000
#
# Coordination Sequence:
#
# PCOD9440377 Si02
#       6
#     8   8   8   8   8   8
#     4   9  16  27  44  65  88 114 149 191 234 273
#     4   8  15  28  44  61  84 119 157 187 223 274
#     4   8  15  28  44  63  86 113 149 184 217 266
#     4   9  16  27  45  66  87 116 148 180 223 278
#     4   9  17  28  42  62  90 121 148 181 229 280
#     4   9  16  28  46  66  91 123 159 198 237 281
#
# _framework density 21.567591
#
# number of rings (size 3 to 8) (size 9 to 14) (size 15 to 20)
#    0.000    3.333    0.000    1.500    0.000    1.333 
#    0.000    5.000    0.000    3.000    0.000   16.333 
#    0.000    0.000    0.000    0.000    0.000    0.000 
#
# Total GULP energy -267382.669429 kJ/mol
# GULP energy per Si atom -5570.472280 kJ/mol
# Density = 2.151850 g / cm^3
# Si number density = 21.567591 Si / 1000 Ang^3
#
#
#
# Elastic Constant Matrix: (Units=GPa)
#
#
# Indices 1 2 3 4 5 6 
#
# 1 88.5003 18.3804 37.1299 0.0000 0.0000 0.0000
# 2 18.3804 28.0362 14.3455 0.0000 0.0000 0.0000
# 3 37.1299 14.3455 94.9843 0.0000 0.0000 0.0000
# 4 0.0000 0.0000 0.0000 30.5509 0.0000 0.0000
# 5 0.0000 0.0000 0.0000 0.0000 -15.4106 0.0000
# 6 0.0000 0.0000 0.0000 0.0000 0.0000 33.8102
#
#
#
# Elastic Compliance Matrix: (Units=1/GPa)
#
#
# Indices 1 2 3 4 5 6 
#
# 1 0.014775 -0.007295 -0.004674 0.000000 0.000000 0.000000
# 2 -0.007295 0.042257 -0.003530 0.000000 0.000000 0.000000
# 3 -0.004674 -0.003530 0.012888 0.000000 0.000000 0.000000
# 4 0.000000 0.000000 0.000000 0.032732 0.000000 0.000000
# 5 0.000000 0.000000 0.000000 0.000000 -0.064890 0.000000
# 6 0.000000 0.000000 0.000000 0.000000 0.000000 0.029577
#
#
# Mechanical properties :
#
#
# Convention : Reuss Voigt Hill
#
# Bulk Modulus (GPa) = 25.69245 39.02581 32.35913
# Shear Modulus (GPa) = 44.91830 19.23441 32.07636
#
# Velocity S-wave (km/s) = 4.56859 2.98958 3.86067
# Velocity P-wave (km/s) = 6.30616 5.48185 5.90840
#
# Compressibility (1/GPa) = 0.03892194
#
# Stress axis : x y z
#
# Youngs Moduli (GPa) = 67.67966 23.66455 77.58939
#
# Poissons Ratio (x) = 0.17264 0.36266
# Poissons Ratio (y) = 0.49373 0.27392
# Poissons Ratio (z) = 0.31634 0.08355
#
# Static dielectric constant tensor:
#      x y z
#    x 1.794110 0.000000 0.000000 
#    y 0.000000 1.968460 0.000000 
#    z 0.000000 0.000000 1.726430 
# 
# From -- ./inp_files/26674.got.cif
#   From: 2010.05.17/outbox.cif.g08.bks.cpg/sg57_14_cif.got.tgz:26674.got - 2010.06.03 13:58:18.
