data_PCOD9440306
_publ_section_title
;
Structure prediction by ZEFSAII (Michael W. Deem and Ramdas Pophale) SiO2 
 PCOD9440306
Probable space group: P B C M
;
_chemical_formula_sum "Si O2"
_cell_formula_units_Z 24
_cell_length_a 4.842758
_cell_length_b 9.800438
_cell_length_c 18.345915
_cell_angle_alpha 90.000000
_cell_angle_beta 90.000000
_cell_angle_gamma 90.000000
_cell_volume 870.718215
_symmetry_space_group_name_H-M "P B C M"
_symmetry_group_IT_number 57
_symmetry_cell_setting 'orthorhombic'
loop_
_space_group_symop_operation_xyz
x,y,z
-x,-y,1/2+z
x,1/2-y,-z
-x,1/2+y,1/2-z
-x,-y,-z
x,y,1/2-z
-x,1/2+y,z
x,1/2-y,1/2+z
loop_
_atom_site_type_symbol
_atom_site_label
_atom_site_fract_x
_atom_site_fract_y
_atom_site_fract_z
Si Si1 0.928746 0.250000 0.500000
Si Si2 0.428829 0.831699 0.250000
Si Si3 0.500000 0.500000 0.500000
Si Si4 0.262560 0.164702 0.370397
Si Si5 0.071761 0.515103 0.250000
O O1 0.740714 0.381542 0.506470
O O2 0.132018 0.265581 0.430964
O O3 0.525800 0.747334 0.179673
O O4 0.113560 0.877602 0.250000
O O5 0.613086 0.969555 0.250000
O O6 0.389134 0.455205 0.581391
O O7 0.028498 0.099351 0.319618
#
# Coordination Sequence:
#
# PCOD9440306 Si02
#       5
#     4   4   4   8   4
#     4  12  28  50  78 124 164 226 272 356 418 516
#     4  11  28  51  78 115 160 219 279 349 410 505
#     4  12  28  48  84 118 168 218 278 344 430 506
#     4  11  28  48  77 117 165 216 283 341 428 502
#     4  11  28  49  84 111 166 217 287 339 426 493
#
# _framework density 27.563452999999999
#
# number of rings (size 3 to 8) (size 9 to 14) (size 15 to 20)
#    0.000    0.667    0.000    4.000   18.667    2.667 
#    0.000    0.000    0.000    0.000    0.000    0.000 
#    0.000    0.000    0.000    0.000    0.000    0.000 
#
# Total GULP energy -134069.088952 kJ/mol
# GULP energy per Si atom -5586.212040 kJ/mol
# Density = 2.750072 g / cm^3
# Si number density = 27.563453 Si / 1000 Ang^3
#
#
#
# Elastic Constant Matrix: (Units=GPa)
#
#
# Indices 1 2 3 4 5 6 
#
# 1 101.4011 40.7668 34.9355 0.0000 0.0000 0.0000
# 2 40.7668 71.5924 25.7546 0.0000 0.0000 0.0000
# 3 34.9355 25.7546 170.0133 0.0000 0.0000 0.0000
# 4 0.0000 0.0000 0.0000 52.4627 0.0000 0.0000
# 5 0.0000 0.0000 0.0000 0.0000 5.8775 0.0000
# 6 0.0000 0.0000 0.0000 0.0000 0.0000 66.1847
#
#
#
# Elastic Compliance Matrix: (Units=1/GPa)
#
#
# Indices 1 2 3 4 5 6 
#
# 1 0.013222 -0.006929 -0.001667 0.000000 0.000000 0.000000
# 2 -0.006929 0.018404 -0.001364 0.000000 0.000000 0.000000
# 3 -0.001667 -0.001364 0.006431 0.000000 0.000000 0.000000
# 4 0.000000 0.000000 0.000000 0.019061 0.000000 0.000000
# 5 0.000000 0.000000 0.000000 0.000000 0.170142 0.000000
# 6 0.000000 0.000000 0.000000 0.000000 0.000000 0.015109
#
#
# Mechanical properties :
#
#
# Convention : Reuss Voigt Hill
#
# Bulk Modulus (GPa) = 55.13806 60.65784 57.89795
# Shear Modulus (GPa) = 18.63333 41.00832 29.82082
#
# Velocity S-wave (km/s) = 2.60285 3.86136 3.29279
# Velocity P-wave (km/s) = 5.39264 6.47569 5.95882
#
# Compressibility (1/GPa) = 0.01813629
#
# Stress axis : x y z
#
# Youngs Moduli (GPa) = 75.63131 54.33487 155.49335
#
# Poissons Ratio (x) = 0.37650 0.25925
# Poissons Ratio (y) = 0.52407 0.21211
# Poissons Ratio (z) = 0.12610 0.07412
#
# Static dielectric constant tensor:
#      x y z
#    x 2.259580 0.000000 0.000000 
#    y 0.000000 2.023860 0.000000 
#    z 0.000000 0.000000 2.051000 
# 
# From -- ./inp_files/19758.got.cif
#   From: 2010.05.17/outbox.cif.g08.bks.cpg/sg57_10_cif.got.tgz:19758.got - 2010.06.03 13:58:18.
