data_PCOD9440295
_publ_section_title
;
Structure prediction by ZEFSAII (Michael W. Deem and Ramdas Pophale) SiO2 
 PCOD9440295
Probable space group: P B C M
;
_chemical_formula_sum "Si O2"
_cell_formula_units_Z 40
_cell_length_a 5.397655
_cell_length_b 18.640273
_cell_length_c 18.126824
_cell_angle_alpha 90.000000
_cell_angle_beta 90.000000
_cell_angle_gamma 90.000000
_cell_volume 1823.807970
_symmetry_space_group_name_H-M "P B C M"
_symmetry_group_IT_number 57
_symmetry_cell_setting 'orthorhombic'
loop_
_space_group_symop_operation_xyz
x,y,z
-x,-y,1/2+z
x,1/2-y,-z
-x,1/2+y,1/2-z
-x,-y,-z
x,y,1/2-z
-x,1/2+y,z
x,1/2-y,1/2+z
loop_
_atom_site_type_symbol
_atom_site_label
_atom_site_fract_x
_atom_site_fract_y
_atom_site_fract_z
Si Si1 0.366684 0.868023 0.333083
Si Si2 0.317465 0.047623 0.950517
Si Si3 0.736337 0.277125 0.584702
Si Si4 0.772916 0.867592 0.909217
Si Si5 0.026691 0.494175 0.831288
O O1 0.469527 0.864214 0.250000
O O2 0.553246 0.899850 0.392821
O O3 0.284755 0.791053 0.361789
O O4 0.149547 0.927336 0.331971
O O5 0.183586 0.097675 0.009881
O O6 0.159033 0.995031 0.899656
O O7 0.500000 0.000000 0.000000
O O8 0.752459 0.250000 0.500000
O O9 0.486645 0.325137 0.590971
O O10 0.987697 0.318739 0.604854
O O11 0.774768 0.932795 0.850716
O O12 0.918498 0.481571 0.750000
#
# Coordination Sequence:
#
# PCOD9440295 Si02
#       5
#     8   8   8   8   8
#     4  11  26  46  72 105 148 196 244 305 373 440
#     4  12  23  45  74 111 141 188 252 310 367 438
#     4  12  26  46  70 107 144 191 245 301 369 436
#     4  12  26  45  76 105 144 191 246 304 363 439
#     4  11  26  46  72 106 146 192 244 304 373 440
#
# _framework density 21.932133
#
# number of rings (size 3 to 8) (size 9 to 14) (size 15 to 20)
#    0.000    0.400    4.000    4.200    2.800    1.600 
#    0.000    0.000    0.000    0.000    0.000    0.000 
#    0.000    0.000    0.000    0.000    0.000    0.000 
#
# Total GULP energy -223823.062193 kJ/mol
# GULP energy per Si atom -5595.576555 kJ/mol
# Density = 2.188221 g / cm^3
# Si number density = 21.932133 Si / 1000 Ang^3
#
#
#
# Elastic Constant Matrix: (Units=GPa)
#
#
# Indices 1 2 3 4 5 6 
#
# 1 84.3605 39.8107 23.5426 0.0000 0.0000 0.0000
# 2 39.8107 115.5975 56.6254 0.0000 0.0000 0.0000
# 3 23.5426 56.6254 143.9600 0.0000 0.0000 0.0000
# 4 0.0000 0.0000 0.0000 27.1601 0.0000 0.0000
# 5 0.0000 0.0000 0.0000 0.0000 50.8361 0.0000
# 6 0.0000 0.0000 0.0000 0.0000 0.0000 39.2118
#
#
#
# Elastic Compliance Matrix: (Units=1/GPa)
#
#
# Indices 1 2 3 4 5 6 
#
# 1 0.014182 -0.004643 -0.000493 0.000000 0.000000 0.000000
# 2 -0.004643 0.012235 -0.004053 0.000000 0.000000 0.000000
# 3 -0.000493 -0.004053 0.008621 0.000000 0.000000 0.000000
# 4 0.000000 0.000000 0.000000 0.036819 0.000000 0.000000
# 5 0.000000 0.000000 0.000000 0.000000 0.019671 0.000000
# 6 0.000000 0.000000 0.000000 0.000000 0.000000 0.025503
#
#
# Mechanical properties :
#
#
# Convention : Reuss Voigt Hill
#
# Bulk Modulus (GPa) = 60.02210 64.87503 62.44856
# Shear Modulus (GPa) = 35.47022 38.37088 36.92055
#
# Velocity S-wave (km/s) = 4.02589 4.18727 4.10738
# Velocity P-wave (km/s) = 7.00265 7.28161 7.14349
#
# Compressibility (1/GPa) = 0.01666053
#
# Stress axis : x y z
#
# Youngs Moduli (GPa) = 70.50954 81.73174 115.99089
#
# Poissons Ratio (x) = 0.37946 0.05720
# Poissons Ratio (y) = 0.32736 0.47015
# Poissons Ratio (z) = 0.03477 0.33129
#
# Static dielectric constant tensor:
#      x y z
#    x 1.894070 0.000000 0.000000 
#    y 0.000000 1.824020 0.000000 
#    z 0.000000 0.000000 1.772280 
# 
# From -- ./inp_files/19964.got.cif
#   From: 2010.05.17/outbox.cif.g08.bks.cpg/sg57_10_cif.got.tgz:19964.got - 2010.06.03 13:58:18.
