data_PCOD9440762
_publ_section_title
;
Structure prediction by ZEFSAII (Michael W. Deem and Ramdas Pophale) SiO2 
 PCOD9440762
Probable space group: P N N M
;
_chemical_formula_sum "Si O2"
_cell_formula_units_Z 56
_cell_length_a 14.025855
_cell_length_b 30.146137
_cell_length_c 8.649786
_cell_angle_alpha 90.000000
_cell_angle_beta 90.000000
_cell_angle_gamma 90.000000
_cell_volume 3657.348761
_symmetry_space_group_name_H-M "P N N M"
_symmetry_group_IT_number 58
_symmetry_cell_setting 'orthorhombic'
loop_
_space_group_symop_operation_xyz
x,y,z
-x,-y,z
1/2+x,1/2-y,1/2-z
1/2-x,1/2+y,1/2-z
-x,-y,-z
x,y,-z
1/2-x,1/2+y,1/2+z
1/2+x,1/2-y,1/2+z
loop_
_atom_site_type_symbol
_atom_site_label
_atom_site_fract_x
_atom_site_fract_y
_atom_site_fract_z
Si Si1 0.097860 0.769178 0.813825
Si Si2 0.888976 0.771682 0.685791
Si Si3 0.203873 0.683520 0.315335
Si Si4 0.615719 0.001875 0.321156
Si Si5 0.391167 0.096031 0.313748
Si Si6 0.285613 0.818797 0.187287
Si Si7 0.894766 0.594515 0.684657
O O1 0.134394 0.721579 0.752849
O O2 0.179611 0.804259 0.764391
O O3 0.994481 0.779777 0.747525
O O4 0.094943 0.767819 0.000000
O O5 0.886397 0.774540 0.500000
O O6 0.809206 0.804046 0.755617
O O7 0.855434 0.721781 0.730772
O O8 0.200309 0.685160 0.500000
O O9 0.169131 0.636057 0.255264
O O10 0.644175 0.007289 0.500000
O O11 0.645362 0.953030 0.264978
O O12 0.500000 0.000000 0.317853
O O13 0.643040 0.045721 0.228494
O O14 0.389624 0.097208 0.500000
O O15 0.500676 0.100366 0.258678
O O16 0.326376 0.865789 0.240149
O O17 0.284413 0.820006 0.000000
O O18 0.905218 0.597495 0.500000
#
# Coordination Sequence:
#
# PCOD9440762 Si02
#       7
#     8   8   8   8   8   8   8
#     4  10  19  33  49  66  92 124 155 188 227 268
#     4  10  19  33  49  67  93 122 154 191 228 267
#     4  11  21  32  47  69  93 120 156 191 228 274
#     4   8  16  29  42  60  89 121 150 183 227 275
#     4  10  19  31  45  63  91 124 154 188 230 273
#     4   8  17  30  44  64  91 120 148 181 220 263
#     4  10  17  27  45  68  93 121 153 188 225 268
#
# _framework density 15.311638
#
# number of rings (size 3 to 8) (size 9 to 14) (size 15 to 20)
#    0.000    2.429    0.000    5.571    0.000    4.286 
#    0.000    7.857    0.000    0.000    0.000    1.000 
#    0.000    8.000    0.000    0.000    0.000    0.000 
#
# Total GULP energy -312183.086263 kJ/mol
# GULP energy per Si atom -5574.697969 kJ/mol
# Density = 1.527679 g / cm^3
# Si number density = 15.311638 Si / 1000 Ang^3
#
#
#
# Elastic Constant Matrix: (Units=GPa)
#
#
# Indices 1 2 3 4 5 6 
#
# 1 94.7412 64.5440 30.6643 0.0000 0.0000 0.0000
# 2 64.5440 143.4741 39.3224 0.0000 0.0000 0.0000
# 3 30.6643 39.3224 63.8475 0.0000 0.0000 0.0000
# 4 0.0000 0.0000 0.0000 22.5319 0.0000 0.0000
# 5 0.0000 0.0000 0.0000 0.0000 18.6823 0.0000
# 6 0.0000 0.0000 0.0000 0.0000 0.0000 23.3730
#
#
#
# Elastic Compliance Matrix: (Units=1/GPa)
#
#
# Indices 1 2 3 4 5 6 
#
# 1 0.015992 -0.006123 -0.003910 0.000000 0.000000 0.000000
# 2 -0.006123 0.010729 -0.003668 0.000000 0.000000 0.000000
# 3 -0.003910 -0.003668 0.019799 0.000000 0.000000 0.000000
# 4 0.000000 0.000000 0.000000 0.044382 0.000000 0.000000
# 5 0.000000 0.000000 0.000000 0.000000 0.053527 0.000000
# 6 0.000000 0.000000 0.000000 0.000000 0.000000 0.042784
#
#
# Mechanical properties :
#
#
# Convention : Reuss Voigt Hill
#
# Bulk Modulus (GPa) = 52.30012 63.45824 57.87918
# Shear Modulus (GPa) = 22.62597 24.08623 23.35610
#
# Velocity S-wave (km/s) = 3.84825 3.97049 3.90985
# Velocity P-wave (km/s) = 7.34688 7.90912 7.63318
#
# Compressibility (1/GPa) = 0.01912041
#
# Stress axis : x y z
#
# Youngs Moduli (GPa) = 62.53314 93.20203 50.50823
#
# Poissons Ratio (x) = 0.57063 0.19747
# Poissons Ratio (y) = 0.38286 0.18524
# Poissons Ratio (z) = 0.24448 0.34182
#
# Static dielectric constant tensor:
#      x y z
#    x 1.485630 0.000000 0.000000 
#    y 0.000000 1.524230 0.000000 
#    z 0.000000 0.000000 1.516940 
# 
# From -- ./inp_files/7124.got.cif
#   From: 2010.05.17/outbox.cif.g08.bks.cpg/sg58_4_cif.got.tgz:7124.got - 2010.06.03 14:20:14.
