data_PCOD9440046
_publ_section_title
;
Structure prediction by ZEFSAII (Michael W. Deem and Ramdas Pophale) SiO2 
 PCOD9440046
Probable space group: P B C M
;
_chemical_formula_sum "Si O2"
_cell_formula_units_Z 48
_cell_length_a 17.183611
_cell_length_b 16.323894
_cell_length_c 8.507922
_cell_angle_alpha 90.000000
_cell_angle_beta 90.000000
_cell_angle_gamma 90.000000
_cell_volume 2386.501427
_symmetry_space_group_name_H-M "P B C M"
_symmetry_group_IT_number 57
_symmetry_cell_setting 'orthorhombic'
loop_
_space_group_symop_operation_xyz
x,y,z
-x,-y,1/2+z
x,1/2-y,-z
-x,1/2+y,1/2-z
-x,-y,-z
x,y,1/2-z
-x,1/2+y,z
x,1/2-y,1/2+z
loop_
_atom_site_type_symbol
_atom_site_label
_atom_site_fract_x
_atom_site_fract_y
_atom_site_fract_z
Si Si1 0.665080 0.098120 0.059198
Si Si2 0.181544 0.161976 0.437503
Si Si3 0.495747 0.341949 0.939162
Si Si4 0.336105 0.411555 0.061819
Si Si5 0.912116 0.499390 0.439104
Si Si6 0.172842 0.836602 0.561433
O O1 0.663436 0.100483 0.250000
O O2 0.579623 0.124729 0.005496
O O3 0.737197 0.153250 0.006949
O O4 0.681956 0.004736 0.013090
O O5 0.153957 0.250000 0.500000
O O6 0.178540 0.163874 0.250000
O O7 0.270390 0.146819 0.491036
O O8 0.132333 0.082549 0.492426
O O9 0.493763 0.344125 0.750000
O O10 0.487685 0.250000 0.000000
O O11 0.422592 0.391359 0.004841
O O12 0.333135 0.405669 0.250000
O O13 0.910825 0.498384 0.250000
O O14 0.871265 0.417058 0.501316
O O15 0.000000 0.500000 0.500000
O O16 0.141505 0.750000 0.500000
O O17 0.170656 0.836608 0.750000
#
# Coordination Sequence:
#
# PCOD9440046 Si02
#       6
#     8   8   8   8   8   8
#     4   9  20  37  60  87 120 162 210 259 313 368
#     4  11  24  42  66  96 127 165 211 258 313 376
#     4  11  22  37  54  82 120 161 210 261 310 367
#     4  11  21  38  61  87 120 163 209 259 315 370
#     4  11  25  45  69  98 130 166 208 259 318 382
#     4  11  22  41  67  97 131 170 213 262 316 379
#
# _framework density 20.113123000000002
#
# number of rings (size 3 to 8) (size 9 to 14) (size 15 to 20)
#    0.000    1.333    1.667    4.000    0.000    2.667 
#    0.000    6.667    0.000    0.000    0.000    0.000 
#    0.000    0.000    0.000    0.000    0.000    0.000 
#
# Total GULP energy -268328.088989 kJ/mol
# GULP energy per Si atom -5590.168521 kJ/mol
# Density = 2.006734 g / cm^3
# Si number density = 20.113123 Si / 1000 Ang^3
#
#
#
# Elastic Constant Matrix: (Units=GPa)
#
#
# Indices 1 2 3 4 5 6 
#
# 1 118.5727 50.7609 21.2521 0.0000 0.0000 0.0000
# 2 50.7609 148.8883 34.0124 0.0000 0.0000 0.0000
# 3 21.2521 34.0124 55.5393 0.0000 0.0000 0.0000
# 4 0.0000 0.0000 0.0000 19.8612 0.0000 0.0000
# 5 0.0000 0.0000 0.0000 0.0000 26.9536 0.0000
# 6 0.0000 0.0000 0.0000 0.0000 0.0000 13.5436
#
#
#
# Elastic Compliance Matrix: (Units=1/GPa)
#
#
# Indices 1 2 3 4 5 6 
#
# 1 0.010069 -0.002968 -0.002035 0.000000 0.000000 0.000000
# 2 -0.002968 0.008684 -0.004182 0.000000 0.000000 0.000000
# 3 -0.002035 -0.004182 0.021345 0.000000 0.000000 0.000000
# 4 0.000000 0.000000 0.000000 0.050350 0.000000 0.000000
# 5 0.000000 0.000000 0.000000 0.000000 0.037101 0.000000
# 6 0.000000 0.000000 0.000000 0.000000 0.000000 0.073836
#
#
# Mechanical properties :
#
#
# Convention : Reuss Voigt Hill
#
# Bulk Modulus (GPa) = 46.02566 59.45012 52.73789
# Shear Modulus (GPa) = 22.02668 26.53666 24.28167
#
# Velocity S-wave (km/s) = 3.31288 3.63625 3.47833
# Velocity P-wave (km/s) = 6.12916 6.87400 6.51224
#
# Compressibility (1/GPa) = 0.02172701
#
# Stress axis : x y z
#
# Youngs Moduli (GPa) = 99.31474 115.15826 46.84870
#
# Poissons Ratio (x) = 0.34178 0.09535
# Poissons Ratio (y) = 0.29476 0.19593
# Poissons Ratio (z) = 0.20214 0.48162
#
# Static dielectric constant tensor:
#      x y z
#    x 1.712160 0.000000 0.000000 
#    y 0.000000 1.705840 0.000000 
#    z 0.000000 0.000000 1.683310 
# 
# From -- ./inp_files/6558.got.cif
#   From: 2010.05.17/outbox.cif.g08.bks.cpg/sg57_4_cif.got.tgz:6558.got - 2010.06.03 13:58:18.
