data_PCOD9440804
_publ_section_title
;
Structure prediction by ZEFSAII (Michael W. Deem and Ramdas Pophale) SiO2 
 PCOD9440804
Probable space group: P N N M
;
_chemical_formula_sum "Si O2"
_cell_formula_units_Z 64
_cell_length_a 23.987772
_cell_length_b 19.708084
_cell_length_c 8.614311
_cell_angle_alpha 90.000000
_cell_angle_beta 90.000000
_cell_angle_gamma 90.000000
_cell_volume 4072.441588
_symmetry_space_group_name_H-M "P N N M"
_symmetry_group_IT_number 58
_symmetry_cell_setting 'orthorhombic'
loop_
_space_group_symop_operation_xyz
x,y,z
-x,-y,z
1/2+x,1/2-y,1/2-z
1/2-x,1/2+y,1/2-z
-x,-y,-z
x,y,-z
1/2-x,1/2+y,1/2+z
1/2+x,1/2-y,1/2+z
loop_
_atom_site_type_symbol
_atom_site_label
_atom_site_fract_x
_atom_site_fract_y
_atom_site_fract_z
Si Si1 0.767891 0.349230 0.187601
Si Si2 0.063250 0.862305 0.687242
Si Si3 0.161952 0.231631 0.815508
Si Si4 0.064419 0.144740 0.311954
Si Si5 0.619571 0.497518 0.811094
Si Si6 0.224304 0.357173 0.314499
Si Si7 0.336774 0.278140 0.313344
Si Si8 0.749406 0.500396 0.187452
O O1 0.710510 0.318459 0.252879
O O2 0.816936 0.297357 0.232709
O O3 0.774202 0.427397 0.233449
O O4 0.763139 0.346986 0.000000
O O5 0.063179 0.863794 0.500000
O O6 0.086656 0.935515 0.741081
O O7 0.106566 0.805602 0.742030
O O8 0.999805 0.850902 0.738197
O O9 0.103745 0.203720 0.751824
O O10 0.179036 0.306035 0.755637
O O11 0.162215 0.230690 0.000000
O O12 0.066185 0.146453 0.500000
O O13 0.090408 0.072282 0.261873
O O14 0.684217 0.500496 0.763846
O O15 0.618974 0.497469 0.000000
O O16 0.221314 0.353506 0.500000
O O17 0.285152 0.327190 0.266984
O O18 0.221156 0.434042 0.257645
O O19 0.341042 0.280309 0.500000
O O20 0.750905 0.505301 0.000000
#
# Coordination Sequence:
#
# PCOD9440804 Si02
#       8
#     8   8   8   8   8   8   8   8
#     4   9  18  33  50  69  96 131 161 195 246 294
#     4  10  19  30  48  70  93 127 171 204 233 277
#     4  11  21  32  48  70  94 124 165 207 241 282
#     4  10  19  33  49  66  94 133 168 200 240 285
#     4   9  16  28  46  68  96 129 165 199 228 272
#     4  10  20  33  49  69  97 128 158 196 248 295
#     4   9  18  31  46  65  94 128 159 194 239 285
#     4  10  17  29  51  73  96 127 163 198 235 286
#
# _framework density 15.715388000000001
#
# number of rings (size 3 to 8) (size 9 to 14) (size 15 to 20)
#    0.000    2.250    2.500    2.625    0.000    4.500 
#    0.000    0.625    0.000    1.500    0.000    0.875 
#    0.000    7.000    0.000    0.000    0.000    0.000 
#
# Total GULP energy -356972.219816 kJ/mol
# GULP energy per Si atom -5577.690935 kJ/mol
# Density = 1.567962 g / cm^3
# Si number density = 15.715388 Si / 1000 Ang^3
#
#
#
# Elastic Constant Matrix: (Units=GPa)
#
#
# Indices 1 2 3 4 5 6 
#
# 1 93.0574 67.0596 19.3748 0.0000 0.0000 0.0000
# 2 67.0596 143.5088 30.3623 0.0000 0.0000 0.0000
# 3 19.3748 30.3623 16.3628 0.0000 0.0000 0.0000
# 4 0.0000 0.0000 0.0000 22.7851 0.0000 0.0000
# 5 0.0000 0.0000 0.0000 0.0000 15.0370 0.0000
# 6 0.0000 0.0000 0.0000 0.0000 0.0000 21.2676
#
#
#
# Elastic Compliance Matrix: (Units=1/GPa)
#
#
# Indices 1 2 3 4 5 6 
#
# 1 0.016945 -0.006047 -0.008843 0.000000 0.000000 0.000000
# 2 -0.006047 0.013630 -0.018131 0.000000 0.000000 0.000000
# 3 -0.008843 -0.018131 0.105228 0.000000 0.000000 0.000000
# 4 0.000000 0.000000 0.000000 0.043888 0.000000 0.000000
# 5 0.000000 0.000000 0.000000 0.000000 0.066503 0.000000
# 6 0.000000 0.000000 0.000000 0.000000 0.000000 0.047020
#
#
# Mechanical properties :
#
#
# Convention : Reuss Voigt Hill
#
# Bulk Modulus (GPa) = 14.33473 54.05804 34.19639
# Shear Modulus (GPa) = 13.07154 20.89342 16.98248
#
# Velocity S-wave (km/s) = 2.88717 3.65017 3.29086
# Velocity P-wave (km/s) = 4.50062 7.22757 6.02052
#
# Compressibility (1/GPa) = 0.06976065
#
# Stress axis : x y z
#
# Youngs Moduli (GPa) = 59.01449 73.36768 9.50314
#
# Poissons Ratio (x) = 0.44367 0.08404
# Poissons Ratio (y) = 0.35687 0.17230
# Poissons Ratio (z) = 0.52187 1.33023
#
# Static dielectric constant tensor:
#      x y z
#    x 1.502650 0.000000 0.000000 
#    y 0.000000 1.528690 0.000000 
#    z 0.000000 0.000000 1.536280 
# 
# From -- ./inp_files/8473.got.cif
#   From: 2010.05.17/outbox.cif.g08.bks.cpg/sg58_5_cif.got.tgz:8473.got - 2010.06.03 14:20:14.
