data_PCOD9440554
_publ_section_title
;
Structure prediction by ZEFSAII (Michael W. Deem and Ramdas Pophale) SiO2 
 PCOD9440554
Probable space group: P B C M
;
_chemical_formula_sum "Si O2"
_cell_formula_units_Z 48
_cell_length_a 9.000000
_cell_length_b 30.000000
_cell_length_c 9.000000
_cell_angle_alpha 90.000000
_cell_angle_beta 90.000000
_cell_angle_gamma 90.000000
_cell_volume 2430.000000
_symmetry_space_group_name_H-M "P B C M"
_symmetry_group_IT_number 57
_symmetry_cell_setting 'orthorhombic'
loop_
_space_group_symop_operation_xyz
x,y,z
-x,-y,1/2+z
x,1/2-y,-z
-x,1/2+y,1/2-z
-x,-y,-z
x,y,1/2-z
-x,1/2+y,z
x,1/2-y,1/2+z
loop_
_atom_site_type_symbol
_atom_site_label
_atom_site_fract_x
_atom_site_fract_y
_atom_site_fract_z
Si Si1 0.916280 0.618988 0.072090
Si Si2 0.412341 0.794107 0.424372
Si Si3 0.235570 0.883385 0.074008
Si Si4 0.875530 0.524741 0.087448
Si Si5 0.591263 0.463945 0.413187
Si Si6 0.268028 0.203432 0.429495
O O1 -0.079550 0.624273 0.250000
O O2 0.829879 0.573437 0.030532
O O3 0.834833 0.663029 0.017023
O O4 0.080525 0.612593 0.008621
O O5 0.349177 0.750000 0.500000
O O6 0.444479 0.786707 0.250000
O O7 0.298768 0.834191 0.438552
O O8 0.565647 0.804039 0.509588
O O9 0.215599 0.893841 0.250000
O O10 0.362289 0.917199 0.016144
O O11 0.939095 0.533747 0.250000
O O12 0.744931 0.490184 0.099997
O O13 0.000000 0.500000 0.000000
O O14 0.500000 0.500000 0.500000
O O15 0.524964 0.455863 0.250000
O O16 0.217035 0.250000 0.500000
O O17 0.269809 0.205975 0.250000
#
# Coordination Sequence:
#
# PCOD9440554 Si02
#       6
#     8   8   8   8   8   8
#     4  10  22  37  57  85 112 145 186 228 276 329
#     4  10  21  38  59  83 111 145 185 227 278 331
#     4  10  22  39  57  82 114 147 185 230 276 328
#     4  10  20  37  58  81 112 147 185 226 272 324
#     4  10  22  38  56  82 114 147 186 229 274 326
#     4  10  21  38  59  84 113 144 184 229 277 331
#
# _framework density 19.753086
#
# number of rings (size 3 to 8) (size 9 to 14) (size 15 to 20)
#    0.000    2.000    1.667    2.000    2.333    4.667 
#    0.000    3.333    0.000    0.000    0.000    0.000 
#    0.000    0.000    0.000    0.000    0.000    0.000 
#
# Total GULP energy -267275.829863 kJ/mol
# GULP energy per Si atom -5568.246455 kJ/mol
# Density = 1.970813 g / cm^3
# Si number density = 19.753086 Si / 1000 Ang^3
#
#
#
# Elastic Constant Matrix: (Units=GPa)
#
#
# Indices 1 2 3 4 5 6 
#
# 1 1.9175 13.3989 6.2618 0.0000 0.0000 0.0000
# 2 13.3989 106.3557 18.8937 0.0000 0.0000 0.0000
# 3 6.2618 18.8937 28.8740 0.0000 0.0000 0.0000
# 4 0.0000 0.0000 0.0000 24.9217 0.0000 0.0000
# 5 0.0000 0.0000 0.0000 0.0000 19.9020 0.0000
# 6 0.0000 0.0000 0.0000 0.0000 0.0000 29.6374
#
#
#
# Elastic Compliance Matrix: (Units=1/GPa)
#
#
# Indices 1 2 3 4 5 6 
#
# 1 -2.770454 0.274163 0.421418 0.000000 0.000000 0.000000
# 2 0.274163 -0.016492 -0.048665 0.000000 0.000000 0.000000
# 3 0.421418 -0.048665 -0.024914 0.000000 0.000000 0.000000
# 4 0.000000 0.000000 0.000000 0.040126 0.000000 0.000000
# 5 0.000000 0.000000 0.000000 0.000000 0.050246 0.000000
# 6 0.000000 0.000000 0.000000 0.000000 0.000000 0.033741
#
#
# Mechanical properties :
#
#
# Convention : Reuss Voigt Hill
#
# Bulk Modulus (GPa) = -0.65875 23.80620 11.57372
# Shear Modulus (GPa) = -1.11418 21.46508 10.17545
#
# Velocity S-wave (km/s) = -0.75185 3.30004 2.27211
# Velocity P-wave (km/s) = 1.04304 5.15737 3.57145
#
# Compressibility (1/GPa) = -1.51802841
#
# Stress axis : x y z
#
# Youngs Moduli (GPa) = -0.36095 -60.63598 -40.13837
#
# Poissons Ratio (x) = 16.62412 16.91503
# Poissons Ratio (y) = 0.09896 -1.95334
# Poissons Ratio (z) = 0.15211 -2.95085
#
# Static dielectric constant tensor:
#      x y z
#    x 1.670050 0.000000 0.000000 
#    y 0.000000 1.782750 0.000000 
#    z 0.000000 0.000000 1.713170 
# 
# From -- ./inp_files/1999.got.cif
#   From: 2010.05.17/outbox.ucp.g08.bks.cvg/sg57_1_cif.got.tgz:1999.got - 2010.06.11 16:39:23.
