data_PCOD9440358
_publ_section_title
;
Structure prediction by ZEFSAII (Michael W. Deem and Ramdas Pophale) SiO2 
 PCOD9440358
Probable space group: P B C M
;
_chemical_formula_sum "Si O2"
_cell_formula_units_Z 40
_cell_length_a 11.706516
_cell_length_b 8.397276
_cell_length_c 17.808202
_cell_angle_alpha 90.000000
_cell_angle_beta 90.000000
_cell_angle_gamma 90.000000
_cell_volume 1750.596936
_symmetry_space_group_name_H-M "P B C M"
_symmetry_group_IT_number 57
_symmetry_cell_setting 'orthorhombic'
loop_
_space_group_symop_operation_xyz
x,y,z
-x,-y,1/2+z
x,1/2-y,-z
-x,1/2+y,1/2-z
-x,-y,-z
x,y,1/2-z
-x,1/2+y,z
x,1/2-y,1/2+z
loop_
_atom_site_type_symbol
_atom_site_label
_atom_site_fract_x
_atom_site_fract_y
_atom_site_fract_z
Si Si1 0.832528 0.082522 0.031387
Si Si2 0.839507 0.564223 0.373821
Si Si3 0.949438 0.901256 0.166247
Si Si4 0.601056 0.693503 0.336570
Si Si5 0.417590 0.512821 0.427187
O O1 0.898271 0.014825 0.102532
O O2 0.699445 0.099528 0.051905
O O3 0.840372 0.957651 0.963220
O O4 0.877876 0.250000 0.000000
O O5 0.709729 0.578024 0.346922
O O6 0.914107 0.420301 0.340533
O O7 0.901747 0.725728 0.348338
O O8 0.914390 0.949960 0.250000
O O9 0.595349 0.744860 0.250000
O O10 0.487943 0.604220 0.363492
O O11 0.615628 0.841157 0.393416
O O12 0.500000 0.500000 0.500000
#
# Coordination Sequence:
#
# PCOD9440358 Si02
#       5
#     8   8   8   8   8
#     4  12  26  47  75 109 146 201 253 306 365 449
#     4  12  26  48  76 108 150 197 249 304 373 444
#     4  12  26  47  76 109 151 196 245 311 377 436
#     4  12  26  47  75 109 150 193 245 309 374 437
#     4  12  25  46  75 105 147 194 246 303 369 444
#
# _framework density 22.849347000000002
#
# number of rings (size 3 to 8) (size 9 to 14) (size 15 to 20)
#    0.000    0.000    4.000    6.600    0.000    0.800 
#    0.000    2.000    0.000    0.000    0.000    0.000 
#    0.000    0.000    0.000    0.000    0.000    0.000 
#
# Total GULP energy -224181.563317 kJ/mol
# GULP energy per Si atom -5604.539083 kJ/mol
# Density = 2.279734 g / cm^3
# Si number density = 22.849347 Si / 1000 Ang^3
#
#
#
# Elastic Constant Matrix: (Units=GPa)
#
#
# Indices 1 2 3 4 5 6 
#
# 1 84.2977 1.7250 26.9578 0.0000 0.0000 0.0000
# 2 1.7250 34.9174 14.2533 0.0000 0.0000 0.0000
# 3 26.9578 14.2533 176.8306 0.0000 0.0000 0.0000
# 4 0.0000 0.0000 0.0000 21.0285 0.0000 0.0000
# 5 0.0000 0.0000 0.0000 0.0000 16.7147 0.0000
# 6 0.0000 0.0000 0.0000 0.0000 0.0000 37.7052
#
#
#
# Elastic Compliance Matrix: (Units=1/GPa)
#
#
# Indices 1 2 3 4 5 6 
#
# 1 0.012472 0.000165 -0.001915 0.000000 0.000000 0.000000
# 2 0.000165 0.029616 -0.002412 0.000000 0.000000 0.000000
# 3 -0.001915 -0.002412 0.006141 0.000000 0.000000 0.000000
# 4 0.000000 0.000000 0.000000 0.047555 0.000000 0.000000
# 5 0.000000 0.000000 0.000000 0.000000 0.059828 0.000000
# 6 0.000000 0.000000 0.000000 0.000000 0.000000 0.026522
#
#
# Mechanical properties :
#
#
# Convention : Reuss Voigt Hill
#
# Bulk Modulus (GPa) = 25.05920 42.43533 33.74726
# Shear Modulus (GPa) = 24.53899 31.96364 28.25131
#
# Velocity S-wave (km/s) = 3.28067 3.74423 3.52009
# Velocity P-wave (km/s) = 5.03402 6.10773 5.59668
#
# Compressibility (1/GPa) = 0.03990551
#
# Stress axis : x y z
#
# Youngs Moduli (GPa) = 80.18205 33.76601 162.82771
#
# Poissons Ratio (x) = -0.00559 0.31175
# Poissons Ratio (y) = -0.01326 0.39280
# Poissons Ratio (z) = 0.15352 0.08146
#
# Static dielectric constant tensor:
#      x y z
#    x 1.854820 0.000000 0.000000 
#    y 0.000000 1.865080 0.000000 
#    z 0.000000 0.000000 1.829950 
# 
# From -- ./inp_files/21610.got.cif
#   From: 2010.05.17/outbox.cif.g08.bks.cpg/sg57_11_cif.got.tgz:21610.got - 2010.06.03 13:58:18.
