data_PCOD9440181
_publ_section_title
;
Structure prediction by ZEFSAII (Michael W. Deem and Ramdas Pophale) SiO2 
 PCOD9440181
Probable space group: P B C M
;
_chemical_formula_sum "Si O2"
_cell_formula_units_Z 48
_cell_length_a 4.685806
_cell_length_b 13.697448
_cell_length_c 30.615925
_cell_angle_alpha 90.000000
_cell_angle_beta 90.000000
_cell_angle_gamma 90.000000
_cell_volume 1965.039795
_symmetry_space_group_name_H-M "P B C M"
_symmetry_group_IT_number 57
_symmetry_cell_setting 'orthorhombic'
loop_
_space_group_symop_operation_xyz
x,y,z
-x,-y,1/2+z
x,1/2-y,-z
-x,1/2+y,1/2-z
-x,-y,-z
x,y,1/2-z
-x,1/2+y,z
x,1/2-y,1/2+z
loop_
_atom_site_type_symbol
_atom_site_label
_atom_site_fract_x
_atom_site_fract_y
_atom_site_fract_z
Si Si1 0.618390 0.847107 0.982987
Si Si2 0.144808 0.894004 0.570653
Si Si3 0.466506 0.910903 0.423891
Si Si4 0.800400 0.407110 0.834099
Si Si5 0.911780 0.623285 0.637478
Si Si6 0.257351 0.293510 0.700949
O O1 0.364715 0.818455 0.950161
O O2 0.867881 0.907879 0.959268
O O3 0.768317 0.750000 0.000000
O O4 0.452023 0.891413 0.024511
O O5 0.067430 0.869664 0.619821
O O6 0.805757 0.094314 0.608758
O O7 0.351782 0.987799 0.574867
O O8 0.693500 0.841166 0.399854
O O9 0.789235 0.523845 0.840038
O O10 0.517554 0.345430 0.824504
O O11 0.022992 0.378483 0.797520
O O12 0.895530 0.704317 0.675211
O O13 0.344656 0.264269 0.750000
#
# Coordination Sequence:
#
# PCOD9440181 Si02
#       6
#     8   8   8   8   8   8
#     4  12  25  37  63 104 141 187 244 301 353 419
#     4  11  23  43  64  94 141 194 240 296 360 425
#     4  11  23  43  69  98 140 192 240 295 356 424
#     4  11  25  47  73 103 143 191 236 296 369 439
#     4  11  25  46  73 106 141 189 243 299 367 440
#     4  12  27  46  75 108 142 185 235 304 377 448
#
# _framework density 24.426987
#
# number of rings (size 3 to 8) (size 9 to 14) (size 15 to 20)
#    0.000    0.667    0.000    9.000    7.000    1.333 
#    0.000    0.000    0.000    0.000    0.000    0.000 
#    0.000    0.000    0.000    0.000    0.000    0.000 
#
# Total GULP energy -267782.996428 kJ/mol
# GULP energy per Si atom -5578.812426 kJ/mol
# Density = 2.437139 g / cm^3
# Si number density = 24.426987 Si / 1000 Ang^3
#
#
#
# Elastic Constant Matrix: (Units=GPa)
#
#
# Indices 1 2 3 4 5 6 
#
# 1 138.8105 32.2865 47.6814 0.0000 0.0000 0.0000
# 2 32.2865 100.1474 57.8031 0.0000 0.0000 0.0000
# 3 47.6814 57.8031 155.6520 0.0000 0.0000 0.0000
# 4 0.0000 0.0000 0.0000 16.0239 0.0000 0.0000
# 5 0.0000 0.0000 0.0000 0.0000 -44.4290 0.0000
# 6 0.0000 0.0000 0.0000 0.0000 0.0000 30.9678
#
#
#
# Elastic Compliance Matrix: (Units=1/GPa)
#
#
# Indices 1 2 3 4 5 6 
#
# 1 0.008230 -0.001525 -0.001955 0.000000 0.000000 0.000000
# 2 -0.001525 0.012992 -0.004358 0.000000 0.000000 0.000000
# 3 -0.001955 -0.004358 0.008642 0.000000 0.000000 0.000000
# 4 0.000000 0.000000 0.000000 0.062407 0.000000 0.000000
# 5 0.000000 0.000000 0.000000 0.000000 -0.022508 0.000000
# 6 0.000000 0.000000 0.000000 0.000000 0.000000 0.032292
#
#
# Mechanical properties :
#
#
# Convention : Reuss Voigt Hill
#
# Bulk Modulus (GPa) = 70.47701 74.46132 72.46916
# Shear Modulus (GPa) = 40.82995 17.63513 29.23254
#
# Velocity S-wave (km/s) = 4.09285 2.68983 3.46313
# Velocity P-wave (km/s) = 7.15891 6.34006 6.76189
#
# Compressibility (1/GPa) = 0.01418902
#
# Stress axis : x y z
#
# Youngs Moduli (GPa) = 121.50259 76.97015 115.71844
#
# Poissons Ratio (x) = 0.11738 0.22621
# Poissons Ratio (y) = 0.18530 0.50425
# Poissons Ratio (z) = 0.23752 0.33540
#
# Static dielectric constant tensor:
#      x y z
#    x 1.974910 0.000000 0.000000 
#    y 0.000000 2.079980 0.000000 
#    z 0.000000 0.000000 2.221560 
# 
# From -- ./inp_files/29118.got.cif
#   From: 2010.05.17/outbox.cif.g08.bks.cpg/sg57_15_cif.got.tgz:29118.got - 2010.06.03 13:58:18.
