data_PCOD9440504
_publ_section_title
;
Structure prediction by ZEFSAII (Michael W. Deem and Ramdas Pophale) SiO2 
 PCOD9440504
Probable space group: P B C M
;
_chemical_formula_sum "Si O2"
_cell_formula_units_Z 64
_cell_length_a 15.000000
_cell_length_b 24.000000
_cell_length_c 9.000000
_cell_angle_alpha 90.000000
_cell_angle_beta 90.000000
_cell_angle_gamma 90.000000
_cell_volume 3240.000000
_symmetry_space_group_name_H-M "P B C M"
_symmetry_group_IT_number 57
_symmetry_cell_setting 'orthorhombic'
loop_
_space_group_symop_operation_xyz
x,y,z
-x,-y,1/2+z
x,1/2-y,-z
-x,1/2+y,1/2-z
-x,-y,-z
x,y,1/2-z
-x,1/2+y,z
x,1/2-y,1/2+z
loop_
_atom_site_type_symbol
_atom_site_label
_atom_site_fract_x
_atom_site_fract_y
_atom_site_fract_z
Si Si1 0.341161 0.099777 0.572469
Si Si2 0.543399 0.805857 0.573090
Si Si3 0.190667 0.808395 0.421289
Si Si4 0.331600 0.975331 0.927636
Si Si5 0.855868 0.023279 0.578903
Si Si6 0.637107 0.142527 0.428748
Si Si7 0.843952 0.891268 0.918931
Si Si8 0.015415 0.617223 0.578283
O O1 0.351725 0.103033 0.750000
O O2 0.404091 0.141774 0.488267
O O3 0.240339 0.114851 0.525591
O O4 0.358597 0.036368 0.518454
O O5 0.578899 0.750000 0.500000
O O6 0.548863 0.802943 0.750000
O O7 0.440835 0.815739 0.527944
O O8 0.180030 0.750000 0.500000
O O9 0.214930 0.800529 0.250000
O O10 0.270172 0.840811 0.500325
O O11 0.098501 0.841481 0.429323
O O12 0.333041 0.978179 0.750000
O O13 0.385991 0.920969 0.974713
O O14 0.230465 0.965380 0.980254
O O15 0.837342 0.041142 0.750000
O O16 0.941037 0.058397 0.529566
O O17 0.866742 0.957193 0.579319
O O18 0.644789 0.143521 0.250000
O O19 0.821906 0.875249 0.750000
O O20 0.933025 0.863470 0.980132
O O21 0.985717 0.611400 0.750000
#
# Coordination Sequence:
#
# PCOD9440504 Si02
#       8
#     8   8   8   8   8   8   8   8
#     4  10  21  39  61  86 119 155 192 239 292 345
#     4  11  24  42  63  87 114 148 194 244 291 344
#     4  11  23  38  57  81 114 155 196 241 289 342
#     4   9  18  33  56  87 121 155 189 229 285 347
#     4   9  17  31  50  79 116 151 188 231 279 337
#     4  10  21  38  61  89 120 151 189 236 287 347
#     4  10  20  33  55  84 114 149 190 236 287 340
#     4  10  20  34  52  78 113 151 192 236 285 339
#
# _framework density 19.753086
#
# number of rings (size 3 to 8) (size 9 to 14) (size 15 to 20)
#    0.000    2.000    1.250    2.250    0.000    5.000 
#    0.000    0.625    0.000    1.500    0.000    0.000 
#    0.000    0.000    0.000    0.000    0.000    0.000 
#
# Total GULP energy -356983.058200 kJ/mol
# GULP energy per Si atom -5577.860284 kJ/mol
# Density = 1.970813 g / cm^3
# Si number density = 19.753086 Si / 1000 Ang^3
#
#
#
# Elastic Constant Matrix: (Units=GPa)
#
#
# Indices 1 2 3 4 5 6 
#
# 1 29.6853 43.6544 12.6803 0.0000 0.0000 0.0000
# 2 43.6544 33.4228 30.7213 0.0000 0.0000 0.0000
# 3 12.6803 30.7213 15.7330 0.0000 0.0000 0.0000
# 4 0.0000 0.0000 0.0000 18.8032 0.0000 0.0000
# 5 0.0000 0.0000 0.0000 0.0000 24.7816 0.0000
# 6 0.0000 0.0000 0.0000 0.0000 0.0000 1.1747
#
#
#
# Elastic Compliance Matrix: (Units=1/GPa)
#
#
# Indices 1 2 3 4 5 6 
#
# 1 0.030392 0.021616 -0.066703 0.000000 0.000000 0.000000
# 2 0.021616 -0.022269 0.026063 0.000000 0.000000 0.000000
# 3 -0.066703 0.026063 0.066429 0.000000 0.000000 0.000000
# 4 0.000000 0.000000 0.000000 0.053183 0.000000 0.000000
# 5 0.000000 0.000000 0.000000 0.000000 0.040353 0.000000
# 6 0.000000 0.000000 0.000000 0.000000 0.000000 0.851273
#
#
# Mechanical properties :
#
#
# Convention : Reuss Voigt Hill
#
# Bulk Modulus (GPa) = 27.39516 28.10587 27.75051
# Shear Modulus (GPa) = 4.67475 8.40423 6.53949
#
# Velocity S-wave (km/s) = 1.54004 2.06492 1.82148
# Velocity P-wave (km/s) = 4.13052 4.46594 4.30150
#
# Compressibility (1/GPa) = 0.03650280
#
# Stress axis : x y z
#
# Youngs Moduli (GPa) = 32.90317 -44.90500 15.05368
#
# Poissons Ratio (x) = 0.97065 1.00413
# Poissons Ratio (y) = -0.71122 -0.39234
# Poissons Ratio (z) = 2.19474 1.17036
#
# Static dielectric constant tensor:
#      x y z
#    x 1.684590 0.000000 0.000000 
#    y 0.000000 1.799260 0.000000 
#    z 0.000000 0.000000 1.724190 
# 
# From -- ./inp_files/5699.got.cif
#   From: 2010.05.17/outbox.ucp.g08.bks.cvg/sg57_3_cif.got.tgz:5699.got - 2010.06.11 16:39:23.
