data_PCOD9440210
_publ_section_title
;
Structure prediction by ZEFSAII (Michael W. Deem and Ramdas Pophale) SiO2 
 PCOD9440210
Probable space group: P B C M
;
_chemical_formula_sum "Si O2"
_cell_formula_units_Z 56
_cell_length_a 13.040967
_cell_length_b 9.960063
_cell_length_c 20.567139
_cell_angle_alpha 90.000000
_cell_angle_beta 90.000000
_cell_angle_gamma 90.000000
_cell_volume 2671.442092
_symmetry_space_group_name_H-M "P B C M"
_symmetry_group_IT_number 57
_symmetry_cell_setting 'orthorhombic'
loop_
_space_group_symop_operation_xyz
x,y,z
-x,-y,1/2+z
x,1/2-y,-z
-x,1/2+y,1/2-z
-x,-y,-z
x,y,1/2-z
-x,1/2+y,z
x,1/2-y,1/2+z
loop_
_atom_site_type_symbol
_atom_site_label
_atom_site_fract_x
_atom_site_fract_y
_atom_site_fract_z
Si Si1 0.110701 0.578402 0.137744
Si Si2 0.675032 0.497261 0.826038
Si Si3 0.651271 0.750566 0.922246
Si Si4 0.594889 0.238252 0.077816
Si Si5 0.063655 0.622957 0.677085
Si Si6 0.901959 0.095107 0.501401
Si Si7 0.255491 0.531640 0.616437
O O1 0.207079 0.548050 0.181712
O O2 0.069308 0.728036 0.148360
O O3 0.156122 0.571366 0.065646
O O4 0.018424 0.474000 0.143783
O O5 0.634596 0.509825 0.750000
O O6 0.676205 0.630881 0.871361
O O7 0.622512 0.387205 0.874637
O O8 0.527804 0.755073 0.923144
O O9 0.701368 0.883914 0.892282
O O10 0.682696 0.750000 0.000000
O O11 0.651672 0.364062 0.111107
O O12 0.625989 0.250000 0.000000
O O13 0.027158 0.637078 0.750000
O O14 0.177632 0.559868 0.675149
O O15 0.935307 0.250000 0.500000
O O16 0.824065 0.064392 0.558299
O O17 0.000000 0.000000 0.500000
#
# Coordination Sequence:
#
# PCOD9440210 Si02
#       7
#     8   8   8   8   8   8   8
#     4  12  24  45  66  94 137 182 227 279 343 424
#     4  12  26  45  71 105 147 189 234 298 367 428
#     4  11  26  46  73 106 139 187 243 299 358 431
#     4  11  23  47  77 103 136 184 243 295 362 436
#     4  12  26  43  64  93 132 184 229 271 342 427
#     4  12  22  40  65 101 136 176 227 285 348 413
#     4  12  24  42  70 101 139 179 225 298 349 418
#
# _framework density 20.962461000000001
#
# number of rings (size 3 to 8) (size 9 to 14) (size 15 to 20)
#    0.000    0.286    4.286    5.143    2.000    5.143 
#    0.000    1.429    0.000    0.000    0.000    0.000 
#    0.000    0.000    0.000    0.000    0.000    0.000 
#
# Total GULP energy -312350.603233 kJ/mol
# GULP energy per Si atom -5577.689343 kJ/mol
# Density = 2.091475 g / cm^3
# Si number density = 20.962461 Si / 1000 Ang^3
#
#
#
# Elastic Constant Matrix: (Units=GPa)
#
#
# Indices 1 2 3 4 5 6 
#
# 1 70.6895 40.3749 3.5530 0.0000 0.0000 0.0000
# 2 40.3749 165.4784 42.1815 0.0000 0.0000 0.0000
# 3 3.5530 42.1815 145.1409 0.0000 0.0000 0.0000
# 4 0.0000 0.0000 0.0000 42.2541 0.0000 0.0000
# 5 0.0000 0.0000 0.0000 0.0000 32.7531 0.0000
# 6 0.0000 0.0000 0.0000 0.0000 0.0000 33.2982
#
#
#
# Elastic Compliance Matrix: (Units=1/GPa)
#
#
# Indices 1 2 3 4 5 6 
#
# 1 0.016529 -0.004244 0.000829 0.000000 0.000000 0.000000
# 2 -0.004244 0.007616 -0.002110 0.000000 0.000000 0.000000
# 3 0.000829 -0.002110 0.007483 0.000000 0.000000 0.000000
# 4 0.000000 0.000000 0.000000 0.023666 0.000000 0.000000
# 5 0.000000 0.000000 0.000000 0.000000 0.030531 0.000000
# 6 0.000000 0.000000 0.000000 0.000000 0.000000 0.030032
#
#
# Mechanical properties :
#
#
# Convention : Reuss Voigt Hill
#
# Bulk Modulus (GPa) = 48.59558 61.50308 55.04933
# Shear Modulus (GPa) = 37.37859 41.34102 39.35981
#
# Velocity S-wave (km/s) = 4.22728 4.44570 4.33787
# Velocity P-wave (km/s) = 6.85996 7.46697 7.16989
#
# Compressibility (1/GPa) = 0.02057800
#
# Stress axis : x y z
#
# Youngs Moduli (GPa) = 60.50056 131.29636 133.64214
#
# Poissons Ratio (x) = 0.55724 -0.11077
# Poissons Ratio (y) = 0.25677 0.28193
# Poissons Ratio (z) = -0.05014 0.27698
#
# Static dielectric constant tensor:
#      x y z
#    x 1.733650 0.000000 0.000000 
#    y 0.000000 1.627430 0.000000 
#    z 0.000000 0.000000 1.846270 
# 
# From -- ./inp_files/25398.got.cif
#   From: 2010.05.17/outbox.cif.g08.bks.cpg/sg57_13_cif.got.tgz:25398.got - 2010.06.03 13:58:18.
