data_PCOD9440464
_publ_section_title
;
Structure prediction by ZEFSAII (Michael W. Deem and Ramdas Pophale) SiO2 
 PCOD9440464
Probable space group: P B C M
;
_chemical_formula_sum "Si O2"
_cell_formula_units_Z 56
_cell_length_a 21.000000
_cell_length_b 15.000000
_cell_length_c 9.000000
_cell_angle_alpha 90.000000
_cell_angle_beta 90.000000
_cell_angle_gamma 90.000000
_cell_volume 2835.000000
_symmetry_space_group_name_H-M "P B C M"
_symmetry_group_IT_number 57
_symmetry_cell_setting 'orthorhombic'
loop_
_space_group_symop_operation_xyz
x,y,z
-x,-y,1/2+z
x,1/2-y,-z
-x,1/2+y,1/2-z
-x,-y,-z
x,y,1/2-z
-x,1/2+y,z
x,1/2-y,1/2+z
loop_
_atom_site_type_symbol
_atom_site_label
_atom_site_fract_x
_atom_site_fract_y
_atom_site_fract_z
Si Si1 0.932943 0.982500 0.072422
Si Si2 0.135877 0.836130 0.926632
Si Si3 0.827261 0.652202 0.929829
Si Si4 0.726886 0.333186 0.076575
Si Si5 0.530389 0.348831 0.571863
Si Si6 0.415534 0.042546 0.926626
Si Si7 0.712911 0.956057 0.923873
O O1 0.939279 0.981872 0.250000
O O2 0.895134 0.893127 0.031183
O O3 0.892326 0.069276 0.030280
O O4 0.000000 0.000000 0.000000
O O5 0.134392 0.827056 0.750000
O O6 0.103049 0.750000 0.000000
O O7 0.207246 0.836519 0.987000
O O8 0.821166 0.654984 0.750000
O O9 0.820879 0.750000 0.000000
O O10 0.774827 0.585645 0.999190
O O11 0.735011 0.310441 0.250000
O O12 0.707608 0.436286 0.071376
O O13 0.689751 0.250000 0.000000
O O14 0.540493 0.250000 0.500000
O O15 0.529181 0.337049 0.750000
O O16 0.576076 0.435522 0.540128
O O17 0.465714 0.394264 0.510525
O O18 0.424189 0.051688 0.750000
O O19 0.347413 0.074778 0.982150
O O20 0.710912 0.930246 0.750000
#
# Coordination Sequence:
#
# PCOD9440464 Si02
#       7
#     8   8   8   8   8   8   8
#     4  10  23  40  61  86 117 154 195 245 299 356
#     4  10  19  34  55  82 111 144 184 229 285 345
#     4  11  24  44  65  89 121 159 203 252 304 361
#     4  10  20  33  54  83 114 150 189 233 288 349
#     4  10  21  39  63  90 123 162 205 253 304 357
#     4  10  22  39  61  90 123 162 205 253 303 356
#     4  11  23  39  61  90 123 161 203 250 302 360
#
# _framework density 19.753086
#
# number of rings (size 3 to 8) (size 9 to 14) (size 15 to 20)
#    0.000    1.714    1.429    3.429    0.000    7.429 
#    0.000    8.571    0.000    0.000    0.000    0.000 
#    0.000    0.000    0.000    0.000    0.000    0.000 
#
# Total GULP energy -312117.205045 kJ/mol
# GULP energy per Si atom -5573.521519 kJ/mol
# Density = 1.970813 g / cm^3
# Si number density = 19.753086 Si / 1000 Ang^3
#
#
#
# Elastic Constant Matrix: (Units=GPa)
#
#
# Indices 1 2 3 4 5 6 
#
# 1 87.4793 32.4039 24.5206 0.0000 0.0000 0.0000
# 2 32.4039 111.2800 55.3509 0.0000 0.0000 0.0000
# 3 24.5206 55.3509 57.4109 0.0000 0.0000 0.0000
# 4 0.0000 0.0000 0.0000 38.6028 0.0000 0.0000
# 5 0.0000 0.0000 0.0000 0.0000 16.0323 0.0000
# 6 0.0000 0.0000 0.0000 0.0000 0.0000 -23.4868
#
#
#
# Elastic Compliance Matrix: (Units=1/GPa)
#
#
# Indices 1 2 3 4 5 6 
#
# 1 0.013213 -0.001999 -0.003716 0.000000 0.000000 0.000000
# 2 -0.001999 0.017569 -0.016085 0.000000 0.000000 0.000000
# 3 -0.003716 -0.016085 0.034513 0.000000 0.000000 0.000000
# 4 0.000000 0.000000 0.000000 0.025905 0.000000 0.000000
# 5 0.000000 0.000000 0.000000 0.000000 0.062374 0.000000
# 6 0.000000 0.000000 0.000000 0.000000 0.000000 -0.042577
#
#
# Mechanical properties :
#
#
# Convention : Reuss Voigt Hill
#
# Bulk Modulus (GPa) = 46.09257 53.41342 49.75299
# Shear Modulus (GPa) = 30.89666 15.82263 23.35965
#
# Velocity S-wave (km/s) = 3.95922 2.83330 3.44260
# Velocity P-wave (km/s) = 6.65474 6.14839 6.40657
#
# Compressibility (1/GPa) = 0.02169547
#
# Stress axis : x y z
#
# Youngs Moduli (GPa) = 75.68048 56.91797 28.97451
#
# Poissons Ratio (x) = 0.11380 0.10767
# Poissons Ratio (y) = 0.15131 0.46605
# Poissons Ratio (z) = 0.28123 0.91552
#
# Static dielectric constant tensor:
#      x y z
#    x 1.723460 0.000000 0.000000 
#    y 0.000000 1.734150 0.000000 
#    z 0.000000 0.000000 1.661130 
# 
# From -- ./inp_files/8066.got.cif
#   From: 2010.05.17/outbox.ucp.g08.bks.cvg/sg57_5_cif.got.tgz:8066.got - 2010.06.11 16:39:23.
