data_PCOD9440115
_publ_section_title
;
Structure prediction by ZEFSAII (Michael W. Deem and Ramdas Pophale) SiO2 
 PCOD9440115
Probable space group: P B C M
;
_chemical_formula_sum "Si O2"
_cell_formula_units_Z 40
_cell_length_a 25.993379
_cell_length_b 9.301311
_cell_length_c 8.555957
_cell_angle_alpha 90.000000
_cell_angle_beta 90.000000
_cell_angle_gamma 90.000000
_cell_volume 2068.595131
_symmetry_space_group_name_H-M "P B C M"
_symmetry_group_IT_number 57
_symmetry_cell_setting 'orthorhombic'
loop_
_space_group_symop_operation_xyz
x,y,z
-x,-y,1/2+z
x,1/2-y,-z
-x,1/2+y,1/2-z
-x,-y,-z
x,y,1/2-z
-x,1/2+y,z
x,1/2-y,1/2+z
loop_
_atom_site_type_symbol
_atom_site_label
_atom_site_fract_x
_atom_site_fract_y
_atom_site_fract_z
Si Si1 0.257636 0.411314 0.562566
Si Si2 0.450974 0.087497 0.062667
Si Si3 0.144466 0.089229 0.937391
Si Si4 0.951362 0.411342 0.437159
Si Si5 0.353383 0.911767 0.562763
O O1 0.268379 0.250000 0.500000
O O2 0.258163 0.409568 0.750000
O O3 0.200818 0.450958 0.501688
O O4 0.300481 0.518445 0.497676
O O5 0.451333 0.088584 0.250000
O O6 0.452537 0.250000 0.000000
O O7 0.500000 0.000000 0.000000
O O8 0.399958 0.008230 0.001775
O O9 0.145322 0.091001 0.750000
O O10 0.133632 0.250000 0.000000
O O11 0.100492 0.984723 0.999572
O O12 0.954850 0.250000 0.500000
O O13 0.951427 0.412503 0.250000
O O14 0.000000 0.500000 0.500000
O O15 0.358749 0.750000 0.500000
O O16 0.354449 0.911627 0.750000
#
# Coordination Sequence:
#
# PCOD9440115 Si02
#       5
#     8   8   8   8   8
#     4  11  22  40  64  93 125 164 207 254 306 365
#     4  12  25  44  67  95 127 165 207 255 308 367
#     4  11  22  40  64  93 125 163 205 253 306 365
#     4  12  25  43  64  91 123 161 204 253 306 365
#     4  12  25  43  64  92 126 165 208 257 309 366
#
# _framework density 19.336796
#
# number of rings (size 3 to 8) (size 9 to 14) (size 15 to 20)
#    0.000    0.400    0.000   12.000    0.000    0.800 
#    0.000    4.000    0.000    0.000    0.000    0.000 
#    0.000    0.000    0.000    0.000    0.000    0.000 
#
# Total GULP energy -224079.340200 kJ/mol
# GULP energy per Si atom -5601.983505 kJ/mol
# Density = 1.929278 g / cm^3
# Si number density = 19.336796 Si / 1000 Ang^3
#
#
#
# Elastic Constant Matrix: (Units=GPa)
#
#
# Indices 1 2 3 4 5 6 
#
# 1 152.7601 135.7845 87.5037 0.0000 0.0000 0.0000
# 2 135.7845 187.6875 95.9977 0.0000 0.0000 0.0000
# 3 87.5037 95.9977 267.8140 0.0000 0.0000 0.0000
# 4 0.0000 0.0000 0.0000 40.6562 0.0000 0.0000
# 5 0.0000 0.0000 0.0000 0.0000 41.5396 0.0000
# 6 0.0000 0.0000 0.0000 0.0000 0.0000 47.4365
#
#
#
# Elastic Compliance Matrix: (Units=1/GPa)
#
#
# Indices 1 2 3 4 5 6 
#
# 1 0.018855 -0.012845 -0.001556 0.000000 0.000000 0.000000
# 2 -0.012845 0.015275 -0.001278 0.000000 0.000000 0.000000
# 3 -0.001556 -0.001278 0.004701 0.000000 0.000000 0.000000
# 4 0.000000 0.000000 0.000000 0.024596 0.000000 0.000000
# 5 0.000000 0.000000 0.000000 0.000000 0.024073 0.000000
# 6 0.000000 0.000000 0.000000 0.000000 0.000000 0.021081
#
#
# Mechanical properties :
#
#
# Convention : Reuss Voigt Hill
#
# Bulk Modulus (GPa) = 133.84601 138.53703 136.19152
# Shear Modulus (GPa) = 35.10465 45.19153 40.14809
#
# Velocity S-wave (km/s) = 4.26541 4.83957 4.56154
# Velocity P-wave (km/s) = 9.67610 10.15029 9.91603
#
# Compressibility (1/GPa) = 0.00747127
#
# Stress axis : x y z
#
# Youngs Moduli (GPa) = 53.03533 65.46768 212.73611
#
# Poissons Ratio (x) = 0.84094 0.33110
# Poissons Ratio (y) = 0.68124 0.27194
# Poissons Ratio (z) = 0.08254 0.08369
#
# Static dielectric constant tensor:
#      x y z
#    x 1.649270 0.000000 0.000000 
#    y 0.000000 1.637090 0.000000 
#    z 0.000000 0.000000 1.641470 
# 
# From -- ./inp_files/8901.got.cif
#   From: 2010.05.17/outbox.cif.g08.bks.cpg/sg57_5_cif.got.tgz:8901.got - 2010.06.03 13:58:18.
