data_PCOD9440805
_publ_section_title
;
Structure prediction by ZEFSAII (Michael W. Deem and Ramdas Pophale) SiO2 
 PCOD9440805
Probable space group: P N N M
;
_chemical_formula_sum "Si O2"
_cell_formula_units_Z 64
_cell_length_a 19.069040
_cell_length_b 22.334234
_cell_length_c 8.737596
_cell_angle_alpha 90.000000
_cell_angle_beta 90.000000
_cell_angle_gamma 90.000000
_cell_volume 3721.275744
_symmetry_space_group_name_H-M "P N N M"
_symmetry_group_IT_number 58
_symmetry_cell_setting 'orthorhombic'
loop_
_space_group_symop_operation_xyz
x,y,z
-x,-y,z
1/2+x,1/2-y,1/2-z
1/2-x,1/2+y,1/2-z
-x,-y,-z
x,y,-z
1/2-x,1/2+y,1/2+z
1/2+x,1/2-y,1/2+z
loop_
_atom_site_type_symbol
_atom_site_label
_atom_site_fract_x
_atom_site_fract_y
_atom_site_fract_z
Si Si1 0.034275 0.317793 0.324133
Si Si2 0.322274 0.592769 0.316418
Si Si3 0.422094 0.691291 0.815122
Si Si4 0.374332 0.232408 0.823759
Si Si5 0.825459 0.386278 0.817612
Si Si6 0.078635 0.984183 0.813978
Si Si7 0.072083 0.849337 0.815918
Si Si8 0.478030 0.065818 0.315930
O O1 0.053234 0.329778 0.500000
O O2 0.079870 0.261413 0.266533
O O3 0.955039 0.291040 0.321466
O O4 0.028835 0.380433 0.237022
O O5 0.326519 0.597366 0.500000
O O6 0.358219 0.651285 0.243079
O O7 0.242469 0.587457 0.263622
O O8 0.367207 0.535006 0.264994
O O9 0.493553 0.662964 0.746670
O O10 0.426546 0.690373 0.000000
O O11 0.331784 0.183407 0.729180
O O12 0.378231 0.297875 0.750927
O O13 0.351350 0.233830 0.000000
O O14 0.898600 0.417280 0.767923
O O15 0.819266 0.391745 0.000000
O O16 0.094738 0.916081 0.769648
O O17 0.077744 0.985420 0.000000
O O18 0.000000 0.000000 0.762022
O O19 0.069901 0.845322 0.000000
O O20 0.478439 0.065322 0.500000
O O21 0.500000 0.000000 0.260702
#
# Coordination Sequence:
#
# PCOD9440805 Si02
#       8
#     8   8   8   8   8   8   8   8
#     4   8  16  29  47  73 102 127 157 203 251 299
#     4  11  21  34  53  74 102 141 180 217 264 319
#     4  10  19  31  47  73 105 134 170 216 262 303
#     4   9  17  31  50  74 101 127 164 211 257 304
#     4  10  20  35  54  77 104 133 171 216 268 323
#     4   9  17  31  49  74 105 140 182 220 253 307
#     4  10  17  29  51  75 101 134 175 217 260 302
#     4   9  18  33  55  80 103 131 169 214 262 313
#
# _framework density 17.198402999999999
#
# number of rings (size 3 to 8) (size 9 to 14) (size 15 to 20)
#    0.000    2.500    1.250    2.625    0.000    4.250 
#    0.000    3.125    2.750    0.000    0.000    0.000 
#    0.000    0.000    0.000    0.000    0.000    0.000 
#
# Total GULP energy -356686.313523 kJ/mol
# GULP energy per Si atom -5573.223649 kJ/mol
# Density = 1.715926 g / cm^3
# Si number density = 17.198403 Si / 1000 Ang^3
#
#
#
# Elastic Constant Matrix: (Units=GPa)
#
#
# Indices 1 2 3 4 5 6 
#
# 1 58.2651 50.6116 15.5907 0.0000 0.0000 0.0000
# 2 50.6116 161.9490 31.5691 0.0000 0.0000 0.0000
# 3 15.5907 31.5691 38.9219 0.0000 0.0000 0.0000
# 4 0.0000 0.0000 0.0000 16.4598 0.0000 0.0000
# 5 0.0000 0.0000 0.0000 0.0000 17.9347 0.0000
# 6 0.0000 0.0000 0.0000 0.0000 0.0000 21.0127
#
#
#
# Elastic Compliance Matrix: (Units=1/GPa)
#
#
# Indices 1 2 3 4 5 6 
#
# 1 0.024127 -0.006718 -0.004215 0.000000 0.000000 0.000000
# 2 -0.006718 0.009205 -0.004775 0.000000 0.000000 0.000000
# 3 -0.004215 -0.004775 0.031254 0.000000 0.000000 0.000000
# 4 0.000000 0.000000 0.000000 0.060754 0.000000 0.000000
# 5 0.000000 0.000000 0.000000 0.000000 0.055758 0.000000
# 6 0.000000 0.000000 0.000000 0.000000 0.000000 0.047590
#
#
# Mechanical properties :
#
#
# Convention : Reuss Voigt Hill
#
# Bulk Modulus (GPa) = 30.14889 50.51987 40.33438
# Shear Modulus (GPa) = 18.43923 21.83909 20.13916
#
# Velocity S-wave (km/s) = 3.27792 3.56734 3.42569
# Velocity P-wave (km/s) = 5.64752 6.81222 6.25703
#
# Compressibility (1/GPa) = 0.03316872
#
# Stress axis : x y z
#
# Youngs Moduli (GPa) = 41.44805 108.63449 31.99596
#
# Poissons Ratio (x) = 0.72984 0.13487
# Poissons Ratio (y) = 0.27846 0.15278
# Poissons Ratio (z) = 0.17471 0.51874
#
# Static dielectric constant tensor:
#      x y z
#    x 1.568330 0.000000 0.000000 
#    y 0.000000 1.601790 0.000000 
#    z 0.000000 0.000000 1.582730 
# 
# From -- ./inp_files/8309.got.cif
#   From: 2010.05.17/outbox.cif.g08.bks.cpg/sg58_5_cif.got.tgz:8309.got - 2010.06.03 14:20:14.
