data_PCOD9440355
_publ_section_title
;
Structure prediction by ZEFSAII (Michael W. Deem and Ramdas Pophale) SiO2 
 PCOD9440355
Probable space group: P B C M
;
_chemical_formula_sum "Si O2"
_cell_formula_units_Z 32
_cell_length_a 8.733761
_cell_length_b 10.655061
_cell_length_c 13.631780
_cell_angle_alpha 90.000000
_cell_angle_beta 90.000000
_cell_angle_gamma 90.000000
_cell_volume 1268.556492
_symmetry_space_group_name_H-M "P B C M"
_symmetry_group_IT_number 57
_symmetry_cell_setting 'orthorhombic'
loop_
_space_group_symop_operation_xyz
x,y,z
-x,-y,1/2+z
x,1/2-y,-z
-x,1/2+y,1/2-z
-x,-y,-z
x,y,1/2-z
-x,1/2+y,z
x,1/2-y,1/2+z
loop_
_atom_site_type_symbol
_atom_site_label
_atom_site_fract_x
_atom_site_fract_y
_atom_site_fract_z
Si Si1 0.401487 0.798906 0.895736
Si Si2 0.883174 0.452111 0.250000
Si Si3 0.709527 0.575616 0.078597
Si Si4 0.695246 0.648361 0.860309
Si Si5 0.131361 0.830491 0.750000
O O1 0.526654 0.910578 0.903357
O O2 0.515071 0.688491 0.858298
O O3 0.252549 0.833903 0.838154
O O4 0.352918 0.750000 0.000000
O O5 0.785107 0.475935 0.150643
O O6 0.938606 0.309482 0.250000
O O7 0.010530 0.559421 0.250000
O O8 0.767085 0.712951 0.117135
O O9 0.266291 0.426903 0.039178
O O10 0.730651 0.604310 0.750000
#
# Coordination Sequence:
#
# PCOD9440355 Si02
#       5
#     8   4   8   8   4
#     4   8  16  38  70 100 127 171 221 296 348 411
#     4  12  25  44  64 102 136 200 227 286 340 420
#     4   8  16  34  66  97 132 166 233 279 353 408
#     4   8  12  28  69  97 125 167 213 281 353 415
#     4  12  25  44  68  92 150 182 241 274 348 420
#
# _framework density 25.225522999999999
#
# number of rings (size 3 to 8) (size 9 to 14) (size 15 to 20)
#    1.500    1.500    2.500    0.750    0.000    0.000 
#    4.500   11.250    0.000    0.000    0.000    0.000 
#    0.000    0.000    0.000    0.000    0.000    0.000 
#
# Total GULP energy -178636.099602 kJ/mol
# GULP energy per Si atom -5582.378113 kJ/mol
# Density = 2.516811 g / cm^3
# Si number density = 25.225523 Si / 1000 Ang^3
#
#
#
# Elastic Constant Matrix: (Units=GPa)
#
#
# Indices 1 2 3 4 5 6 
#
# 1 101.3873 56.6624 69.2050 0.0000 0.0000 0.0000
# 2 56.6624 144.4043 56.8453 0.0000 0.0000 0.0000
# 3 69.2050 56.8453 240.1493 0.0000 0.0000 0.0000
# 4 0.0000 0.0000 0.0000 26.1732 0.0000 0.0000
# 5 0.0000 0.0000 0.0000 0.0000 415.6954 0.0000
# 6 0.0000 0.0000 0.0000 0.0000 0.0000 42.2001
#
#
#
# Elastic Compliance Matrix: (Units=1/GPa)
#
#
# Indices 1 2 3 4 5 6 
#
# 1 0.014482 -0.004455 -0.003119 0.000000 0.000000 0.000000
# 2 -0.004455 0.009007 -0.000848 0.000000 0.000000 0.000000
# 3 -0.003119 -0.000848 0.005264 0.000000 0.000000 0.000000
# 4 0.000000 0.000000 0.000000 0.038207 0.000000 0.000000
# 5 0.000000 0.000000 0.000000 0.000000 0.002406 0.000000
# 6 0.000000 0.000000 0.000000 0.000000 0.000000 0.023697
#
#
# Mechanical properties :
#
#
# Convention : Reuss Voigt Hill
#
# Bulk Modulus (GPa) = 83.97262 94.59625 89.28444
# Shear Modulus (GPa) = 43.90806 117.02895 80.46851
#
# Velocity S-wave (km/s) = 4.17660 6.81864 5.65410
# Velocity P-wave (km/s) = 7.52460 9.97864 8.83722
#
# Compressibility (1/GPa) = 0.01190864
#
# Stress axis : x y z
#
# Youngs Moduli (GPa) = 69.05332 111.02617 189.98336
#
# Poissons Ratio (x) = 0.49458 0.59251
# Poissons Ratio (y) = 0.30761 0.16116
# Poissons Ratio (z) = 0.21536 0.09418
#
# Static dielectric constant tensor:
#      x y z
#    x 1.959560 0.000000 0.000000 
#    y 0.000000 2.103570 0.000000 
#    z 0.000000 0.000000 1.988900 
# 
# From -- ./inp_files/15563.got.cif
#   From: 2010.05.17/outbox.cif.g08.bks.cpg/sg57_8_cif.got.tgz:15563.got - 2010.06.03 13:58:18.
