data_PCOD9440983
_publ_section_title
;
Structure prediction by ZEFSAII (Michael W. Deem and Ramdas Pophale) SiO2 
 PCOD9440983
Probable space group: P N N M
;
_chemical_formula_sum "Si O2"
_cell_formula_units_Z 64
_cell_length_a 17.244074
_cell_length_b 10.076061
_cell_length_c 26.644619
_cell_angle_alpha 90.000000
_cell_angle_beta 90.000000
_cell_angle_gamma 90.000000
_cell_volume 4629.564940
_symmetry_space_group_name_H-M "P N N M"
_symmetry_group_IT_number 58
_symmetry_cell_setting 'orthorhombic'
loop_
_space_group_symop_operation_xyz
x,y,z
-x,-y,z
1/2+x,1/2-y,1/2-z
1/2-x,1/2+y,1/2-z
-x,-y,-z
x,y,-z
1/2-x,1/2+y,1/2+z
1/2+x,1/2-y,1/2+z
loop_
_atom_site_type_symbol
_atom_site_label
_atom_site_fract_x
_atom_site_fract_y
_atom_site_fract_z
Si Si1 0.046207 0.872295 0.058048
Si Si2 0.548568 0.129780 0.754109
Si Si3 0.063162 0.382805 0.943633
Si Si4 0.210470 0.977168 0.717978
Si Si5 0.203930 0.288865 0.296933
Si Si6 0.940303 0.118830 0.763300
Si Si7 0.354973 0.959529 0.654961
Si Si8 0.152483 0.773160 0.857759
O O1 0.119760 0.829815 0.090669
O O2 0.985400 0.751894 0.059606
O O3 0.067494 0.897133 0.000000
O O4 0.000000 0.000000 0.077866
O O5 0.614466 0.170239 0.794188
O O6 0.489223 0.250519 0.748691
O O7 0.500000 0.000000 0.767837
O O8 0.592499 0.097847 0.700819
O O9 0.121738 0.394056 0.897480
O O10 0.000000 0.500000 0.938184
O O11 0.097133 0.393910 0.000000
O O12 0.210752 0.137382 0.724158
O O13 0.264740 0.945293 0.670242
O O14 0.254777 0.897983 0.761824
O O15 0.122955 0.923646 0.721364
O O16 0.255675 0.287552 0.347255
O O17 0.892677 0.149410 0.813797
O O18 0.000000 0.000000 0.770888
O O19 0.368614 0.117753 0.649160
#
# Coordination Sequence:
#
# PCOD9440983 Si02
#       8
#     8   8   8   8   8   8   8   8
#     4  10  20  32  44  64  92 116 143 182 218 248
#     4  11  19  30  45  62  87 120 147 184 218 256
#     4  10  18  29  46  65  85 112 147 178 205 252
#     4   9  19  31  42  60  87 116 144 185 218 258
#     4   9  19  31  43  61  87 114 147 181 219 256
#     4  11  19  29  43  62  86 112 153 181 210 260
#     4  10  18  30  45  62  88 116 148 178 220 255
#     4  10  18  30  45  63  86 118 147 178 215 259
#
# _framework density 13.824194
#
# number of rings (size 3 to 8) (size 9 to 14) (size 15 to 20)
#    0.000    2.000    3.750    1.500    1.750    0.000 
#    2.250    0.000    0.000    0.000    0.000    0.000 
#    0.000    2.000    0.000    0.125    0.000    0.125 
#
# Total GULP energy -356287.079942 kJ/mol
# GULP energy per Si atom -5566.985624 kJ/mol
# Density = 1.379273 g / cm^3
# Si number density = 13.824194 Si / 1000 Ang^3
#
#
#
# Elastic Constant Matrix: (Units=GPa)
#
#
# Indices 1 2 3 4 5 6 
#
# 1 80.6787 27.6051 35.3113 0.0000 0.0000 0.0000
# 2 27.6051 81.7760 12.7869 0.0000 0.0000 0.0000
# 3 35.3113 12.7869 61.2542 0.0000 0.0000 0.0000
# 4 0.0000 0.0000 0.0000 17.4774 0.0000 0.0000
# 5 0.0000 0.0000 0.0000 0.0000 30.8110 0.0000
# 6 0.0000 0.0000 0.0000 0.0000 0.0000 23.9999
#
#
#
# Elastic Compliance Matrix: (Units=1/GPa)
#
#
# Indices 1 2 3 4 5 6 
#
# 1 0.018133 -0.004638 -0.009485 0.000000 0.000000 0.000000
# 2 -0.004638 0.013827 -0.000213 0.000000 0.000000 0.000000
# 3 -0.009485 -0.000213 0.021838 0.000000 0.000000 0.000000
# 4 0.000000 0.000000 0.000000 0.057217 0.000000 0.000000
# 5 0.000000 0.000000 0.000000 0.000000 0.032456 0.000000
# 6 0.000000 0.000000 0.000000 0.000000 0.000000 0.041667
#
#
# Mechanical properties :
#
#
# Convention : Reuss Voigt Hill
#
# Bulk Modulus (GPa) = 39.79861 41.67952 40.73906
# Shear Modulus (GPa) = 22.50373 24.32471 23.41422
#
# Velocity S-wave (km/s) = 4.03904 4.19928 4.11994
# Velocity P-wave (km/s) = 7.11361 7.32988 7.22255
#
# Compressibility (1/GPa) = 0.02512650
#
# Stress axis : x y z
#
# Youngs Moduli (GPa) = 55.14734 72.31978 45.79233
#
# Poissons Ratio (x) = 0.33543 0.43434
# Poissons Ratio (y) = 0.25578 0.00974
# Poissons Ratio (z) = 0.52308 0.01539
#
# Static dielectric constant tensor:
#      x y z
#    x 1.466920 0.000000 0.000000 
#    y 0.000000 1.520730 0.000000 
#    z 0.000000 0.000000 1.451650 
# 
# From -- ./inp_files/33416.got.cif
#   From: 2010.05.17/outbox.cif.g08.bks.cpg/sg58_17_cif.got.tgz:33416.got - 2010.06.03 14:20:14.
