data_PCOD9440969
_publ_section_title
;
Structure prediction by ZEFSAII (Michael W. Deem and Ramdas Pophale) SiO2 
 PCOD9440969
Probable space group: P N N M
;
_chemical_formula_sum "Si O2"
_cell_formula_units_Z 56
_cell_length_a 13.465815
_cell_length_b 25.438384
_cell_length_c 7.337534
_cell_angle_alpha 90.000000
_cell_angle_beta 90.000000
_cell_angle_gamma 90.000000
_cell_volume 2513.461800
_symmetry_space_group_name_H-M "P N N M"
_symmetry_group_IT_number 58
_symmetry_cell_setting 'orthorhombic'
loop_
_space_group_symop_operation_xyz
x,y,z
-x,-y,z
1/2+x,1/2-y,1/2-z
1/2-x,1/2+y,1/2-z
-x,-y,-z
x,y,-z
1/2-x,1/2+y,1/2+z
1/2+x,1/2-y,1/2+z
loop_
_atom_site_type_symbol
_atom_site_label
_atom_site_fract_x
_atom_site_fract_y
_atom_site_fract_z
Si Si1 0.485072 0.166600 0.709356
Si Si2 0.258981 0.162953 0.780047
Si Si3 0.643664 0.440014 0.278604
Si Si4 0.948657 0.121942 0.221740
Si Si5 0.563881 0.275821 0.722604
Si Si6 0.227827 0.947983 0.221122
Si Si7 0.540924 0.054275 0.290415
O O1 0.520425 0.163183 0.500000
O O2 0.367486 0.176043 0.711205
O O3 0.538116 0.217810 0.788749
O O4 0.505243 0.109394 0.792821
O O5 0.222677 0.104711 0.724299
O O6 0.172013 0.202834 0.724020
O O7 0.262663 0.163363 0.000000
O O8 0.641919 0.440878 0.500000
O O9 0.535492 0.418930 0.222653
O O10 0.675843 0.497630 0.219849
O O11 0.842223 0.100215 0.279519
O O12 0.984207 0.179703 0.279506
O O13 0.948767 0.122138 0.000000
O O14 0.561439 0.275367 0.500000
O O15 0.340216 0.945961 0.286621
O O16 0.231218 0.948115 0.000000
O O17 0.504032 0.054497 0.500000
O O18 0.500000 0.000000 0.208235
#
# Coordination Sequence:
#
# PCOD9440969 Si02
#       7
#     8   8   8   8   8   8   8
#     4  10  20  34  51  68  90 124 160 190 227 277
#     4   9  17  31  51  71  92 121 156 192 227 267
#     4   8  14  26  46  72  99 124 150 182 226 278
#     4   8  14  26  46  73 100 121 146 185 232 279
#     4   8  16  31  49  70  96 124 152 185 231 282
#     4  10  18  28  49  77  97 117 150 193 233 268
#     4  10  22  37  48  62  91 129 161 189 229 279
#
# _framework density 22.280027
#
# number of rings (size 3 to 8) (size 9 to 14) (size 15 to 20)
#    0.000    3.000    0.000    3.000    0.000    3.714 
#    0.000    0.714    0.000    5.143    0.000    0.000 
#    0.000    0.000    0.000    0.000    0.000    0.000 
#
# Total GULP energy -312712.492120 kJ/mol
# GULP energy per Si atom -5584.151645 kJ/mol
# Density = 2.222932 g / cm^3
# Si number density = 22.280027 Si / 1000 Ang^3
#
#
#
# Elastic Constant Matrix: (Units=GPa)
#
#
# Indices 1 2 3 4 5 6 
#
# 1 88.8720 77.3000 -7.7839 0.0000 0.0000 0.0000
# 2 77.3000 200.5681 8.7608 0.0000 0.0000 0.0000
# 3 -7.7839 8.7608 85.5533 0.0000 0.0000 0.0000
# 4 0.0000 0.0000 0.0000 -18.4323 0.0000 0.0000
# 5 0.0000 0.0000 0.0000 0.0000 23.4906 0.0000
# 6 0.0000 0.0000 0.0000 0.0000 0.0000 20.3223
#
#
#
# Elastic Compliance Matrix: (Units=1/GPa)
#
#
# Indices 1 2 3 4 5 6 
#
# 1 0.017356 -0.006788 0.002274 0.000000 0.000000 0.000000
# 2 -0.006788 0.007663 -0.001402 0.000000 0.000000 0.000000
# 3 0.002274 -0.001402 0.012039 0.000000 0.000000 0.000000
# 4 0.000000 0.000000 0.000000 -0.054253 0.000000 0.000000
# 5 0.000000 0.000000 0.000000 0.000000 0.042570 0.000000
# 6 0.000000 0.000000 0.000000 0.000000 0.000000 0.049207
#
#
# Mechanical properties :
#
#
# Convention : Reuss Voigt Hill
#
# Bulk Modulus (GPa) = 39.64276 59.06079 49.35178
# Shear Modulus (GPa) = 52.72926 24.85725 38.79325
#
# Velocity S-wave (km/s) = 4.87011 3.34379 4.17726
# Velocity P-wave (km/s) = 7.03246 6.44002 6.74275
#
# Compressibility (1/GPa) = 0.02522529
#
# Stress axis : x y z
#
# Youngs Moduli (GPa) = 57.61778 130.49111 83.06239
#
# Poissons Ratio (x) = 0.88582 -0.18890
# Poissons Ratio (y) = 0.39113 0.11648
# Poissons Ratio (z) = -0.13104 0.18300
#
# Static dielectric constant tensor:
#      x y z
#    x 1.756450 0.000000 0.000000 
#    y 0.000000 1.815450 0.000000 
#    z 0.000000 0.000000 1.846720 
# 
# From -- ./inp_files/14723.got.cif
#   From: 2010.05.17/outbox.cif.g08.bks.cpg/sg58_8_cif.got.tgz:14723.got - 2010.06.03 14:20:14.
