data_PCOD9440641
_publ_section_title
;
Structure prediction by ZEFSAII (Michael W. Deem and Ramdas Pophale) SiO2 
 PCOD9440641
Probable space group: P B C M
;
_chemical_formula_sum "Si O2"
_cell_formula_units_Z 48
_cell_length_a 9.000000
_cell_length_b 30.000000
_cell_length_c 9.000000
_cell_angle_alpha 90.000000
_cell_angle_beta 90.000000
_cell_angle_gamma 90.000000
_cell_volume 2430.000000
_symmetry_space_group_name_H-M "P B C M"
_symmetry_group_IT_number 57
_symmetry_cell_setting 'orthorhombic'
loop_
_space_group_symop_operation_xyz
x,y,z
-x,-y,1/2+z
x,1/2-y,-z
-x,1/2+y,1/2-z
-x,-y,-z
x,y,1/2-z
-x,1/2+y,z
x,1/2-y,1/2+z
loop_
_atom_site_type_symbol
_atom_site_label
_atom_site_fract_x
_atom_site_fract_y
_atom_site_fract_z
Si Si1 0.722754 0.797489 0.582986
Si Si2 0.586376 0.042051 0.071137
Si Si3 0.209749 0.703117 0.584899
Si Si4 0.564617 0.142811 0.418270
Si Si5 0.066346 0.362131 0.082529
Si Si6 0.084596 0.957302 0.430371
O O1 0.731106 0.750000 0.500000
O O2 0.773275 0.788393 0.750000
O O3 0.559392 0.818772 0.582301
O O4 0.812859 0.839616 0.520575
O O5 0.590862 0.036083 0.250000
O O6 0.519388 0.091964 0.040535
O O7 0.751365 0.043566 0.001451
O O8 0.500000 0.000000 0.000000
O O9 0.205467 0.750000 0.500000
O O10 0.260992 0.714144 0.750000
O O11 0.312458 0.664143 0.521357
O O12 0.053504 0.677787 0.588254
O O13 0.623687 0.138897 0.250000
O O14 0.125160 0.368678 0.250000
O O15 0.996827 0.409798 0.036301
O O16 0.092655 0.961084 0.250000
O O17 0.000000 0.000000 0.500000
#
# Coordination Sequence:
#
# PCOD9440641 Si02
#       6
#     8   8   8   8   8   8
#     4  11  24  41  62  91 126 167 211 259 311 372
#     4  11  24  43  67  97 130 169 213 263 321 382
#     4  11  22  38  62  91 122 160 204 255 311 371
#     4  10  23  42  63  91 125 163 209 257 312 374
#     4  10  23  42  63  91 125 163 208 257 312 375
#     4  11  24  44  67  97 130 166 213 263 321 386
#
# _framework density 19.753086
#
# number of rings (size 3 to 8) (size 9 to 14) (size 15 to 20)
#    0.000    1.333    1.667    3.000    2.333    7.333 
#    0.000    0.000    0.000    0.000    0.000    0.000 
#    0.000    0.000    0.000    0.000    0.000    0.000 
#
# Total GULP energy -267654.510209 kJ/mol
# GULP energy per Si atom -5576.135629 kJ/mol
# Density = 1.970813 g / cm^3
# Si number density = 19.753086 Si / 1000 Ang^3
#
#
#
# Elastic Constant Matrix: (Units=GPa)
#
#
# Indices 1 2 3 4 5 6 
#
# 1 28.3558 6.7090 22.7793 0.0000 0.0000 0.0000
# 2 6.7090 167.3275 49.8351 0.0000 0.0000 0.0000
# 3 22.7793 49.8351 87.7283 0.0000 0.0000 0.0000
# 4 0.0000 0.0000 0.0000 41.2464 0.0000 0.0000
# 5 0.0000 0.0000 0.0000 0.0000 24.1061 0.0000
# 6 0.0000 0.0000 0.0000 0.0000 0.0000 29.0548
#
#
#
# Elastic Compliance Matrix: (Units=1/GPa)
#
#
# Indices 1 2 3 4 5 6 
#
# 1 0.045123 0.002022 -0.012865 0.000000 0.000000 0.000000
# 2 0.002022 0.007284 -0.004663 0.000000 0.000000 0.000000
# 3 -0.012865 -0.004663 0.017388 0.000000 0.000000 0.000000
# 4 0.000000 0.000000 0.000000 0.024245 0.000000 0.000000
# 5 0.000000 0.000000 0.000000 0.000000 0.041483 0.000000
# 6 0.000000 0.000000 0.000000 0.000000 0.000000 0.034418
#
#
# Mechanical properties :
#
#
# Convention : Reuss Voigt Hill
#
# Bulk Modulus (GPa) = 25.78420 49.11760 37.45090
# Shear Modulus (GPa) = 23.37762 32.48733 27.93248
#
# Velocity S-wave (km/s) = 3.44392 4.05985 3.76451
# Velocity P-wave (km/s) = 5.37548 6.84809 6.15598
#
# Compressibility (1/GPa) = 0.03878343
#
# Stress axis : x y z
#
# Youngs Moduli (GPa) = 22.16178 137.28795 57.51025
#
# Poissons Ratio (x) = -0.27766 0.73989
# Poissons Ratio (y) = -0.04482 0.26816
# Poissons Ratio (z) = 0.28512 0.64016
#
# Static dielectric constant tensor:
#      x y z
#    x 1.775670 0.000000 0.000000 
#    y 0.000000 1.655380 0.000000 
#    z 0.000000 0.000000 1.726360 
# 
# From -- ./inp_files/2091.got.cif
#   From: 2010.05.17/outbox.ucp.g08.bks.cvg/sg57_2_cif.got.tgz:2091.got - 2010.06.11 16:39:23.
