data_PCOD9440465
_publ_section_title
;
Structure prediction by ZEFSAII (Michael W. Deem and Ramdas Pophale) SiO2 
 PCOD9440465
Probable space group: P B C M
;
_chemical_formula_sum "Si O2"
_cell_formula_units_Z 56
_cell_length_a 21.000000
_cell_length_b 15.000000
_cell_length_c 9.000000
_cell_angle_alpha 90.000000
_cell_angle_beta 90.000000
_cell_angle_gamma 90.000000
_cell_volume 2835.000000
_symmetry_space_group_name_H-M "P B C M"
_symmetry_group_IT_number 57
_symmetry_cell_setting 'orthorhombic'
loop_
_space_group_symop_operation_xyz
x,y,z
-x,-y,1/2+z
x,1/2-y,-z
-x,1/2+y,1/2-z
-x,-y,-z
x,y,1/2-z
-x,1/2+y,z
x,1/2-y,1/2+z
loop_
_atom_site_type_symbol
_atom_site_label
_atom_site_fract_x
_atom_site_fract_y
_atom_site_fract_z
Si Si1 0.874835 0.165314 0.415195
Si Si2 0.580938 0.539847 0.076841
Si Si3 0.722630 0.337686 0.582042
Si Si4 0.725558 0.973413 0.577307
Si Si5 0.932111 0.982829 0.429421
Si Si6 0.171334 0.346456 0.071657
Si Si7 0.472421 0.651864 0.927597
O O1 0.901389 0.250000 0.500000
O O2 0.901644 0.167587 0.250000
O O3 0.798948 0.175541 0.405738
O O4 0.889972 0.068199 0.477458
O O5 0.559861 0.545239 0.250000
O O6 0.654495 0.565447 0.069104
O O7 0.572582 0.434449 0.033460
O O8 0.539172 0.607881 0.980772
O O9 0.696109 0.250000 0.500000
O O10 0.697187 0.346498 0.750000
O O11 0.718335 0.427494 0.488251
O O12 0.745142 0.977731 0.750000
O O13 0.774227 0.913841 0.484757
O O14 0.936198 0.981307 0.250000
O O15 0.895394 0.893123 0.473046
O O16 0.000000 0.000000 0.500000
O O17 0.174043 0.340607 0.250000
O O18 0.178739 0.250000 0.000000
O O19 0.469859 0.663346 0.750000
O O20 0.462033 0.750000 0.000000
#
# Coordination Sequence:
#
# PCOD9440465 Si02
#       7
#     8   8   8   8   8   8   8
#     4   9  18  34  54  79 109 141 178 225 277 336
#     4   9  21  39  58  86 120 154 200 248 292 350
#     4  10  19  34  55  82 116 151 189 235 288 349
#     4  11  22  38  61  89 121 158 199 246 300 356
#     4  10  22  40  60  84 116 150 192 242 294 349
#     4  11  24  44  64  87 120 158 201 249 298 355
#     4  10  20  37  61  86 117 157 198 244 296 348
#
# _framework density 19.753086
#
# number of rings (size 3 to 8) (size 9 to 14) (size 15 to 20)
#    0.000    2.000    1.429    1.714    0.000    5.714 
#    0.000    4.286    0.000    0.000    0.000    0.000 
#    0.000    0.000    0.000    0.000    0.000    0.000 
#
# Total GULP energy -312268.967373 kJ/mol
# GULP energy per Si atom -5576.231560 kJ/mol
# Density = 1.970813 g / cm^3
# Si number density = 19.753086 Si / 1000 Ang^3
#
#
#
# Elastic Constant Matrix: (Units=GPa)
#
#
# Indices 1 2 3 4 5 6 
#
# 1 65.9293 32.1620 30.1727 0.0000 0.0000 0.0000
# 2 32.1620 127.2766 42.6732 0.0000 0.0000 0.0000
# 3 30.1727 42.6732 65.7739 0.0000 0.0000 0.0000
# 4 0.0000 0.0000 0.0000 40.6880 0.0000 0.0000
# 5 0.0000 0.0000 0.0000 0.0000 17.0297 0.0000
# 6 0.0000 0.0000 0.0000 0.0000 0.0000 3.2685
#
#
#
# Elastic Compliance Matrix: (Units=1/GPa)
#
#
# Indices 1 2 3 4 5 6 
#
# 1 0.019803 -0.002503 -0.007461 0.000000 0.000000 0.000000
# 2 -0.002503 0.010357 -0.005572 0.000000 0.000000 0.000000
# 3 -0.007461 -0.005572 0.022241 0.000000 0.000000 0.000000
# 4 0.000000 0.000000 0.000000 0.024577 0.000000 0.000000
# 5 0.000000 0.000000 0.000000 0.000000 0.058721 0.000000
# 6 0.000000 0.000000 0.000000 0.000000 0.000000 0.305947
#
#
# Mechanical properties :
#
#
# Convention : Reuss Voigt Hill
#
# Bulk Modulus (GPa) = 46.87940 52.11062 49.49501
# Shear Modulus (GPa) = 10.42042 22.46203 16.44123
#
# Velocity S-wave (km/s) = 2.29930 3.37581 2.88816
# Velocity P-wave (km/s) = 5.55277 6.45237 6.01940
#
# Compressibility (1/GPa) = 0.02133133
#
# Stress axis : x y z
#
# Youngs Moduli (GPa) = 50.49730 96.54955 44.96233
#
# Poissons Ratio (x) = 0.24164 0.33545
# Poissons Ratio (y) = 0.12638 0.25051
# Poissons Ratio (z) = 0.37674 0.53794
#
# Static dielectric constant tensor:
#      x y z
#    x 1.716400 0.000000 0.000000 
#    y 0.000000 1.688760 0.000000 
#    z 0.000000 0.000000 1.723110 
# 
# From -- ./inp_files/8107.got.cif
#   From: 2010.05.17/outbox.ucp.g08.bks.cvg/sg57_5_cif.got.tgz:8107.got - 2010.06.11 16:39:23.
