data_PCOD9440473
_publ_section_title
;
Structure prediction by ZEFSAII (Michael W. Deem and Ramdas Pophale) SiO2 
 PCOD9440473
Probable space group: P B C M
;
_chemical_formula_sum "Si O2"
_cell_formula_units_Z 48
_cell_length_a 9.000000
_cell_length_b 30.000000
_cell_length_c 9.000000
_cell_angle_alpha 90.000000
_cell_angle_beta 90.000000
_cell_angle_gamma 90.000000
_cell_volume 2430.000000
_symmetry_space_group_name_H-M "P B C M"
_symmetry_group_IT_number 57
_symmetry_cell_setting 'orthorhombic'
loop_
_space_group_symop_operation_xyz
x,y,z
-x,-y,1/2+z
x,1/2-y,-z
-x,1/2+y,1/2-z
-x,-y,-z
x,y,1/2-z
-x,1/2+y,z
x,1/2-y,1/2+z
loop_
_atom_site_type_symbol
_atom_site_label
_atom_site_fract_x
_atom_site_fract_y
_atom_site_fract_z
Si Si1 0.812295 0.659135 0.072436
Si Si2 0.323007 0.867550 0.929219
Si Si3 0.465353 0.203163 0.930380
Si Si4 0.092842 0.799752 0.428857
Si Si5 0.133162 0.443880 0.572841
Si Si6 0.809909 0.044672 0.928040
O O1 0.846870 0.664237 0.250000
O O2 0.792951 0.605166 0.048261
O O3 0.679600 0.692032 0.027417
O O4 0.935092 0.677587 0.959294
O O5 0.350658 0.867494 0.750000
O O6 0.445662 0.842005 0.027616
O O7 0.286934 0.917715 0.986331
O O8 0.190250 0.833862 0.972227
O O9 0.450222 0.207110 0.750000
O O10 0.527946 0.250000 0.000000
O O11 0.098620 0.750000 0.500000
O O12 0.128642 0.798801 0.250000
O O13 0.098277 0.445654 0.750000
O O14 0.216427 0.491358 0.540220
O O15 0.979484 0.445973 0.481035
O O16 0.796207 0.051167 0.750000
#
# Coordination Sequence:
#
# PCOD9440473 Si02
#       6
#     8   8   8   8   8   8
#     4  11  22  40  63  91 124 161 203 250 302 360
#     4  12  24  41  62  89 122 160 203 253 307 364
#     4  12  26  45  65  88 120 162 206 252 307 370
#     4  12  24  39  60  89 120 156 200 254 305 360
#     4   9  19  35  59  90 126 162 200 248 303 360
#     4  10  19  34  59  92 125 160 202 249 303 363
#
# _framework density 19.753086
#
# number of rings (size 3 to 8) (size 9 to 14) (size 15 to 20)
#    0.000    1.000    1.667    6.500    0.000    1.333 
#    0.000    0.833    0.000    0.000    0.000    0.000 
#    0.000    0.000    0.000    0.000    0.000    0.000 
#
# Total GULP energy -267446.463637 kJ/mol
# GULP energy per Si atom -5571.801326 kJ/mol
# Density = 1.970813 g / cm^3
# Si number density = 19.753086 Si / 1000 Ang^3
#
#
#
# Elastic Constant Matrix: (Units=GPa)
#
#
# Indices 1 2 3 4 5 6 
#
# 1 -14.2950 8.6682 -7.7125 0.0000 0.0000 0.0000
# 2 8.6682 119.0812 36.7657 0.0000 0.0000 0.0000
# 3 -7.7125 36.7657 129.0308 0.0000 0.0000 0.0000
# 4 0.0000 0.0000 0.0000 30.3579 0.0000 0.0000
# 5 0.0000 0.0000 0.0000 0.0000 32.1429 0.0000
# 6 0.0000 0.0000 0.0000 0.0000 0.0000 30.5927
#
#
#
# Elastic Compliance Matrix: (Units=1/GPa)
#
#
# Indices 1 2 3 4 5 6 
#
# 1 -0.063119 0.006315 -0.005572 0.000000 0.000000 0.000000
# 2 0.006315 0.008576 -0.002066 0.000000 0.000000 0.000000
# 3 -0.005572 -0.002066 0.008006 0.000000 0.000000 0.000000
# 4 0.000000 0.000000 0.000000 0.032940 0.000000 0.000000
# 5 0.000000 0.000000 0.000000 0.000000 0.031111 0.000000
# 6 0.000000 0.000000 0.000000 0.000000 0.000000 0.032687
#
#
# Mechanical properties :
#
#
# Convention : Reuss Voigt Hill
#
# Bulk Modulus (GPa) = -20.33183 34.36219 7.01518
# Shear Modulus (GPa) = 137.16050 31.69173 84.42612
#
# Velocity S-wave (km/s) = 8.34196 4.00983 6.54473
# Velocity P-wave (km/s) = 9.08124 6.23474 7.78913
#
# Compressibility (1/GPa) = -0.04918396
#
# Stress axis : x y z
#
# Youngs Moduli (GPa) = -15.84311 116.60637 124.91033
#
# Poissons Ratio (x) = -0.73636 0.69602
# Poissons Ratio (y) = 0.10005 0.25808
# Poissons Ratio (z) = -0.08828 0.24092
#
# Static dielectric constant tensor:
#      x y z
#    x 2.066680 0.000000 0.000000 
#    y 0.000000 1.694720 0.000000 
#    z 0.000000 0.000000 1.633690 
# 
# From -- ./inp_files/2097.got.cif
#   From: 2010.05.17/outbox.ucp.g08.bks.cvg/sg57_2_cif.got.tgz:2097.got - 2010.06.11 16:39:23.
