data_PCOD9440748
_publ_section_title
;
Structure prediction by ZEFSAII (Michael W. Deem and Ramdas Pophale) SiO2 
 PCOD9440748
Probable space group: P N N M
;
_chemical_formula_sum "Si O2"
_cell_formula_units_Z 64
_cell_length_a 15.111682
_cell_length_b 22.269270
_cell_length_c 8.444300
_cell_angle_alpha 90.000000
_cell_angle_beta 90.000000
_cell_angle_gamma 90.000000
_cell_volume 2841.727571
_symmetry_space_group_name_H-M "P N N M"
_symmetry_group_IT_number 58
_symmetry_cell_setting 'orthorhombic'
loop_
_space_group_symop_operation_xyz
x,y,z
-x,-y,z
1/2+x,1/2-y,1/2-z
1/2-x,1/2+y,1/2-z
-x,-y,-z
x,y,-z
1/2-x,1/2+y,1/2+z
1/2+x,1/2-y,1/2+z
loop_
_atom_site_type_symbol
_atom_site_label
_atom_site_fract_x
_atom_site_fract_y
_atom_site_fract_z
Si Si1 0.230032 0.685557 0.312934
Si Si2 0.473408 0.310115 0.810386
Si Si3 0.771401 0.445784 0.682321
Si Si4 0.289919 0.431319 0.182619
Si Si5 0.985270 0.318678 0.686044
Si Si6 0.229194 0.811763 0.814229
Si Si7 0.546319 0.935990 0.322342
Si Si8 0.520148 0.565556 0.683204
O O1 0.247178 0.689839 0.500000
O O2 0.262590 0.619510 0.259992
O O3 0.122398 0.685007 0.294852
O O4 0.264340 0.745889 0.231446
O O5 0.517759 0.247166 0.760748
O O6 0.374773 0.309689 0.735983
O O7 0.515625 0.373539 0.761764
O O8 0.463904 0.307922 0.000000
O O9 0.743224 0.454951 0.500000
O O10 0.751685 0.503951 0.786264
O O11 0.877007 0.439341 0.692649
O O12 0.235455 0.371336 0.226182
O O13 0.374444 0.430689 0.297498
O O14 0.318179 0.426207 0.000000
O O15 0.005402 0.326134 0.500000
O O16 0.012294 0.378003 0.780256
O O17 0.238451 0.820449 0.000000
O O18 0.583531 0.926406 0.500000
O O19 0.500000 0.000000 0.321893
O O20 0.500000 0.500000 0.754331
O O21 0.492970 0.565487 0.500000
#
# Coordination Sequence:
#
# PCOD9440748 Si02
#       8
#     8   8   8   8   8   8   8   8
#     4   8  15  28  45  67  94 122 155 198 243 282
#     4   9  16  27  44  67  94 122 157 199 240 281
#     4  10  20  34  52  73  99 130 164 202 244 291
#     4  11  21  33  51  73 100 131 163 201 244 290
#     4   8  15  27  44  67  93 123 159 199 240 281
#     4  10  17  26  44  69  96 124 158 198 238 283
#     4  10  20  32  48  73 102 130 162 200 241 288
#     4  10  20  33  50  73 100 129 162 199 240 288
#
# _framework density 22.521512000000001
#
# number of rings (size 3 to 8) (size 9 to 14) (size 15 to 20)
#    0.000    2.500    0.000    6.750    0.000    7.500 
#    0.000    0.000    0.000    1.500    0.000    5.250 
#    0.000    0.000    0.000    0.000    0.000    0.000 
#
# Total GULP energy -356749.694087 kJ/mol
# GULP energy per Si atom -5574.213970 kJ/mol
# Density = 2.247025 g / cm^3
# Si number density = 22.521512 Si / 1000 Ang^3
#
#
#
# Elastic Constant Matrix: (Units=GPa)
#
#
# Indices 1 2 3 4 5 6 
#
# 1 29.6767 6.1618 -1.8667 0.0000 0.0000 0.0000
# 2 6.1618 247.0555 50.4796 0.0000 0.0000 0.0000
# 3 -1.8667 50.4796 53.7990 0.0000 0.0000 0.0000
# 4 0.0000 0.0000 0.0000 37.6659 0.0000 0.0000
# 5 0.0000 0.0000 0.0000 0.0000 4.9605 0.0000
# 6 0.0000 0.0000 0.0000 0.0000 0.0000 13.6763
#
#
#
# Elastic Compliance Matrix: (Units=1/GPa)
#
#
# Indices 1 2 3 4 5 6 
#
# 1 0.034132 -0.001353 0.002453 0.000000 0.000000 0.000000
# 2 -0.001353 0.005061 -0.004796 0.000000 0.000000 0.000000
# 3 0.002453 -0.004796 0.023173 0.000000 0.000000 0.000000
# 4 0.000000 0.000000 0.000000 0.026549 0.000000 0.000000
# 5 0.000000 0.000000 0.000000 0.000000 0.201593 0.000000
# 6 0.000000 0.000000 0.000000 0.000000 0.000000 0.073119
#
#
# Mechanical properties :
#
#
# Convention : Reuss Voigt Hill
#
# Bulk Modulus (GPa) = 18.18993 48.89785 33.54389
# Shear Modulus (GPa) = 12.84213 29.64430 21.24322
#
# Velocity S-wave (km/s) = 2.39051 3.63197 3.07455
# Velocity P-wave (km/s) = 3.96404 6.27272 5.24694
#
# Compressibility (1/GPa) = 0.05497547
#
# Stress axis : x y z
#
# Youngs Moduli (GPa) = 29.29835 197.57588 43.15389
#
# Poissons Ratio (x) = 0.26723 -0.10587
# Poissons Ratio (y) = 0.03963 0.20697
# Poissons Ratio (z) = -0.07188 0.94757
#
# Static dielectric constant tensor:
#      x y z
#    x 1.915480 0.000000 0.000000 
#    y 0.000000 1.966290 0.000000 
#    z 0.000000 0.000000 1.765050 
# 
# From -- ./inp_files/9492.got.cif
#   From: 2010.05.17/outbox.cif.g08.bks.cpg/sg58_5_cif.got.tgz:9492.got - 2010.06.03 14:20:14.
