data_PCOD9440744
_publ_section_title
;
Structure prediction by ZEFSAII (Michael W. Deem and Ramdas Pophale) SiO2 
 PCOD9440744
Probable space group: P N N M
;
_chemical_formula_sum "Si O2"
_cell_formula_units_Z 56
_cell_length_a 21.022544
_cell_length_b 17.490194
_cell_length_c 8.680731
_cell_angle_alpha 90.000000
_cell_angle_beta 90.000000
_cell_angle_gamma 90.000000
_cell_volume 3191.803857
_symmetry_space_group_name_H-M "P N N M"
_symmetry_group_IT_number 58
_symmetry_cell_setting 'orthorhombic'
loop_
_space_group_symop_operation_xyz
x,y,z
-x,-y,z
1/2+x,1/2-y,1/2-z
1/2-x,1/2+y,1/2-z
-x,-y,-z
x,y,-z
1/2-x,1/2+y,1/2+z
1/2+x,1/2-y,1/2+z
loop_
_atom_site_type_symbol
_atom_site_label
_atom_site_fract_x
_atom_site_fract_y
_atom_site_fract_z
Si Si1 0.521002 0.910789 0.824892
Si Si2 0.405543 0.470449 0.815850
Si Si3 0.380518 0.709456 0.816414
Si Si4 0.291408 0.568900 0.187186
Si Si5 0.851153 0.461327 0.186137
Si Si6 0.392124 0.867062 0.318025
Si Si7 0.514265 0.386807 0.316936
O O1 0.591720 0.911907 0.756968
O O2 0.466907 0.870811 0.724330
O O3 0.500000 0.000000 0.827161
O O4 0.519341 0.881865 0.000000
O O5 0.334370 0.495229 0.768811
O O6 0.446148 0.545132 0.765798
O O7 0.441845 0.399762 0.737666
O O8 0.408391 0.462024 0.000000
O O9 0.328675 0.645916 0.765395
O O10 0.362794 0.794907 0.768971
O O11 0.447654 0.687512 0.737325
O O12 0.387673 0.703154 0.000000
O O13 0.218859 0.563493 0.238674
O O14 0.290724 0.569277 0.000000
O O15 0.863087 0.550553 0.226630
O O16 0.854990 0.456235 0.000000
O O17 0.384096 0.857495 0.500000
O O18 0.517952 0.395620 0.500000
#
# Coordination Sequence:
#
# PCOD9440744 Si02
#       7
#     8   8   8   8   8   8   8
#     4   9  17  30  49  74  99 123 157 200 244 290
#     4   9  15  26  44  66  92 125 164 198 239 287
#     4  10  19  32  50  71  98 131 168 206 251 305
#     4   8  16  30  50  73  96 132 173 204 241 297
#     4   9  17  32  53  75  99 129 167 206 248 296
#     4  10  19  31  51  76 100 126 161 208 257 300
#     4  10  17  26  42  66  94 122 159 205 248 281
#
# _framework density 17.544936
#
# number of rings (size 3 to 8) (size 9 to 14) (size 15 to 20)
#    0.000    2.714    0.000    4.714    0.000    2.286 
#    0.000    4.286    3.143    0.000    0.000    0.000 
#    0.000    0.000    0.000    0.000    0.000    0.000 
#
# Total GULP energy -311859.358934 kJ/mol
# GULP energy per Si atom -5568.917124 kJ/mol
# Density = 1.750500 g / cm^3
# Si number density = 17.544936 Si / 1000 Ang^3
#
#
#
# Elastic Constant Matrix: (Units=GPa)
#
#
# Indices 1 2 3 4 5 6 
#
# 1 110.2832 22.4295 11.6178 0.0000 0.0000 0.0000
# 2 22.4295 49.2617 10.7095 0.0000 0.0000 0.0000
# 3 11.6178 10.7095 33.7134 0.0000 0.0000 0.0000
# 4 0.0000 0.0000 0.0000 13.3323 0.0000 0.0000
# 5 0.0000 0.0000 0.0000 0.0000 6.9522 0.0000
# 6 0.0000 0.0000 0.0000 0.0000 0.0000 14.6888
#
#
#
# Elastic Compliance Matrix: (Units=1/GPa)
#
#
# Indices 1 2 3 4 5 6 
#
# 1 0.010140 -0.004143 -0.002178 0.000000 0.000000 0.000000
# 2 -0.004143 0.023499 -0.006037 0.000000 0.000000 0.000000
# 3 -0.002178 -0.006037 0.032330 0.000000 0.000000 0.000000
# 4 0.000000 0.000000 0.000000 0.075006 0.000000 0.000000
# 5 0.000000 0.000000 0.000000 0.000000 0.143839 0.000000
# 6 0.000000 0.000000 0.000000 0.000000 0.000000 0.068079
#
#
# Mechanical properties :
#
#
# Convention : Reuss Voigt Hill
#
# Bulk Modulus (GPa) = 24.24119 31.41910 27.83015
# Shear Modulus (GPa) = 12.77598 16.89477 14.83538
#
# Velocity S-wave (km/s) = 2.70142 3.10650 2.91101
# Velocity P-wave (km/s) = 4.85560 5.55102 5.21491
#
# Compressibility (1/GPa) = 0.04125209
#
# Stress axis : x y z
#
# Youngs Moduli (GPa) = 98.62260 42.55570 30.93100
#
# Poissons Ratio (x) = 0.17632 0.06737
# Poissons Ratio (y) = 0.40862 0.18673
# Poissons Ratio (z) = 0.21480 0.25690
#
# Static dielectric constant tensor:
#      x y z
#    x 1.623510 0.000000 0.000000 
#    y 0.000000 1.626000 0.000000 
#    z 0.000000 0.000000 1.592370 
# 
# From -- ./inp_files/9372.got.cif
#   From: 2010.05.17/outbox.cif.g08.bks.cpg/sg58_5_cif.got.tgz:9372.got - 2010.06.03 14:20:14.
