data_PCOD9440386
_publ_section_title
;
Structure prediction by ZEFSAII (Michael W. Deem and Ramdas Pophale) SiO2 
 PCOD9440386
Probable space group: P B C M
;
_chemical_formula_sum "Si O2"
_cell_formula_units_Z 48
_cell_length_a 12.807291
_cell_length_b 12.779990
_cell_length_c 14.042529
_cell_angle_alpha 90.000000
_cell_angle_beta 90.000000
_cell_angle_gamma 90.000000
_cell_volume 2298.439734
_symmetry_space_group_name_H-M "P B C M"
_symmetry_group_IT_number 57
_symmetry_cell_setting 'orthorhombic'
loop_
_space_group_symop_operation_xyz
x,y,z
-x,-y,1/2+z
x,1/2-y,-z
-x,1/2+y,1/2-z
-x,-y,-z
x,y,1/2-z
-x,1/2+y,z
x,1/2-y,1/2+z
loop_
_atom_site_type_symbol
_atom_site_label
_atom_site_fract_x
_atom_site_fract_y
_atom_site_fract_z
Si Si1 0.383455 0.216785 0.639057
Si Si2 0.043197 0.786701 0.360802
Si Si3 0.090982 0.581973 0.023844
Si Si4 0.177639 0.093482 0.861889
Si Si5 0.418945 0.637904 0.983408
Si Si6 0.565572 0.949541 0.861434
O O1 0.407096 0.194430 0.750000
O O2 0.277297 0.161019 0.612058
O O3 0.477670 0.175362 0.575211
O O4 0.371133 0.341437 0.631732
O O5 0.069276 0.787551 0.250000
O O6 0.927348 0.836519 0.373144
O O7 0.049385 0.671228 0.404711
O O8 0.117185 0.859006 0.426157
O O9 0.175346 0.511616 0.076473
O O10 0.000000 0.500000 0.000000
O O11 0.182511 0.066173 0.750000
O O12 0.379023 0.545265 0.915518
O O13 0.361978 0.750000 0.000000
O O14 0.459523 0.581969 0.080401
O O15 0.546332 0.971609 0.750000
#
# Coordination Sequence:
#
# PCOD9440386 Si02
#       6
#     8   8   8   8   8   8
#     4   9  17  30  49  79 109 138 174 216 264 312
#     4   9  17  30  49  73 104 141 181 224 264 315
#     4   9  17  30  45  74 101 140 178 220 259 319
#     4   9  17  30  50  77 110 139 172 217 265 312
#     4   9  17  30  48  77 103 137 177 215 263 310
#     4   9  17  30  48  73 107 138 171 218 264 310
#
# _framework density 20.883731000000001
#
# number of rings (size 3 to 8) (size 9 to 14) (size 15 to 20)
#    0.000    3.000    0.000    1.000    0.000    1.333 
#   18.000    0.000    0.000    1.000   34.667    0.000 
#    0.000    0.000    0.000    0.000    0.000    0.000 
#
# Total GULP energy -267697.746099 kJ/mol
# GULP energy per Si atom -5577.036377 kJ/mol
# Density = 2.083620 g / cm^3
# Si number density = 20.883731 Si / 1000 Ang^3
#
#
#
# Elastic Constant Matrix: (Units=GPa)
#
#
# Indices 1 2 3 4 5 6 
#
# 1 31.0290 23.2745 22.9151 0.0000 0.0000 0.0000
# 2 23.2745 157.4840 67.7865 0.0000 0.0000 0.0000
# 3 22.9151 67.7865 142.2648 0.0000 0.0000 0.0000
# 4 0.0000 0.0000 0.0000 36.5421 0.0000 0.0000
# 5 0.0000 0.0000 0.0000 0.0000 14.2024 0.0000
# 6 0.0000 0.0000 0.0000 0.0000 0.0000 15.2484
#
#
#
# Elastic Compliance Matrix: (Units=1/GPa)
#
#
# Indices 1 2 3 4 5 6 
#
# 1 0.038287 -0.003779 -0.004366 0.000000 0.000000 0.000000
# 2 -0.003779 0.008361 -0.003375 0.000000 0.000000 0.000000
# 3 -0.004366 -0.003375 0.009341 0.000000 0.000000 0.000000
# 4 0.000000 0.000000 0.000000 0.027366 0.000000 0.000000
# 5 0.000000 0.000000 0.000000 0.000000 0.070411 0.000000
# 6 0.000000 0.000000 0.000000 0.000000 0.000000 0.065581
#
#
# Mechanical properties :
#
#
# Convention : Reuss Voigt Hill
#
# Bulk Modulus (GPa) = 30.35116 62.08110 46.21613
# Shear Modulus (GPa) = 19.73401 27.65203 23.69302
#
# Velocity S-wave (km/s) = 3.07733 3.64276 3.37192
# Velocity P-wave (km/s) = 5.21456 6.89090 6.11049
#
# Compressibility (1/GPa) = 0.03294766
#
# Stress axis : x y z
#
# Youngs Moduli (GPa) = 26.11847 119.60057 107.05833
#
# Poissons Ratio (x) = 0.45197 0.46746
# Poissons Ratio (y) = 0.09870 0.36135
# Poissons Ratio (z) = 0.11404 0.40368
#
# Static dielectric constant tensor:
#      x y z
#    x 1.740680 0.000000 0.000000 
#    y 0.000000 1.785940 0.000000 
#    z 0.000000 0.000000 1.774940 
# 
# From -- ./inp_files/18406.got.cif
#   From: 2010.05.17/outbox.cif.g08.bks.cpg/sg57_10_cif.got.tgz:18406.got - 2010.06.03 13:58:18.
