data_PCOD9440667
_publ_section_title
;
Structure prediction by ZEFSAII (Michael W. Deem and Ramdas Pophale) SiO2 
 PCOD9440667
Probable space group: P N N M
;
_chemical_formula_sum "Si O2"
_cell_formula_units_Z 32
_cell_length_a 7.027224
_cell_length_b 11.733401
_cell_length_c 19.112436
_cell_angle_alpha 90.000000
_cell_angle_beta 90.000000
_cell_angle_gamma 90.000000
_cell_volume 1575.882217
_symmetry_space_group_name_H-M "P N N M"
_symmetry_group_IT_number 58
_symmetry_cell_setting 'orthorhombic'
loop_
_space_group_symop_operation_xyz
x,y,z
-x,-y,z
1/2+x,1/2-y,1/2-z
1/2-x,1/2+y,1/2-z
-x,-y,-z
x,y,-z
1/2-x,1/2+y,1/2+z
1/2+x,1/2-y,1/2+z
loop_
_atom_site_type_symbol
_atom_site_label
_atom_site_fract_x
_atom_site_fract_y
_atom_site_fract_z
Si Si1 0.500000 0.500000 0.265437
Si Si2 0.730850 0.025643 0.500000
Si Si3 0.203981 0.562807 0.148307
Si Si4 0.891049 0.182111 0.119514
Si Si5 0.203718 0.214760 0.000000
Si Si6 0.270730 0.468215 0.500000
O O1 0.325606 0.524190 0.214101
O O2 0.456824 0.395168 0.316639
O O3 0.787282 0.158753 0.500000
O O4 0.500000 0.000000 0.500000
O O5 0.791317 0.971243 0.426910
O O6 0.187534 0.698881 0.146263
O O7 0.000000 0.500000 0.152586
O O8 0.068651 0.211332 0.068554
O O9 0.750864 0.108005 0.069397
O O10 0.319466 0.094837 0.000000
O O11 0.500000 0.500000 0.500000
#
# Coordination Sequence:
#
# PCOD9440667 Si02
#       6
#     4   4   8   8   4   4
#     4  12  26  38  58  94 128 152 192 248 306 366
#     4  10  17  35  60  84 112 150 210 241 277 352
#     4  11  24  39  61  87 117 162 197 244 300 351
#     4  10  18  36  57  89 117 149 205 241 290 357
#     4  10  14  32  64  86 107 158 208 246 279 348
#     4   8  15  30  59  83 108 154 201 246 278 336
#
# _framework density 20.306087000000002
#
# number of rings (size 3 to 8) (size 9 to 14) (size 15 to 20)
#    0.000    2.000    8.750    0.750    3.500    0.500 
#    0.000    0.000    0.000    0.000    0.000    8.750 
#    0.000    0.000    0.000    0.000    0.000    0.000 
#
# Total GULP energy -178535.261971 kJ/mol
# GULP energy per Si atom -5579.226937 kJ/mol
# Density = 2.025987 g / cm^3
# Si number density = 20.306087 Si / 1000 Ang^3
#
#
#
# Elastic Constant Matrix: (Units=GPa)
#
#
# Indices 1 2 3 4 5 6 
#
# 1 60.2174 28.6013 48.0844 0.0000 0.0000 0.0000
# 2 28.6013 165.2648 64.5634 0.0000 0.0000 0.0000
# 3 48.0844 64.5634 187.9864 0.0000 0.0000 0.0000
# 4 0.0000 0.0000 0.0000 -10.4276 0.0000 0.0000
# 5 0.0000 0.0000 0.0000 0.0000 9.1185 0.0000
# 6 0.0000 0.0000 0.0000 0.0000 0.0000 4.9838
#
#
#
# Elastic Compliance Matrix: (Units=1/GPa)
#
#
# Indices 1 2 3 4 5 6 
#
# 1 0.021323 -0.001801 -0.004836 0.000000 0.000000 0.000000
# 2 -0.001801 0.007141 -0.001992 0.000000 0.000000 0.000000
# 3 -0.004836 -0.001992 0.007240 0.000000 0.000000 0.000000
# 4 0.000000 0.000000 0.000000 -0.095899 0.000000 0.000000
# 5 0.000000 0.000000 0.000000 0.000000 0.109667 0.000000
# 6 0.000000 0.000000 0.000000 0.000000 0.000000 0.200652
#
#
# Mechanical properties :
#
#
# Convention : Reuss Voigt Hill
#
# Bulk Modulus (GPa) = 54.20804 77.32963 65.76883
# Shear Modulus (GPa) = 18.27951 18.88290 18.58121
#
# Velocity S-wave (km/s) = 3.00359 3.05276 3.02827
# Velocity P-wave (km/s) = 6.22753 7.11269 6.68478
#
# Compressibility (1/GPa) = 0.01844745
#
# Stress axis : x y z
#
# Youngs Moduli (GPa) = 46.89708 140.04189 138.11255
#
# Poissons Ratio (x) = 0.25224 0.66786
# Poissons Ratio (y) = 0.08447 0.27508
# Poissons Ratio (z) = 0.22678 0.27893
#
# Static dielectric constant tensor:
#      x y z
#    x 1.977230 0.000000 0.000000 
#    y 0.000000 1.738540 0.000000 
#    z 0.000000 0.000000 1.674130 
# 
# From -- ./inp_files/24914.got.cif
#   From: 2010.05.17/outbox.cif.g08.bks.cpg/sg58_13_cif.got.tgz:24914.got - 2010.06.03 14:20:14.
