data_PCOD9440246
_publ_section_title
;
Structure prediction by ZEFSAII (Michael W. Deem and Ramdas Pophale) SiO2 
 PCOD9440246
Probable space group: P B C M
;
_chemical_formula_sum "Si O2"
_cell_formula_units_Z 24
_cell_length_a 4.639679
_cell_length_b 9.561930
_cell_length_c 19.885407
_cell_angle_alpha 90.000000
_cell_angle_beta 90.000000
_cell_angle_gamma 90.000000
_cell_volume 882.201880
_symmetry_space_group_name_H-M "P B C M"
_symmetry_group_IT_number 57
_symmetry_cell_setting 'orthorhombic'
loop_
_space_group_symop_operation_xyz
x,y,z
-x,-y,1/2+z
x,1/2-y,-z
-x,1/2+y,1/2-z
-x,-y,-z
x,y,1/2-z
-x,1/2+y,z
x,1/2-y,1/2+z
loop_
_atom_site_type_symbol
_atom_site_label
_atom_site_fract_x
_atom_site_fract_y
_atom_site_fract_z
Si Si1 0.808960 0.884548 0.960023
Si Si2 0.549993 0.788242 0.250000
Si Si3 0.971239 0.449154 0.250000
Si Si4 0.295976 0.890189 0.866930
O O1 0.544104 0.949268 0.916884
O O2 0.050949 0.818694 0.911262
O O3 0.691877 0.750000 0.000000
O O4 0.000000 0.000000 0.000000
O O5 0.893799 0.793640 0.250000
O O6 0.456256 0.714708 0.182309
O O7 0.369747 0.934598 0.250000
O O8 0.111061 0.509590 0.182281
#
# Coordination Sequence:
#
# PCOD9440246 Si02
#       4
#     8   4   4   8
#     4  12  28  47  74 104 150 199 247 300 366 444
#     4  11  24  43  76 103 141 185 234 318 371 440
#     4  11  24  43  76 103 139 185 240 312 375 440
#     4  11  26  46  70 107 143 188 248 305 378 438
#
# _framework density 27.204657000000001
#
# number of rings (size 3 to 8) (size 9 to 14) (size 15 to 20)
#    0.000    0.667    0.000    6.000   14.000    5.333 
#    0.000    0.000    0.000    0.000    0.000    0.000 
#    0.000    0.000    0.000    0.000    0.000    0.000 
#
# Total GULP energy -134369.299171 kJ/mol
# GULP energy per Si atom -5598.720799 kJ/mol
# Density = 2.714274 g / cm^3
# Si number density = 27.204657 Si / 1000 Ang^3
#
#
#
# Elastic Constant Matrix: (Units=GPa)
#
#
# Indices 1 2 3 4 5 6 
#
# 1 149.3514 23.4936 43.0519 0.0000 0.0000 0.0000
# 2 23.4936 69.7788 38.4107 0.0000 0.0000 0.0000
# 3 43.0519 38.4107 111.9965 0.0000 0.0000 0.0000
# 4 0.0000 0.0000 0.0000 21.8675 0.0000 0.0000
# 5 0.0000 0.0000 0.0000 0.0000 51.6928 0.0000
# 6 0.0000 0.0000 0.0000 0.0000 0.0000 51.9954
#
#
#
# Elastic Compliance Matrix: (Units=1/GPa)
#
#
# Indices 1 2 3 4 5 6 
#
# 1 0.007607 -0.001173 -0.002522 0.000000 0.000000 0.000000
# 2 -0.001173 0.017847 -0.005670 0.000000 0.000000 0.000000
# 3 -0.002522 -0.005670 0.011843 0.000000 0.000000 0.000000
# 4 0.000000 0.000000 0.000000 0.045730 0.000000 0.000000
# 5 0.000000 0.000000 0.000000 0.000000 0.019345 0.000000
# 6 0.000000 0.000000 0.000000 0.000000 0.000000 0.019232
#
#
# Mechanical properties :
#
#
# Convention : Reuss Voigt Hill
#
# Bulk Modulus (GPa) = 53.85825 60.11547 56.98686
# Shear Modulus (GPa) = 34.12425 40.18916 37.15670
#
# Velocity S-wave (km/s) = 3.54553 3.84772 3.69971
# Velocity P-wave (km/s) = 6.04991 6.47189 6.26446
#
# Compressibility (1/GPa) = 0.01856726
#
# Stress axis : x y z
#
# Youngs Moduli (GPa) = 131.45616 56.03169 84.43891
#
# Poissons Ratio (x) = 0.06572 0.21295
# Poissons Ratio (y) = 0.15420 0.47877
# Poissons Ratio (z) = 0.33152 0.31770
#
# Static dielectric constant tensor:
#      x y z
#    x 2.009820 0.000000 0.000000 
#    y 0.000000 2.235130 0.000000 
#    z 0.000000 0.000000 2.191560 
# 
# From -- ./inp_files/19736.got.cif
#   From: 2010.05.17/outbox.cif.g08.bks.cpg/sg57_10_cif.got.tgz:19736.got - 2010.06.03 13:58:18.
