data_PCOD9440139
_publ_section_title
;
Structure prediction by ZEFSAII (Michael W. Deem and Ramdas Pophale) SiO2 
 PCOD9440139
Probable space group: P B C M
;
_chemical_formula_sum "Si O2"
_cell_formula_units_Z 28
_cell_length_a 6.511056
_cell_length_b 18.125994
_cell_length_c 9.828283
_cell_angle_alpha 90.000000
_cell_angle_beta 90.000000
_cell_angle_gamma 90.000000
_cell_volume 1159.927689
_symmetry_space_group_name_H-M "P B C M"
_symmetry_group_IT_number 57
_symmetry_cell_setting 'orthorhombic'
loop_
_space_group_symop_operation_xyz
x,y,z
-x,-y,1/2+z
x,1/2-y,-z
-x,1/2+y,1/2-z
-x,-y,-z
x,y,1/2-z
-x,1/2+y,z
x,1/2-y,1/2+z
loop_
_atom_site_type_symbol
_atom_site_label
_atom_site_fract_x
_atom_site_fract_y
_atom_site_fract_z
Si Si1 0.759368 0.404835 0.250000
Si Si2 0.120427 0.394872 0.458662
Si Si3 0.356777 0.250000 0.000000
Si Si4 0.366197 0.490715 0.250000
Si Si5 0.370053 0.762256 0.750000
Si Si6 0.940725 0.117836 0.250000
O O1 0.906915 0.404541 0.379903
O O2 0.604612 0.472778 0.250000
O O3 0.642647 0.326670 0.250000
O O4 0.070786 0.401344 0.617115
O O5 0.215495 0.313821 0.438401
O O6 0.273371 0.451045 0.384528
O O7 0.503144 0.283508 0.884052
O O8 0.271030 0.571444 0.250000
O O9 0.144315 0.798472 0.750000
#
# Coordination Sequence:
#
# PCOD9440139 Si02
#       6
#     4   8   4   4   4   4
#     4  11  22  47  71  93 135 186 221 275 349 407
#     4  11  24  45  70  99 135 182 228 281 340 407
#     4  12  22  44  70 102 134 178 230 288 334 398
#     4  11  25  48  69  95 145 186 218 276 357 405
#     4  12  23  41  70 103 134 175 232 284 339 398
#     4  12  26  42  68 111 136 175 233 285 333 416
#
# _framework density 24.139437000000001
#
# number of rings (size 3 to 8) (size 9 to 14) (size 15 to 20)
#    0.000    0.571    2.857    6.000    0.000    1.143 
#   10.286    0.000    0.000    0.000    0.000    0.000 
#    0.000    0.000    0.000    0.000    0.000    0.000 
#
# Total GULP energy -156997.942966 kJ/mol
# GULP energy per Si atom -5607.069392 kJ/mol
# Density = 2.408449 g / cm^3
# Si number density = 24.139437 Si / 1000 Ang^3
#
#
#
# Elastic Constant Matrix: (Units=GPa)
#
#
# Indices 1 2 3 4 5 6 
#
# 1 107.6431 8.8280 58.6614 0.0000 0.0000 0.0000
# 2 8.8280 58.0431 0.1306 0.0000 0.0000 0.0000
# 3 58.6614 0.1306 191.5775 0.0000 0.0000 0.0000
# 4 0.0000 0.0000 0.0000 23.0683 0.0000 0.0000
# 5 0.0000 0.0000 0.0000 0.0000 -63.8058 0.0000
# 6 0.0000 0.0000 0.0000 0.0000 0.0000 45.9539
#
#
#
# Elastic Compliance Matrix: (Units=1/GPa)
#
#
# Indices 1 2 3 4 5 6 
#
# 1 0.011319 -0.001714 -0.003465 0.000000 0.000000 0.000000
# 2 -0.001714 0.017488 0.000513 0.000000 0.000000 0.000000
# 3 -0.003465 0.000513 0.006280 0.000000 0.000000 0.000000
# 4 0.000000 0.000000 0.000000 0.043350 0.000000 0.000000
# 5 0.000000 0.000000 0.000000 0.000000 -0.015673 0.000000
# 6 0.000000 0.000000 0.000000 0.000000 0.000000 0.021761
#
#
# Mechanical properties :
#
#
# Convention : Reuss Voigt Hill
#
# Bulk Modulus (GPa) = 38.82585 54.72262 46.77424
# Shear Modulus (GPa) = 48.80850 20.35288 34.58069
#
# Velocity S-wave (km/s) = 4.50148 2.90683 3.78900
# Velocity P-wave (km/s) = 6.56785 5.82965 6.20973
#
# Compressibility (1/GPa) = 0.02575604
#
# Stress axis : x y z
#
# Youngs Moduli (GPa) = 88.35034 57.18182 159.22706
#
# Poissons Ratio (x) = 0.09799 0.55166
# Poissons Ratio (y) = 0.15141 -0.08165
# Poissons Ratio (z) = 0.30610 -0.02932
#
# Static dielectric constant tensor:
#      x y z
#    x 1.880340 0.000000 0.000000 
#    y 0.000000 1.906800 0.000000 
#    z 0.000000 0.000000 1.902890 
# 
# From -- ./inp_files/10637.got.cif
#   From: 2010.05.17/outbox.cif.g08.bks.cpg/sg57_6_cif.got.tgz:10637.got - 2010.06.03 13:58:18.
