data_PCOD9440194
_publ_section_title
;
Structure prediction by ZEFSAII (Michael W. Deem and Ramdas Pophale) SiO2 
 PCOD9440194
Probable space group: P B C M
;
_chemical_formula_sum "Si O2"
_cell_formula_units_Z 64
_cell_length_a 14.664851
_cell_length_b 11.605139
_cell_length_c 17.138647
_cell_angle_alpha 90.000000
_cell_angle_beta 90.000000
_cell_angle_gamma 90.000000
_cell_volume 2916.785788
_symmetry_space_group_name_H-M "P B C M"
_symmetry_group_IT_number 57
_symmetry_cell_setting 'orthorhombic'
loop_
_space_group_symop_operation_xyz
x,y,z
-x,-y,1/2+z
x,1/2-y,-z
-x,1/2+y,1/2-z
-x,-y,-z
x,y,1/2-z
-x,1/2+y,z
x,1/2-y,1/2+z
loop_
_atom_site_type_symbol
_atom_site_label
_atom_site_fract_x
_atom_site_fract_y
_atom_site_fract_z
Si Si1 0.786380 0.460857 0.089096
Si Si2 0.606435 0.588902 0.426549
Si Si3 0.737726 0.214906 0.340264
Si Si4 0.122357 0.150995 0.662772
Si Si5 0.873297 0.424885 0.570038
Si Si6 0.335461 0.301144 0.337241
Si Si7 0.401290 0.967695 0.902536
Si Si8 0.068661 0.162220 0.066327
O O1 0.696404 0.532429 0.109837
O O2 0.770866 0.341993 0.134547
O O3 0.870455 0.552431 0.091412
O O4 0.799850 0.422762 0.999121
O O5 0.621144 0.723551 0.405803
O O6 0.608580 0.531905 0.513154
O O7 0.508262 0.556174 0.392754
O O8 0.711780 0.214183 0.250000
O O9 0.826369 0.138294 0.358119
O O10 0.655647 0.150268 0.387728
O O11 0.108348 0.108076 0.750000
O O12 0.226140 0.196036 0.655246
O O13 0.059089 0.257806 0.642089
O O14 0.107824 0.052381 0.599812
O O15 0.968021 0.373843 0.540995
O O16 0.359115 0.257722 0.250000
O O17 0.365619 0.433739 0.344703
O O18 0.108998 0.250000 0.000000
#
# Coordination Sequence:
#
# PCOD9440194 Si02
#       8
#     8   8   8   8   8   8   8   8
#     4  12  25  46  74 103 142 186 239 298 356 429
#     4  11  25  44  73 103 135 186 242 301 354 424
#     4  12  27  46  70 104 149 192 230 290 369 437
#     4  11  24  43  70 102 140 188 240 294 360 433
#     4  12  25  46  73 102 139 189 241 294 357 435
#     4  11  23  44  71 101 140 185 238 299 366 430
#     4  11  25  45  71 104 141 187 244 291 355 440
#     4  12  26  45  74 106 137 185 244 304 361 426
#
# _framework density 21.941960000000002
#
# number of rings (size 3 to 8) (size 9 to 14) (size 15 to 20)
#    0.000    0.500    5.000    2.625    3.500    3.000 
#    0.000    0.000    0.000    0.000    0.000    0.000 
#    0.000    0.000    0.000    0.000    0.000    0.000 
#
# Total GULP energy -357046.848204 kJ/mol
# GULP energy per Si atom -5578.857003 kJ/mol
# Density = 2.189202 g / cm^3
# Si number density = 21.941960 Si / 1000 Ang^3
#
#
#
# Elastic Constant Matrix: (Units=GPa)
#
#
# Indices 1 2 3 4 5 6 
#
# 1 97.6554 35.8469 9.8824 0.0000 0.0000 0.0000
# 2 35.8469 116.0565 25.1020 0.0000 0.0000 0.0000
# 3 9.8824 25.1020 71.2967 0.0000 0.0000 0.0000
# 4 0.0000 0.0000 0.0000 26.9549 0.0000 0.0000
# 5 0.0000 0.0000 0.0000 0.0000 -3.1741 0.0000
# 6 0.0000 0.0000 0.0000 0.0000 0.0000 31.1777
#
#
#
# Elastic Compliance Matrix: (Units=1/GPa)
#
#
# Indices 1 2 3 4 5 6 
#
# 1 0.011559 -0.003489 -0.000374 0.000000 0.000000 0.000000
# 2 -0.003489 0.010380 -0.003171 0.000000 0.000000 0.000000
# 3 -0.000374 -0.003171 0.015194 0.000000 0.000000 0.000000
# 4 0.000000 0.000000 0.000000 0.037099 0.000000 0.000000
# 5 0.000000 0.000000 0.000000 0.000000 -0.315053 0.000000
# 6 0.000000 0.000000 0.000000 0.000000 0.000000 0.032074
#
#
# Mechanical properties :
#
#
# Convention : Reuss Voigt Hill
#
# Bulk Modulus (GPa) = 43.35561 47.40791 45.38176
# Shear Modulus (GPa) = -26.73930 25.27017 -0.73457
#
# Velocity S-wave (km/s) = -3.49469 3.39733 -0.57923
# Velocity P-wave (km/s) = 1.87572 6.08622 4.50335
#
# Compressibility (1/GPa) = 0.02306507
#
# Stress axis : x y z
#
# Youngs Moduli (GPa) = 86.51433 96.33788 65.81501
#
# Poissons Ratio (x) = 0.33616 0.02459
# Poissons Ratio (y) = 0.30188 0.20870
# Poissons Ratio (z) = 0.03232 0.30548
#
# Static dielectric constant tensor:
#      x y z
#    x 1.770810 0.000000 0.000000 
#    y 0.000000 1.774520 0.000000 
#    z 0.000000 0.000000 1.836350 
# 
# From -- ./inp_files/22693.got.cif
#   From: 2010.05.17/outbox.cif.g08.bks.cpg/sg57_12_cif.got.tgz:22693.got - 2010.06.03 13:58:18.
