data_PCOD9440078
_publ_section_title
;
Structure prediction by ZEFSAII (Michael W. Deem and Ramdas Pophale) SiO2 
 PCOD9440078
Probable space group: P B C M
;
_chemical_formula_sum "Si O2"
_cell_formula_units_Z 48
_cell_length_a 15.407488
_cell_length_b 8.172908
_cell_length_c 15.198983
_cell_angle_alpha 90.000000
_cell_angle_beta 90.000000
_cell_angle_gamma 90.000000
_cell_volume 1913.916461
_symmetry_space_group_name_H-M "P B C M"
_symmetry_group_IT_number 57
_symmetry_cell_setting 'orthorhombic'
loop_
_space_group_symop_operation_xyz
x,y,z
-x,-y,1/2+z
x,1/2-y,-z
-x,1/2+y,1/2-z
-x,-y,-z
x,y,1/2-z
-x,1/2+y,z
x,1/2-y,1/2+z
loop_
_atom_site_type_symbol
_atom_site_label
_atom_site_fract_x
_atom_site_fract_y
_atom_site_fract_z
Si Si1 0.538374 0.016264 0.644511
Si Si2 0.292870 0.820464 0.145039
Si Si3 0.127307 0.826045 0.595983
Si Si4 0.786576 0.842488 0.852841
Si Si5 0.629189 0.838922 0.353357
Si Si6 0.958991 0.817306 0.099634
O O1 0.528846 0.046701 0.750000
O O2 0.609941 0.147027 0.610777
O O3 0.441546 0.037713 0.606843
O O4 0.579715 0.836657 0.639085
O O5 0.302233 0.826394 0.250000
O O6 0.225921 0.673266 0.130021
O O7 0.239167 0.980088 0.112154
O O8 0.137103 0.750000 0.500000
O O9 0.054599 0.706796 0.640202
O O10 0.080066 0.001090 0.599277
O O11 0.763312 0.850173 0.750000
O O12 0.723401 0.702774 0.892277
O O13 0.885709 0.796011 0.858848
O O14 0.641443 0.884582 0.250000
O O15 0.964289 0.750000 0.000000
#
# Coordination Sequence:
#
# PCOD9440078 Si02
#       6
#     8   8   8   8   8   8
#     4   8  14  25  43  68  99 133 165 199 240 287
#     4   9  18  33  52  76 106 136 167 206 250 293
#     4  11  22  37  56  75  98 130 168 207 250 302
#     4   9  18  33  52  76 106 136 167 206 250 293
#     4   8  14  25  43  68  99 133 165 199 240 287
#     4  11  22  37  56  75  98 130 168 207 250 302
#
# _framework density 25.079464000000002
#
# number of rings (size 3 to 8) (size 9 to 14) (size 15 to 20)
#    0.000    2.667    0.000    6.000    0.000    2.667 
#    0.000    3.333    0.000    1.000    0.000    7.000 
#    0.000    0.000    0.000    0.000    0.000    0.000 
#
# Total GULP energy -267696.430605 kJ/mol
# GULP energy per Si atom -5577.008971 kJ/mol
# Density = 2.502238 g / cm^3
# Si number density = 25.079464 Si / 1000 Ang^3
#
#
#
# Elastic Constant Matrix: (Units=GPa)
#
#
# Indices 1 2 3 4 5 6 
#
# 1 28.4395 -14.9426 -3.6241 0.0000 0.0000 0.0000
# 2 -14.9426 83.8854 0.5303 0.0000 0.0000 0.0000
# 3 -3.6241 0.5303 21.6667 0.0000 0.0000 0.0000
# 4 0.0000 0.0000 0.0000 11.4879 0.0000 0.0000
# 5 0.0000 0.0000 0.0000 0.0000 28.2903 0.0000
# 6 0.0000 0.0000 0.0000 0.0000 0.0000 40.6879
#
#
#
# Elastic Compliance Matrix: (Units=1/GPa)
#
#
# Indices 1 2 3 4 5 6 
#
# 1 0.039678 0.007027 0.006465 0.000000 0.000000 0.000000
# 2 0.007027 0.013167 0.000853 0.000000 0.000000 0.000000
# 3 0.006465 0.000853 0.047214 0.000000 0.000000 0.000000
# 4 0.000000 0.000000 0.000000 0.087048 0.000000 0.000000
# 5 0.000000 0.000000 0.000000 0.000000 0.035348 0.000000
# 6 0.000000 0.000000 0.000000 0.000000 0.000000 0.024577
#
#
# Mechanical properties :
#
#
# Convention : Reuss Voigt Hill
#
# Bulk Modulus (GPa) = 7.76698 10.87986 9.32342
# Shear Modulus (GPa) = 19.13807 26.22844 22.68326
#
# Velocity S-wave (km/s) = 2.76542 3.23741 3.01068
# Velocity P-wave (km/s) = 3.64697 4.28042 3.97633
#
# Compressibility (1/GPa) = 0.12875018
#
# Stress axis : x y z
#
# Youngs Moduli (GPa) = 25.20268 75.94531 21.18004
#
# Poissons Ratio (x) = -0.53367 -0.13693
# Poissons Ratio (y) = -0.17710 -0.01807
# Poissons Ratio (z) = -0.16293 -0.06479
#
# Static dielectric constant tensor:
#      x y z
#    x 2.067260 0.000000 0.000000 
#    y 0.000000 2.040230 0.000000 
#    z 0.000000 0.000000 2.016370 
# 
# From -- ./inp_files/25264.got.cif
#   From: 2010.05.17/outbox.cif.g08.bks.cpg/sg57_13_cif.got.tgz:25264.got - 2010.06.03 13:58:18.
