data_PCOD9440058
_publ_section_title
;
Structure prediction by ZEFSAII (Michael W. Deem and Ramdas Pophale) SiO2 
 PCOD9440058
Probable space group: P B C M
;
_chemical_formula_sum "Si O2"
_cell_formula_units_Z 48
_cell_length_a 8.622363
_cell_length_b 16.587493
_cell_length_c 15.333100
_cell_angle_alpha 90.000000
_cell_angle_beta 90.000000
_cell_angle_gamma 90.000000
_cell_volume 2192.991878
_symmetry_space_group_name_H-M "P B C M"
_symmetry_group_IT_number 57
_symmetry_cell_setting 'orthorhombic'
loop_
_space_group_symop_operation_xyz
x,y,z
-x,-y,1/2+z
x,1/2-y,-z
-x,1/2+y,1/2-z
-x,-y,-z
x,y,1/2-z
-x,1/2+y,z
x,1/2-y,1/2+z
loop_
_atom_site_type_symbol
_atom_site_label
_atom_site_fract_x
_atom_site_fract_y
_atom_site_fract_z
Si Si1 0.385377 0.824644 0.250000
Si Si2 0.953652 0.378556 0.250000
Si Si3 0.668410 0.410248 0.930220
Si Si4 0.547573 0.669799 0.561692
Si Si5 0.663164 0.135501 0.250000
Si Si6 0.013834 0.829607 0.557731
Si Si7 0.855130 0.575514 0.920036
Si Si8 0.998729 0.815431 0.750000
O O1 0.475941 0.830905 0.341304
O O2 0.341042 0.730968 0.250000
O O3 0.233724 0.882244 0.250000
O O4 0.037004 0.415309 0.334993
O O5 0.977958 0.281505 0.250000
O O6 0.588756 0.399696 0.836494
O O7 0.760271 0.493402 0.926642
O O8 0.800164 0.339928 0.932957
O O9 0.549060 0.396679 0.007335
O O10 0.536503 0.750000 0.500000
O O11 0.724552 0.645050 0.576348
O O12 0.850604 0.124195 0.250000
O O13 0.987329 0.750000 0.500000
O O14 0.957609 0.906163 0.504096
O O15 0.933985 0.828840 0.652686
#
# Coordination Sequence:
#
# PCOD9440058 Si02
#       8
#     4   4   8   8   4   8   8   4
#     4  11  23  44  70 100 117 171 235 271 308 396
#     4  11  22  41  70  93 131 165 219 279 322 379
#     4  11  23  42  67  93 133 178 218 261 323 398
#     4  12  25  43  67  95 132 176 220 267 322 396
#     4   9  19  38  64  92 118 165 223 267 301 376
#     4  11  21  40  65  95 126 171 225 270 318 384
#     4  12  25  41  63 103 137 168 209 278 342 374
#     4   9  20  35  62  91 126 159 215 273 315 369
#
# _framework density 21.887906000000001
#
# number of rings (size 3 to 8) (size 9 to 14) (size 15 to 20)
#    0.000    1.000    3.333    4.000    2.333    0.000 
#    0.000    1.667    0.000    0.000    0.000    0.000 
#    0.000    0.000    0.000    0.000    0.000    0.000 
#
# Total GULP energy -267892.638938 kJ/mol
# GULP energy per Si atom -5581.096645 kJ/mol
# Density = 2.183809 g / cm^3
# Si number density = 21.887906 Si / 1000 Ang^3
#
#
#
# Elastic Constant Matrix: (Units=GPa)
#
#
# Indices 1 2 3 4 5 6 
#
# 1 76.9578 4.3991 39.3923 0.0000 0.0000 0.0000
# 2 4.3991 52.5364 27.5544 0.0000 0.0000 0.0000
# 3 39.3923 27.5544 201.4785 0.0000 0.0000 0.0000
# 4 0.0000 0.0000 0.0000 56.0682 0.0000 0.0000
# 5 0.0000 0.0000 0.0000 0.0000 21.9068 0.0000
# 6 0.0000 0.0000 0.0000 0.0000 0.0000 20.1580
#
#
#
# Elastic Compliance Matrix: (Units=1/GPa)
#
#
# Indices 1 2 3 4 5 6 
#
# 1 0.014443 0.000293 -0.002864 0.000000 0.000000 0.000000
# 2 0.000293 0.020511 -0.002862 0.000000 0.000000 0.000000
# 3 -0.002864 -0.002862 0.005915 0.000000 0.000000 0.000000
# 4 0.000000 0.000000 0.000000 0.017835 0.000000 0.000000
# 5 0.000000 0.000000 0.000000 0.000000 0.045648 0.000000
# 6 0.000000 0.000000 0.000000 0.000000 0.000000 0.049608
#
#
# Mechanical properties :
#
#
# Convention : Reuss Voigt Hill
#
# Bulk Modulus (GPa) = 33.33110 52.62936 42.98023
# Shear Modulus (GPa) = 28.59944 36.93505 32.76725
#
# Velocity S-wave (km/s) = 3.61866 4.11233 3.87337
# Velocity P-wave (km/s) = 5.72020 6.82975 6.29945
#
# Compressibility (1/GPa) = 0.03000201
#
# Stress axis : x y z
#
# Youngs Moduli (GPa) = 69.23598 48.75391 169.06992
#
# Poissons Ratio (x) = -0.01427 0.48421
# Poissons Ratio (y) = -0.02026 0.48394
# Poissons Ratio (z) = 0.19829 0.13955
#
# Static dielectric constant tensor:
#      x y z
#    x 1.857140 0.000000 0.000000 
#    y 0.000000 1.822860 0.000000 
#    z 0.000000 0.000000 1.803760 
# 
# From -- ./inp_files/16459.got.cif
#   From: 2010.05.17/outbox.cif.g08.bks.cpg/sg57_9_cif.got.tgz:16459.got - 2010.06.03 13:58:18.
