data_PCOD9440811
_publ_section_title
;
Structure prediction by ZEFSAII (Michael W. Deem and Ramdas Pophale) SiO2 
 PCOD9440811
Probable space group: P N N M
;
_chemical_formula_sum "Si O2"
_cell_formula_units_Z 44
_cell_length_a 5.575600
_cell_length_b 19.054328
_cell_length_c 24.890700
_cell_angle_alpha 90.000000
_cell_angle_beta 90.000000
_cell_angle_gamma 90.000000
_cell_volume 2644.370823
_symmetry_space_group_name_H-M "P N N M"
_symmetry_group_IT_number 58
_symmetry_cell_setting 'orthorhombic'
loop_
_space_group_symop_operation_xyz
x,y,z
-x,-y,z
1/2+x,1/2-y,1/2-z
1/2-x,1/2+y,1/2-z
-x,-y,-z
x,y,-z
1/2-x,1/2+y,1/2+z
1/2+x,1/2-y,1/2+z
loop_
_atom_site_type_symbol
_atom_site_label
_atom_site_fract_x
_atom_site_fract_y
_atom_site_fract_z
Si Si1 0.500000 0.500000 0.857454
Si Si2 0.869797 0.383608 0.257900
Si Si3 0.388439 0.263007 0.820216
Si Si4 0.894555 0.314021 0.141750
Si Si5 0.335619 0.069848 0.562217
Si Si6 0.639275 0.588948 0.238623
O O1 0.618302 0.445537 0.897740
O O2 0.339620 0.455683 0.816273
O O3 0.882712 0.309506 0.288210
O O4 0.882071 0.366126 0.193771
O O5 0.618852 0.423292 0.265734
O O6 0.118311 0.421662 0.270975
O O7 0.636635 0.274291 0.853625
O O8 0.379238 0.328691 0.778530
O O9 0.134329 0.268341 0.850750
O O10 0.938214 0.359803 0.088363
O O11 0.270296 0.078013 0.500000
O O12 0.500000 0.000000 0.566318
#
# Coordination Sequence:
#
# PCOD9440811 Si02
#       6
#     4   8   8   8   8   8
#     4  12  21  34  46  62  92 126 166 204 243 274
#     4  10  17  30  46  68  84 105 137 192 239 285
#     4  10  17  30  49  65  85 103 138 191 245 282
#     4  10  18  31  44  66  82 107 144 192 241 267
#     4  11  23  35  47  61  86 128 172 209 241 268
#     4  10  19  27  45  63  88 111 143 186 236 270
#
# _framework density 16.639116999999999
#
# number of rings (size 3 to 8) (size 9 to 14) (size 15 to 20)
#    0.000    1.636    3.636    7.909    0.000    0.000 
#    0.000    0.000    0.000    0.000    0.000    0.000 
#    0.000    0.000    0.000    0.000    0.000    0.000 
#
# Total GULP energy -245129.509326 kJ/mol
# GULP energy per Si atom -5571.125212 kJ/mol
# Density = 1.660125 g / cm^3
# Si number density = 16.639117 Si / 1000 Ang^3
#
#
#
# Elastic Constant Matrix: (Units=GPa)
#
#
# Indices 1 2 3 4 5 6 
#
# 1 147.7123 30.3315 26.7125 0.0000 0.0000 0.0000
# 2 30.3315 54.2250 40.6955 0.0000 0.0000 0.0000
# 3 26.7125 40.6955 52.7627 0.0000 0.0000 0.0000
# 4 0.0000 0.0000 0.0000 3.4203 0.0000 0.0000
# 5 0.0000 0.0000 0.0000 0.0000 5.9021 0.0000
# 6 0.0000 0.0000 0.0000 0.0000 0.0000 26.6322
#
#
#
# Elastic Compliance Matrix: (Units=1/GPa)
#
#
# Indices 1 2 3 4 5 6 
#
# 1 0.007690 -0.003276 -0.001367 0.000000 0.000000 0.000000
# 2 -0.003276 0.045184 -0.033192 0.000000 0.000000 0.000000
# 3 -0.001367 -0.033192 0.045245 0.000000 0.000000 0.000000
# 4 0.000000 0.000000 0.000000 0.292372 0.000000 0.000000
# 5 0.000000 0.000000 0.000000 0.000000 0.169432 0.000000
# 6 0.000000 0.000000 0.000000 0.000000 0.000000 0.037548
#
#
# Mechanical properties :
#
#
# Convention : Reuss Voigt Hill
#
# Bulk Modulus (GPa) = 44.54164 50.01991 47.28077
# Shear Modulus (GPa) = 7.34620 17.65495 12.50058
#
# Velocity S-wave (km/s) = 2.10347 3.26091 2.74392
# Velocity P-wave (km/s) = 5.72074 6.65620 6.20612
#
# Compressibility (1/GPa) = 0.02245090
#
# Stress axis : x y z
#
# Youngs Moduli (GPa) = 130.04416 22.13158 22.10173
#
# Poissons Ratio (x) = 0.07250 0.03020
# Poissons Ratio (y) = 0.42599 0.73360
# Poissons Ratio (z) = 0.17771 0.73459
#
# Static dielectric constant tensor:
#      x y z
#    x 1.723570 0.000000 0.000000 
#    y 0.000000 1.618140 0.000000 
#    z 0.000000 0.000000 1.511830 
# 
# From -- ./inp_files/30940.got.cif
#   From: 2010.05.17/outbox.cif.g08.bks.cpg/sg58_16_cif.got.tgz:30940.got - 2010.06.03 14:20:14.
