data_PCOD9440241
_publ_section_title
;
Structure prediction by ZEFSAII (Michael W. Deem and Ramdas Pophale) SiO2 
 PCOD9440241
Probable space group: P B C M
;
_chemical_formula_sum "Si O2"
_cell_formula_units_Z 40
_cell_length_a 4.863962
_cell_length_b 14.059366
_cell_length_c 22.132615
_cell_angle_alpha 90.000000
_cell_angle_beta 90.000000
_cell_angle_gamma 90.000000
_cell_volume 1513.521657
_symmetry_space_group_name_H-M "P B C M"
_symmetry_group_IT_number 57
_symmetry_cell_setting 'orthorhombic'
loop_
_space_group_symop_operation_xyz
x,y,z
-x,-y,1/2+z
x,1/2-y,-z
-x,1/2+y,1/2-z
-x,-y,-z
x,y,1/2-z
-x,1/2+y,z
x,1/2-y,1/2+z
loop_
_atom_site_type_symbol
_atom_site_label
_atom_site_fract_x
_atom_site_fract_y
_atom_site_fract_z
Si Si1 0.399460 0.785294 0.866049
Si Si2 0.595312 0.073117 0.680900
Si Si3 0.093055 0.116094 0.317249
Si Si4 0.040890 0.656920 0.022224
Si Si5 0.321080 0.516675 0.941408
O O1 0.346973 0.682337 0.836305
O O2 0.715239 0.814084 0.857279
O O3 0.221847 0.859852 0.827276
O O4 0.283360 0.805400 0.933432
O O5 0.481990 0.068897 0.750000
O O6 0.481888 0.035163 0.615916
O O7 0.847254 0.996983 0.680121
O O8 0.173700 0.144972 0.250000
O O9 0.884400 0.572901 0.057384
O O10 0.877794 0.750000 0.000000
O O11 0.146332 0.608190 0.960536
O O12 0.500000 0.500000 0.000000
#
# Coordination Sequence:
#
# PCOD9440241 Si02
#       5
#     8   8   8   8   8
#     4  12  25  47  74 108 148 199 252 312 381 456
#     4  11  24  45  73 110 154 201 255 317 388 462
#     4  11  25  45  70 105 151 199 250 309 376 455
#     4  11  24  43  70 104 143 187 247 311 372 447
#     4  11  24  45  71 105 145 197 255 311 381 453
#
# _framework density 26.428431
#
# number of rings (size 3 to 8) (size 9 to 14) (size 15 to 20)
#    0.000    0.800    4.000    3.000    0.000    4.000 
#    0.000    2.000    0.000    0.000    0.000    0.000 
#    0.000    0.000    0.000    0.000    0.000    0.000 
#
# Total GULP energy -223262.982248 kJ/mol
# GULP energy per Si atom -5581.574556 kJ/mol
# Density = 2.636828 g / cm^3
# Si number density = 26.428431 Si / 1000 Ang^3
#
#
#
# Elastic Constant Matrix: (Units=GPa)
#
#
# Indices 1 2 3 4 5 6 
#
# 1 32.9957 11.9322 17.5138 0.0000 0.0000 0.0000
# 2 11.9322 179.6032 55.5868 0.0000 0.0000 0.0000
# 3 17.5138 55.5868 191.2131 0.0000 0.0000 0.0000
# 4 0.0000 0.0000 0.0000 50.4913 0.0000 0.0000
# 5 0.0000 0.0000 0.0000 0.0000 41.4608 0.0000
# 6 0.0000 0.0000 0.0000 0.0000 0.0000 10.3828
#
#
#
# Elastic Compliance Matrix: (Units=1/GPa)
#
#
# Indices 1 2 3 4 5 6 
#
# 1 0.032149 -0.001346 -0.002553 0.000000 0.000000 0.000000
# 2 -0.001346 0.006175 -0.001672 0.000000 0.000000 0.000000
# 3 -0.002553 -0.001672 0.005950 0.000000 0.000000 0.000000
# 4 0.000000 0.000000 0.000000 0.019805 0.000000 0.000000
# 5 0.000000 0.000000 0.000000 0.000000 0.024119 0.000000
# 6 0.000000 0.000000 0.000000 0.000000 0.000000 0.096313
#
#
# Mechanical properties :
#
#
# Convention : Reuss Voigt Hill
#
# Bulk Modulus (GPa) = 30.18261 63.76418 46.97339
# Shear Modulus (GPa) = 24.19006 41.71892 32.95449
#
# Velocity S-wave (km/s) = 3.02868 3.97742 3.53503
# Velocity P-wave (km/s) = 4.86578 6.72850 5.87148
#
# Compressibility (1/GPa) = 0.03313166
#
# Stress axis : x y z
#
# Youngs Moduli (GPa) = 31.10520 161.95304 168.07753
#
# Poissons Ratio (x) = 0.21792 0.42918
# Poissons Ratio (y) = 0.04185 0.28098
# Poissons Ratio (z) = 0.07943 0.27075
#
# Static dielectric constant tensor:
#      x y z
#    x 2.072080 0.000000 0.000000 
#    y 0.000000 2.158990 0.000000 
#    z 0.000000 0.000000 2.269960 
# 
# From -- ./inp_files/26118.got.cif
#   From: 2010.05.17/outbox.cif.g08.bks.cpg/sg57_14_cif.got.tgz:26118.got - 2010.06.03 13:58:18.
