data_PCOD9440674
_publ_section_title
;
Structure prediction by ZEFSAII (Michael W. Deem and Ramdas Pophale) SiO2 
 PCOD9440674
Probable space group: P N N M
;
_chemical_formula_sum "Si O2"
_cell_formula_units_Z 44
_cell_length_a 11.908851
_cell_length_b 7.000487
_cell_length_c 22.189084
_cell_angle_alpha 90.000000
_cell_angle_beta 90.000000
_cell_angle_gamma 90.000000
_cell_volume 1849.854154
_symmetry_space_group_name_H-M "P N N M"
_symmetry_group_IT_number 58
_symmetry_cell_setting 'orthorhombic'
loop_
_space_group_symop_operation_xyz
x,y,z
-x,-y,z
1/2+x,1/2-y,1/2-z
1/2-x,1/2+y,1/2-z
-x,-y,-z
x,y,-z
1/2-x,1/2+y,1/2+z
1/2+x,1/2-y,1/2+z
loop_
_atom_site_type_symbol
_atom_site_label
_atom_site_fract_x
_atom_site_fract_y
_atom_site_fract_z
Si Si1 0.613986 0.759379 0.433200
Si Si2 0.863313 0.802593 0.910232
Si Si3 0.769257 0.365832 0.698120
Si Si4 0.713228 0.308096 0.834346
Si Si5 0.974872 0.270251 0.620567
Si Si6 0.159549 0.797128 0.500000
O O1 0.653079 0.812948 0.500000
O O2 0.627476 0.529100 0.426193
O O3 0.481646 0.790279 0.426090
O O4 0.692179 0.854856 0.383425
O O5 0.835753 0.784556 0.839450
O O6 0.758798 0.729262 0.948096
O O7 0.745396 0.381528 0.768509
O O8 0.782344 0.580161 0.674741
O O9 0.880291 0.258740 0.673558
O O10 0.588356 0.337541 0.859457
O O11 0.934125 0.207014 0.554735
O O12 0.000000 0.500000 0.614608
#
# Coordination Sequence:
#
# PCOD9440674 Si02
#       6
#     8   8   8   8   8   4
#     4  10  17  27  48  77 102 128 167 220 262 288
#     4   9  16  28  47  72 105 129 166 213 257 308
#     4   9  20  35  50  76 102 142 175 205 261 301
#     4  10  21  34  52  76 108 138 172 213 252 313
#     4   9  19  30  48  74 106 134 169 210 263 307
#     4  10  15  27  48  72 105 136 159 209 271 309
#
# _framework density 23.78566
#
# number of rings (size 3 to 8) (size 9 to 14) (size 15 to 20)
#    0.000    2.545    1.818    1.909    3.818    0.000 
#    0.000    0.000    0.000    0.000    9.455    6.364 
#    0.000    0.000    0.000    0.000    0.000    0.000 
#
# Total GULP energy -245142.452213 kJ/mol
# GULP energy per Si atom -5571.419368 kJ/mol
# Density = 2.373152 g / cm^3
# Si number density = 23.785660 Si / 1000 Ang^3
#
#
#
# Elastic Constant Matrix: (Units=GPa)
#
#
# Indices 1 2 3 4 5 6 
#
# 1 159.5132 14.0780 124.8718 0.0000 0.0000 0.0000
# 2 14.0780 78.8999 8.9804 0.0000 0.0000 0.0000
# 3 124.8718 8.9804 261.0114 0.0000 0.0000 0.0000
# 4 0.0000 0.0000 0.0000 16.8286 0.0000 0.0000
# 5 0.0000 0.0000 0.0000 0.0000 38.8705 0.0000
# 6 0.0000 0.0000 0.0000 0.0000 0.0000 6.2870
#
#
#
# Elastic Compliance Matrix: (Units=1/GPa)
#
#
# Indices 1 2 3 4 5 6 
#
# 1 0.010147 -0.001263 -0.004811 0.000000 0.000000 0.000000
# 2 -0.001263 0.012881 0.000161 0.000000 0.000000 0.000000
# 3 -0.004811 0.000161 0.006127 0.000000 0.000000 0.000000
# 4 0.000000 0.000000 0.000000 0.059423 0.000000 0.000000
# 5 0.000000 0.000000 0.000000 0.000000 0.025726 0.000000
# 6 0.000000 0.000000 0.000000 0.000000 0.000000 0.159059
#
#
# Mechanical properties :
#
#
# Convention : Reuss Voigt Hill
#
# Bulk Modulus (GPa) = 57.70431 88.36500 73.03466
# Shear Modulus (GPa) = 17.18421 35.83018 26.50719
#
# Velocity S-wave (km/s) = 2.69078 3.88542 3.34191
# Velocity P-wave (km/s) = 5.82808 7.57363 6.75745
#
# Compressibility (1/GPa) = 0.01732973
#
# Stress axis : x y z
#
# Youngs Moduli (GPa) = 98.55527 77.63196 163.20442
#
# Poissons Ratio (x) = 0.09804 0.78515
# Poissons Ratio (y) = 0.12446 -0.02627
# Poissons Ratio (z) = 0.47413 -0.01250
#
# Static dielectric constant tensor:
#      x y z
#    x 1.868810 0.000000 0.000000 
#    y 0.000000 2.028070 0.000000 
#    z 0.000000 0.000000 1.868420 
# 
# From -- ./inp_files/29491.got.cif
#   From: 2010.05.17/outbox.cif.g08.bks.cpg/sg58_15_cif.got.tgz:29491.got - 2010.06.03 14:20:14.
