data_PCOD9440610
_publ_section_title
;
Structure prediction by ZEFSAII (Michael W. Deem and Ramdas Pophale) SiO2 
 PCOD9440610
Probable space group: P B C M
;
_chemical_formula_sum "Si O2"
_cell_formula_units_Z 64
_cell_length_a 24.000000
_cell_length_b 15.000000
_cell_length_c 9.000000
_cell_angle_alpha 90.000000
_cell_angle_beta 90.000000
_cell_angle_gamma 90.000000
_cell_volume 3240.000000
_symmetry_space_group_name_H-M "P B C M"
_symmetry_group_IT_number 57
_symmetry_cell_setting 'orthorhombic'
loop_
_space_group_symop_operation_xyz
x,y,z
-x,-y,1/2+z
x,1/2-y,-z
-x,1/2+y,1/2-z
-x,-y,-z
x,y,1/2-z
-x,1/2+y,z
x,1/2-y,1/2+z
loop_
_atom_site_type_symbol
_atom_site_label
_atom_site_fract_x
_atom_site_fract_y
_atom_site_fract_z
Si Si1 0.490777 0.903851 0.572015
Si Si2 0.057947 0.512181 0.077378
Si Si3 0.786359 0.511043 0.079428
Si Si4 0.595994 0.671051 0.919976
Si Si5 0.861269 0.654659 0.924603
Si Si6 0.847661 0.349320 0.930234
Si Si7 0.683690 0.516710 0.588725
Si Si8 0.374658 0.669862 0.084036
O O1 0.487407 0.913349 0.750000
O O2 0.542327 0.845483 0.520142
O O3 0.433670 0.859534 0.516335
O O4 0.500000 0.000000 0.500000
O O5 0.048930 0.529116 0.250000
O O6 0.089180 0.417518 0.062988
O O7 0.096121 0.595380 0.025528
O O8 0.000000 0.500000 0.000000
O O9 0.802774 0.501185 0.250000
O O10 0.813911 0.598333 0.007547
O O11 0.802126 0.420293 0.990808
O O12 0.721752 0.527390 0.053006
O O13 0.581646 0.692319 0.750000
O O14 0.631550 0.581622 0.918045
O O15 0.629235 0.750000 0.000000
O O16 0.849064 0.667120 0.750000
O O17 0.871559 0.750000 0.000000
O O18 0.844516 0.344038 0.750000
O O19 0.844754 0.250000 0.000000
O O20 0.712436 0.534047 0.750000
O O21 0.662461 0.416668 0.589814
O O22 0.386569 0.701293 0.250000
O O23 0.346524 0.750000 0.000000
#
# Coordination Sequence:
#
# PCOD9440610 Si02
#       8
#     8   8   8   8   8   8   8   8
#     4  11  21  37  60  85 114 150 188 230 282 341
#     4   9  20  36  56  85 123 161 199 242 290 340
#     4  11  23  39  61  88 115 150 194 242 298 351
#     4  11  23  40  60  85 115 150 189 233 285 343
#     4  10  21  39  61  87 118 157 200 244 292 345
#     4  10  21  39  61  87 118 157 201 245 293 345
#     4  10  22  42  60  79 116 153 187 237 292 344
#     4  10  22  39  58  83 112 147 185 226 280 337
#
# _framework density 19.753086
#
# number of rings (size 3 to 8) (size 9 to 14) (size 15 to 20)
#    0.000    1.750    1.250    3.750    0.000    8.000 
#    0.000    5.000    0.000    0.000    0.000    0.000 
#    0.000    0.000    0.000    0.000    0.000    0.000 
#
# Total GULP energy -356730.061993 kJ/mol
# GULP energy per Si atom -5573.907219 kJ/mol
# Density = 1.970813 g / cm^3
# Si number density = 19.753086 Si / 1000 Ang^3
#
#
#
# Elastic Constant Matrix: (Units=GPa)
#
#
# Indices 1 2 3 4 5 6 
#
# 1 27.2214 -39.0423 18.9254 0.0000 0.0000 0.0000
# 2 -39.0423 29.4298 37.2149 0.0000 0.0000 0.0000
# 3 18.9254 37.2149 75.8974 0.0000 0.0000 0.0000
# 4 0.0000 0.0000 0.0000 35.9035 0.0000 0.0000
# 5 0.0000 0.0000 0.0000 0.0000 28.2142 0.0000
# 6 0.0000 0.0000 0.0000 0.0000 0.0000 -10.8861
#
#
#
# Elastic Compliance Matrix: (Units=1/GPa)
#
#
# Indices 1 2 3 4 5 6 
#
# 1 -0.005367 -0.023194 0.012711 0.000000 0.000000 0.000000
# 2 -0.023194 -0.010801 0.011079 0.000000 0.000000 0.000000
# 3 0.012711 0.011079 0.004573 0.000000 0.000000 0.000000
# 4 0.000000 0.000000 0.000000 0.027852 0.000000 0.000000
# 5 0.000000 0.000000 0.000000 0.000000 0.035443 0.000000
# 6 0.000000 0.000000 0.000000 0.000000 0.000000 -0.091860
#
#
# Mechanical properties :
#
#
# Convention : Reuss Voigt Hill
#
# Bulk Modulus (GPa) = -96.14213 18.52720 -38.80746
# Shear Modulus (GPa) = -111.55789 18.34302 -46.60743
#
# Velocity S-wave (km/s) = -7.52322 3.05063 -4.86274
# Velocity P-wave (km/s) = 11.14642 4.66992 7.15662
#
# Compressibility (1/GPa) = -0.01040127
#
# Stress axis : x y z
#
# Youngs Moduli (GPa) = -186.31393 -92.58608 218.65192
#
# Poissons Ratio (x) = -2.14743 -2.77930
# Poissons Ratio (y) = -4.32135 -2.42255
# Poissons Ratio (z) = 2.36825 1.02581
#
# Static dielectric constant tensor:
#      x y z
#    x 1.747830 0.000000 0.000000 
#    y 0.000000 1.703550 0.000000 
#    z 0.000000 0.000000 1.701570 
# 
# From -- ./inp_files/9263.got.cif
#   From: 2010.05.17/outbox.ucp.g08.bks.cvg/sg57_5_cif.got.tgz:9263.got - 2010.06.11 16:39:23.
