data_PCOD9440867
_publ_section_title
;
Structure prediction by ZEFSAII (Michael W. Deem and Ramdas Pophale) SiO2 
 PCOD9440867
Probable space group: P N N M
;
_chemical_formula_sum "Si O2"
_cell_formula_units_Z 64
_cell_length_a 24.252421
_cell_length_b 16.100457
_cell_length_c 7.602828
_cell_angle_alpha 90.000000
_cell_angle_beta 90.000000
_cell_angle_gamma 90.000000
_cell_volume 2968.714731
_symmetry_space_group_name_H-M "P N N M"
_symmetry_group_IT_number 58
_symmetry_cell_setting 'orthorhombic'
loop_
_space_group_symop_operation_xyz
x,y,z
-x,-y,z
1/2+x,1/2-y,1/2-z
1/2-x,1/2+y,1/2-z
-x,-y,-z
x,y,-z
1/2-x,1/2+y,1/2+z
1/2+x,1/2-y,1/2+z
loop_
_atom_site_type_symbol
_atom_site_label
_atom_site_fract_x
_atom_site_fract_y
_atom_site_fract_z
Si Si1 0.511722 0.352508 0.202286
Si Si2 0.618768 0.092449 0.715210
Si Si3 0.191531 0.253748 0.789484
Si Si4 0.882443 0.407887 0.784920
Si Si5 0.369360 0.592465 0.298843
Si Si6 0.680038 0.744519 0.288237
Si Si7 0.108949 0.912353 0.787971
Si Si8 0.499579 0.841027 0.712662
O O1 0.566750 0.379176 0.302570
O O2 0.455643 0.400008 0.249141
O O3 0.500824 0.254808 0.230827
O O4 0.524370 0.368308 0.000000
O O5 0.619514 0.092426 0.500000
O O6 0.658452 0.166003 0.777081
O O7 0.556471 0.114525 0.769466
O O8 0.634214 0.999855 0.772677
O O9 0.165930 0.167625 0.718207
O O10 0.256011 0.262286 0.756023
O O11 0.182303 0.252107 0.000000
O O12 0.844405 0.332120 0.724742
O O13 0.944955 0.386926 0.730318
O O14 0.881745 0.407944 0.000000
O O15 0.349675 0.583299 0.500000
O O16 0.368898 0.500425 0.218712
O O17 0.674713 0.744515 0.500000
O O18 0.643690 0.666834 0.223044
O O19 0.113448 0.913868 0.000000
O O20 0.499825 0.840822 0.500000
#
# Coordination Sequence:
#
# PCOD9440867 Si02
#       8
#     8   8   8   8   8   8   8   8
#     4  12  23  34  55  87 120 146 176 226 286 334
#     4   9  17  31  56  86 109 135 177 227 272 319
#     4  10  21  37  56  80 110 145 187 229 270 320
#     4   9  17  31  56  86 109 135 177 227 272 319
#     4  10  21  39  61  82 108 148 192 227 268 331
#     4  10  21  37  56  80 110 145 187 229 270 320
#     4  10  21  39  61  82 108 148 192 227 268 331
#     4  10  17  33  59  83 110 143 180 219 269 337
#
# _framework density 21.558150999999999
#
# number of rings (size 3 to 8) (size 9 to 14) (size 15 to 20)
#    0.000    2.000    2.500    1.875    0.000    5.500 
#    0.000    0.000    0.000    3.000    0.000    0.000 
#    0.000    0.000    0.000    0.000    0.000    0.000 
#
# Total GULP energy -357614.507370 kJ/mol
# GULP energy per Si atom -5587.726678 kJ/mol
# Density = 2.150908 g / cm^3
# Si number density = 21.558151 Si / 1000 Ang^3
#
#
#
# Elastic Constant Matrix: (Units=GPa)
#
#
# Indices 1 2 3 4 5 6 
#
# 1 82.1171 38.1466 -6.6636 0.0000 0.0000 0.0000
# 2 38.1466 131.7833 6.3233 0.0000 0.0000 0.0000
# 3 -6.6636 6.3233 50.5601 0.0000 0.0000 0.0000
# 4 0.0000 0.0000 0.0000 -7.6545 0.0000 0.0000
# 5 0.0000 0.0000 0.0000 0.0000 15.7420 0.0000
# 6 0.0000 0.0000 0.0000 0.0000 0.0000 4.7936
#
#
#
# Elastic Compliance Matrix: (Units=1/GPa)
#
#
# Indices 1 2 3 4 5 6 
#
# 1 0.014360 -0.004273 0.002427 0.000000 0.000000 0.000000
# 2 -0.004273 0.008906 -0.001677 0.000000 0.000000 0.000000
# 3 0.002427 -0.001677 0.020308 0.000000 0.000000 0.000000
# 4 0.000000 0.000000 0.000000 -0.130642 0.000000 0.000000
# 5 0.000000 0.000000 0.000000 0.000000 0.063524 0.000000
# 6 0.000000 0.000000 0.000000 0.000000 0.000000 0.208610
#
#
# Mechanical properties :
#
#
# Convention : Reuss Voigt Hill
#
# Bulk Modulus (GPa) = 27.37689 37.78590 32.58139
# Shear Modulus (GPa) = 24.47534 17.68651 21.08093
#
# Velocity S-wave (km/s) = 3.37310 2.86739 3.13047
# Velocity P-wave (km/s) = 5.28177 5.34116 5.31155
#
# Compressibility (1/GPa) = 0.03652716
#
# Stress axis : x y z
#
# Youngs Moduli (GPa) = 69.63942 112.28912 49.24161
#
# Poissons Ratio (x) = 0.47982 -0.11951
# Poissons Ratio (y) = 0.29757 0.08258
# Poissons Ratio (z) = -0.16901 0.18830
#
# Static dielectric constant tensor:
#      x y z
#    x 1.722680 0.000000 0.000000 
#    y 0.000000 1.787570 0.000000 
#    z 0.000000 0.000000 1.803330 
# 
# From -- ./inp_files/10038.got.cif
#   From: 2010.05.17/outbox.cif.g08.bks.cpg/sg58_6_cif.got.tgz:10038.got - 2010.06.03 14:20:14.
