data_PCOD9440109
_publ_section_title
;
Structure prediction by ZEFSAII (Michael W. Deem and Ramdas Pophale) SiO2 
 PCOD9440109
Probable space group: P B C M
;
_chemical_formula_sum "Si O2"
_cell_formula_units_Z 56
_cell_length_a 9.635094
_cell_length_b 14.377481
_cell_length_c 21.957147
_cell_angle_alpha 90.000000
_cell_angle_beta 90.000000
_cell_angle_gamma 90.000000
_cell_volume 3041.688023
_symmetry_space_group_name_H-M "P B C M"
_symmetry_group_IT_number 57
_symmetry_cell_setting 'orthorhombic'
loop_
_space_group_symop_operation_xyz
x,y,z
-x,-y,1/2+z
x,1/2-y,-z
-x,1/2+y,1/2-z
-x,-y,-z
x,y,1/2-z
-x,1/2+y,z
x,1/2-y,1/2+z
loop_
_atom_site_type_symbol
_atom_site_label
_atom_site_fract_x
_atom_site_fract_y
_atom_site_fract_z
Si Si1 0.005006 0.501947 0.600786
Si Si2 0.278416 0.989750 0.321388
Si Si3 0.518307 0.854157 0.142540
Si Si4 0.271941 0.513738 0.178031
Si Si5 0.513355 0.645328 0.368491
Si Si6 0.107166 0.362132 0.999972
Si Si7 0.437285 0.396753 0.003948
O O1 0.136836 0.523469 0.642486
O O2 0.042653 0.412505 0.559193
O O3 0.870716 0.483269 0.641645
O O4 0.969494 0.588368 0.556490
O O5 0.255161 0.004327 0.250000
O O6 0.381669 0.903018 0.331103
O O7 0.360930 0.077798 0.349268
O O8 0.647288 0.917265 0.163906
O O9 0.530096 0.746918 0.159432
O O10 0.513755 0.859959 0.069109
O O11 0.251728 0.522412 0.250000
O O12 0.375310 0.593943 0.154348
O O13 0.513251 0.651656 0.441899
O O14 0.096761 0.250000 0.000000
O O15 0.269893 0.390548 0.003536
O O16 0.500000 0.500000 0.000000
#
# Coordination Sequence:
#
# PCOD9440109 Si02
#       7
#     8   8   8   8   8   8   8
#     4  11  23  42  64  90 125 163 206 252 306 375
#     4  11  24  41  61  88 124 166 210 251 298 362
#     4  11  22  39  64  91 122 159 203 257 312 364
#     4  11  24  41  61  88 124 166 210 251 298 362
#     4  11  22  39  64  91 122 159 203 257 312 364
#     4  11  23  40  64  93 125 159 199 257 317 371
#     4  12  19  38  65  95 122 152 196 256 318 370
#
# _framework density 18.410830000000001
#
# number of rings (size 3 to 8) (size 9 to 14) (size 15 to 20)
#    0.000    0.857    5.714    3.429    0.000    4.571 
#    0.000    0.000    0.000    5.143    0.000    0.000 
#    0.000    0.000    0.000    0.000    0.000    0.000 
#
# Total GULP energy -312915.540889 kJ/mol
# GULP energy per Si atom -5587.777516 kJ/mol
# Density = 1.836893 g / cm^3
# Si number density = 18.410830 Si / 1000 Ang^3
#
#
#
# Elastic Constant Matrix: (Units=GPa)
#
#
# Indices 1 2 3 4 5 6 
#
# 1 117.9835 33.7809 33.1288 0.0000 0.0000 0.0000
# 2 33.7809 89.4729 -13.3872 0.0000 0.0000 0.0000
# 3 33.1288 -13.3872 106.0388 0.0000 0.0000 0.0000
# 4 0.0000 0.0000 0.0000 -9.7954 0.0000 0.0000
# 5 0.0000 0.0000 0.0000 0.0000 -668.2565 0.0000
# 6 0.0000 0.0000 0.0000 0.0000 0.0000 0.2137
#
#
#
# Elastic Compliance Matrix: (Units=1/GPa)
#
#
# Indices 1 2 3 4 5 6 
#
# 1 0.010963 -0.004741 -0.004024 0.000000 0.000000 0.000000
# 2 -0.004741 0.013442 0.003178 0.000000 0.000000 0.000000
# 3 -0.004024 0.003178 0.011089 0.000000 0.000000 0.000000
# 4 0.000000 0.000000 0.000000 -0.102089 0.000000 0.000000
# 5 0.000000 0.000000 0.000000 0.000000 -0.001496 0.000000
# 6 0.000000 0.000000 0.000000 0.000000 0.000000 4.679851
#
#
# Mechanical properties :
#
#
# Convention : Reuss Voigt Hill
#
# Bulk Modulus (GPa) = 41.11680 46.72670 43.92175
# Shear Modulus (GPa) = 1.07967 -118.23613 -58.57823
#
# Velocity S-wave (km/s) = 0.76662 -8.02249 -5.64680
# Velocity P-wave (km/s) = 4.81301 7.77038 4.31357
#
# Compressibility (1/GPa) = 0.02432096
#
# Stress axis : x y z
#
# Youngs Moduli (GPa) = 91.21541 74.39282 90.18074
#
# Poissons Ratio (x) = 0.35271 0.36286
# Poissons Ratio (y) = 0.43247 -0.28662
# Poissons Ratio (z) = 0.36702 -0.23644
#
# Static dielectric constant tensor:
#      x y z
#    x 1.605200 0.000000 0.000000 
#    y 0.000000 1.677430 0.000000 
#    z 0.000000 0.000000 1.643100 
# 
# From -- ./inp_files/24401.got.cif
#   From: 2010.05.17/outbox.cif.g08.bks.cpg/sg57_13_cif.got.tgz:24401.got - 2010.06.03 13:58:18.
