data_PCOD9440558
_publ_section_title
;
Structure prediction by ZEFSAII (Michael W. Deem and Ramdas Pophale) SiO2 
 PCOD9440558
Probable space group: P B C M
;
_chemical_formula_sum "Si O2"
_cell_formula_units_Z 64
_cell_length_a 18.000000
_cell_length_b 21.000000
_cell_length_c 9.000000
_cell_angle_alpha 90.000000
_cell_angle_beta 90.000000
_cell_angle_gamma 90.000000
_cell_volume 3402.000000
_symmetry_space_group_name_H-M "P B C M"
_symmetry_group_IT_number 57
_symmetry_cell_setting 'orthorhombic'
loop_
_space_group_symop_operation_xyz
x,y,z
-x,-y,1/2+z
x,1/2-y,-z
-x,1/2+y,1/2-z
-x,-y,-z
x,y,1/2-z
-x,1/2+y,z
x,1/2-y,1/2+z
loop_
_atom_site_type_symbol
_atom_site_label
_atom_site_fract_x
_atom_site_fract_y
_atom_site_fract_z
Si Si1 0.056915 0.185404 0.929022
Si Si2 0.033837 0.562613 0.927738
Si Si3 0.704112 0.549509 0.572774
Si Si4 0.692682 0.182887 0.927181
Si Si5 0.517178 0.318323 0.071443
Si Si6 0.451335 0.055364 0.072820
Si Si7 0.229284 0.313370 0.073577
Si Si8 0.792321 0.061847 0.571320
O O1 0.053856 0.189515 0.750000
O O2 0.143300 0.179352 0.973841
O O3 0.011617 0.124191 0.978498
O O4 0.027200 0.250000 0.000000
O O5 0.025155 0.557516 0.750000
O O6 0.120807 0.571377 0.958383
O O7 0.000000 0.500000 0.000000
O O8 0.690395 0.543498 0.750000
O O9 0.631592 0.538170 0.475666
O O10 0.729549 0.621405 0.541071
O O11 0.764800 0.499144 0.519174
O O12 0.699527 0.189459 0.750000
O O13 0.605336 0.171240 0.959453
O O14 0.743259 0.123258 0.972608
O O15 0.714089 0.250000 0.000000
O O16 0.506339 0.317235 0.250000
O O17 0.497210 0.250000 0.000000
O O18 0.473336 0.376714 0.998442
O O19 0.460215 0.057032 0.250000
O O20 0.500000 0.000000 0.000000
O O21 0.229902 0.304202 0.250000
O O22 0.261203 0.250000 0.000000
O O23 0.782645 0.052159 0.750000
#
# Coordination Sequence:
#
# PCOD9440558 Si02
#       8
#     8   8   8   8   8   8   8   8
#     4   9  18  34  54  79 110 145 184 229 277 329
#     4  10  21  36  55  79 111 147 187 234 284 336
#     4  11  23  39  59  84 113 147 187 233 282 338
#     4   9  19  35  56  81 111 144 181 224 273 328
#     4  10  20  37  60  86 116 152 192 236 285 340
#     4  12  25  41  61  86 116 151 191 238 288 343
#     4   9  19  35  56  80 109 144 184 228 277 331
#     4  10  21  37  56  81 112 148 187 232 284 337
#
# _framework density 18.812463000000001
#
# number of rings (size 3 to 8) (size 9 to 14) (size 15 to 20)
#    0.000    2.000    0.000    3.375    0.000    6.000 
#    0.000    3.750    0.000    0.000    0.000    0.000 
#    0.000    0.000    0.000    0.000    0.000    0.000 
#
# Total GULP energy -357412.097571 kJ/mol
# GULP energy per Si atom -5584.564025 kJ/mol
# Density = 1.876965 g / cm^3
# Si number density = 18.812463 Si / 1000 Ang^3
#
#
#
# Elastic Constant Matrix: (Units=GPa)
#
#
# Indices 1 2 3 4 5 6 
#
# 1 15.7324 -18.7552 9.7579 0.0000 0.0000 0.0000
# 2 -18.7552 29.8475 7.3934 0.0000 0.0000 0.0000
# 3 9.7579 7.3934 37.7741 0.0000 0.0000 0.0000
# 4 0.0000 0.0000 0.0000 37.6868 0.0000 0.0000
# 5 0.0000 0.0000 0.0000 0.0000 15.5086 0.0000
# 6 0.0000 0.0000 0.0000 0.0000 0.0000 32.5335
#
#
#
# Elastic Compliance Matrix: (Units=1/GPa)
#
#
# Indices 1 2 3 4 5 6 
#
# 1 -0.547986 -0.398733 0.219599 0.000000 0.000000 0.000000
# 2 -0.398733 -0.254920 0.152896 0.000000 0.000000 0.000000
# 3 0.219599 0.152896 -0.060180 0.000000 0.000000 0.000000
# 4 0.000000 0.000000 0.000000 0.026534 0.000000 0.000000
# 5 0.000000 0.000000 0.000000 0.000000 0.064480 0.000000
# 6 0.000000 0.000000 0.000000 0.000000 0.000000 0.030738
#
#
# Mechanical properties :
#
#
# Convention : Reuss Voigt Hill
#
# Bulk Modulus (GPa) = -1.09223 8.90513 3.90645
# Shear Modulus (GPa) = -5.02995 22.80965 8.88985
#
# Velocity S-wave (km/s) = -1.63693 3.48584 2.17618
# Velocity P-wave (km/s) = 2.03827 4.57661 2.89748
#
# Compressibility (1/GPa) = -0.91556092
#
# Stress axis : x y z
#
# Youngs Moduli (GPa) = -1.82486 -3.92279 -16.61682
#
# Poissons Ratio (x) = -1.56415 3.64904
# Poissons Ratio (y) = -0.72763 2.54065
# Poissons Ratio (z) = 0.40074 0.59978
#
# Static dielectric constant tensor:
#      x y z
#    x 1.679710 0.000000 0.000000 
#    y 0.000000 1.638300 0.000000 
#    z 0.000000 0.000000 1.624530 
# 
# From -- ./inp_files/7249.got.cif
#   From: 2010.05.17/outbox.ucp.g08.bks.cvg/sg57_4_cif.got.tgz:7249.got - 2010.06.11 16:39:23.
