data_PCOD9440361
_publ_section_title
;
Structure prediction by ZEFSAII (Michael W. Deem and Ramdas Pophale) SiO2 
 PCOD9440361
Probable space group: P B C M
;
_chemical_formula_sum "Si O2"
_cell_formula_units_Z 36
_cell_length_a 5.751572
_cell_length_b 22.081344
_cell_length_c 10.782094
_cell_angle_alpha 90.000000
_cell_angle_beta 90.000000
_cell_angle_gamma 90.000000
_cell_volume 1369.352245
_symmetry_space_group_name_H-M "P B C M"
_symmetry_group_IT_number 57
_symmetry_cell_setting 'orthorhombic'
loop_
_space_group_symop_operation_xyz
x,y,z
-x,-y,1/2+z
x,1/2-y,-z
-x,1/2+y,1/2-z
-x,-y,-z
x,y,1/2-z
-x,1/2+y,z
x,1/2-y,1/2+z
loop_
_atom_site_type_symbol
_atom_site_label
_atom_site_fract_x
_atom_site_fract_y
_atom_site_fract_z
Si Si1 0.323433 0.866518 0.250000
Si Si2 0.464895 0.633398 0.039822
Si Si3 0.944263 0.967293 0.250000
Si Si4 0.906644 0.388099 0.750000
Si Si5 0.300969 0.250000 0.500000
Si Si6 0.250023 0.466181 0.497184
Si Si7 0.972662 0.756106 0.250000
O O1 0.418250 0.868438 0.107656
O O2 0.191855 0.801372 0.250000
O O3 0.178845 0.929817 0.250000
O O4 0.691291 0.592904 0.076524
O O5 0.253820 0.612447 0.125139
O O6 0.533928 0.701337 0.064192
O O7 0.988789 0.039964 0.250000
O O8 0.785884 0.944576 0.140150
O O9 0.003322 0.317968 0.750000
O O10 0.150812 0.227275 0.617821
O O11 0.500000 0.500000 0.500000
O O12 0.000000 0.500000 0.500000
#
# Coordination Sequence:
#
# PCOD9440361 Si02
#       7
#     4   8   4   4   4   8   4
#     4  12  26  51  82 108 167 219 280 329 430 517
#     4  12  26  50  75 116 157 216 270 339 417 498
#     4  12  27  46  78 114 156 213 272 344 402 503
#     4  12  27  46  79 115 160 198 282 349 416 471
#     4  12  26  46  78 112 160 210 280 338 418 504
#     4  12  27  48  76 112 163 210 268 330 413 485
#     4  12  26  47  77 115 153 218 270 348 410 497
#
# _framework density 26.289805000000001
#
# number of rings (size 3 to 8) (size 9 to 14) (size 15 to 20)
#    0.000    0.000    2.222    7.333    3.111    1.778 
#    0.000    0.000    0.000    0.000    0.000    0.000 
#    0.000    0.000    0.000    0.000    0.000    0.000 
#
# Total GULP energy -200554.412987 kJ/mol
# GULP energy per Si atom -5570.955916 kJ/mol
# Density = 2.622997 g / cm^3
# Si number density = 26.289805 Si / 1000 Ang^3
#
#
#
# Elastic Constant Matrix: (Units=GPa)
#
#
# Indices 1 2 3 4 5 6 
#
# 1 87.5880 49.9716 4.2236 0.0000 0.0000 0.0000
# 2 49.9716 172.1183 -26.2908 0.0000 0.0000 0.0000
# 3 4.2236 -26.2908 111.8754 0.0000 0.0000 0.0000
# 4 0.0000 0.0000 0.0000 30.0727 0.0000 0.0000
# 5 0.0000 0.0000 0.0000 0.0000 41.2429 0.0000
# 6 0.0000 0.0000 0.0000 0.0000 0.0000 74.0533
#
#
#
# Elastic Compliance Matrix: (Units=1/GPa)
#
#
# Indices 1 2 3 4 5 6 
#
# 1 0.013932 -0.004279 -0.001532 0.000000 0.000000 0.000000
# 2 -0.004279 0.007340 0.001887 0.000000 0.000000 0.000000
# 3 -0.001532 0.001887 0.009440 0.000000 0.000000 0.000000
# 4 0.000000 0.000000 0.000000 0.033253 0.000000 0.000000
# 5 0.000000 0.000000 0.000000 0.000000 0.024247 0.000000
# 6 0.000000 0.000000 0.000000 0.000000 0.000000 0.013504
#
#
# Mechanical properties :
#
#
# Convention : Reuss Voigt Hill
#
# Bulk Modulus (GPa) = 43.73590 47.48784 45.61187
# Shear Modulus (GPa) = 42.66765 51.98559 47.32662
#
# Velocity S-wave (km/s) = 4.03298 4.45163 4.24747
# Velocity P-wave (km/s) = 6.19345 6.67271 6.43754
#
# Compressibility (1/GPa) = 0.02286451
#
# Stress axis : x y z
#
# Youngs Moduli (GPa) = 71.77617 136.23167 105.93586
#
# Poissons Ratio (x) = 0.58292 0.16224
# Poissons Ratio (y) = 0.30712 -0.19985
# Poissons Ratio (z) = 0.10993 -0.25701
#
# Static dielectric constant tensor:
#      x y z
#    x 2.018840 0.000000 0.000000 
#    y 0.000000 2.112250 0.000000 
#    z 0.000000 0.000000 2.139100 
# 
# From -- ./inp_files/10884.got.cif
#   From: 2010.05.17/outbox.cif.g08.bks.cpg/sg57_6_cif.got.tgz:10884.got - 2010.06.03 13:58:18.
