data_PCOD9440324
_publ_section_title
;
Structure prediction by ZEFSAII (Michael W. Deem and Ramdas Pophale) SiO2 
 PCOD9440324
Probable space group: P B C M
;
_chemical_formula_sum "Si O2"
_cell_formula_units_Z 32
_cell_length_a 20.273120
_cell_length_b 5.038579
_cell_length_c 14.663932
_cell_angle_alpha 90.000000
_cell_angle_beta 90.000000
_cell_angle_gamma 90.000000
_cell_volume 1497.887172
_symmetry_space_group_name_H-M "P B C M"
_symmetry_group_IT_number 57
_symmetry_cell_setting 'orthorhombic'
loop_
_space_group_symop_operation_xyz
x,y,z
-x,-y,1/2+z
x,1/2-y,-z
-x,1/2+y,1/2-z
-x,-y,-z
x,y,1/2-z
-x,1/2+y,z
x,1/2-y,1/2+z
loop_
_atom_site_type_symbol
_atom_site_label
_atom_site_fract_x
_atom_site_fract_y
_atom_site_fract_z
Si Si1 0.845166 0.678739 0.101492
Si Si2 0.380869 0.511470 0.061848
Si Si3 0.541957 0.027506 0.250000
Si Si4 0.045798 0.124823 0.250000
Si Si5 0.241826 0.682296 0.144346
O O1 0.906342 0.596308 0.163530
O O2 0.792648 0.439737 0.101632
O O3 0.809094 0.938043 0.141198
O O4 0.866402 0.750000 0.000000
O O5 0.419084 0.469905 0.156683
O O6 0.307426 0.597628 0.091885
O O7 0.409675 0.750000 0.000000
O O8 0.379491 0.250000 0.000000
O O9 0.478857 0.834809 0.250000
O O10 0.011706 0.410105 0.250000
O O11 0.257762 0.743106 0.250000
#
# Coordination Sequence:
#
# PCOD9440324 Si02
#       5
#     8   8   4   4   8
#     4  12  25  43  70 100 134 173 222 279 341 407
#     4  12  26  45  73 106 141 180 229 289 349 410
#     4  12  28  48  70 100 142 192 242 282 332 404
#     4  12  26  44  66  94 134 180 230 274 328 394
#     4  12  22  44  71 102 137 173 215 282 355 410
#
# _framework density 21.363424999999999
#
# number of rings (size 3 to 8) (size 9 to 14) (size 15 to 20)
#    0.000    0.000    3.750    7.500    0.000    4.000 
#    0.000    0.000    0.000    0.000    0.000    0.000 
#    0.000    0.000    0.000    0.000    0.000    0.000 
#
# Total GULP energy -179333.715422 kJ/mol
# GULP energy per Si atom -5604.178607 kJ/mol
# Density = 2.131480 g / cm^3
# Si number density = 21.363425 Si / 1000 Ang^3
#
#
#
# Elastic Constant Matrix: (Units=GPa)
#
#
# Indices 1 2 3 4 5 6 
#
# 1 56.4198 4.4836 57.2255 0.0000 0.0000 0.0000
# 2 4.4836 97.5325 29.7402 0.0000 0.0000 0.0000
# 3 57.2255 29.7402 184.3790 0.0000 0.0000 0.0000
# 4 0.0000 0.0000 0.0000 32.8411 0.0000 0.0000
# 5 0.0000 0.0000 0.0000 0.0000 0.4139 0.0000
# 6 0.0000 0.0000 0.0000 0.0000 0.0000 30.7867
#
#
#
# Elastic Compliance Matrix: (Units=1/GPa)
#
#
# Indices 1 2 3 4 5 6 
#
# 1 0.026031 0.001332 -0.008294 0.000000 0.000000 0.000000
# 2 0.001332 0.010852 -0.002164 0.000000 0.000000 0.000000
# 3 -0.008294 -0.002164 0.008347 0.000000 0.000000 0.000000
# 4 0.000000 0.000000 0.000000 0.030450 0.000000 0.000000
# 5 0.000000 0.000000 0.000000 0.000000 2.416119 0.000000
# 6 0.000000 0.000000 0.000000 0.000000 0.000000 0.032482
#
#
# Mechanical properties :
#
#
# Convention : Reuss Voigt Hill
#
# Bulk Modulus (GPa) = 37.06689 57.91443 47.49066
# Shear Modulus (GPa) = 1.95961 29.26715 15.61338
#
# Velocity S-wave (km/s) = 0.95878 3.70532 2.70635
# Velocity P-wave (km/s) = 4.31439 6.74343 5.66074
#
# Compressibility (1/GPa) = 0.02697826
#
# Stress axis : x y z
#
# Youngs Moduli (GPa) = 38.41580 92.15260 119.80524
#
# Poissons Ratio (x) = -0.12279 0.99368
# Poissons Ratio (y) = -0.05119 0.25925
# Poissons Ratio (z) = 0.31863 0.19941
#
# Static dielectric constant tensor:
#      x y z
#    x 1.730110 0.000000 0.000000 
#    y 0.000000 1.729480 0.000000 
#    z 0.000000 0.000000 1.771540 
# 
# From -- ./inp_files/18807.got.cif
#   From: 2010.05.17/outbox.cif.g08.bks.cpg/sg57_10_cif.got.tgz:18807.got - 2010.06.03 13:58:18.
