data_PCOD9440350
_publ_section_title
;
Structure prediction by ZEFSAII (Michael W. Deem and Ramdas Pophale) SiO2 
 PCOD9440350
Probable space group: P B C M
;
_chemical_formula_sum "Si O2"
_cell_formula_units_Z 24
_cell_length_a 6.504480
_cell_length_b 13.139844
_cell_length_c 9.205654
_cell_angle_alpha 90.000000
_cell_angle_beta 90.000000
_cell_angle_gamma 90.000000
_cell_volume 786.787478
_symmetry_space_group_name_H-M "P B C M"
_symmetry_group_IT_number 57
_symmetry_cell_setting 'orthorhombic'
loop_
_space_group_symop_operation_xyz
x,y,z
-x,-y,1/2+z
x,1/2-y,-z
-x,1/2+y,1/2-z
-x,-y,-z
x,y,1/2-z
-x,1/2+y,z
x,1/2-y,1/2+z
loop_
_atom_site_type_symbol
_atom_site_label
_atom_site_fract_x
_atom_site_fract_y
_atom_site_fract_z
Si Si1 0.843529 0.363396 0.524777
Si Si2 0.483123 0.321409 0.750000
Si Si3 0.741919 0.610954 0.750000
Si Si4 0.862560 0.991749 0.750000
Si Si5 0.500000 0.000000 0.500000
O O1 0.930638 0.250000 0.500000
O O2 0.632366 0.336091 0.614502
O O3 0.002893 0.425235 0.618889
O O4 0.717780 0.437201 0.413060
O O5 0.346464 0.223434 0.750000
O O6 0.347584 0.420205 0.750000
O O7 0.984914 0.597833 0.750000
O O8 0.651306 0.556373 0.608196
#
# Coordination Sequence:
#
# PCOD9440350 Si02
#       5
#     8   4   4   4   4
#     4  12  24  47  86 115 162 226 276 339 435 513
#     4  12  24  52  83 116 173 227 277 351 441 510
#     4  12  30  51  84 123 170 225 288 354 426 515
#     4  12  28  51  81 131 167 212 299 365 403 503
#     4  12  24  52  80 114 166 230 268 332 440 516
#
# _framework density 30.503791
#
# number of rings (size 3 to 8) (size 9 to 14) (size 15 to 20)
#    0.000    0.000    6.667    3.000    0.000    4.000 
#    6.000    1.667    0.000    0.000    0.000    0.000 
#    0.000    0.000    0.000    0.000    0.000    0.000 
#
# Total GULP energy -133629.291717 kJ/mol
# GULP energy per Si atom -5567.887155 kJ/mol
# Density = 3.043436 g / cm^3
# Si number density = 30.503791 Si / 1000 Ang^3
#
#
#
# Elastic Constant Matrix: (Units=GPa)
#
#
# Indices 1 2 3 4 5 6 
#
# 1 198.0066 46.5657 26.2773 0.0000 0.0000 0.0000
# 2 46.5657 241.2643 59.1299 0.0000 0.0000 0.0000
# 3 26.2773 59.1299 100.5596 0.0000 0.0000 0.0000
# 4 0.0000 0.0000 0.0000 55.4005 0.0000 0.0000
# 5 0.0000 0.0000 0.0000 0.0000 33.4004 0.0000
# 6 0.0000 0.0000 0.0000 0.0000 0.0000 63.0092
#
#
#
# Elastic Compliance Matrix: (Units=1/GPa)
#
#
# Indices 1 2 3 4 5 6 
#
# 1 0.005363 -0.000808 -0.000926 0.000000 0.000000 0.000000
# 2 -0.000808 0.004964 -0.002708 0.000000 0.000000 0.000000
# 3 -0.000926 -0.002708 0.011779 0.000000 0.000000 0.000000
# 4 0.000000 0.000000 0.000000 0.018050 0.000000 0.000000
# 5 0.000000 0.000000 0.000000 0.000000 0.029940 0.000000
# 6 0.000000 0.000000 0.000000 0.000000 0.000000 0.015871
#
#
# Mechanical properties :
#
#
# Convention : Reuss Voigt Hill
#
# Bulk Modulus (GPa) = 75.63335 89.30850 82.47093
# Shear Modulus (GPa) = 50.37304 57.55252 53.96278
#
# Velocity S-wave (km/s) = 4.06811 4.34837 4.21057
# Velocity P-wave (km/s) = 6.84943 7.38596 7.12275
#
# Compressibility (1/GPa) = 0.01322168
#
# Stress axis : x y z
#
# Youngs Moduli (GPa) = 186.45181 201.43049 84.89878
#
# Poissons Ratio (x) = 0.16278 0.07864
# Poissons Ratio (y) = 0.15068 0.22991
# Poissons Ratio (z) = 0.17271 0.54547
#
# Static dielectric constant tensor:
#      x y z
#    x 2.789020 0.000000 0.000000 
#    y 0.000000 9.260350 0.000000 
#    z 0.000000 0.000000 2.200010 
# 
# From -- ./inp_files/14601.got.cif
#   From: 2010.05.17/outbox.cif.g08.bks.cpg/sg57_8_cif.got.tgz:14601.got - 2010.06.03 13:58:18.
