data_PCOD9440048
_publ_section_title
;
Structure prediction by ZEFSAII (Michael W. Deem and Ramdas Pophale) SiO2 
 PCOD9440048
Probable space group: P B C M
;
_chemical_formula_sum "Si O2"
_cell_formula_units_Z 40
_cell_length_a 9.496151
_cell_length_b 22.005662
_cell_length_c 10.168538
_cell_angle_alpha 90.000000
_cell_angle_beta 90.000000
_cell_angle_gamma 90.000000
_cell_volume 2124.910124
_symmetry_space_group_name_H-M "P B C M"
_symmetry_group_IT_number 57
_symmetry_cell_setting 'orthorhombic'
loop_
_space_group_symop_operation_xyz
x,y,z
-x,-y,1/2+z
x,1/2-y,-z
-x,1/2+y,1/2-z
-x,-y,-z
x,y,1/2-z
-x,1/2+y,z
x,1/2-y,1/2+z
loop_
_atom_site_type_symbol
_atom_site_label
_atom_site_fract_x
_atom_site_fract_y
_atom_site_fract_z
Si Si1 0.084046 0.344237 0.599711
Si Si2 0.263671 0.823049 0.250000
Si Si3 0.696522 0.036987 0.750000
Si Si4 0.840904 0.526230 0.499491
Si Si5 0.854783 0.250000 0.000000
Si Si6 0.651680 0.541812 0.750000
Si Si7 0.304330 0.250000 0.000000
Si Si8 0.591016 0.821095 0.250000
O O1 0.066939 0.363776 0.750000
O O2 0.127489 0.402318 0.516258
O O3 0.208961 0.296641 0.581033
O O4 0.949468 0.305228 0.555981
O O5 0.226384 0.895581 0.250000
O O6 0.222226 0.783090 0.377921
O O7 0.427961 0.832304 0.250000
O O8 0.521540 0.033902 0.750000
O O9 0.755867 0.001752 0.623102
O O10 0.737909 0.516552 0.624364
O O11 0.000000 0.500000 0.500000
O O12 0.670958 0.614917 0.750000
O O13 0.381932 0.214171 0.885359
#
# Coordination Sequence:
#
# PCOD9440048 Si02
#       8
#     8   4   4   8   4   4   4   4
#     4  11  22  38  66  92 123 161 209 271 322 379
#     4  11  24  43  62  94 129 175 204 260 325 394
#     4  11  25  45  66  94 141 175 219 273 334 403
#     4  12  24  43  69  96 129 173 226 276 324 392
#     4  11  23  42  66  94 135 161 214 268 334 385
#     4  11  25  43  66  97 128 175 223 273 340 389
#     4  11  21  38  62  94 119 157 212 262 310 371
#     4  11  22  39  64  89 128 165 214 258 317 396
#
# _framework density 18.824327
#
# number of rings (size 3 to 8) (size 9 to 14) (size 15 to 20)
#    0.000    0.800    5.000    3.000    0.000    0.800 
#    0.000    0.000    4.400    0.000    0.000    0.000 
#    0.000    0.000    0.000    0.000    0.000    0.000 
#
# Total GULP energy -222769.499165 kJ/mol
# GULP energy per Si atom -5569.237479 kJ/mol
# Density = 1.878148 g / cm^3
# Si number density = 18.824327 Si / 1000 Ang^3
#
#
#
# Elastic Constant Matrix: (Units=GPa)
#
#
# Indices 1 2 3 4 5 6 
#
# 1 90.3663 32.0019 55.1196 0.0000 0.0000 0.0000
# 2 32.0019 82.4825 22.6337 0.0000 0.0000 0.0000
# 3 55.1196 22.6337 148.8183 0.0000 0.0000 0.0000
# 4 0.0000 0.0000 0.0000 25.8510 0.0000 0.0000
# 5 0.0000 0.0000 0.0000 0.0000 22.4275 0.0000
# 6 0.0000 0.0000 0.0000 0.0000 0.0000 46.7158
#
#
#
# Elastic Compliance Matrix: (Units=1/GPa)
#
#
# Indices 1 2 3 4 5 6 
#
# 1 0.015900 -0.004751 -0.005166 0.000000 0.000000 0.000000
# 2 -0.004751 0.014072 -0.000380 0.000000 0.000000 0.000000
# 3 -0.005166 -0.000380 0.008691 0.000000 0.000000 0.000000
# 4 0.000000 0.000000 0.000000 0.038683 0.000000 0.000000
# 5 0.000000 0.000000 0.000000 0.000000 0.044588 0.000000
# 6 0.000000 0.000000 0.000000 0.000000 0.000000 0.021406
#
#
# Mechanical properties :
#
#
# Convention : Reuss Voigt Hill
#
# Bulk Modulus (GPa) = 55.35122 60.13084 57.74103
# Shear Modulus (GPa) = 29.41898 33.12630 31.27264
#
# Velocity S-wave (km/s) = 3.95754 4.19950 4.08031
# Velocity P-wave (km/s) = 7.09582 7.45164 7.27591
#
# Compressibility (1/GPa) = 0.01806645
#
# Stress axis : x y z
#
# Youngs Moduli (GPa) = 62.89322 71.06527 115.06136
#
# Poissons Ratio (x) = 0.33765 0.59446
# Poissons Ratio (y) = 0.29882 0.04376
# Poissons Ratio (z) = 0.32493 0.02703
#
# Static dielectric constant tensor:
#      x y z
#    x 1.655530 0.000000 0.000000 
#    y 0.000000 1.995960 0.000000 
#    z 0.000000 0.000000 1.685760 
# 
# From -- ./inp_files/1608.got.cif
#   From: 2010.05.17/outbox.cif.g08.bks.cpg/sg57_1_cif.got.tgz:1608.got - 2010.06.03 13:58:18.
