data_PCOD9440408
_publ_section_title
;
Structure prediction by ZEFSAII (Michael W. Deem and Ramdas Pophale) SiO2 
 PCOD9440408
Probable space group: P B C M
;
_chemical_formula_sum "Si O2"
_cell_formula_units_Z 56
_cell_length_a 12.000000
_cell_length_b 15.000000
_cell_length_c 15.000000
_cell_angle_alpha 90.000000
_cell_angle_beta 90.000000
_cell_angle_gamma 90.000000
_cell_volume 2700.000000
_symmetry_space_group_name_H-M "P B C M"
_symmetry_group_IT_number 57
_symmetry_cell_setting 'orthorhombic'
loop_
_space_group_symop_operation_xyz
x,y,z
-x,-y,1/2+z
x,1/2-y,-z
-x,1/2+y,1/2-z
-x,-y,-z
x,y,1/2-z
-x,1/2+y,z
x,1/2-y,1/2+z
loop_
_atom_site_type_symbol
_atom_site_label
_atom_site_fract_x
_atom_site_fract_y
_atom_site_fract_z
Si Si1 0.484696 0.835548 0.346967
Si Si2 0.407002 0.180691 0.080936
Si Si3 0.919018 0.597265 0.598684
Si Si4 0.842045 0.717244 0.150140
Si Si5 0.684220 0.527259 0.653331
Si Si6 0.113768 0.472611 0.897389
Si Si7 0.354704 0.521532 0.545446
O O1 0.435708 0.856072 0.250000
O O2 0.507275 0.729832 0.353328
O O3 0.604524 0.885878 0.351060
O O4 0.413437 0.889780 0.419040
O O5 0.278501 0.197222 0.107934
O O6 0.416388 0.074401 0.064876
O O7 0.423684 0.250000 0.000000
O O8 0.909359 0.704102 0.601857
O O9 0.810658 0.560260 0.648401
O O10 0.907664 0.561692 0.498167
O O11 0.030420 0.549930 0.632420
O O12 0.823717 0.750023 0.250000
O O13 0.898718 0.620530 0.153438
O O14 0.662049 0.484000 0.750000
O O15 0.664244 0.475225 0.561019
O O16 0.238777 0.509816 0.901911
#
# Coordination Sequence:
#
# PCOD9440408 Si02
#       7
#     8   8   8   8   8   8   8
#     4  11  22  36  58  87 117 150 194 241 291 348
#     4  11  20  35  59  83 110 146 193 241 284 338
#     4  10  18  35  59  83 113 148 188 240 282 331
#     4  11  20  32  54  85 114 142 183 235 284 337
#     4  10  19  33  57  88 116 151 197 242 290 345
#     4   9  21  36  57  85 111 148 194 230 285 344
#     4  10  21  38  61  84 120 158 192 243 297 346
#
# _framework density 20.740741
#
# number of rings (size 3 to 8) (size 9 to 14) (size 15 to 20)
#    0.000    1.714    2.857    3.429    0.000    4.000 
#    0.000    0.000    3.143    0.857    0.000    0.000 
#    0.000    0.000    0.000    0.000    0.000    0.000 
#
# Total GULP energy -312054.716267 kJ/mol
# GULP energy per Si atom -5572.405648 kJ/mol
# Density = 2.069353 g / cm^3
# Si number density = 20.740741 Si / 1000 Ang^3
#
#
#
# Elastic Constant Matrix: (Units=GPa)
#
#
# Indices 1 2 3 4 5 6 
#
# 1 91.1464 47.0632 15.5247 0.0000 0.0000 0.0000
# 2 47.0632 96.2503 22.5537 0.0000 0.0000 0.0000
# 3 15.5247 22.5537 95.1832 0.0000 0.0000 0.0000
# 4 0.0000 0.0000 0.0000 17.6762 0.0000 0.0000
# 5 0.0000 0.0000 0.0000 0.0000 -1.8538 0.0000
# 6 0.0000 0.0000 0.0000 0.0000 0.0000 26.9033
#
#
#
# Elastic Compliance Matrix: (Units=1/GPa)
#
#
# Indices 1 2 3 4 5 6 
#
# 1 0.014726 -0.007028 -0.000737 0.000000 0.000000 0.000000
# 2 -0.007028 0.014354 -0.002255 0.000000 0.000000 0.000000
# 3 -0.000737 -0.002255 0.011161 0.000000 0.000000 0.000000
# 4 0.000000 0.000000 0.000000 0.056573 0.000000 0.000000
# 5 0.000000 0.000000 0.000000 0.000000 -0.539442 0.000000
# 6 0.000000 0.000000 0.000000 0.000000 0.000000 0.037170
#
#
# Mechanical properties :
#
#
# Convention : Reuss Voigt Hill
#
# Bulk Modulus (GPa) = 49.50056 50.31811 49.90933
# Shear Modulus (GPa) = -13.20354 21.70771 4.25208
#
# Velocity S-wave (km/s) = -2.52583 3.23866 1.43337
# Velocity P-wave (km/s) = 3.92578 6.18857 5.18219
#
# Compressibility (1/GPa) = 0.02020179
#
# Stress axis : x y z
#
# Youngs Moduli (GPa) = 67.90908 69.66554 89.60162
#
# Poissons Ratio (x) = 0.48959 0.06600
# Poissons Ratio (y) = 0.47725 0.20205
# Poissons Ratio (z) = 0.05002 0.15710
#
# Static dielectric constant tensor:
#      x y z
#    x 1.764390 0.000000 0.000000 
#    y 0.000000 1.751310 0.000000 
#    z 0.000000 0.000000 1.932400 
# 
# From -- ./inp_files/17746.got.cif
#   From: 2010.05.17/outbox.ucp.g08.bks.cvg/sg57_9_cif.got.tgz:17746.got - 2010.06.11 16:39:23.
