data_PCOD9440307
_publ_section_title
;
Structure prediction by ZEFSAII (Michael W. Deem and Ramdas Pophale) SiO2 
 PCOD9440307
Probable space group: P B C M
;
_chemical_formula_sum "Si O2"
_cell_formula_units_Z 32
_cell_length_a 4.874319
_cell_length_b 10.298530
_cell_length_c 23.143956
_cell_angle_alpha 90.000000
_cell_angle_beta 90.000000
_cell_angle_gamma 90.000000
_cell_volume 1161.787720
_symmetry_space_group_name_H-M "P B C M"
_symmetry_group_IT_number 57
_symmetry_cell_setting 'orthorhombic'
loop_
_space_group_symop_operation_xyz
x,y,z
-x,-y,1/2+z
x,1/2-y,-z
-x,1/2+y,1/2-z
-x,-y,-z
x,y,1/2-z
-x,1/2+y,z
x,1/2-y,1/2+z
loop_
_atom_site_type_symbol
_atom_site_label
_atom_site_fract_x
_atom_site_fract_y
_atom_site_fract_z
Si Si1 0.299731 0.647675 0.849760
Si Si2 0.592535 0.035963 0.435894
Si Si3 0.343535 0.223459 0.750000
Si Si4 0.969309 0.982427 0.750000
Si Si5 0.093241 0.301352 0.565766
O O1 0.504348 0.573823 0.892296
O O2 0.466507 0.740736 0.806104
O O3 0.171936 0.538776 0.807524
O O4 0.059641 0.715227 0.886593
O O5 0.911038 0.067725 0.433512
O O6 0.406771 0.162078 0.423002
O O7 0.500000 0.000000 0.500000
O O8 0.094126 0.327577 0.750000
O O9 0.246365 0.071298 0.750000
O O10 0.067765 0.250000 0.500000
#
# Coordination Sequence:
#
# PCOD9440307 Si02
#       5
#     8   8   4   4   8
#     4  11  28  49  78 113 164 217 284 349 423 510
#     4  12  27  47  76 117 165 214 276 342 418 505
#     4  11  28  54  81 124 160 228 288 354 430 507
#     4  11  28  50  83 112 164 216 282 354 420 505
#     4  12  27  46  78 115 164 214 273 337 424 504
#
# _framework density 27.543758
#
# number of rings (size 3 to 8) (size 9 to 14) (size 15 to 20)
#    0.000    0.500    2.500    3.000   10.500    4.000 
#    0.000    0.000    0.000    0.000    0.000    0.000 
#    0.000    0.000    0.000    0.000    0.000    0.000 
#
# Total GULP energy -179739.870709 kJ/mol
# GULP energy per Si atom -5616.870960 kJ/mol
# Density = 2.748107 g / cm^3
# Si number density = 27.543758 Si / 1000 Ang^3
#
#
#
# Elastic Constant Matrix: (Units=GPa)
#
#
# Indices 1 2 3 4 5 6 
#
# 1 123.7176 32.7371 31.1901 0.0000 0.0000 0.0000
# 2 32.7371 113.6258 58.4613 0.0000 0.0000 0.0000
# 3 31.1901 58.4613 202.0085 0.0000 0.0000 0.0000
# 4 0.0000 0.0000 0.0000 45.5668 0.0000 0.0000
# 5 0.0000 0.0000 0.0000 0.0000 41.4552 0.0000
# 6 0.0000 0.0000 0.0000 0.0000 0.0000 56.9895
#
#
#
# Elastic Compliance Matrix: (Units=1/GPa)
#
#
# Indices 1 2 3 4 5 6 
#
# 1 0.008843 -0.002168 -0.000738 0.000000 0.000000 0.000000
# 2 -0.002168 0.010872 -0.002812 0.000000 0.000000 0.000000
# 3 -0.000738 -0.002812 0.005878 0.000000 0.000000 0.000000
# 4 0.000000 0.000000 0.000000 0.021946 0.000000 0.000000
# 5 0.000000 0.000000 0.000000 0.000000 0.024122 0.000000
# 6 0.000000 0.000000 0.000000 0.000000 0.000000 0.017547
#
#
# Mechanical properties :
#
#
# Convention : Reuss Voigt Hill
#
# Bulk Modulus (GPa) = 70.63385 76.01431 73.32408
# Shear Modulus (GPa) = 47.45536 49.93320 48.69428
#
# Velocity S-wave (km/s) = 4.15530 4.26240 4.20919
# Velocity P-wave (km/s) = 6.98011 7.20289 7.09237
#
# Compressibility (1/GPa) = 0.01415752
#
# Stress axis : x y z
#
# Youngs Moduli (GPa) = 113.08844 91.97890 170.12879
#
# Poissons Ratio (x) = 0.19941 0.12553
# Poissons Ratio (y) = 0.24518 0.47834
# Poissons Ratio (z) = 0.08344 0.25861
#
# Static dielectric constant tensor:
#      x y z
#    x 2.072600 0.000000 0.000000 
#    y 0.000000 2.240490 0.000000 
#    z 0.000000 0.000000 2.061980 
# 
# From -- ./inp_files/23380.got.cif
#   From: 2010.05.17/outbox.cif.g08.bks.cpg/sg57_12_cif.got.tgz:23380.got - 2010.06.03 13:58:18.
