data_PCOD9440257
_publ_section_title
;
Structure prediction by ZEFSAII (Michael W. Deem and Ramdas Pophale) SiO2 
 PCOD9440257
Probable space group: P B C M
;
_chemical_formula_sum "Si O2"
_cell_formula_units_Z 64
_cell_length_a 11.880817
_cell_length_b 14.499886
_cell_length_c 17.407707
_cell_angle_alpha 90.000000
_cell_angle_beta 90.000000
_cell_angle_gamma 90.000000
_cell_volume 2998.834251
_symmetry_space_group_name_H-M "P B C M"
_symmetry_group_IT_number 57
_symmetry_cell_setting 'orthorhombic'
loop_
_space_group_symop_operation_xyz
x,y,z
-x,-y,1/2+z
x,1/2-y,-z
-x,1/2+y,1/2-z
-x,-y,-z
x,y,1/2-z
-x,1/2+y,z
x,1/2-y,1/2+z
loop_
_atom_site_type_symbol
_atom_site_label
_atom_site_fract_x
_atom_site_fract_y
_atom_site_fract_z
Si Si1 0.734346 0.533513 0.934292
Si Si2 0.733438 0.322764 0.569151
Si Si3 0.358331 0.408180 0.588801
Si Si4 0.512051 0.262901 0.840547
Si Si5 0.870256 0.516979 0.336913
Si Si6 0.019697 0.676315 0.107103
Si Si7 0.021618 0.120808 0.570347
Si Si8 0.472649 0.047320 0.838194
O O1 0.729330 0.427374 0.961091
O O2 0.861502 0.566147 0.923376
O O3 0.658675 0.539440 0.858529
O O4 0.674786 0.594389 0.999811
O O5 0.743219 0.250000 0.500000
O O6 0.622817 0.300797 0.617687
O O7 0.846938 0.316871 0.619306
O O8 0.404527 0.312083 0.621148
O O9 0.248032 0.445347 0.632162
O O10 0.457323 0.481129 0.606106
O O11 0.513651 0.284573 0.750000
O O12 0.507958 0.153021 0.849184
O O13 0.858797 0.483209 0.250000
O O14 0.956085 0.603058 0.341121
O O15 0.923001 0.438419 0.390988
O O16 0.969876 0.778984 0.109439
O O17 0.003551 0.639711 0.019300
O O18 0.494757 0.020663 0.750000
#
# Coordination Sequence:
#
# PCOD9440257 Si02
#       8
#     8   8   8   8   8   8   8   8
#     4  12  25  43  74 102 134 183 231 283 339 410
#     4  12  24  42  71 102 133 176 231 281 337 404
#     4  12  25  45  70  97 139 177 230 277 340 406
#     4  11  27  45  66  97 140 180 222 281 343 406
#     4  12  26  44  71 102 139 184 223 277 348 417
#     4  11  24  45  72  99 139 177 227 285 340 400
#     4  11  24  46  71 101 138 179 225 288 338 400
#     4  11  26  46  67 100 140 181 226 283 344 401
#
# _framework density 21.341625000000001
#
# number of rings (size 3 to 8) (size 9 to 14) (size 15 to 20)
#    0.000    0.500    5.000    3.375    5.250    1.500 
#    0.000    0.000    0.000    0.000    0.000    0.000 
#    0.000    0.000    0.000    0.000    0.000    0.000 
#
# Total GULP energy -358350.567858 kJ/mol
# GULP energy per Si atom -5599.227623 kJ/mol
# Density = 2.129305 g / cm^3
# Si number density = 21.341625 Si / 1000 Ang^3
#
#
#
# Elastic Constant Matrix: (Units=GPa)
#
#
# Indices 1 2 3 4 5 6 
#
# 1 96.2467 1.7164 2.3306 0.0000 0.0000 0.0000
# 2 1.7164 72.4777 -2.0405 0.0000 0.0000 0.0000
# 3 2.3306 -2.0405 31.7462 0.0000 0.0000 0.0000
# 4 0.0000 0.0000 0.0000 14.2021 0.0000 0.0000
# 5 0.0000 0.0000 0.0000 0.0000 -3.0057 0.0000
# 6 0.0000 0.0000 0.0000 0.0000 0.0000 32.3857
#
#
#
# Elastic Compliance Matrix: (Units=1/GPa)
#
#
# Indices 1 2 3 4 5 6 
#
# 1 0.010414 -0.000269 -0.000782 0.000000 0.000000 0.000000
# 2 -0.000269 0.013829 0.000909 0.000000 0.000000 0.000000
# 3 -0.000782 0.000909 0.031616 0.000000 0.000000 0.000000
# 4 0.000000 0.000000 0.000000 0.070412 0.000000 0.000000
# 5 0.000000 0.000000 0.000000 0.000000 -0.332702 0.000000
# 6 0.000000 0.000000 0.000000 0.000000 0.000000 0.030878
#
#
# Mechanical properties :
#
#
# Convention : Reuss Voigt Hill
#
# Bulk Modulus (GPa) = 17.99370 22.72041 20.35706
# Shear Modulus (GPa) = -31.89903 21.94735 -4.97584
#
# Velocity S-wave (km/s) = -3.87031 3.21032 -1.52859
# Velocity P-wave (km/s) = 3.39453 4.94072 2.53849
#
# Compressibility (1/GPa) = 0.05557501
#
# Stress axis : x y z
#
# Youngs Moduli (GPa) = 96.02743 72.31032 31.62990
#
# Poissons Ratio (x) = 0.01942 0.02473
# Poissons Ratio (y) = 0.02580 -0.02874
# Poissons Ratio (z) = 0.07507 -0.06570
#
# Static dielectric constant tensor:
#      x y z
#    x 1.749150 0.000000 0.000000 
#    y 0.000000 1.776000 0.000000 
#    z 0.000000 0.000000 1.732740 
# 
# From -- ./inp_files/22078.got.cif
#   From: 2010.05.17/outbox.cif.g08.bks.cpg/sg57_12_cif.got.tgz:22078.got - 2010.06.03 13:58:18.
