data_PCOD9440601
_publ_section_title
;
Structure prediction by ZEFSAII (Michael W. Deem and Ramdas Pophale) SiO2 
 PCOD9440601
Probable space group: P B C M
;
_chemical_formula_sum "Si O2"
_cell_formula_units_Z 56
_cell_length_a 12.000000
_cell_length_b 15.000000
_cell_length_c 15.000000
_cell_angle_alpha 90.000000
_cell_angle_beta 90.000000
_cell_angle_gamma 90.000000
_cell_volume 2700.000000
_symmetry_space_group_name_H-M "P B C M"
_symmetry_group_IT_number 57
_symmetry_cell_setting 'orthorhombic'
loop_
_space_group_symop_operation_xyz
x,y,z
-x,-y,1/2+z
x,1/2-y,-z
-x,1/2+y,1/2-z
-x,-y,-z
x,y,1/2-z
-x,1/2+y,z
x,1/2-y,1/2+z
loop_
_atom_site_type_symbol
_atom_site_label
_atom_site_fract_x
_atom_site_fract_y
_atom_site_fract_z
Si Si1 0.278510 0.152195 0.357482
Si Si2 0.026468 0.294223 0.642160
Si Si3 0.083916 0.522184 0.358088
Si Si4 0.335105 0.655884 0.548340
Si Si5 0.102195 0.620791 0.856890
Si Si6 0.430767 0.326697 0.355804
Si Si7 0.699318 0.972441 0.472623
O O1 0.279940 0.128396 0.250000
O O2 0.155325 0.190041 0.380515
O O3 0.368809 0.231394 0.371623
O O4 0.295835 0.072555 0.428489
O O5 0.025856 0.290899 0.750000
O O6 0.946478 0.376308 0.618238
O O7 0.975014 0.202091 0.609790
O O8 0.109361 0.515023 0.250000
O O9 0.182741 0.486897 0.421012
O O10 0.969853 0.467528 0.373552
O O11 0.315454 0.750000 0.500000
O O12 0.222535 0.628145 0.599593
O O13 0.441808 0.671670 0.611271
O O14 0.355012 0.570758 0.483586
O O15 0.115547 0.627920 0.750000
O O16 0.423608 0.343707 0.250000
O O17 0.368431 0.403549 0.411192
#
# Coordination Sequence:
#
# PCOD9440601 Si02
#       7
#     8   8   8   8   8   8   8
#     4  10  22  41  68  98 128 164 208 265 326 383
#     4   9  18  35  59  89 125 164 208 256 310 374
#     4  10  21  38  62  95 132 168 211 262 316 378
#     4  12  26  42  61  91 131 171 216 266 316 377
#     4  10  21  38  60  87 125 171 213 256 314 377
#     4  11  25  47  70  92 122 163 215 270 324 380
#     4  12  24  41  68  97 128 165 213 264 320 385
#
# _framework density 20.740741
#
# number of rings (size 3 to 8) (size 9 to 14) (size 15 to 20)
#    0.000    1.429    0.000    5.143    0.000    8.000 
#    0.000    3.571    0.000    0.000    0.000    0.000 
#    0.000    0.000    0.000    0.000    0.000    0.000 
#
# Total GULP energy -313306.608993 kJ/mol
# GULP energy per Si atom -5594.760875 kJ/mol
# Density = 2.069353 g / cm^3
# Si number density = 20.740741 Si / 1000 Ang^3
#
#
#
# Elastic Constant Matrix: (Units=GPa)
#
#
# Indices 1 2 3 4 5 6 
#
# 1 85.4202 14.2636 31.7031 0.0000 0.0000 0.0000
# 2 14.2636 110.4685 41.0229 0.0000 0.0000 0.0000
# 3 31.7031 41.0229 91.9616 0.0000 0.0000 0.0000
# 4 0.0000 0.0000 0.0000 32.2997 0.0000 0.0000
# 5 0.0000 0.0000 0.0000 0.0000 37.8025 0.0000
# 6 0.0000 0.0000 0.0000 0.0000 0.0000 31.6291
#
#
#
# Elastic Compliance Matrix: (Units=1/GPa)
#
#
# Indices 1 2 3 4 5 6 
#
# 1 0.013425 -0.000018 -0.004620 0.000000 0.000000 0.000000
# 2 -0.000018 0.010850 -0.004834 0.000000 0.000000 0.000000
# 3 -0.004620 -0.004834 0.014623 0.000000 0.000000 0.000000
# 4 0.000000 0.000000 0.000000 0.030960 0.000000 0.000000
# 5 0.000000 0.000000 0.000000 0.000000 0.026453 0.000000
# 6 0.000000 0.000000 0.000000 0.000000 0.000000 0.031616
#
#
# Mechanical properties :
#
#
# Convention : Reuss Voigt Hill
#
# Bulk Modulus (GPa) = 50.11490 51.31440 50.71465
# Shear Modulus (GPa) = 32.56869 33.73698 33.15284
#
# Velocity S-wave (km/s) = 3.96697 4.03749 4.00239
# Velocity P-wave (km/s) = 6.72291 6.82127 6.77227
#
# Compressibility (1/GPa) = 0.01995414
#
# Stress axis : x y z
#
# Youngs Moduli (GPa) = 74.49066 92.16860 68.38471
#
# Poissons Ratio (x) = 0.00163 0.31595
# Poissons Ratio (y) = 0.00132 0.33056
# Poissons Ratio (z) = 0.34416 0.44553
#
# Static dielectric constant tensor:
#      x y z
#    x 1.713820 0.000000 0.000000 
#    y 0.000000 1.741660 0.000000 
#    z 0.000000 0.000000 1.753090 
# 
# From -- ./inp_files/17725.got.cif
#   From: 2010.05.17/outbox.ucp.g08.bks.cvg/sg57_9_cif.got.tgz:17725.got - 2010.06.11 16:39:23.
