data_PCOD9440704
_publ_section_title
;
Structure prediction by ZEFSAII (Michael W. Deem and Ramdas Pophale) SiO2 
 PCOD9440704
Probable space group: P N N M
;
_chemical_formula_sum "Si O2"
_cell_formula_units_Z 56
_cell_length_a 7.105704
_cell_length_b 15.170816
_cell_length_c 18.874413
_cell_angle_alpha 90.000000
_cell_angle_beta 90.000000
_cell_angle_gamma 90.000000
_cell_volume 2034.649037
_symmetry_space_group_name_H-M "P N N M"
_symmetry_group_IT_number 58
_symmetry_cell_setting 'orthorhombic'
loop_
_space_group_symop_operation_xyz
x,y,z
-x,-y,z
1/2+x,1/2-y,1/2-z
1/2-x,1/2+y,1/2-z
-x,-y,-z
x,y,-z
1/2-x,1/2+y,1/2+z
1/2+x,1/2-y,1/2+z
loop_
_atom_site_type_symbol
_atom_site_label
_atom_site_fract_x
_atom_site_fract_y
_atom_site_fract_z
Si Si1 0.763502 0.161125 0.276361
Si Si2 0.640015 0.844320 0.422107
Si Si3 0.316302 0.136260 0.263360
Si Si4 0.327553 0.344053 0.376708
Si Si5 0.782520 0.110635 0.423747
Si Si6 0.779537 0.473635 0.368224
Si Si7 0.577160 0.809845 0.076122
O O1 0.544246 0.136298 0.269109
O O2 0.769699 0.269784 0.276236
O O3 0.881054 0.146609 0.205335
O O4 0.835780 0.100138 0.341227
O O5 0.733369 0.856080 0.500000
O O6 0.740989 0.865380 0.347099
O O7 0.589106 0.740328 0.414823
O O8 0.443735 0.895682 0.423901
O O9 0.256457 0.054844 0.213853
O O10 0.331408 0.444521 0.400394
O O11 0.104409 0.316859 0.374317
O O12 0.843828 0.070714 0.500000
O O13 0.841190 0.213252 0.427219
O O14 0.765060 0.381679 0.408413
O O15 0.000000 0.500000 0.375913
O O16 0.491254 0.832186 0.000000
#
# Coordination Sequence:
#
# PCOD9440704 Si02
#       7
#     8   8   8   8   8   8   8
#     4  10  16  30  48  69  89 124 164 197 237 276
#     4   9  19  32  48  72  98 130 163 198 245 287
#     4  10  18  30  52  69  94 126 163 205 234 287
#     4  10  19  29  49  69  96 125 159 203 236 289
#     4   9  17  29  46  66  94 123 155 195 234 280
#     4  10  18  31  46  72  98 128 158 192 248 283
#     4  10  18  29  46  69  94 124 156 189 231 285
#
# _framework density 27.523174000000001
#
# number of rings (size 3 to 8) (size 9 to 14) (size 15 to 20)
#    0.000    2.286    4.286    0.429    0.000    3.143 
#    0.000    0.714    0.000    3.857    0.000    0.000 
#    0.000    0.000    0.000   26.143    0.000    2.571 
#
# Total GULP energy -312283.286993 kJ/mol
# GULP energy per Si atom -5576.487268 kJ/mol
# Density = 2.746053 g / cm^3
# Si number density = 27.523174 Si / 1000 Ang^3
#
#
#
# Elastic Constant Matrix: (Units=GPa)
#
#
# Indices 1 2 3 4 5 6 
#
# 1 96.2479 20.1003 -10.4937 0.0000 0.0000 0.0000
# 2 20.1003 91.4210 -22.6172 0.0000 0.0000 0.0000
# 3 -10.4937 -22.6172 165.4886 0.0000 0.0000 0.0000
# 4 0.0000 0.0000 0.0000 3.2954 0.0000 0.0000
# 5 0.0000 0.0000 0.0000 0.0000 -5.6675 0.0000
# 6 0.0000 0.0000 0.0000 0.0000 0.0000 16.9477
#
#
#
# Elastic Compliance Matrix: (Units=1/GPa)
#
#
# Indices 1 2 3 4 5 6 
#
# 1 0.010913 -0.002306 0.000377 0.000000 0.000000 0.000000
# 2 -0.002306 0.011809 0.001468 0.000000 0.000000 0.000000
# 3 0.000377 0.001468 0.006267 0.000000 0.000000 0.000000
# 4 0.000000 0.000000 0.000000 0.303449 0.000000 0.000000
# 5 0.000000 0.000000 0.000000 0.000000 -0.176445 0.000000
# 6 0.000000 0.000000 0.000000 0.000000 0.000000 0.059005
#
#
# Mechanical properties :
#
#
# Convention : Reuss Voigt Hill
#
# Bulk Modulus (GPa) = 35.63163 36.34847 35.99005
# Shear Modulus (GPa) = 22.19497 27.32633 24.76065
#
# Velocity S-wave (km/s) = 2.84282 3.15437 3.00264
# Velocity P-wave (km/s) = 4.87336 5.14800 5.01256
#
# Compressibility (1/GPa) = 0.02806496
#
# Stress axis : x y z
#
# Youngs Moduli (GPa) = 91.63792 84.68461 159.56130
#
# Poissons Ratio (x) = 0.19529 -0.06012
# Poissons Ratio (y) = 0.21132 -0.23418
# Poissons Ratio (z) = -0.03453 -0.12429
#
# Static dielectric constant tensor:
#      x y z
#    x 2.208170 0.000000 0.000000 
#    y 0.000000 2.168170 0.000000 
#    z 0.000000 0.000000 2.349220 
# 
# From -- ./inp_files/29075.got.cif
#   From: 2010.05.17/outbox.cif.g08.bks.cpg/sg58_15_cif.got.tgz:29075.got - 2010.06.03 14:20:14.
