data_PCOD9440563
_publ_section_title
;
Structure prediction by ZEFSAII (Michael W. Deem and Ramdas Pophale) SiO2 
 PCOD9440563
Probable space group: P B C M
;
_chemical_formula_sum "Si O2"
_cell_formula_units_Z 56
_cell_length_a 21.000000
_cell_length_b 15.000000
_cell_length_c 9.000000
_cell_angle_alpha 90.000000
_cell_angle_beta 90.000000
_cell_angle_gamma 90.000000
_cell_volume 2835.000000
_symmetry_space_group_name_H-M "P B C M"
_symmetry_group_IT_number 57
_symmetry_cell_setting 'orthorhombic'
loop_
_space_group_symop_operation_xyz
x,y,z
-x,-y,1/2+z
x,1/2-y,-z
-x,1/2+y,1/2-z
-x,-y,-z
x,y,1/2-z
-x,1/2+y,z
x,1/2-y,1/2+z
loop_
_atom_site_type_symbol
_atom_site_label
_atom_site_fract_x
_atom_site_fract_y
_atom_site_fract_z
Si Si1 0.384953 0.836948 0.926288
Si Si2 0.281374 0.977431 0.927378
Si Si3 0.520569 0.906486 0.571090
Si Si4 0.899636 0.657345 0.072919
Si Si5 0.151771 0.970042 0.427492
Si Si6 0.652465 0.657753 0.572257
Si Si7 0.047559 0.654885 0.428052
O O1 0.380872 0.829336 0.750000
O O2 0.344459 0.922836 0.970129
O O3 0.458989 0.846677 0.963668
O O4 0.356719 0.750000 0.000000
O O5 0.271597 0.968323 0.750000
O O6 0.297433 0.079769 0.960029
O O7 0.220334 0.941872 0.012890
O O8 0.527458 0.913346 0.750000
O O9 0.584623 0.869918 0.498094
O O10 0.500000 0.000000 0.500000
O O11 0.897083 0.667564 0.250000
O O12 0.857628 0.573382 0.029764
O O13 0.973509 0.636767 0.034077
O O14 0.881000 0.750000 0.000000
O O15 0.147425 0.961729 0.250000
O O16 0.095134 0.916104 0.503214
O O17 0.672690 0.750000 0.500000
O O18 0.645202 0.665187 0.750000
O O19 0.063194 0.750000 0.500000
O O20 0.053381 0.657851 0.250000
#
# Coordination Sequence:
#
# PCOD9440563 Si02
#       7
#     8   8   8   8   8   8   8
#     4  10  22  40  60  85 114 148 190 236 289 346
#     4  10  23  43  59  78 116 159 198 241 290 345
#     4  11  21  37  62  90 120 152 189 241 298 352
#     4   9  20  37  59  88 120 151 191 239 288 346
#     4  11  23  38  58  87 119 153 197 242 289 346
#     4  11  23  41  62  87 118 154 197 245 296 354
#     4  10  20  37  61  88 118 154 191 236 292 344
#
# _framework density 19.753086
#
# number of rings (size 3 to 8) (size 9 to 14) (size 15 to 20)
#    0.000    1.714    1.429    2.571    0.000    6.857 
#    0.000    4.286    0.000    0.000    0.000    0.000 
#    0.000    0.000    0.000    0.000    0.000    0.000 
#
# Total GULP energy -312711.994974 kJ/mol
# GULP energy per Si atom -5584.142767 kJ/mol
# Density = 1.970813 g / cm^3
# Si number density = 19.753086 Si / 1000 Ang^3
#
#
#
# Elastic Constant Matrix: (Units=GPa)
#
#
# Indices 1 2 3 4 5 6 
#
# 1 29.4868 12.4086 14.1425 0.0000 0.0000 0.0000
# 2 12.4086 76.6180 26.3311 0.0000 0.0000 0.0000
# 3 14.1425 26.3311 20.5666 0.0000 0.0000 0.0000
# 4 0.0000 0.0000 0.0000 34.3069 0.0000 0.0000
# 5 0.0000 0.0000 0.0000 0.0000 95.2856 0.0000
# 6 0.0000 0.0000 0.0000 0.0000 0.0000 -9.9889
#
#
#
# Elastic Compliance Matrix: (Units=1/GPa)
#
#
# Indices 1 2 3 4 5 6 
#
# 1 0.052617 0.006987 -0.045128 0.000000 0.000000 0.000000
# 2 0.006987 0.024234 -0.035832 0.000000 0.000000 0.000000
# 3 -0.045128 -0.035832 0.125529 0.000000 0.000000 0.000000
# 4 0.000000 0.000000 0.000000 0.029149 0.000000 0.000000
# 5 0.000000 0.000000 0.000000 0.000000 0.010495 0.000000
# 6 0.000000 0.000000 0.000000 0.000000 0.000000 -0.100111
#
#
# Mechanical properties :
#
#
# Convention : Reuss Voigt Hill
#
# Bulk Modulus (GPa) = 18.36999 25.82620 22.09809
# Shear Modulus (GPa) = 16.23359 28.83999 22.53679
#
# Velocity S-wave (km/s) = 2.86986 3.82517 3.38142
# Velocity P-wave (km/s) = 4.50571 5.71070 5.14362
#
# Compressibility (1/GPa) = 0.05443662
#
# Stress axis : x y z
#
# Youngs Moduli (GPa) = 19.00511 41.26385 7.96627
#
# Poissons Ratio (x) = -0.28833 0.35950
# Poissons Ratio (y) = -0.13280 0.28544
# Poissons Ratio (z) = 0.85766 1.47855
#
# Static dielectric constant tensor:
#      x y z
#    x 1.677020 0.000000 0.000000 
#    y 0.000000 1.725610 0.000000 
#    z 0.000000 0.000000 1.657190 
# 
# From -- ./inp_files/8032.got.cif
#   From: 2010.05.17/outbox.ucp.g08.bks.cvg/sg57_5_cif.got.tgz:8032.got - 2010.06.11 16:39:23.
