data_PCOD9440995
_publ_section_title
;
Structure prediction by ZEFSAII (Michael W. Deem and Ramdas Pophale) SiO2 
 PCOD9440995
Probable space group: P N N M
;
_chemical_formula_sum "Si O2"
_cell_formula_units_Z 64
_cell_length_a 19.234308
_cell_length_b 22.243662
_cell_length_c 9.091757
_cell_angle_alpha 90.000000
_cell_angle_beta 90.000000
_cell_angle_gamma 90.000000
_cell_volume 3889.830461
_symmetry_space_group_name_H-M "P N N M"
_symmetry_group_IT_number 58
_symmetry_cell_setting 'orthorhombic'
loop_
_space_group_symop_operation_xyz
x,y,z
-x,-y,z
1/2+x,1/2-y,1/2-z
1/2-x,1/2+y,1/2-z
-x,-y,-z
x,y,-z
1/2-x,1/2+y,1/2+z
1/2+x,1/2-y,1/2+z
loop_
_atom_site_type_symbol
_atom_site_label
_atom_site_fract_x
_atom_site_fract_y
_atom_site_fract_z
Si Si1 0.326241 0.114689 0.321007
Si Si2 0.375746 0.240829 0.669871
Si Si3 0.966087 0.689150 0.169055
Si Si4 0.173011 0.084783 0.678128
Si Si5 0.580083 0.517581 0.324424
Si Si6 0.024322 0.565931 0.820064
Si Si7 0.922153 0.804940 0.675266
Si Si8 0.423754 0.355307 0.175081
O O1 0.328209 0.115811 0.500000
O O2 0.330033 0.184763 0.276145
O O3 0.253763 0.085140 0.277986
O O4 0.396709 0.081229 0.273257
O O5 0.358468 0.255155 0.500000
O O6 0.454424 0.214102 0.669867
O O7 0.377205 0.300201 0.767202
O O8 0.922056 0.739096 0.253594
O O9 0.974466 0.621132 0.227499
O O10 0.942854 0.686668 0.000000
O O11 0.168176 0.079461 0.500000
O O12 0.137750 0.148545 0.719325
O O13 0.129856 0.031740 0.752097
O O14 0.500000 0.500000 0.291866
O O15 0.588698 0.518693 0.500000
O O16 0.593178 0.582943 0.255982
O O17 0.000000 0.500000 0.773726
O O18 0.023735 0.567450 0.000000
O O19 0.919697 0.797740 0.500000
O O20 0.996271 0.836601 0.710726
O O21 0.418357 0.362179 0.000000
#
# Coordination Sequence:
#
# PCOD9440995 Si02
#       8
#     8   8   8   8   8   8   8   8
#     4   8  15  28  48  71  94 127 164 195 239 299
#     4   8  14  27  46  68  91 116 152 193 233 282
#     4   8  14  24  42  67  91 114 145 187 232 275
#     4  10  19  32  49  68  94 131 168 200 241 295
#     4  11  22  33  47  70  98 130 168 207 247 288
#     4   8  13  24  46  75  99 120 154 199 240 280
#     4   9  17  27  42  65  91 119 153 193 236 278
#     4  10  18  29  47  70  94 121 158 202 242 279
#
# _framework density 16.45316
#
# number of rings (size 3 to 8) (size 9 to 14) (size 15 to 20)
#    0.000    3.000    1.250    2.250    0.000    1.500 
#    0.000    0.625    2.750    1.125    0.000    0.000 
#    0.000    0.000    0.000    0.000    0.000    0.000 
#
# Total GULP energy -356355.260811 kJ/mol
# GULP energy per Si atom -5568.050950 kJ/mol
# Density = 1.641571 g / cm^3
# Si number density = 16.453160 Si / 1000 Ang^3
#
#
#
# Elastic Constant Matrix: (Units=GPa)
#
#
# Indices 1 2 3 4 5 6 
#
# 1 68.5807 57.7570 22.5638 0.0000 0.0000 0.0000
# 2 57.7570 161.0947 37.2437 0.0000 0.0000 0.0000
# 3 22.5638 37.2437 17.9116 0.0000 0.0000 0.0000
# 4 0.0000 0.0000 0.0000 17.5688 0.0000 0.0000
# 5 0.0000 0.0000 0.0000 0.0000 8.7865 0.0000
# 6 0.0000 0.0000 0.0000 0.0000 0.0000 23.0597
#
#
#
# Elastic Compliance Matrix: (Units=1/GPa)
#
#
# Indices 1 2 3 4 5 6 
#
# 1 0.025805 -0.003344 -0.025555 0.000000 0.000000 0.000000
# 2 -0.003344 0.012387 -0.021545 0.000000 0.000000 0.000000
# 3 -0.025555 -0.021545 0.132820 0.000000 0.000000 0.000000
# 4 0.000000 0.000000 0.000000 0.056919 0.000000 0.000000
# 5 0.000000 0.000000 0.000000 0.000000 0.113811 0.000000
# 6 0.000000 0.000000 0.000000 0.000000 0.000000 0.043366
#
#
# Mechanical properties :
#
#
# Convention : Reuss Voigt Hill
#
# Bulk Modulus (GPa) = 14.26006 53.63508 33.94757
# Shear Modulus (GPa) = 9.81605 18.55117 14.18361
#
# Velocity S-wave (km/s) = 2.44520 3.36149 2.93927
# Velocity P-wave (km/s) = 4.08141 6.90909 5.67422
#
# Compressibility (1/GPa) = 0.07012591
#
# Stress axis : x y z
#
# Youngs Moduli (GPa) = 38.75179 80.72753 7.52899
#
# Poissons Ratio (x) = 0.26994 0.19240
# Poissons Ratio (y) = 0.12958 0.16221
# Poissons Ratio (z) = 0.99029 1.73925
#
# Static dielectric constant tensor:
#      x y z
#    x 1.553670 0.000000 0.000000 
#    y 0.000000 1.558070 0.000000 
#    z 0.000000 0.000000 1.548260 
# 
# From -- ./inp_files/9408.got.cif
#   From: 2010.05.17/outbox.cif.g08.bks.cpg/sg58_5_cif.got.tgz:9408.got - 2010.06.03 14:20:14.
