data_PCOD9440709
_publ_section_title
;
Structure prediction by ZEFSAII (Michael W. Deem and Ramdas Pophale) SiO2 
 PCOD9440709
Probable space group: P N N M
;
_chemical_formula_sum "Si O2"
_cell_formula_units_Z 48
_cell_length_a 5.896117
_cell_length_b 19.776808
_cell_length_c 23.298602
_cell_angle_alpha 90.000000
_cell_angle_beta 90.000000
_cell_angle_gamma 90.000000
_cell_volume 2716.765495
_symmetry_space_group_name_H-M "P N N M"
_symmetry_group_IT_number 58
_symmetry_cell_setting 'orthorhombic'
loop_
_space_group_symop_operation_xyz
x,y,z
-x,-y,z
1/2+x,1/2-y,1/2-z
1/2-x,1/2+y,1/2-z
-x,-y,-z
x,y,-z
1/2-x,1/2+y,1/2+z
1/2+x,1/2-y,1/2+z
loop_
_atom_site_type_symbol
_atom_site_label
_atom_site_fract_x
_atom_site_fract_y
_atom_site_fract_z
Si Si1 0.209539 0.821734 0.625337
Si Si2 0.250711 0.032411 0.318424
Si Si3 0.652719 0.401459 0.934786
Si Si4 0.052073 0.659929 0.225870
Si Si5 0.901316 0.254319 0.064259
Si Si6 0.330834 0.777055 0.174505
O O1 0.374271 0.850409 0.674099
O O2 0.344784 0.772603 0.582609
O O3 0.095169 0.880946 0.588720
O O4 0.026763 0.775608 0.657268
O O5 0.253154 0.050078 0.386431
O O6 0.260133 0.103015 0.283318
O O7 0.500000 0.000000 0.304421
O O8 0.000000 0.000000 0.307233
O O9 0.781323 0.328665 0.933751
O O10 0.654440 0.426402 0.000000
O O11 0.156753 0.733894 0.213384
O O12 0.932420 0.663419 0.287266
O O13 0.792788 0.208893 0.114217
O O14 0.880534 0.228034 0.000000
#
# Coordination Sequence:
#
# PCOD9440709 Si02
#       6
#     8   8   8   8   8   8
#     4  10  16  31  51  76 102 140 173 231 287 322
#     4  12  26  40  54  74 111 154 191 238 276 314
#     4  10  20  34  51  70 101 146 197 235 264 309
#     4  11  20  34  53  79 104 133 193 227 284 328
#     4   9  18  31  50  79 107 134 171 224 289 334
#     4  10  19  30  57  78  98 137 173 235 276 338
#
# _framework density 17.668068999999999
#
# number of rings (size 3 to 8) (size 9 to 14) (size 15 to 20)
#    0.000    1.667    6.667    1.500    0.000    1.333 
#    0.000    0.000    0.000    0.000    0.000    0.000 
#    0.000    1.333    0.000    0.000    0.000    0.000 
#
# Total GULP energy -267471.485617 kJ/mol
# GULP energy per Si atom -5572.322617 kJ/mol
# Density = 1.762786 g / cm^3
# Si number density = 17.668069 Si / 1000 Ang^3
#
#
#
# Elastic Constant Matrix: (Units=GPa)
#
#
# Indices 1 2 3 4 5 6 
#
# 1 69.8326 7.8733 23.5297 0.0000 0.0000 0.0000
# 2 7.8733 23.2297 18.5933 0.0000 0.0000 0.0000
# 3 23.5297 18.5933 103.9552 0.0000 0.0000 0.0000
# 4 0.0000 0.0000 0.0000 16.7774 0.0000 0.0000
# 5 0.0000 0.0000 0.0000 0.0000 15.6082 0.0000
# 6 0.0000 0.0000 0.0000 0.0000 0.0000 22.1638
#
#
#
# Elastic Compliance Matrix: (Units=1/GPa)
#
#
# Indices 1 2 3 4 5 6 
#
# 1 0.015666 -0.002884 -0.003030 0.000000 0.000000 0.000000
# 2 -0.002884 0.050772 -0.008428 0.000000 0.000000 0.000000
# 3 -0.003030 -0.008428 0.011813 0.000000 0.000000 0.000000
# 4 0.000000 0.000000 0.000000 0.059604 0.000000 0.000000
# 5 0.000000 0.000000 0.000000 0.000000 0.064069 0.000000
# 6 0.000000 0.000000 0.000000 0.000000 0.000000 0.045119
#
#
# Mechanical properties :
#
#
# Convention : Reuss Voigt Hill
#
# Bulk Modulus (GPa) = 20.17528 33.00114 26.58821
# Shear Modulus (GPa) = 17.10866 20.71129 18.90997
#
# Velocity S-wave (km/s) = 3.11519 3.42752 3.27508
# Velocity P-wave (km/s) = 4.93792 5.86369 5.42060
#
# Compressibility (1/GPa) = 0.04956560
#
# Stress axis : x y z
#
# Youngs Moduli (GPa) = 63.83203 19.69589 84.65384
#
# Poissons Ratio (x) = 0.05681 0.25650
# Poissons Ratio (y) = 0.18412 0.71348
# Poissons Ratio (z) = 0.19341 0.16600
#
# Static dielectric constant tensor:
#      x y z
#    x 1.700150 0.000000 0.000000 
#    y 0.000000 1.628410 0.000000 
#    z 0.000000 0.000000 1.610180 
# 
# From -- ./inp_files/28145.got.cif
#   From: 2010.05.17/outbox.cif.g08.bks.cpg/sg58_15_cif.got.tgz:28145.got - 2010.06.03 14:20:14.
