data_PCOD9440176
_publ_section_title
;
Structure prediction by ZEFSAII (Michael W. Deem and Ramdas Pophale) SiO2 
 PCOD9440176
Probable space group: P B C M
;
_chemical_formula_sum "Si O2"
_cell_formula_units_Z 40
_cell_length_a 11.910677
_cell_length_b 9.212897
_cell_length_c 17.668300
_cell_angle_alpha 90.000000
_cell_angle_beta 90.000000
_cell_angle_gamma 90.000000
_cell_volume 1938.775076
_symmetry_space_group_name_H-M "P B C M"
_symmetry_group_IT_number 57
_symmetry_cell_setting 'orthorhombic'
loop_
_space_group_symop_operation_xyz
x,y,z
-x,-y,1/2+z
x,1/2-y,-z
-x,1/2+y,1/2-z
-x,-y,-z
x,y,1/2-z
-x,1/2+y,z
x,1/2-y,1/2+z
loop_
_atom_site_type_symbol
_atom_site_label
_atom_site_fract_x
_atom_site_fract_y
_atom_site_fract_z
Si Si1 0.585302 0.509342 0.573089
Si Si2 0.433501 0.196370 0.336388
Si Si3 0.961485 0.877901 0.557552
Si Si4 0.224165 0.978126 0.336588
Si Si5 0.203336 0.815689 0.582770
O O1 0.500000 0.500000 0.500000
O O2 0.536477 0.398388 0.634766
O O3 0.583427 0.670483 0.606510
O O4 0.713304 0.451002 0.567697
O O5 0.446839 0.248821 0.250000
O O6 0.331451 0.082695 0.339160
O O7 0.924636 0.750000 0.500000
O O8 0.074259 0.844158 0.606168
O O9 0.866721 0.943707 0.610636
O O10 0.000000 0.000000 0.500000
O O11 0.185289 0.968557 0.250000
O O12 0.250434 0.815979 0.366415
O O13 0.189434 0.750000 0.500000
#
# Coordination Sequence:
#
# PCOD9440176 Si02
#       5
#     8   8   8   8   8
#     4  12  25  41  68  99 127 170 225 276 320 389
#     4  11  25  43  64  92 134 173 212 268 335 393
#     4  11  23  43  69  95 131 177 214 266 334 389
#     4  11  25  44  67  99 133 174 223 272 325 395
#     4  11  23  42  66  95 131 172 216 269 331 386
#
# _framework density 20.631582999999999
#
# number of rings (size 3 to 8) (size 9 to 14) (size 15 to 20)
#    0.000    0.800    4.000    4.800    2.800    4.000 
#    0.000    0.000    0.000    0.000    0.000    0.000 
#    0.000    0.000    0.000    0.000    0.000    0.000 
#
# Total GULP energy -223307.616672 kJ/mol
# GULP energy per Si atom -5582.690417 kJ/mol
# Density = 2.058462 g / cm^3
# Si number density = 20.631583 Si / 1000 Ang^3
#
#
#
# Elastic Constant Matrix: (Units=GPa)
#
#
# Indices 1 2 3 4 5 6 
#
# 1 62.2079 0.6257 17.6983 0.0000 0.0000 0.0000
# 2 0.6257 99.6158 21.1710 0.0000 0.0000 0.0000
# 3 17.6983 21.1710 90.8018 0.0000 0.0000 0.0000
# 4 0.0000 0.0000 0.0000 38.1726 0.0000 0.0000
# 5 0.0000 0.0000 0.0000 0.0000 24.4350 0.0000
# 6 0.0000 0.0000 0.0000 0.0000 0.0000 34.2708
#
#
#
# Elastic Compliance Matrix: (Units=1/GPa)
#
#
# Indices 1 2 3 4 5 6 
#
# 1 0.017056 0.000631 -0.003472 0.000000 0.000000 0.000000
# 2 0.000631 0.010585 -0.002591 0.000000 0.000000 0.000000
# 3 -0.003472 -0.002591 0.012294 0.000000 0.000000 0.000000
# 4 0.000000 0.000000 0.000000 0.026197 0.000000 0.000000
# 5 0.000000 0.000000 0.000000 0.000000 0.040925 0.000000
# 6 0.000000 0.000000 0.000000 0.000000 0.000000 0.029179
#
#
# Mechanical properties :
#
#
# Convention : Reuss Voigt Hill
#
# Bulk Modulus (GPa) = 34.39758 36.84614 35.62186
# Shear Modulus (GPa) = 31.88965 33.58438 32.73702
#
# Velocity S-wave (km/s) = 3.93577 4.03899 3.98772
# Velocity P-wave (km/s) = 6.11246 6.29676 6.20529
#
# Compressibility (1/GPa) = 0.02907182
#
# Stress axis : x y z
#
# Youngs Moduli (GPa) = 58.62887 94.47103 81.34226
#
# Poissons Ratio (x) = -0.05958 0.28238
# Poissons Ratio (y) = -0.03698 0.21075
# Poissons Ratio (z) = 0.20353 0.24477
#
# Static dielectric constant tensor:
#      x y z
#    x 2.188730 0.000000 0.000000 
#    y 0.000000 1.519940 0.000000 
#    z 0.000000 0.000000 1.663100 
# 
# From -- ./inp_files/21597.got.cif
#   From: 2010.05.17/outbox.cif.g08.bks.cpg/sg57_11_cif.got.tgz:21597.got - 2010.06.03 13:58:18.
