data_PCOD9440404
_publ_section_title
;
Structure prediction by ZEFSAII (Michael W. Deem and Ramdas Pophale) SiO2 
 PCOD9440404
Probable space group: P B C M
;
_chemical_formula_sum "Si O2"
_cell_formula_units_Z 40
_cell_length_a 15.000000
_cell_length_b 9.000000
_cell_length_c 15.000000
_cell_angle_alpha 90.000000
_cell_angle_beta 90.000000
_cell_angle_gamma 90.000000
_cell_volume 2025.000000
_symmetry_space_group_name_H-M "P B C M"
_symmetry_group_IT_number 57
_symmetry_cell_setting 'orthorhombic'
loop_
_space_group_symop_operation_xyz
x,y,z
-x,-y,1/2+z
x,1/2-y,-z
-x,1/2+y,1/2-z
-x,-y,-z
x,y,1/2-z
-x,1/2+y,z
x,1/2-y,1/2+z
loop_
_atom_site_type_symbol
_atom_site_label
_atom_site_fract_x
_atom_site_fract_y
_atom_site_fract_z
Si Si1 0.907392 0.892514 0.141545
Si Si2 0.908374 0.547120 0.141525
Si Si3 0.262716 0.859135 0.086008
Si Si4 0.725166 0.453175 0.848909
Si Si5 0.401570 0.430436 0.498743
O O1 0.909670 0.892972 0.250000
O O2 0.902732 0.720059 0.113532
O O3 0.820271 0.986392 0.114692
O O4 0.998129 0.973504 0.113005
O O5 0.904941 0.544232 0.250000
O O6 0.826778 0.449290 0.106008
O O7 0.278305 0.725667 0.155114
O O8 0.340849 0.981227 0.072114
O O9 0.256350 0.750000 0.000000
O O10 0.716859 0.514695 0.750000
O O11 0.647518 0.518244 0.908929
O O12 0.402337 0.250000 0.500000
O O13 0.500000 0.500000 0.500000
#
# Coordination Sequence:
#
# PCOD9440404 Si02
#       5
#     8   8   8   8   8
#     4   9  18  31  53  81 112 148 188 231 277 325
#     4  10  18  32  52  78 111 150 190 231 277 333
#     4  10  21  36  56  82 112 146 185 231 288 338
#     4  10  20  38  61  87 115 150 194 236 276 337
#     4  11  23  43  64  84 115 150 184 233 295 345
#
# _framework density 19.753086
#
# number of rings (size 3 to 8) (size 9 to 14) (size 15 to 20)
#    0.000    2.000    0.000    4.800    0.000    3.200 
#    0.000   16.000    0.000    0.000    0.000    0.000 
#    0.000    0.000    0.000    0.000    0.000    0.000 
#
# Total GULP energy -223161.851532 kJ/mol
# GULP energy per Si atom -5579.046288 kJ/mol
# Density = 1.970813 g / cm^3
# Si number density = 19.753086 Si / 1000 Ang^3
#
#
#
# Elastic Constant Matrix: (Units=GPa)
#
#
# Indices 1 2 3 4 5 6 
#
# 1 210.4036 102.5124 40.0994 0.0000 0.0000 0.0000
# 2 102.5124 210.4294 26.8352 0.0000 0.0000 0.0000
# 3 40.0994 26.8352 60.8209 0.0000 0.0000 0.0000
# 4 0.0000 0.0000 0.0000 17.4812 0.0000 0.0000
# 5 0.0000 0.0000 0.0000 0.0000 30.8965 0.0000
# 6 0.0000 0.0000 0.0000 0.0000 0.0000 46.1403
#
#
#
# Elastic Compliance Matrix: (Units=1/GPa)
#
#
# Indices 1 2 3 4 5 6 
#
# 1 0.006769 -0.002891 -0.003187 0.000000 0.000000 0.000000
# 2 -0.002891 0.006270 -0.000861 0.000000 0.000000 0.000000
# 3 -0.003187 -0.000861 0.018923 0.000000 0.000000 0.000000
# 4 0.000000 0.000000 0.000000 0.057204 0.000000 0.000000
# 5 0.000000 0.000000 0.000000 0.000000 0.032366 0.000000
# 6 0.000000 0.000000 0.000000 0.000000 0.000000 0.021673
#
#
# Mechanical properties :
#
#
# Convention : Reuss Voigt Hill
#
# Bulk Modulus (GPa) = 55.29609 91.17198 73.23404
# Shear Modulus (GPa) = 30.65410 39.71740 35.18575
#
# Velocity S-wave (km/s) = 3.94364 4.48894 4.22510
# Velocity P-wave (km/s) = 6.98504 8.55123 7.80751
#
# Compressibility (1/GPa) = 0.01808446
#
# Stress axis : x y z
#
# Youngs Moduli (GPa) = 147.73842 159.48201 52.84681
#
# Poissons Ratio (x) = 0.46106 0.16843
# Poissons Ratio (y) = 0.42711 0.04548
# Poissons Ratio (z) = 0.47085 0.13724
#
# Static dielectric constant tensor:
#      x y z
#    x 1.661290 0.000000 0.000000 
#    y 0.000000 1.673210 0.000000 
#    z 0.000000 0.000000 1.830810 
# 
# From -- ./inp_files/18199.got.cif
#   From: 2010.05.17/outbox.ucp.g08.bks.cvg/sg57_10_cif.got.tgz:18199.got - 2010.06.11 16:39:23.
