data_PCOD9440278
_publ_section_title
;
Structure prediction by ZEFSAII (Michael W. Deem and Ramdas Pophale) SiO2 
 PCOD9440278
Probable space group: P B C M
;
_chemical_formula_sum "Si O2"
_cell_formula_units_Z 40
_cell_length_a 4.875781
_cell_length_b 14.424789
_cell_length_c 21.778384
_cell_angle_alpha 90.000000
_cell_angle_beta 90.000000
_cell_angle_gamma 90.000000
_cell_volume 1531.719746
_symmetry_space_group_name_H-M "P B C M"
_symmetry_group_IT_number 57
_symmetry_cell_setting 'orthorhombic'
loop_
_space_group_symop_operation_xyz
x,y,z
-x,-y,1/2+z
x,1/2-y,-z
-x,1/2+y,1/2-z
-x,-y,-z
x,y,1/2-z
-x,1/2+y,z
x,1/2-y,1/2+z
loop_
_atom_site_type_symbol
_atom_site_label
_atom_site_fract_x
_atom_site_fract_y
_atom_site_fract_z
Si Si1 0.476361 0.268380 0.181219
Si Si2 0.023658 0.617108 0.862764
Si Si3 0.863664 0.852441 0.998659
Si Si4 0.379797 0.449230 0.820179
Si Si5 0.374962 0.934739 0.553221
O O1 0.594383 0.272124 0.250000
O O2 0.718112 0.310020 0.138647
O O3 0.360021 0.163308 0.173903
O O4 0.219961 0.336296 0.174975
O O5 0.133041 0.521170 0.833372
O O6 0.907594 0.610938 0.932307
O O7 0.061640 0.912157 0.956232
O O8 0.569975 0.848173 0.965188
O O9 0.975095 0.750000 0.000000
O O10 0.472947 0.465855 0.750000
O O11 0.569515 0.469034 0.878729
O O12 0.500000 0.000000 0.500000
#
# Coordination Sequence:
#
# PCOD9440278 Si02
#       5
#     8   8   8   8   8
#     4  11  25  45  68 104 147 188 245 304 361 437
#     4  12  25  46  74 105 145 192 245 301 363 437
#     4  12  25  45  74 105 143 189 240 301 364 427
#     4  11  26  47  75 106 146 197 242 299 370 432
#     4  12  25  46  71 104 143 182 240 298 356 428
#
# _framework density 26.114438
#
# number of rings (size 3 to 8) (size 9 to 14) (size 15 to 20)
#    0.000    0.400    2.000    6.600    0.000    1.600 
#    0.000    7.000    0.000    0.000    0.000    0.000 
#    0.000    0.000    0.000    0.000    0.000    0.000 
#
# Total GULP energy -223840.297573 kJ/mol
# GULP energy per Si atom -5596.007439 kJ/mol
# Density = 2.605500 g / cm^3
# Si number density = 26.114438 Si / 1000 Ang^3
#
#
#
# Elastic Constant Matrix: (Units=GPa)
#
#
# Indices 1 2 3 4 5 6 
#
# 1 92.5670 27.0766 19.0156 0.0000 0.0000 0.0000
# 2 27.0766 124.3945 55.2281 0.0000 0.0000 0.0000
# 3 19.0156 55.2281 196.8437 0.0000 0.0000 0.0000
# 4 0.0000 0.0000 0.0000 38.7124 0.0000 0.0000
# 5 0.0000 0.0000 0.0000 0.0000 33.4830 0.0000
# 6 0.0000 0.0000 0.0000 0.0000 0.0000 17.9072
#
#
#
# Elastic Compliance Matrix: (Units=1/GPa)
#
#
# Indices 1 2 3 4 5 6 
#
# 1 0.011575 -0.002311 -0.000470 0.000000 0.000000 0.000000
# 2 -0.002311 0.009644 -0.002483 0.000000 0.000000 0.000000
# 3 -0.000470 -0.002483 0.005822 0.000000 0.000000 0.000000
# 4 0.000000 0.000000 0.000000 0.025832 0.000000 0.000000
# 5 0.000000 0.000000 0.000000 0.000000 0.029866 0.000000
# 6 0.000000 0.000000 0.000000 0.000000 0.000000 0.055843
#
#
# Mechanical properties :
#
#
# Convention : Reuss Voigt Hill
#
# Bulk Modulus (GPa) = 60.55140 68.49397 64.52268
# Shear Modulus (GPa) = 32.33852 38.85286 35.59569
#
# Velocity S-wave (km/s) = 3.52282 3.86138 3.69598
# Velocity P-wave (km/s) = 6.30748 6.79453 6.55553
#
# Compressibility (1/GPa) = 0.01651489
#
# Stress axis : x y z
#
# Youngs Moduli (GPa) = 86.38949 103.68944 171.75942
#
# Poissons Ratio (x) = 0.23963 0.08070
# Poissons Ratio (y) = 0.19965 0.42641
# Poissons Ratio (z) = 0.04059 0.25742
#
# Static dielectric constant tensor:
#      x y z
#    x 2.167710 0.000000 0.000000 
#    y 0.000000 2.270490 0.000000 
#    z 0.000000 0.000000 2.042670 
# 
# From -- ./inp_files/26130.got.cif
#   From: 2010.05.17/outbox.cif.g08.bks.cpg/sg57_14_cif.got.tgz:26130.got - 2010.06.03 13:58:18.
