data_PCOD9440741
_publ_section_title
;
Structure prediction by ZEFSAII (Michael W. Deem and Ramdas Pophale) SiO2 
 PCOD9440741
Probable space group: P N N M
;
_chemical_formula_sum "Si O2"
_cell_formula_units_Z 56
_cell_length_a 22.613536
_cell_length_b 17.918532
_cell_length_c 9.217305
_cell_angle_alpha 90.000000
_cell_angle_beta 90.000000
_cell_angle_gamma 90.000000
_cell_volume 3734.864599
_symmetry_space_group_name_H-M "P N N M"
_symmetry_group_IT_number 58
_symmetry_cell_setting 'orthorhombic'
loop_
_space_group_symop_operation_xyz
x,y,z
-x,-y,z
1/2+x,1/2-y,1/2-z
1/2-x,1/2+y,1/2-z
-x,-y,-z
x,y,-z
1/2-x,1/2+y,1/2+z
1/2+x,1/2-y,1/2+z
loop_
_atom_site_type_symbol
_atom_site_label
_atom_site_fract_x
_atom_site_fract_y
_atom_site_fract_z
Si Si1 0.852736 0.373017 0.828477
Si Si2 0.818177 0.780948 0.166716
Si Si3 0.430316 0.003312 0.826619
Si Si4 0.716647 0.425814 0.171604
Si Si5 0.350776 0.863162 0.171248
Si Si6 0.680807 0.727272 0.167537
Si Si7 0.784379 0.081811 0.828018
O O1 0.898575 0.430213 0.758258
O O2 0.786491 0.406699 0.808558
O O3 0.853606 0.293252 0.748757
O O4 0.862246 0.364230 0.000000
O O5 0.818688 0.856792 0.258574
O O6 0.853605 0.712987 0.238771
O O7 0.749599 0.753668 0.168147
O O8 0.835067 0.793615 0.000000
O O9 0.500000 0.000000 0.798523
O O10 0.398501 0.925451 0.787455
O O11 0.421138 0.014090 0.000000
O O12 0.703717 0.503011 0.252418
O O13 0.705716 0.431555 0.000000
O O14 0.285456 0.898860 0.191814
O O15 0.356602 0.846399 0.000000
O O16 0.680318 0.649284 0.252671
O O17 0.662707 0.719329 0.000000
O O18 0.795562 0.078987 0.000000
#
# Coordination Sequence:
#
# PCOD9440741 Si02
#       7
#     8   8   8   8   8   8   8
#     4  10  19  30  44  61  85 115 149 187 226 263
#     4   9  17  27  41  60  82 111 145 179 216 262
#     4  10  20  33  48  65  86 117 156 192 227 266
#     4  10  18  27  41  62  88 117 147 178 216 264
#     4   9  17  29  43  59  83 114 146 183 222 259
#     4   9  17  28  42  60  84 113 146 179 217 266
#     4  10  17  26  42  63  88 116 147 180 217 261
#
# _framework density 14.993849000000001
#
# number of rings (size 3 to 8) (size 9 to 14) (size 15 to 20)
#    0.000    2.429    1.429    2.143    0.000    6.000 
#    0.000    0.000    0.000    0.000    0.000    0.000 
#    0.000    1.143    0.000   12.286    0.000    5.429 
#
# Total GULP energy -312191.300503 kJ/mol
# GULP energy per Si atom -5574.844652 kJ/mol
# Density = 1.495972 g / cm^3
# Si number density = 14.993849 Si / 1000 Ang^3
#
#
#
# Elastic Constant Matrix: (Units=GPa)
#
#
# Indices 1 2 3 4 5 6 
#
# 1 42.6527 42.4367 39.0584 0.0000 0.0000 0.0000
# 2 42.4367 168.5163 104.6357 0.0000 0.0000 0.0000
# 3 39.0584 104.6357 113.6098 0.0000 0.0000 0.0000
# 4 0.0000 0.0000 0.0000 34.3863 0.0000 0.0000
# 5 0.0000 0.0000 0.0000 0.0000 11.3598 0.0000
# 6 0.0000 0.0000 0.0000 0.0000 0.0000 11.1605
#
#
#
# Elastic Compliance Matrix: (Units=1/GPa)
#
#
# Indices 1 2 3 4 5 6 
#
# 1 0.034909 -0.003128 -0.009121 0.000000 0.000000 0.000000
# 2 -0.003128 0.014141 -0.011949 0.000000 0.000000 0.000000
# 3 -0.009121 -0.011949 0.022943 0.000000 0.000000 0.000000
# 4 0.000000 0.000000 0.000000 0.029081 0.000000 0.000000
# 5 0.000000 0.000000 0.000000 0.000000 0.088030 0.000000
# 6 0.000000 0.000000 0.000000 0.000000 0.000000 0.089602
#
#
# Mechanical properties :
#
#
# Convention : Reuss Voigt Hill
#
# Bulk Modulus (GPa) = 42.37600 77.44894 59.91247
# Shear Modulus (GPa) = 14.92684 20.62452 17.77568
#
# Velocity S-wave (km/s) = 3.15863 3.71284 3.44689
# Velocity P-wave (km/s) = 6.45183 8.37533 7.47571
#
# Compressibility (1/GPa) = 0.02359827
#
# Stress axis : x y z
#
# Youngs Moduli (GPa) = 28.64557 70.71633 43.58671
#
# Poissons Ratio (x) = 0.22117 0.39756
# Poissons Ratio (y) = 0.08959 0.52081
# Poissons Ratio (z) = 0.26128 0.84497
#
# Static dielectric constant tensor:
#      x y z
#    x 1.460940 0.000000 0.000000 
#    y 0.000000 1.486370 0.000000 
#    z 0.000000 0.000000 1.499530 
# 
# From -- ./inp_files/6264.got.cif
#   From: 2010.05.17/outbox.cif.g08.bks.cpg/sg58_4_cif.got.tgz:6264.got - 2010.06.03 14:20:14.
