data_PCOD9440845
_publ_section_title
;
Structure prediction by ZEFSAII (Michael W. Deem and Ramdas Pophale) SiO2 
 PCOD9440845
Probable space group: P N N M
;
_chemical_formula_sum "Si O2"
_cell_formula_units_Z 64
_cell_length_a 15.720597
_cell_length_b 24.215519
_cell_length_c 7.557418
_cell_angle_alpha 90.000000
_cell_angle_beta 90.000000
_cell_angle_gamma 90.000000
_cell_volume 2876.976138
_symmetry_space_group_name_H-M "P N N M"
_symmetry_group_IT_number 58
_symmetry_cell_setting 'orthorhombic'
loop_
_space_group_symop_operation_xyz
x,y,z
-x,-y,z
1/2+x,1/2-y,1/2-z
1/2-x,1/2+y,1/2-z
-x,-y,-z
x,y,-z
1/2-x,1/2+y,1/2+z
1/2+x,1/2-y,1/2+z
loop_
_atom_site_type_symbol
_atom_site_label
_atom_site_fract_x
_atom_site_fract_y
_atom_site_fract_z
Si Si1 0.241152 0.837249 0.797461
Si Si2 0.600818 0.870841 0.783434
Si Si3 0.366759 0.005907 0.206084
Si Si4 0.075376 0.901242 0.704571
Si Si5 0.672550 0.493340 0.214742
Si Si6 0.745918 0.788181 0.793909
Si Si7 0.416223 0.888993 0.783335
Si Si8 0.108501 0.127841 0.285916
O O1 0.156045 0.860773 0.710338
O O2 0.246992 0.771417 0.793267
O O3 0.329070 0.861264 0.721379
O O4 0.235435 0.856376 0.000000
O O5 0.671121 0.827658 0.721847
O O6 0.503481 0.859162 0.732997
O O7 0.620830 0.932950 0.719495
O O8 0.606167 0.871144 0.000000
O O9 0.266829 0.992485 0.220685
O O10 0.416526 0.952857 0.276966
O O11 0.390908 0.009955 0.000000
O O12 0.054331 0.913256 0.500000
O O13 0.106585 0.960116 0.778953
O O14 0.989292 0.874334 0.777145
O O15 0.648641 0.431232 0.267436
O O16 0.674008 0.495028 0.000000
O O17 0.833354 0.822238 0.779347
O O18 0.728292 0.777794 0.000000
O O19 0.414510 0.889098 0.000000
O O20 0.111164 0.131426 0.500000
#
# Coordination Sequence:
#
# PCOD9440845 Si02
#       8
#     8   8   8   8   8   8   8   8
#     4  11  23  39  59  83 113 149 194 242 288 337
#     4   9  18  33  56  84 111 142 181 226 277 336
#     4  10  17  31  57  86 112 140 179 227 281 342
#     4  10  21  38  60  85 115 153 193 233 284 346
#     4  10  19  33  57  86 118 150 183 229 287 346
#     4  11  23  39  59  83 113 149 194 242 288 337
#     4   9  18  33  56  84 111 142 181 226 277 336
#     4  10  21  38  60  85 115 153 193 233 284 346
#
# _framework density 22.245577999999998
#
# number of rings (size 3 to 8) (size 9 to 14) (size 15 to 20)
#    0.000    2.000    2.500    1.500    0.000    4.500 
#    0.000    2.500    0.000    9.000    0.000    0.000 
#    0.000    0.000    0.000    0.000    0.000    0.000 
#
# Total GULP energy -357580.893522 kJ/mol
# GULP energy per Si atom -5587.201461 kJ/mol
# Density = 2.219495 g / cm^3
# Si number density = 22.245578 Si / 1000 Ang^3
#
#
#
# Elastic Constant Matrix: (Units=GPa)
#
#
# Indices 1 2 3 4 5 6 
#
# 1 92.1799 12.1388 -11.8895 0.0000 0.0000 0.0000
# 2 12.1388 94.5075 -8.0245 0.0000 0.0000 0.0000
# 3 -11.8895 -8.0245 54.4702 0.0000 0.0000 0.0000
# 4 0.0000 0.0000 0.0000 15.1017 0.0000 0.0000
# 5 0.0000 0.0000 0.0000 0.0000 5.7348 0.0000
# 6 0.0000 0.0000 0.0000 0.0000 0.0000 7.8700
#
#
#
# Elastic Compliance Matrix: (Units=1/GPa)
#
#
# Indices 1 2 3 4 5 6 
#
# 1 0.011309 -0.001259 0.002283 0.000000 0.000000 0.000000
# 2 -0.001259 0.010855 0.001324 0.000000 0.000000 0.000000
# 3 0.002283 0.001324 0.019052 0.000000 0.000000 0.000000
# 4 0.000000 0.000000 0.000000 0.066218 0.000000 0.000000
# 5 0.000000 0.000000 0.000000 0.000000 0.174373 0.000000
# 6 0.000000 0.000000 0.000000 0.000000 0.000000 0.127065
#
#
# Mechanical properties :
#
#
# Convention : Reuss Voigt Hill
#
# Bulk Modulus (GPa) = 21.78011 25.06746 23.42379
# Shear Modulus (GPa) = 11.91959 22.33684 17.12822
#
# Velocity S-wave (km/s) = 2.31729 3.17220 2.77783
# Velocity P-wave (km/s) = 4.11968 4.97092 4.56519
#
# Compressibility (1/GPa) = 0.04591345
#
# Stress axis : x y z
#
# Youngs Moduli (GPa) = 88.42857 92.12097 52.48769
#
# Poissons Ratio (x) = 0.11595 -0.11983
# Poissons Ratio (y) = 0.11130 -0.06952
# Poissons Ratio (z) = -0.20188 -0.12201
#
# Static dielectric constant tensor:
#      x y z
#    x 1.817380 0.000000 0.000000 
#    y 0.000000 1.784530 0.000000 
#    z 0.000000 0.000000 1.873260 
# 
# From -- ./inp_files/6877.got.cif
#   From: 2010.05.17/outbox.cif.g08.bks.cpg/sg58_4_cif.got.tgz:6877.got - 2010.06.03 14:20:14.
