data_PCOD9440812
_publ_section_title
;
Structure prediction by ZEFSAII (Michael W. Deem and Ramdas Pophale) SiO2 
 PCOD9440812
Probable space group: P N N M
;
_chemical_formula_sum "Si O2"
_cell_formula_units_Z 52
_cell_length_a 11.676752
_cell_length_b 18.793412
_cell_length_c 13.622281
_cell_angle_alpha 90.000000
_cell_angle_beta 90.000000
_cell_angle_gamma 90.000000
_cell_volume 2989.355228
_symmetry_space_group_name_H-M "P N N M"
_symmetry_group_IT_number 58
_symmetry_cell_setting 'orthorhombic'
loop_
_space_group_symop_operation_xyz
x,y,z
-x,-y,z
1/2+x,1/2-y,1/2-z
1/2-x,1/2+y,1/2-z
-x,-y,-z
x,y,-z
1/2-x,1/2+y,1/2+z
1/2+x,1/2-y,1/2+z
loop_
_atom_site_type_symbol
_atom_site_label
_atom_site_fract_x
_atom_site_fract_y
_atom_site_fract_z
Si Si1 0.287595 0.268747 0.610806
Si Si2 0.807588 0.655236 0.890550
Si Si3 0.418197 0.279861 0.191400
Si Si4 0.925810 0.650497 0.313409
Si Si5 0.292157 0.012073 0.613412
Si Si6 0.622941 0.366868 0.114791
Si Si7 0.000000 0.500000 0.741249
O O1 0.331301 0.272499 0.500000
O O2 0.380413 0.276069 0.695540
O O3 0.189129 0.328040 0.629024
O O4 0.220535 0.193904 0.624157
O O5 0.696038 0.702013 0.868771
O O6 0.896025 0.665103 0.801730
O O7 0.770484 0.572294 0.884649
O O8 0.853314 0.667910 0.000000
O O9 0.475541 0.205871 0.158436
O O10 0.513662 0.340275 0.174290
O O11 0.959835 0.568367 0.319838
O O12 0.322005 0.031332 0.500000
O O13 0.182481 0.058956 0.641514
O O14 0.397165 0.024786 0.686866
O O15 0.589347 0.369738 0.000000
#
# Coordination Sequence:
#
# PCOD9440812 Si02
#       7
#     8   8   8   8   8   8   4
#     4   9  18  32  47  65  92 125 160 196 229 263
#     4   9  18  31  47  71 100 122 143 181 231 281
#     4  10  18  30  47  68  93 125 157 186 223 273
#     4   9  19  31  47  71  94 118 155 193 230 275
#     4   9  17  28  45  73 102 123 144 174 226 295
#     4   9  17  29  47  72  98 122 150 185 227 280
#     4  10  17  30  49  68  92 124 152 190 236 270
#
# _framework density 17.395054999999999
#
# number of rings (size 3 to 8) (size 9 to 14) (size 15 to 20)
#    0.000    2.769    0.000    1.615    0.000    2.462 
#    0.000    2.692    0.000    0.000    0.000   19.385 
#    0.000    0.000    0.000    0.000    0.000    0.000 
#
# Total GULP energy -289919.627827 kJ/mol
# GULP energy per Si atom -5575.377458 kJ/mol
# Density = 1.735546 g / cm^3
# Si number density = 17.395055 Si / 1000 Ang^3
#
#
#
# Elastic Constant Matrix: (Units=GPa)
#
#
# Indices 1 2 3 4 5 6 
#
# 1 38.9951 9.7673 -2.3091 0.0000 0.0000 0.0000
# 2 9.7673 43.8492 -15.7536 0.0000 0.0000 0.0000
# 3 -2.3091 -15.7536 38.4435 0.0000 0.0000 0.0000
# 4 0.0000 0.0000 0.0000 17.6813 0.0000 0.0000
# 5 0.0000 0.0000 0.0000 0.0000 13.7913 0.0000
# 6 0.0000 0.0000 0.0000 0.0000 0.0000 23.7554
#
#
#
# Elastic Compliance Matrix: (Units=1/GPa)
#
#
# Indices 1 2 3 4 5 6 
#
# 1 0.027192 -0.006415 -0.000995 0.000000 0.000000 0.000000
# 2 -0.006415 0.028256 0.011194 0.000000 0.000000 0.000000
# 3 -0.000995 0.011194 0.030539 0.000000 0.000000 0.000000
# 4 0.000000 0.000000 0.000000 0.056557 0.000000 0.000000
# 5 0.000000 0.000000 0.000000 0.000000 0.072509 0.000000
# 6 0.000000 0.000000 0.000000 0.000000 0.000000 0.042096
#
#
# Mechanical properties :
#
#
# Convention : Reuss Voigt Hill
#
# Bulk Modulus (GPa) = 10.68895 11.63298 11.16096
# Shear Modulus (GPa) = 17.80837 19.68447 18.74642
#
# Velocity S-wave (km/s) = 3.20310 3.36760 3.28638
# Velocity P-wave (km/s) = 4.45398 4.67151 4.56404
#
# Compressibility (1/GPa) = 0.09355459
#
# Stress axis : x y z
#
# Youngs Moduli (GPa) = 36.77548 35.39099 32.74458
#
# Poissons Ratio (x) = 0.22702 0.03259
# Poissons Ratio (y) = 0.23590 -0.36653
# Poissons Ratio (z) = 0.03660 -0.39615
#
# Static dielectric constant tensor:
#      x y z
#    x 1.582980 0.000000 0.000000 
#    y 0.000000 1.595820 0.000000 
#    z 0.000000 0.000000 1.596940 
# 
# From -- ./inp_files/21436.got.cif
#   From: 2010.05.17/outbox.cif.g08.bks.cpg/sg58_11_cif.got.tgz:21436.got - 2010.06.03 14:20:14.
