data_PCOD9440611
_publ_section_title
;
Structure prediction by ZEFSAII (Michael W. Deem and Ramdas Pophale) SiO2 
 PCOD9440611
Probable space group: P B C M
;
_chemical_formula_sum "Si O2"
_cell_formula_units_Z 64
_cell_length_a 15.000000
_cell_length_b 12.000000
_cell_length_c 18.000000
_cell_angle_alpha 90.000000
_cell_angle_beta 90.000000
_cell_angle_gamma 90.000000
_cell_volume 3240.000000
_symmetry_space_group_name_H-M "P B C M"
_symmetry_group_IT_number 57
_symmetry_cell_setting 'orthorhombic'
loop_
_space_group_symop_operation_xyz
x,y,z
-x,-y,1/2+z
x,1/2-y,-z
-x,1/2+y,1/2-z
-x,-y,-z
x,y,1/2-z
-x,1/2+y,z
x,1/2-y,1/2+z
loop_
_atom_site_type_symbol
_atom_site_label
_atom_site_fract_x
_atom_site_fract_y
_atom_site_fract_z
Si Si1 0.631059 0.767728 0.413261
Si Si2 0.645346 0.978794 0.330348
Si Si3 0.820036 0.716603 0.338078
Si Si4 0.843464 0.455951 0.338344
Si Si5 0.549782 0.284588 0.664807
Si Si6 0.167969 0.902919 0.665028
Si Si7 0.043124 0.408229 0.159712
Si Si8 0.276220 0.790120 0.084754
O O1 0.629771 0.750000 0.500000
O O2 0.621242 0.898148 0.395849
O O3 0.725789 0.732727 0.378625
O O4 0.546100 0.713634 0.373216
O O5 0.628747 0.923979 0.250000
O O6 0.590167 0.091511 0.333650
O O7 0.749160 0.010894 0.332927
O O8 0.806241 0.736564 0.250000
O O9 0.850580 0.589046 0.346322
O O10 0.895317 0.804610 0.364091
O O11 0.823932 0.433064 0.250000
O O12 0.768314 0.407021 0.392797
O O13 0.939116 0.402471 0.358260
O O14 0.544407 0.245050 0.750000
O O15 0.625444 0.216458 0.620577
O O16 0.147626 0.868844 0.750000
O O17 0.208442 0.798176 0.623013
O O18 0.086284 0.974526 0.633723
O O19 0.047836 0.412141 0.250000
O O20 0.282368 0.750000 0.000000
#
# Coordination Sequence:
#
# PCOD9440611 Si02
#       8
#     8   8   8   8   8   8   8   8
#     4  12  24  37  59  90 126 161 194 242 308 375
#     4   9  18  36  59  83 110 152 205 248 291 346
#     4  10  21  39  61  90 123 157 204 256 307 359
#     4  10  22  38  62  93 123 157 202 263 317 353
#     4  10  22  40  64  88 112 156 212 256 293 350
#     4   9  17  34  63  85 107 154 210 252 281 343
#     4   9  18  35  63  91 113 150 207 260 297 348
#     4  11  23  39  58  86 128 163 198 247 311 373
#
# _framework density 19.753086
#
# number of rings (size 3 to 8) (size 9 to 14) (size 15 to 20)
#    0.000    2.000    1.250    3.375    1.750    3.500 
#    0.000    2.500    0.000    0.000    0.000    0.000 
#    0.000    0.000    0.000    0.000    0.000    0.000 
#
# Total GULP energy -357120.368011 kJ/mol
# GULP energy per Si atom -5580.005750 kJ/mol
# Density = 1.970813 g / cm^3
# Si number density = 19.753086 Si / 1000 Ang^3
#
#
#
# Elastic Constant Matrix: (Units=GPa)
#
#
# Indices 1 2 3 4 5 6 
#
# 1 124.8602 19.1696 35.9065 0.0000 0.0000 0.0000
# 2 19.1696 39.8992 8.7852 0.0000 0.0000 0.0000
# 3 35.9065 8.7852 67.3531 0.0000 0.0000 0.0000
# 4 0.0000 0.0000 0.0000 107.6441 0.0000 0.0000
# 5 0.0000 0.0000 0.0000 0.0000 4.9571 0.0000
# 6 0.0000 0.0000 0.0000 0.0000 0.0000 17.2324
#
#
#
# Elastic Compliance Matrix: (Units=1/GPa)
#
#
# Indices 1 2 3 4 5 6 
#
# 1 0.009970 -0.003727 -0.004829 0.000000 0.000000 0.000000
# 2 -0.003727 0.027197 -0.001561 0.000000 0.000000 0.000000
# 3 -0.004829 -0.001561 0.017625 0.000000 0.000000 0.000000
# 4 0.000000 0.000000 0.000000 0.009290 0.000000 0.000000
# 5 0.000000 0.000000 0.000000 0.000000 0.201733 0.000000
# 6 0.000000 0.000000 0.000000 0.000000 0.000000 0.058030
#
#
# Mechanical properties :
#
#
# Convention : Reuss Voigt Hill
#
# Bulk Modulus (GPa) = 28.93565 39.98167 34.45866
# Shear Modulus (GPa) = 14.06086 37.18346 25.62216
#
# Velocity S-wave (km/s) = 2.67091 4.34339 3.60547
# Velocity P-wave (km/s) = 4.91855 6.74077 5.90043
#
# Compressibility (1/GPa) = 0.03455945
#
# Stress axis : x y z
#
# Youngs Moduli (GPa) = 100.30314 36.76831 56.73753
#
# Poissons Ratio (x) = 0.13703 0.27398
# Poissons Ratio (y) = 0.37380 0.08855
# Poissons Ratio (z) = 0.48435 0.05739
#
# Static dielectric constant tensor:
#      x y z
#    x 1.689790 0.000000 0.000000 
#    y 0.000000 1.742730 0.000000 
#    z 0.000000 0.000000 1.676530 
# 
# From -- ./inp_files/22627.got.cif
#   From: 2010.05.17/outbox.ucp.g08.bks.cvg/sg57_12_cif.got.tgz:22627.got - 2010.06.11 16:39:23.
