data_PCOD9440548
_publ_section_title
;
Structure prediction by ZEFSAII (Michael W. Deem and Ramdas Pophale) SiO2 
 PCOD9440548
Probable space group: P B C M
;
_chemical_formula_sum "Si O2"
_cell_formula_units_Z 64
_cell_length_a 24.000000
_cell_length_b 15.000000
_cell_length_c 9.000000
_cell_angle_alpha 90.000000
_cell_angle_beta 90.000000
_cell_angle_gamma 90.000000
_cell_volume 3240.000000
_symmetry_space_group_name_H-M "P B C M"
_symmetry_group_IT_number 57
_symmetry_cell_setting 'orthorhombic'
loop_
_space_group_symop_operation_xyz
x,y,z
-x,-y,1/2+z
x,1/2-y,-z
-x,1/2+y,1/2-z
-x,-y,-z
x,y,1/2-z
-x,1/2+y,z
x,1/2-y,1/2+z
loop_
_atom_site_type_symbol
_atom_site_label
_atom_site_fract_x
_atom_site_fract_y
_atom_site_fract_z
Si Si1 0.989337 0.402969 0.070799
Si Si2 0.357604 0.848847 0.929736
Si Si3 0.817779 0.526021 0.575359
Si Si4 0.874659 0.338831 0.924176
Si Si5 0.899625 0.662475 0.427975
Si Si6 0.602727 0.848288 0.571023
Si Si7 0.518694 0.152278 0.428163
Si Si8 0.700534 0.514283 0.429208
O O1 0.990092 0.406370 0.250000
O O2 0.931268 0.365140 0.010055
O O3 0.000000 0.500000 0.000000
O O4 0.040491 0.346710 0.006299
O O5 0.351559 0.844904 0.750000
O O6 0.420429 0.884265 0.967519
O O7 0.352094 0.750000 0.000000
O O8 0.315835 0.918565 0.003211
O O9 0.820529 0.551120 0.750000
O O10 0.832898 0.421649 0.565563
O O11 0.863830 0.578527 0.481260
O O12 0.758097 0.543525 0.503824
O O13 0.887368 0.323866 0.750000
O O14 0.851799 0.250000 0.000000
O O15 0.872283 0.750000 0.500000
O O16 0.904108 0.667191 0.250000
O O17 0.608976 0.750000 0.500000
O O18 0.603592 0.838140 0.750000
O O19 0.541382 0.887244 0.528451
O O20 0.652052 0.915255 0.530827
O O21 0.517861 0.250000 0.500000
O O22 0.518755 0.159956 0.250000
O O23 0.705106 0.509771 0.250000
#
# Coordination Sequence:
#
# PCOD9440548 Si02
#       8
#     8   8   8   8   8   8   8   8
#     4  12  23  39  65  97 133 168 203 246 302 362
#     4  10  20  36  59  86 117 154 196 245 301 361
#     4  11  25  45  65  87 120 160 209 260 307 359
#     4  11  24  42  66  94 125 160 202 250 305 365
#     4  12  25  43  68  96 128 165 206 252 305 364
#     4   9  19  36  58  85 117 154 194 243 298 359
#     4   8  15  30  53  82 115 149 189 237 295 358
#     4  11  24  40  59  85 119 158 203 250 302 360
#
# _framework density 19.753086
#
# number of rings (size 3 to 8) (size 9 to 14) (size 15 to 20)
#    0.000    1.500    1.250    4.125    0.000    4.500 
#    0.000    2.500    0.000    0.000    0.000    0.000 
#    0.000    0.000    0.000    0.000    0.000    0.000 
#
# Total GULP energy -357434.691222 kJ/mol
# GULP energy per Si atom -5584.917050 kJ/mol
# Density = 1.970813 g / cm^3
# Si number density = 19.753086 Si / 1000 Ang^3
#
#
#
# Elastic Constant Matrix: (Units=GPa)
#
#
# Indices 1 2 3 4 5 6 
#
# 1 54.2365 -15.4140 11.7897 0.0000 0.0000 0.0000
# 2 -15.4140 63.8485 18.6644 0.0000 0.0000 0.0000
# 3 11.7897 18.6644 116.7808 0.0000 0.0000 0.0000
# 4 0.0000 0.0000 0.0000 31.2768 0.0000 0.0000
# 5 0.0000 0.0000 0.0000 0.0000 24.4665 0.0000
# 6 0.0000 0.0000 0.0000 0.0000 0.0000 -10.6141
#
#
#
# Elastic Compliance Matrix: (Units=1/GPa)
#
#
# Indices 1 2 3 4 5 6 
#
# 1 0.020777 0.005905 -0.003041 0.000000 0.000000 0.000000
# 2 0.005905 0.018108 -0.003490 0.000000 0.000000 0.000000
# 3 -0.003041 -0.003490 0.009428 0.000000 0.000000 0.000000
# 4 0.000000 0.000000 0.000000 0.031973 0.000000 0.000000
# 5 0.000000 0.000000 0.000000 0.000000 0.040872 0.000000
# 6 0.000000 0.000000 0.000000 0.000000 0.000000 -0.094214
#
#
# Mechanical properties :
#
#
# Convention : Reuss Voigt Hill
#
# Bulk Modulus (GPa) = 21.24962 29.43845 25.34403
# Shear Modulus (GPa) = 113.93848 23.68090 68.80969
#
# Velocity S-wave (km/s) = 7.60306 3.46619 5.90851
# Velocity P-wave (km/s) = 9.37317 5.56371 7.70751
#
# Compressibility (1/GPa) = 0.04705967
#
# Stress axis : x y z
#
# Youngs Moduli (GPa) = 48.13004 55.22458 106.06806
#
# Poissons Ratio (x) = -0.32610 0.32259
# Poissons Ratio (y) = -0.28421 0.37020
# Poissons Ratio (z) = 0.14638 0.19275
#
# Static dielectric constant tensor:
#      x y z
#    x 1.736950 0.000000 0.000000 
#    y 0.000000 1.738660 0.000000 
#    z 0.000000 0.000000 1.651240 
# 
# From -- ./inp_files/9347.got.cif
#   From: 2010.05.17/outbox.ucp.g08.bks.cvg/sg57_5_cif.got.tgz:9347.got - 2010.06.11 16:39:23.
