data_PCOD9440053
_publ_section_title
;
Structure prediction by ZEFSAII (Michael W. Deem and Ramdas Pophale) SiO2 
 PCOD9440053
Probable space group: P B C M
;
_chemical_formula_sum "Si O2"
_cell_formula_units_Z 48
_cell_length_a 15.873479
_cell_length_b 9.875968
_cell_length_c 15.679390
_cell_angle_alpha 90.000000
_cell_angle_beta 90.000000
_cell_angle_gamma 90.000000
_cell_volume 2457.994793
_symmetry_space_group_name_H-M "P B C M"
_symmetry_group_IT_number 57
_symmetry_cell_setting 'orthorhombic'
loop_
_space_group_symop_operation_xyz
x,y,z
-x,-y,1/2+z
x,1/2-y,-z
-x,1/2+y,1/2-z
-x,-y,-z
x,y,1/2-z
-x,1/2+y,z
x,1/2-y,1/2+z
loop_
_atom_site_type_symbol
_atom_site_label
_atom_site_fract_x
_atom_site_fract_y
_atom_site_fract_z
Si Si1 0.597864 0.528157 0.007142
Si Si2 0.895746 0.032405 0.652229
Si Si3 0.173718 0.408590 0.343713
Si Si4 0.012600 0.235833 0.101622
Si Si5 0.225856 0.906470 0.497922
Si Si6 0.319975 0.254195 0.406772
O O1 0.672405 0.418752 0.006032
O O2 0.624320 0.619878 0.089598
O O3 0.500000 0.500000 0.000000
O O4 0.616917 0.622743 0.924987
O O5 0.870348 0.007790 0.750000
O O6 0.819996 0.025302 0.583671
O O7 0.935595 0.182631 0.643658
O O8 0.966098 0.918984 0.626838
O O9 0.163416 0.469975 0.250000
O O10 0.093151 0.321827 0.368734
O O11 0.194403 0.516772 0.417212
O O12 0.250820 0.300794 0.342113
O O13 0.003478 0.250000 0.000000
O O14 0.202481 0.750000 0.500000
O O15 0.272479 0.250000 0.500000
#
# Coordination Sequence:
#
# PCOD9440053 Si02
#       6
#     8   8   8   8   8   8
#     4   8  16  32  59  88 115 154 204 247 314 391
#     4  12  26  43  63  93 130 173 218 266 323 381
#     4  11  21  39  63  88 121 170 220 262 316 376
#     4  12  24  43  66  89 128 166 218 271 308 372
#     4  11  24  39  60  93 128 167 210 268 326 384
#     4   7  16  31  55  83 115 147 202 251 298 370
#
# _framework density 19.528113000000001
#
# number of rings (size 3 to 8) (size 9 to 14) (size 15 to 20)
#    1.000    0.667    1.667    4.000    4.667    0.667 
#    0.000    0.000    0.000    8.000    0.000    0.000 
#    0.000    0.000    0.000    0.000    0.000    0.000 
#
# Total GULP energy -267278.953508 kJ/mol
# GULP energy per Si atom -5568.311531 kJ/mol
# Density = 1.948367 g / cm^3
# Si number density = 19.528113 Si / 1000 Ang^3
#
#
#
# Elastic Constant Matrix: (Units=GPa)
#
#
# Indices 1 2 3 4 5 6 
#
# 1 99.0930 22.0680 20.6935 0.0000 0.0000 0.0000
# 2 22.0680 84.6140 28.1912 0.0000 0.0000 0.0000
# 3 20.6935 28.1912 132.2731 0.0000 0.0000 0.0000
# 4 0.0000 0.0000 0.0000 18.4027 0.0000 0.0000
# 5 0.0000 0.0000 0.0000 0.0000 0.2347 0.0000
# 6 0.0000 0.0000 0.0000 0.0000 0.0000 8.7525
#
#
#
# Elastic Compliance Matrix: (Units=1/GPa)
#
#
# Indices 1 2 3 4 5 6 
#
# 1 0.010883 -0.002445 -0.001182 0.000000 0.000000 0.000000
# 2 -0.002445 0.013271 -0.002446 0.000000 0.000000 0.000000
# 3 -0.001182 -0.002446 0.008266 0.000000 0.000000 0.000000
# 4 0.000000 0.000000 0.000000 0.054340 0.000000 0.000000
# 5 0.000000 0.000000 0.000000 0.000000 4.260842 0.000000
# 6 0.000000 0.000000 0.000000 0.000000 0.000000 0.114254
#
#
# Mechanical properties :
#
#
# Convention : Reuss Voigt Hill
#
# Bulk Modulus (GPa) = 49.32035 50.87616 50.09825
# Shear Modulus (GPa) = 1.11588 21.81314 11.46451
#
# Velocity S-wave (km/s) = 0.75675 3.34580 2.42560
# Velocity P-wave (km/s) = 5.10632 6.40587 5.79265
#
# Compressibility (1/GPa) = 0.02027561
#
# Stress axis : x y z
#
# Youngs Moduli (GPa) = 91.88906 75.35295 120.97372
#
# Poissons Ratio (x) = 0.18421 0.14293
# Poissons Ratio (y) = 0.22464 0.29590
# Poissons Ratio (z) = 0.10857 0.18431
#
# Static dielectric constant tensor:
#      x y z
#    x 1.705280 0.000000 0.000000 
#    y 0.000000 1.767130 0.000000 
#    z 0.000000 0.000000 1.706020 
# 
# From -- ./inp_files/18952.got.cif
#   From: 2010.05.17/outbox.cif.g08.bks.cpg/sg57_10_cif.got.tgz:18952.got - 2010.06.03 13:58:18.
