data_PCOD9440716
_publ_section_title
;
Structure prediction by ZEFSAII (Michael W. Deem and Ramdas Pophale) SiO2 
 PCOD9440716
Probable space group: P N N M
;
_chemical_formula_sum "Si O2"
_cell_formula_units_Z 52
_cell_length_a 7.720602
_cell_length_b 28.452016
_cell_length_c 11.376799
_cell_angle_alpha 90.000000
_cell_angle_beta 90.000000
_cell_angle_gamma 90.000000
_cell_volume 2499.103798
_symmetry_space_group_name_H-M "P N N M"
_symmetry_group_IT_number 58
_symmetry_cell_setting 'orthorhombic'
loop_
_space_group_symop_operation_xyz
x,y,z
-x,-y,z
1/2+x,1/2-y,1/2-z
1/2-x,1/2+y,1/2-z
-x,-y,-z
x,y,-z
1/2-x,1/2+y,1/2+z
1/2+x,1/2-y,1/2+z
loop_
_atom_site_type_symbol
_atom_site_label
_atom_site_fract_x
_atom_site_fract_y
_atom_site_fract_z
Si Si1 0.722456 0.606222 0.257530
Si Si2 0.114184 0.183618 0.500000
Si Si3 0.670282 0.609575 0.000000
Si Si4 0.108019 0.602879 0.258602
Si Si5 0.957137 0.360754 0.000000
Si Si6 0.918460 0.208406 0.263593
Si Si7 0.916563 0.949898 0.862342
Si Si8 0.748366 0.799158 0.863675
O O1 0.704913 0.662769 0.242583
O O2 0.565737 0.588086 0.335713
O O3 0.694290 0.585229 0.125669
O O4 0.912829 0.593846 0.302523
O O5 0.020021 0.132332 0.500000
O O6 0.038067 0.204074 0.380320
O O7 0.321068 0.181850 0.500000
O O8 0.834968 0.646601 0.000000
O O9 0.087537 0.611666 0.119354
O O10 0.246458 0.563280 0.289401
O O11 0.180822 0.650917 0.316244
O O12 0.825449 0.257412 0.283154
O O13 0.045767 0.204684 0.153653
O O14 0.871748 0.949120 0.000000
O O15 0.000000 0.000000 0.833081
O O16 0.700619 0.793229 0.000000
#
# Coordination Sequence:
#
# PCOD9440716 Si02
#       8
#     8   4   4   8   4   8   8   8
#     4  10  21  41  67  92 128 168 212 267 333 381
#     4  10  16  36  58  78 123 166 213 258 307 374
#     4   8  18  32  62  96 117 158 206 257 315 385
#     4  11  22  41  68  96 131 172 214 270 327 390
#     4  10  18  36  66  92 123 172 206 256 326 379
#     4  11  22  40  58  90 127 173 217 265 320 381
#     4  11  25  45  69  96 129 172 222 273 328 392
#     4  12  24  40  60  91 132 174 222 269 319 383
#
# _framework density 20.807458
#
# number of rings (size 3 to 8) (size 9 to 14) (size 15 to 20)
#    0.000    1.385    3.846    2.308    0.000    1.846 
#    5.538    3.077    0.000    2.769    0.000    0.000 
#    0.000    0.000    0.000    0.000    0.000    0.000 
#
# Total GULP energy -290240.693226 kJ/mol
# GULP energy per Si atom -5581.551793 kJ/mol
# Density = 2.076010 g / cm^3
# Si number density = 20.807458 Si / 1000 Ang^3
#
#
#
# Elastic Constant Matrix: (Units=GPa)
#
#
# Indices 1 2 3 4 5 6 
#
# 1 74.8177 -17.9372 -3.1311 0.0000 0.0000 0.0000
# 2 -17.9372 21.4054 1.4200 0.0000 0.0000 0.0000
# 3 -3.1311 1.4200 34.5252 0.0000 0.0000 0.0000
# 4 0.0000 0.0000 0.0000 15.6627 0.0000 0.0000
# 5 0.0000 0.0000 0.0000 0.0000 20.9553 0.0000
# 6 0.0000 0.0000 0.0000 0.0000 0.0000 15.3955
#
#
#
# Elastic Compliance Matrix: (Units=1/GPa)
#
#
# Indices 1 2 3 4 5 6 
#
# 1 0.016757 0.013979 0.000945 0.000000 0.000000 0.000000
# 2 0.013979 0.058507 -0.001139 0.000000 0.000000 0.000000
# 3 0.000945 -0.001139 0.029097 0.000000 0.000000 0.000000
# 4 0.000000 0.000000 0.000000 0.063846 0.000000 0.000000
# 5 0.000000 0.000000 0.000000 0.000000 0.047721 0.000000
# 6 0.000000 0.000000 0.000000 0.000000 0.000000 0.064954
#
#
# Mechanical properties :
#
#
# Convention : Reuss Voigt Hill
#
# Bulk Modulus (GPa) = 7.57971 10.16129 8.87050
# Shear Modulus (GPa) = 16.81872 20.42913 18.62392
#
# Velocity S-wave (km/s) = 2.84615 3.13680 2.99500
# Velocity P-wave (km/s) = 3.80151 4.24422 4.02895
#
# Compressibility (1/GPa) = 0.13193117
#
# Stress axis : x y z
#
# Youngs Moduli (GPa) = 59.67726 17.09199 34.36795
#
# Poissons Ratio (x) = -0.23893 -0.03247
# Poissons Ratio (y) = -0.83424 0.03913
# Poissons Ratio (z) = -0.05638 0.01946
#
# Static dielectric constant tensor:
#      x y z
#    x 1.762150 0.000000 0.000000 
#    y 0.000000 1.745260 0.000000 
#    z 0.000000 0.000000 1.760170 
# 
# From -- ./inp_files/13364.got.cif
#   From: 2010.05.17/outbox.cif.g08.bks.cpg/sg58_7_cif.got.tgz:13364.got - 2010.06.03 14:20:14.
