data_PCOD9440396
_publ_section_title
;
Structure prediction by ZEFSAII (Michael W. Deem and Ramdas Pophale) SiO2 
 PCOD9440396
Probable space group: P B C M
;
_chemical_formula_sum "Si O2"
_cell_formula_units_Z 64
_cell_length_a 18.000000
_cell_length_b 21.000000
_cell_length_c 9.000000
_cell_angle_alpha 90.000000
_cell_angle_beta 90.000000
_cell_angle_gamma 90.000000
_cell_volume 3402.000000
_symmetry_space_group_name_H-M "P B C M"
_symmetry_group_IT_number 57
_symmetry_cell_setting 'orthorhombic'
loop_
_space_group_symop_operation_xyz
x,y,z
-x,-y,1/2+z
x,1/2-y,-z
-x,1/2+y,1/2-z
-x,-y,-z
x,y,1/2-z
-x,1/2+y,z
x,1/2-y,1/2+z
loop_
_atom_site_type_symbol
_atom_site_label
_atom_site_fract_x
_atom_site_fract_y
_atom_site_fract_z
Si Si1 0.943181 0.083975 0.081351
Si Si2 0.623972 0.820354 0.570592
Si Si3 0.306673 0.878479 0.426365
Si Si4 0.076223 0.181329 0.069248
Si Si5 0.450996 0.678977 0.428861
Si Si6 0.184088 0.509030 0.572825
Si Si7 0.774590 0.624378 0.929267
Si Si8 0.179948 0.806581 0.915919
O O1 0.955976 0.058909 0.250000
O O2 0.878189 0.136691 0.091398
O O3 0.017038 0.123755 0.033797
O O4 0.898516 0.033540 0.978162
O O5 0.628512 0.750000 0.500000
O O6 0.633289 0.818807 0.750000
O O7 0.537587 0.841692 0.541565
O O8 0.693403 0.857994 0.497568
O O9 0.317484 0.873143 0.250000
O O10 0.386749 0.867592 0.505205
O O11 0.252486 0.824382 0.490927
O O12 0.252883 0.940588 0.451514
O O13 0.078825 0.185408 0.250000
O O14 0.157761 0.165137 0.002092
O O15 0.053636 0.250000 0.000000
O O16 0.441834 0.750000 0.500000
O O17 0.442376 0.683202 0.250000
O O18 0.181523 0.496168 0.750000
O O19 0.205200 0.447309 0.478268
O O20 0.773723 0.868100 0.250000
O O21 0.201880 0.788855 0.750000
O O22 0.140065 0.750000 0.000000
#
# Coordination Sequence:
#
# PCOD9440396 Si02
#       8
#     8   8   8   8   8   8   8   8
#     4   9  20  37  57  82 113 150 188 230 279 332
#     4  10  21  39  62  88 117 148 186 233 287 341
#     4  10  20  34  53  78 110 147 188 232 278 331
#     4  11  23  40  62  89 120 150 187 235 286 340
#     4  10  20  34  56  85 117 151 187 232 284 338
#     4  10  22  40  61  84 113 152 195 238 281 331
#     4  12  25  41  62  85 112 149 192 237 287 341
#     4  10  18  29  47  73 107 145 186 228 274 328
#
# _framework density 18.812463000000001
#
# number of rings (size 3 to 8) (size 9 to 14) (size 15 to 20)
#    0.000    1.750    0.000    4.500    0.000    5.000 
#    0.000    0.625    0.000    0.000    0.000    0.000 
#    0.000    0.000    0.000    0.000    0.000    0.000 
#
# Total GULP energy -356923.462441 kJ/mol
# GULP energy per Si atom -5576.929101 kJ/mol
# Density = 1.876965 g / cm^3
# Si number density = 18.812463 Si / 1000 Ang^3
#
#
#
# Elastic Constant Matrix: (Units=GPa)
#
#
# Indices 1 2 3 4 5 6 
#
# 1 121.1279 11.9565 42.6947 0.0000 0.0000 0.0000
# 2 11.9565 49.3786 30.9120 0.0000 0.0000 0.0000
# 3 42.6947 30.9120 112.4442 0.0000 0.0000 0.0000
# 4 0.0000 0.0000 0.0000 31.8841 0.0000 0.0000
# 5 0.0000 0.0000 0.0000 0.0000 38.1856 0.0000
# 6 0.0000 0.0000 0.0000 0.0000 0.0000 27.3231
#
#
#
# Elastic Compliance Matrix: (Units=1/GPa)
#
#
# Indices 1 2 3 4 5 6 
#
# 1 0.009531 -0.000051 -0.003605 0.000000 0.000000 0.000000
# 2 -0.000051 0.024462 -0.006705 0.000000 0.000000 0.000000
# 3 -0.003605 -0.006705 0.012105 0.000000 0.000000 0.000000
# 4 0.000000 0.000000 0.000000 0.031364 0.000000 0.000000
# 5 0.000000 0.000000 0.000000 0.000000 0.026188 0.000000
# 6 0.000000 0.000000 0.000000 0.000000 0.000000 0.036599
#
#
# Mechanical properties :
#
#
# Convention : Reuss Voigt Hill
#
# Bulk Modulus (GPa) = 39.40775 50.45300 44.93037
# Shear Modulus (GPa) = 29.51058 32.63774 31.07416
#
# Velocity S-wave (km/s) = 3.96494 4.16973 4.06863
# Velocity P-wave (km/s) = 6.47720 7.07526 6.78283
#
# Compressibility (1/GPa) = 0.02537572
#
# Stress axis : x y z
#
# Youngs Moduli (GPa) = 104.91569 40.88010 82.60726
#
# Poissons Ratio (x) = 0.00209 0.29780
# Poissons Ratio (y) = 0.00536 0.55391
# Poissons Ratio (z) = 0.37822 0.27412
#
# Static dielectric constant tensor:
#      x y z
#    x 1.650470 0.000000 0.000000 
#    y 0.000000 1.707880 0.000000 
#    z 0.000000 0.000000 1.651910 
# 
# From -- ./inp_files/7286.got.cif
#   From: 2010.05.17/outbox.ucp.g08.bks.cvg/sg57_4_cif.got.tgz:7286.got - 2010.06.11 16:39:23.
