data_PCOD9440613
_publ_section_title
;
Structure prediction by ZEFSAII (Michael W. Deem and Ramdas Pophale) SiO2 
 PCOD9440613
Probable space group: P B C M
;
_chemical_formula_sum "Si O2"
_cell_formula_units_Z 64
_cell_length_a 12.000000
_cell_length_b 30.000000
_cell_length_c 9.000000
_cell_angle_alpha 90.000000
_cell_angle_beta 90.000000
_cell_angle_gamma 90.000000
_cell_volume 3240.000000
_symmetry_space_group_name_H-M "P B C M"
_symmetry_group_IT_number 57
_symmetry_cell_setting 'orthorhombic'
loop_
_space_group_symop_operation_xyz
x,y,z
-x,-y,1/2+z
x,1/2-y,-z
-x,1/2+y,1/2-z
-x,-y,-z
x,y,1/2-z
-x,1/2+y,z
x,1/2-y,1/2+z
loop_
_atom_site_type_symbol
_atom_site_label
_atom_site_fract_x
_atom_site_fract_y
_atom_site_fract_z
Si Si1 0.036578 0.202089 0.575499
Si Si2 0.994684 0.048581 0.425335
Si Si3 0.146648 0.874099 0.423555
Si Si4 0.362122 0.892446 0.925706
Si Si5 0.409176 0.135839 0.923927
Si Si6 0.744079 0.702032 0.074247
Si Si7 0.612200 0.017260 0.921241
Si Si8 0.249513 0.071890 0.416067
O O1 0.012402 0.250000 0.500000
O O2 0.063576 0.208889 0.750000
O O3 0.142591 0.180883 0.491039
O O4 0.935824 0.167731 0.565189
O O5 0.966348 0.044943 0.250000
O O6 0.912622 0.082328 0.508613
O O7 0.118476 0.069151 0.436754
O O8 0.000000 0.000000 0.500000
O O9 0.172855 0.881980 0.250000
O O10 0.257885 0.864757 0.515691
O O11 0.375234 0.890484 0.750000
O O12 0.474588 0.878853 0.007932
O O13 0.341565 0.942625 0.981622
O O14 0.416603 0.144286 0.750000
O O15 0.363591 0.177622 0.013973
O O16 0.317240 0.098389 0.960754
O O17 0.747918 0.703934 0.250000
O O18 0.745557 0.750000 0.000000
O O19 0.588665 0.030951 0.750000
O O20 0.700577 0.977629 0.916213
O O21 0.500000 0.000000 0.000000
O O22 0.273486 0.091226 0.250000
#
# Coordination Sequence:
#
# PCOD9440613 Si02
#       8
#     8   8   8   8   8   8   8   8
#     4  10  21  39  66  97 127 159 200 250 305 367
#     4  11  23  39  60  87 121 162 205 253 307 365
#     4  11  24  42  62  88 123 163 208 257 311 372
#     4  12  25  41  61  86 119 160 207 254 305 363
#     4  12  24  39  61  88 119 154 197 245 298 355
#     4  11  22  39  64  93 126 157 193 240 296 359
#     4  11  21  36  58  85 119 158 202 250 299 356
#     4  10  22  38  58  85 118 154 198 247 298 354
#
# _framework density 19.753086
#
# number of rings (size 3 to 8) (size 9 to 14) (size 15 to 20)
#    0.000    1.000    1.250    7.125    0.000    6.500 
#    0.000    0.625    0.000    1.500    0.000    0.000 
#    0.000    0.000    0.000    0.000    0.000    0.000 
#
# Total GULP energy -357782.867661 kJ/mol
# GULP energy per Si atom -5590.357307 kJ/mol
# Density = 1.970813 g / cm^3
# Si number density = 19.753086 Si / 1000 Ang^3
#
#
#
# Elastic Constant Matrix: (Units=GPa)
#
#
# Indices 1 2 3 4 5 6 
#
# 1 54.6335 20.1390 37.0627 0.0000 0.0000 0.0000
# 2 20.1390 62.4956 36.4774 0.0000 0.0000 0.0000
# 3 37.0627 36.4774 165.7871 0.0000 0.0000 0.0000
# 4 0.0000 0.0000 0.0000 22.6815 0.0000 0.0000
# 5 0.0000 0.0000 0.0000 0.0000 27.4423 0.0000
# 6 0.0000 0.0000 0.0000 0.0000 0.0000 22.3526
#
#
#
# Elastic Compliance Matrix: (Units=1/GPa)
#
#
# Indices 1 2 3 4 5 6 
#
# 1 0.022877 -0.005033 -0.004007 0.000000 0.000000 0.000000
# 2 -0.005033 0.019466 -0.003158 0.000000 0.000000 0.000000
# 3 -0.004007 -0.003158 0.007622 0.000000 0.000000 0.000000
# 4 0.000000 0.000000 0.000000 0.044089 0.000000 0.000000
# 5 0.000000 0.000000 0.000000 0.000000 0.036440 0.000000
# 6 0.000000 0.000000 0.000000 0.000000 0.000000 0.044737
#
#
# Mechanical properties :
#
#
# Convention : Reuss Voigt Hill
#
# Bulk Modulus (GPa) = 39.10863 52.25273 45.68068
# Shear Modulus (GPa) = 24.02089 27.11109 25.56599
#
# Velocity S-wave (km/s) = 3.49098 3.70874 3.60151
# Velocity P-wave (km/s) = 6.00758 6.69702 6.36165
#
# Compressibility (1/GPa) = 0.02556980
#
# Stress axis : x y z
#
# Youngs Moduli (GPa) = 43.71114 51.37086 131.19225
#
# Poissons Ratio (x) = 0.25857 0.52567
# Poissons Ratio (y) = 0.22002 0.41428
# Poissons Ratio (z) = 0.17515 0.16222
#
# Static dielectric constant tensor:
#      x y z
#    x 1.725630 0.000000 0.000000 
#    y 0.000000 1.913750 0.000000 
#    z 0.000000 0.000000 1.663890 
# 
# From -- ./inp_files/3890.got.cif
#   From: 2010.05.17/outbox.ucp.g08.bks.cvg/sg57_2_cif.got.tgz:3890.got - 2010.06.11 16:39:23.
