data_PCOD9440510
_publ_section_title
;
Structure prediction by ZEFSAII (Michael W. Deem and Ramdas Pophale) SiO2 
 PCOD9440510
Probable space group: P B C M
;
_chemical_formula_sum "Si O2"
_cell_formula_units_Z 64
_cell_length_a 18.000000
_cell_length_b 21.000000
_cell_length_c 9.000000
_cell_angle_alpha 90.000000
_cell_angle_beta 90.000000
_cell_angle_gamma 90.000000
_cell_volume 3402.000000
_symmetry_space_group_name_H-M "P B C M"
_symmetry_group_IT_number 57
_symmetry_cell_setting 'orthorhombic'
loop_
_space_group_symop_operation_xyz
x,y,z
-x,-y,1/2+z
x,1/2-y,-z
-x,1/2+y,1/2-z
-x,-y,-z
x,y,1/2-z
-x,1/2+y,z
x,1/2-y,1/2+z
loop_
_atom_site_type_symbol
_atom_site_label
_atom_site_fract_x
_atom_site_fract_y
_atom_site_fract_z
Si Si1 0.332656 0.070539 0.082745
Si Si2 0.845748 0.934605 0.581632
Si Si3 0.427697 0.814545 0.071574
Si Si4 0.910436 0.813653 0.426176
Si Si5 0.674967 0.068674 0.928713
Si Si6 0.165262 0.938896 0.923930
Si Si7 0.928323 0.188653 0.425039
Si Si8 0.400761 0.313470 0.424979
O O1 0.357766 0.086777 0.250000
O O2 0.243640 0.064549 0.085856
O O3 0.360359 0.000373 0.040966
O O4 0.356714 0.124663 0.972099
O O5 0.873730 0.926082 0.750000
O O6 0.869538 0.876536 0.479821
O O7 0.869116 0.002147 0.514005
O O8 0.426039 0.809370 0.250000
O O9 0.379314 0.874865 0.028269
O O10 0.513560 0.821679 0.025101
O O11 0.398180 0.750000 0.000000
O O12 0.877050 0.750000 0.500000
O O13 0.910866 0.807530 0.250000
O O14 0.993704 0.818691 0.490752
O O15 0.688548 0.070796 0.750000
O O16 0.752652 0.073238 0.012914
O O17 0.169157 0.955653 0.750000
O O18 0.118283 0.875121 0.941528
O O19 0.890379 0.250000 0.500000
O O20 0.941091 0.200248 0.250000
O O21 0.369904 0.250000 0.500000
O O22 0.400108 0.304834 0.250000
#
# Coordination Sequence:
#
# PCOD9440510 Si02
#       8
#     8   8   8   8   8   8   8   8
#     4   9  19  35  54  76 103 136 172 212 259 310
#     4  10  21  38  58  79 107 142 177 216 265 317
#     4   9  19  35  53  76 105 138 176 215 260 311
#     4  11  22  37  58  82 109 140 177 220 263 312
#     4   9  19  36  55  75 105 141 174 213 262 315
#     4  10  21  36  55  81 109 138 177 221 263 311
#     4  10  21  37  56  79 109 142 177 218 263 313
#     4  10  20  34  53  76 104 137 173 216 261 309
#
# _framework density 18.812463000000001
#
# number of rings (size 3 to 8) (size 9 to 14) (size 15 to 20)
#    0.000    2.250    0.000    4.125    0.000    7.500 
#    0.000    2.500    0.000    0.000    0.000    0.000 
#    0.000    0.000    0.000    0.000    0.000    0.000 
#
# Total GULP energy -357028.670830 kJ/mol
# GULP energy per Si atom -5578.572982 kJ/mol
# Density = 1.876965 g / cm^3
# Si number density = 18.812463 Si / 1000 Ang^3
#
#
#
# Elastic Constant Matrix: (Units=GPa)
#
#
# Indices 1 2 3 4 5 6 
#
# 1 10.4428 29.8092 21.4366 0.0000 0.0000 0.0000
# 2 29.8092 128.0719 72.9633 0.0000 0.0000 0.0000
# 3 21.4366 72.9633 91.7537 0.0000 0.0000 0.0000
# 4 0.0000 0.0000 0.0000 32.8497 0.0000 0.0000
# 5 0.0000 0.0000 0.0000 0.0000 25.9019 0.0000
# 6 0.0000 0.0000 0.0000 0.0000 0.0000 23.2033
#
#
#
# Elastic Compliance Matrix: (Units=1/GPa)
#
#
# Indices 1 2 3 4 5 6 
#
# 1 0.321619 -0.058596 -0.028544 0.000000 0.000000 0.000000
# 2 -0.058596 0.024951 -0.006151 0.000000 0.000000 0.000000
# 3 -0.028544 -0.006151 0.022459 0.000000 0.000000 0.000000
# 4 0.000000 0.000000 0.000000 0.030442 0.000000 0.000000
# 5 0.000000 0.000000 0.000000 0.000000 0.038607 0.000000
# 6 0.000000 0.000000 0.000000 0.000000 0.000000 0.043097
#
#
# Mechanical properties :
#
#
# Convention : Reuss Voigt Hill
#
# Bulk Modulus (GPa) = 5.48108 53.18739 29.33424
# Shear Modulus (GPa) = 6.86272 23.46161 15.16216
#
# Velocity S-wave (km/s) = 1.91204 3.53531 2.84203
# Velocity P-wave (km/s) = 2.79184 6.70808 5.13774
#
# Compressibility (1/GPa) = 0.18244569
#
# Stress axis : x y z
#
# Youngs Moduli (GPa) = 3.10927 40.07862 44.52507
#
# Poissons Ratio (x) = 2.34844 1.27095
# Poissons Ratio (y) = 0.18219 0.27389
# Poissons Ratio (z) = 0.08875 0.24654
#
# Static dielectric constant tensor:
#      x y z
#    x 1.637390 0.000000 0.000000 
#    y 0.000000 1.666500 0.000000 
#    z 0.000000 0.000000 1.633880 
# 
# From -- ./inp_files/7265.got.cif
#   From: 2010.05.17/outbox.ucp.g08.bks.cvg/sg57_4_cif.got.tgz:7265.got - 2010.06.11 16:39:23.
