data_PCOD9440268
_publ_section_title
;
Structure prediction by ZEFSAII (Michael W. Deem and Ramdas Pophale) SiO2 
 PCOD9440268
Probable space group: P B C M
;
_chemical_formula_sum "Si O2"
_cell_formula_units_Z 48
_cell_length_a 20.061644
_cell_length_b 8.649947
_cell_length_c 14.227920
_cell_angle_alpha 90.000000
_cell_angle_beta 90.000000
_cell_angle_gamma 90.000000
_cell_volume 2469.001652
_symmetry_space_group_name_H-M "P B C M"
_symmetry_group_IT_number 57
_symmetry_cell_setting 'orthorhombic'
loop_
_space_group_symop_operation_xyz
x,y,z
-x,-y,1/2+z
x,1/2-y,-z
-x,1/2+y,1/2-z
-x,-y,-z
x,y,1/2-z
-x,1/2+y,z
x,1/2-y,1/2+z
loop_
_atom_site_type_symbol
_atom_site_label
_atom_site_fract_x
_atom_site_fract_y
_atom_site_fract_z
Si Si1 0.672784 0.434468 0.520391
Si Si2 0.937209 0.914062 0.547200
Si Si3 0.898961 0.439642 0.750000
Si Si4 0.550406 0.354204 0.640433
Si Si5 0.587150 0.991181 0.859550
Si Si6 0.820917 0.084883 0.052635
Si Si7 0.963195 0.789491 0.750000
O O1 0.676595 0.250000 0.500000
O O2 0.609301 0.445871 0.589009
O O3 0.651255 0.521978 0.425650
O O4 0.745286 0.477417 0.558347
O O5 0.940005 0.750000 0.500000
O O6 0.941771 0.883513 0.657562
O O7 0.868821 0.989547 0.515422
O O8 0.000000 0.000000 0.500000
O O9 0.855350 0.418235 0.844588
O O10 0.933911 0.612926 0.750000
O O11 0.956457 0.308040 0.750000
O O12 0.551277 0.397267 0.750000
O O13 0.476309 0.393370 0.606140
O O14 0.564914 0.171538 0.633134
O O15 0.600654 0.957242 0.750000
O O16 0.818706 0.250000 0.000000
#
# Coordination Sequence:
#
# PCOD9440268 Si02
#       7
#     8   8   4   8   8   8   4
#     4   9  19  36  54  80 113 155 194 239 301 359
#     4  12  23  42  65  93 126 157 206 255 306 372
#     4  12  26  42  70  94 124 161 209 254 318 377
#     4   9  17  30  54  81 107 145 192 243 293 346
#     4   9  17  32  54  80 112 144 195 245 295 350
#     4  11  25  42  62  93 128 162 207 259 307 375
#     4  12  24  42  70  96 122 165 203 256 318 361
#
# _framework density 19.441054999999999
#
# number of rings (size 3 to 8) (size 9 to 14) (size 15 to 20)
#    0.000    1.667    3.333    1.000    3.500    0.000 
#    6.000    1.667    0.000    0.000    0.000    0.000 
#    0.000    0.000    0.000    0.000    0.000    0.000 
#
# Total GULP energy -267773.265765 kJ/mol
# GULP energy per Si atom -5578.609703 kJ/mol
# Density = 1.939681 g / cm^3
# Si number density = 19.441055 Si / 1000 Ang^3
#
#
#
# Elastic Constant Matrix: (Units=GPa)
#
#
# Indices 1 2 3 4 5 6 
#
# 1 130.1337 24.7666 58.1575 0.0000 0.0000 0.0000
# 2 24.7666 40.4680 20.8651 0.0000 0.0000 0.0000
# 3 58.1575 20.8651 137.2464 0.0000 0.0000 0.0000
# 4 0.0000 0.0000 0.0000 23.4985 0.0000 0.0000
# 5 0.0000 0.0000 0.0000 0.0000 25.5306 0.0000
# 6 0.0000 0.0000 0.0000 0.0000 0.0000 20.3337
#
#
#
# Elastic Compliance Matrix: (Units=1/GPa)
#
#
# Indices 1 2 3 4 5 6 
#
# 1 0.010133 -0.004327 -0.003636 0.000000 0.000000 0.000000
# 2 -0.004327 0.028660 -0.002524 0.000000 0.000000 0.000000
# 3 -0.003636 -0.002524 0.009211 0.000000 0.000000 0.000000
# 4 0.000000 0.000000 0.000000 0.042556 0.000000 0.000000
# 5 0.000000 0.000000 0.000000 0.000000 0.039169 0.000000
# 6 0.000000 0.000000 0.000000 0.000000 0.000000 0.049180
#
#
# Mechanical properties :
#
#
# Convention : Reuss Voigt Hill
#
# Bulk Modulus (GPa) = 36.99488 57.26962 47.13225
# Shear Modulus (GPa) = 23.93601 27.47646 25.70624
#
# Velocity S-wave (km/s) = 3.51267 3.76350 3.64024
# Velocity P-wave (km/s) = 5.96006 6.95753 6.47802
#
# Compressibility (1/GPa) = 0.02703076
#
# Stress axis : x y z
#
# Youngs Moduli (GPa) = 98.68985 34.89188 108.57110
#
# Poissons Ratio (x) = 0.15096 0.39476
# Poissons Ratio (y) = 0.42699 0.27400
# Poissons Ratio (z) = 0.35883 0.08806
#
# Static dielectric constant tensor:
#      x y z
#    x 1.627120 0.000000 0.000000 
#    y 0.000000 1.676960 0.000000 
#    z 0.000000 0.000000 1.711990 
# 
# From -- ./inp_files/19021.got.cif
#   From: 2010.05.17/outbox.cif.g08.bks.cpg/sg57_10_cif.got.tgz:19021.got - 2010.06.03 13:58:18.
