data_PCOD9440541
_publ_section_title
;
Structure prediction by ZEFSAII (Michael W. Deem and Ramdas Pophale) SiO2 
 PCOD9440541
Probable space group: P B C M
;
_chemical_formula_sum "Si O2"
_cell_formula_units_Z 64
_cell_length_a 9.000000
_cell_length_b 18.000000
_cell_length_c 21.000000
_cell_angle_alpha 90.000000
_cell_angle_beta 90.000000
_cell_angle_gamma 90.000000
_cell_volume 3402.000000
_symmetry_space_group_name_H-M "P B C M"
_symmetry_group_IT_number 57
_symmetry_cell_setting 'orthorhombic'
loop_
_space_group_symop_operation_xyz
x,y,z
-x,-y,1/2+z
x,1/2-y,-z
-x,1/2+y,1/2-z
-x,-y,-z
x,y,1/2-z
-x,1/2+y,z
x,1/2-y,1/2+z
loop_
_atom_site_type_symbol
_atom_site_label
_atom_site_fract_x
_atom_site_fract_y
_atom_site_fract_z
Si Si1 0.207135 0.806854 0.444106
Si Si2 0.275624 0.203180 0.179461
Si Si3 0.445675 0.223144 0.929165
Si Si4 0.149855 0.038036 0.178130
Si Si5 0.160689 0.019939 0.821548
Si Si6 0.995481 0.681502 0.677629
Si Si7 0.638781 0.557205 0.566985
Si Si8 0.711965 0.471081 0.447689
O O1 0.159260 0.750000 0.500000
O O2 0.377108 0.786991 0.425971
O O3 0.107242 0.805706 0.380757
O O4 0.218106 0.892209 0.468325
O O5 0.341039 0.215633 0.250000
O O6 0.389736 0.220705 0.123872
O O7 0.217182 0.119718 0.175550
O O8 0.135881 0.258356 0.173389
O O9 0.362351 0.144894 0.920303
O O10 0.410519 0.250000 0.000000
O O11 0.177909 0.007333 0.250000
O O12 0.218260 0.992487 0.119920
O O13 0.971939 0.038751 0.170514
O O14 0.221502 0.015136 0.750000
O O15 0.285516 0.015555 0.874448
O O16 0.077766 0.099713 0.827924
O O17 0.059436 0.686624 0.750000
O O18 0.724560 0.532691 0.502930
O O19 0.465091 0.538019 0.560999
#
# Coordination Sequence:
#
# PCOD9440541 Si02
#       8
#     8   8   8   8   8   8   8   8
#     4  10  22  38  57  84 116 151 193 238 285 340
#     4  10  21  37  58  85 114 146 189 237 284 341
#     4  10  20  36  57  81 113 150 188 233 282 336
#     4  10  21  38  59  84 116 151 187 234 292 346
#     4  10  20  37  58  83 114 148 190 237 285 342
#     4  10  20  38  59  83 116 150 189 238 285 338
#     4  10  21  36  58  83 112 150 191 234 285 337
#     4  10  21  38  57  83 116 151 191 237 287 343
#
# _framework density 18.812463000000001
#
# number of rings (size 3 to 8) (size 9 to 14) (size 15 to 20)
#    0.000    2.000    2.500    0.750    0.000    4.000 
#    2.250    2.500    0.000    3.000    0.000    0.000 
#    0.000    0.000    0.000    0.000    0.000    0.000 
#
# Total GULP energy -357012.689605 kJ/mol
# GULP energy per Si atom -5578.323275 kJ/mol
# Density = 1.876965 g / cm^3
# Si number density = 18.812463 Si / 1000 Ang^3
#
#
#
# Elastic Constant Matrix: (Units=GPa)
#
#
# Indices 1 2 3 4 5 6 
#
# 1 -0.2685 -8.6881 10.8698 0.0000 0.0000 0.0000
# 2 -8.6881 29.6760 -2.6507 0.0000 0.0000 0.0000
# 3 10.8698 -2.6507 82.6320 0.0000 0.0000 0.0000
# 4 0.0000 0.0000 0.0000 20.3893 0.0000 0.0000
# 5 0.0000 0.0000 0.0000 0.0000 40.8141 0.0000
# 6 0.0000 0.0000 0.0000 0.0000 0.0000 18.9273
#
#
#
# Elastic Compliance Matrix: (Units=1/GPa)
#
#
# Indices 1 2 3 4 5 6 
#
# 1 -0.247001 -0.069611 0.030259 0.000000 0.000000 0.000000
# 2 -0.069611 0.014176 0.009612 0.000000 0.000000 0.000000
# 3 0.030259 0.009612 0.008430 0.000000 0.000000 0.000000
# 4 0.000000 0.000000 0.000000 0.049045 0.000000 0.000000
# 5 0.000000 0.000000 0.000000 0.000000 0.024501 0.000000
# 6 0.000000 0.000000 0.000000 0.000000 0.000000 0.052834
#
#
# Mechanical properties :
#
#
# Convention : Reuss Voigt Hill
#
# Bulk Modulus (GPa) = -3.52267 12.34460 4.41097
# Shear Modulus (GPa) = -37.54926 23.52670 -7.01128
#
# Velocity S-wave (km/s) = -4.47248 3.54021 -1.93262
# Velocity P-wave (km/s) = 5.34298 4.82565 1.62180
#
# Compressibility (1/GPa) = -0.28387596
#
# Stress axis : x y z
#
# Youngs Moduli (GPa) = -4.04857 70.54125 118.62626
#
# Poissons Ratio (x) = 4.91044 -3.58946
# Poissons Ratio (y) = -0.28182 -1.14020
# Poissons Ratio (z) = 0.12250 -0.67802
#
# Static dielectric constant tensor:
#      x y z
#    x 1.626360 0.000000 0.000000 
#    y 0.000000 1.670470 0.000000 
#    z 0.000000 0.000000 1.649770 
# 
# From -- ./inp_files/24613.got.cif
#   From: 2010.05.17/outbox.ucp.g08.bks.cvg/sg57_13_cif.got.tgz:24613.got - 2010.06.11 16:39:23.
