data_PCOD9440639
_publ_section_title
;
Structure prediction by ZEFSAII (Michael W. Deem and Ramdas Pophale) SiO2 
 PCOD9440639
Probable space group: P B C M
;
_chemical_formula_sum "Si O2"
_cell_formula_units_Z 64
_cell_length_a 12.000000
_cell_length_b 15.000000
_cell_length_c 18.000000
_cell_angle_alpha 90.000000
_cell_angle_beta 90.000000
_cell_angle_gamma 90.000000
_cell_volume 3240.000000
_symmetry_space_group_name_H-M "P B C M"
_symmetry_group_IT_number 57
_symmetry_cell_setting 'orthorhombic'
loop_
_space_group_symop_operation_xyz
x,y,z
-x,-y,1/2+z
x,1/2-y,-z
-x,1/2+y,1/2-z
-x,-y,-z
x,y,1/2-z
-x,1/2+y,z
x,1/2-y,1/2+z
loop_
_atom_site_type_symbol
_atom_site_label
_atom_site_fract_x
_atom_site_fract_y
_atom_site_fract_z
Si Si1 0.847337 0.729903 0.663830
Si Si2 0.310207 0.401643 0.836371
Si Si3 0.916837 0.243239 0.588929
Si Si4 0.538006 0.356374 0.337643
Si Si5 0.767395 0.078551 0.905103
Si Si6 0.304720 0.067783 0.839217
Si Si7 0.506949 0.810434 0.573104
Si Si8 0.738284 0.392645 0.925106
O O1 0.873696 0.711279 0.750000
O O2 0.764422 0.813380 0.661497
O O3 0.778333 0.645272 0.633082
O O4 0.961820 0.752102 0.623322
O O5 0.349148 0.414582 0.750000
O O6 0.236033 0.485500 0.862000
O O7 0.406812 0.385320 0.898062
O O8 0.927342 0.250000 0.500000
O O9 0.863723 0.149046 0.613868
O O10 0.825150 0.319340 0.604593
O O11 0.557516 0.367568 0.250000
O O12 0.648924 0.378098 0.382531
O O13 0.432604 0.415222 0.362345
O O14 0.500833 0.256806 0.357256
O O15 0.773160 0.070104 0.994103
O O16 0.304954 0.072971 0.750000
O O17 0.268373 0.972906 0.868115
O O18 0.536636 0.750000 0.500000
O O19 0.383514 0.849512 0.562679
#
# Coordination Sequence:
#
# PCOD9440639 Si02
#       8
#     8   8   8   8   8   8   8   8
#     4  10  23  44  64  86 121 164 210 262 312 371
#     4  11  25  42  63  95 130 163 210 260 311 376
#     4  10  23  44  63  87 124 160 209 264 315 371
#     4  11  21  38  63  90 125 164 201 248 309 369
#     4  11  23  41  63  92 126 164 204 258 312 375
#     4  10  23  41  62  91 127 163 206 258 315 377
#     4  12  22  39  66  94 130 169 206 251 314 376
#     4  11  23  41  63  93 129 162 207 259 311 377
#
# _framework density 19.753086
#
# number of rings (size 3 to 8) (size 9 to 14) (size 15 to 20)
#    0.000    1.250    3.750    1.875    1.750    7.000 
#    0.000    5.000    0.000    0.000    0.000    0.000 
#    0.000    0.000    0.000    0.000    0.000    0.000 
#
# Total GULP energy -357387.516940 kJ/mol
# GULP energy per Si atom -5584.179952 kJ/mol
# Density = 1.970813 g / cm^3
# Si number density = 19.753086 Si / 1000 Ang^3
#
#
#
# Elastic Constant Matrix: (Units=GPa)
#
#
# Indices 1 2 3 4 5 6 
#
# 1 70.4123 5.6390 30.3657 0.0000 0.0000 0.0000
# 2 5.6390 70.0817 20.1695 0.0000 0.0000 0.0000
# 3 30.3657 20.1695 19.3463 0.0000 0.0000 0.0000
# 4 0.0000 0.0000 0.0000 32.8519 0.0000 0.0000
# 5 0.0000 0.0000 0.0000 0.0000 26.6318 0.0000
# 6 0.0000 0.0000 0.0000 0.0000 0.0000 1.2943
#
#
#
# Elastic Compliance Matrix: (Units=1/GPa)
#
#
# Indices 1 2 3 4 5 6 
#
# 1 0.111729 0.059262 -0.237152 0.000000 0.000000 0.000000
# 2 0.059262 0.051819 -0.147041 0.000000 0.000000 0.000000
# 3 -0.237152 -0.147041 0.577217 0.000000 0.000000 0.000000
# 4 0.000000 0.000000 0.000000 0.030440 0.000000 0.000000
# 5 0.000000 0.000000 0.000000 0.000000 0.037549 0.000000
# 6 0.000000 0.000000 0.000000 0.000000 0.000000 0.772614
#
#
# Mechanical properties :
#
#
# Convention : Reuss Voigt Hill
#
# Bulk Modulus (GPa) = 11.00064 30.24319 20.62192
# Shear Modulus (GPa) = 2.21089 19.06669 10.63879
#
# Velocity S-wave (km/s) = 1.05910 3.11022 2.32327
# Velocity P-wave (km/s) = 2.66022 5.31430 4.20229
#
# Compressibility (1/GPa) = 0.09090382
#
# Stress axis : x y z
#
# Youngs Moduli (GPa) = 8.95022 19.29801 1.73245
#
# Poissons Ratio (x) = -1.14364 0.41085
# Poissons Ratio (y) = -0.53041 0.25474
# Poissons Ratio (z) = 2.12256 2.83759
#
# Static dielectric constant tensor:
#      x y z
#    x 1.681880 0.000000 0.000000 
#    y 0.000000 1.719740 0.000000 
#    z 0.000000 0.000000 1.682640 
# 
# From -- ./inp_files/22073.got.cif
#   From: 2010.05.17/outbox.ucp.g08.bks.cvg/sg57_12_cif.got.tgz:22073.got - 2010.06.11 16:39:23.
