data_PCOD9440198
_publ_section_title
;
Structure prediction by ZEFSAII (Michael W. Deem and Ramdas Pophale) SiO2 
 PCOD9440198
Probable space group: P B C M
;
_chemical_formula_sum "Si O2"
_cell_formula_units_Z 48
_cell_length_a 12.123008
_cell_length_b 8.914494
_cell_length_c 21.916874
_cell_angle_alpha 90.000000
_cell_angle_beta 90.000000
_cell_angle_gamma 90.000000
_cell_volume 2368.567139
_symmetry_space_group_name_H-M "P B C M"
_symmetry_group_IT_number 57
_symmetry_cell_setting 'orthorhombic'
loop_
_space_group_symop_operation_xyz
x,y,z
-x,-y,1/2+z
x,1/2-y,-z
-x,1/2+y,1/2-z
-x,-y,-z
x,y,1/2-z
-x,1/2+y,z
x,1/2-y,1/2+z
loop_
_atom_site_type_symbol
_atom_site_label
_atom_site_fract_x
_atom_site_fract_y
_atom_site_fract_z
Si Si1 0.755860 0.001436 0.880295
Si Si2 0.144539 0.416576 0.750000
Si Si3 0.855232 0.999722 0.382335
Si Si4 0.902607 0.560842 0.750000
Si Si5 0.314805 0.801908 0.569809
Si Si6 0.055895 0.310048 0.932144
Si Si7 0.446767 0.124981 0.044992
O O1 0.788464 0.953322 0.811947
O O2 0.852585 0.939284 0.924229
O O3 0.643040 0.934646 0.908103
O O4 0.741592 0.179060 0.887151
O O5 0.111708 0.240825 0.750000
O O6 0.031498 0.513377 0.750000
O O7 0.847204 0.007312 0.309973
O O8 0.900246 0.833979 0.395852
O O9 0.742385 0.039991 0.416404
O O10 0.945074 0.118260 0.406243
O O11 0.296075 0.750000 0.500000
O O12 0.445910 0.807705 0.578354
O O13 0.039982 0.250000 0.000000
O O14 0.397032 0.250000 0.000000
O O15 0.500000 0.000000 0.000000
#
# Coordination Sequence:
#
# PCOD9440198 Si02
#       7
#     8   4   8   4   8   8   8
#     4  12  24  44  69 101 137 183 234 286 342 412
#     4  12  28  46  71  99 140 190 237 284 329 422
#     4  12  24  41  65  97 138 178 229 279 341 421
#     4  12  24  48  65  97 136 192 231 272 345 416
#     4  11  24  43  69 106 138 175 226 285 351 414
#     4  12  24  39  65  99 136 176 222 293 354 407
#     4  11  23  44  74 102 136 179 225 287 355 417
#
# _framework density 20.265416999999999
#
# number of rings (size 3 to 8) (size 9 to 14) (size 15 to 20)
#    0.000    0.333    6.667    3.500    4.667    0.000 
#    0.000    1.667    0.000    0.000    0.000    0.000 
#    0.000    0.000    0.000    0.000    0.000    0.000 
#
# Total GULP energy -268540.057981 kJ/mol
# GULP energy per Si atom -5594.584541 kJ/mol
# Density = 2.021929 g / cm^3
# Si number density = 20.265417 Si / 1000 Ang^3
#
#
#
# Elastic Constant Matrix: (Units=GPa)
#
#
# Indices 1 2 3 4 5 6 
#
# 1 88.6629 19.1784 22.3201 0.0000 0.0000 0.0000
# 2 19.1784 61.0890 7.0277 0.0000 0.0000 0.0000
# 3 22.3201 7.0277 95.4333 0.0000 0.0000 0.0000
# 4 0.0000 0.0000 0.0000 33.9427 0.0000 0.0000
# 5 0.0000 0.0000 0.0000 0.0000 31.1020 0.0000
# 6 0.0000 0.0000 0.0000 0.0000 0.0000 24.3422
#
#
#
# Elastic Compliance Matrix: (Units=1/GPa)
#
#
# Indices 1 2 3 4 5 6 
#
# 1 0.012761 -0.003694 -0.002712 0.000000 0.000000 0.000000
# 2 -0.003694 0.017579 -0.000431 0.000000 0.000000 0.000000
# 3 -0.002712 -0.000431 0.011145 0.000000 0.000000 0.000000
# 4 0.000000 0.000000 0.000000 0.029461 0.000000 0.000000
# 5 0.000000 0.000000 0.000000 0.000000 0.032152 0.000000
# 6 0.000000 0.000000 0.000000 0.000000 0.000000 0.041081
#
#
# Mechanical properties :
#
#
# Convention : Reuss Voigt Hill
#
# Bulk Modulus (GPa) = 35.95832 38.02639 36.99235
# Shear Modulus (GPa) = 29.91815 30.98796 30.45305
#
# Velocity S-wave (km/s) = 3.84645 3.91462 3.88069
# Velocity P-wave (km/s) = 6.12447 6.26396 6.19461
#
# Compressibility (1/GPa) = 0.02780998
#
# Stress axis : x y z
#
# Youngs Moduli (GPa) = 78.36652 56.88670 89.72937
#
# Poissons Ratio (x) = 0.21014 0.24339
# Poissons Ratio (y) = 0.28949 0.03863
# Poissons Ratio (z) = 0.21256 0.02449
#
# Static dielectric constant tensor:
#      x y z
#    x 1.722540 0.000000 0.000000 
#    y 0.000000 1.774880 0.000000 
#    z 0.000000 0.000000 1.719090 
# 
# From -- ./inp_files/27149.got.cif
#   From: 2010.05.17/outbox.cif.g08.bks.cpg/sg57_14_cif.got.tgz:27149.got - 2010.06.03 13:58:18.
