data_PCOD9440564
_publ_section_title
;
Structure prediction by ZEFSAII (Michael W. Deem and Ramdas Pophale) SiO2 
 PCOD9440564
Probable space group: P B C M
;
_chemical_formula_sum "Si O2"
_cell_formula_units_Z 56
_cell_length_a 15.000000
_cell_length_b 21.000000
_cell_length_c 9.000000
_cell_angle_alpha 90.000000
_cell_angle_beta 90.000000
_cell_angle_gamma 90.000000
_cell_volume 2835.000000
_symmetry_space_group_name_H-M "P B C M"
_symmetry_group_IT_number 57
_symmetry_cell_setting 'orthorhombic'
loop_
_space_group_symop_operation_xyz
x,y,z
-x,-y,1/2+z
x,1/2-y,-z
-x,1/2+y,1/2-z
-x,-y,-z
x,y,1/2-z
-x,1/2+y,z
x,1/2-y,1/2+z
loop_
_atom_site_type_symbol
_atom_site_label
_atom_site_fract_x
_atom_site_fract_y
_atom_site_fract_z
Si Si1 0.606339 0.436607 0.427628
Si Si2 0.598586 0.926853 0.073239
Si Si3 0.882760 0.614723 0.081802
Si Si4 0.903008 0.005137 0.076000
Si Si5 0.292537 0.184822 0.078087
Si Si6 0.790701 0.116658 0.927058
Si Si7 0.939411 0.310411 0.578547
O O1 0.611107 0.448123 0.250000
O O2 0.506167 0.414371 0.461346
O O3 0.620401 0.503397 0.510086
O O4 0.686676 0.389052 0.466162
O O5 0.609724 0.926416 0.250000
O O6 0.658762 0.874108 0.997734
O O7 0.870870 0.587787 0.250000
O O8 0.813552 0.672045 0.069281
O O9 0.985017 0.635879 0.067548
O O10 0.861351 0.563682 0.956660
O O11 0.909793 0.019261 0.250000
O O12 0.841082 0.055458 0.993615
O O13 0.000000 0.000000 0.000000
O O14 0.317295 0.187022 0.250000
O O15 0.316562 0.250000 0.000000
O O16 0.799523 0.117785 0.750000
O O17 0.847983 0.172920 0.997191
O O18 0.980753 0.250000 0.500000
O O19 0.922169 0.298572 0.750000
#
# Coordination Sequence:
#
# PCOD9440564 Si02
#       7
#     8   8   8   8   8   8   8
#     4   9  20  38  61  88 118 150 186 234 292 346
#     4  10  20  37  61  89 118 149 188 235 289 348
#     4  10  22  39  58  82 115 152 191 236 286 341
#     4  12  23  35  55  84 117 152 190 234 285 336
#     4  11  23  39  59  85 118 156 196 240 290 345
#     4  11  22  38  59  84 115 150 189 235 284 336
#     4  11  23  39  58  79 109 149 193 235 279 334
#
# _framework density 19.753086
#
# number of rings (size 3 to 8) (size 9 to 14) (size 15 to 20)
#    0.000    1.429    1.429    4.286    0.000    6.857 
#    0.000    0.714    0.000    0.000    0.000    0.000 
#    0.000    0.000    0.000    0.000    0.000    0.000 
#
# Total GULP energy -312633.950421 kJ/mol
# GULP energy per Si atom -5582.749115 kJ/mol
# Density = 1.970813 g / cm^3
# Si number density = 19.753086 Si / 1000 Ang^3
#
#
#
# Elastic Constant Matrix: (Units=GPa)
#
#
# Indices 1 2 3 4 5 6 
#
# 1 83.9152 19.0241 44.0655 0.0000 0.0000 0.0000
# 2 19.0241 53.1605 40.2860 0.0000 0.0000 0.0000
# 3 44.0655 40.2860 62.2147 0.0000 0.0000 0.0000
# 4 0.0000 0.0000 0.0000 31.8114 0.0000 0.0000
# 5 0.0000 0.0000 0.0000 0.0000 21.9652 0.0000
# 6 0.0000 0.0000 0.0000 0.0000 0.0000 20.3978
#
#
#
# Elastic Compliance Matrix: (Units=1/GPa)
#
#
# Indices 1 2 3 4 5 6 
#
# 1 0.020258 0.007115 -0.018956 0.000000 0.000000 0.000000
# 2 0.007115 0.039435 -0.030575 0.000000 0.000000 0.000000
# 3 -0.018956 -0.030575 0.049298 0.000000 0.000000 0.000000
# 4 0.000000 0.000000 0.000000 0.031435 0.000000 0.000000
# 5 0.000000 0.000000 0.000000 0.000000 0.045527 0.000000
# 6 0.000000 0.000000 0.000000 0.000000 0.000000 0.049025
#
#
# Mechanical properties :
#
#
# Convention : Reuss Voigt Hill
#
# Bulk Modulus (GPa) = 41.39121 45.11572 43.25347
# Shear Modulus (GPa) = 15.25036 21.22919 18.23978
#
# Velocity S-wave (km/s) = 2.78159 3.28186 3.04203
# Velocity P-wave (km/s) = 5.59608 6.10330 5.85518
#
# Compressibility (1/GPa) = 0.02415972
#
# Stress axis : x y z
#
# Youngs Moduli (GPa) = 49.36409 25.35816 20.28494
#
# Poissons Ratio (x) = -0.18044 0.38451
# Poissons Ratio (y) = -0.35125 0.62022
# Poissons Ratio (z) = 0.93573 0.77533
#
# Static dielectric constant tensor:
#      x y z
#    x 1.701390 0.000000 0.000000 
#    y 0.000000 1.777670 0.000000 
#    z 0.000000 0.000000 1.658820 
# 
# From -- ./inp_files/5256.got.cif
#   From: 2010.05.17/outbox.ucp.g08.bks.cvg/sg57_3_cif.got.tgz:5256.got - 2010.06.11 16:39:23.
