data_PCOD9440629
_publ_section_title
;
Structure prediction by ZEFSAII (Michael W. Deem and Ramdas Pophale) SiO2 
 PCOD9440629
Probable space group: P B C M
;
_chemical_formula_sum "Si O2"
_cell_formula_units_Z 40
_cell_length_a 27.000000
_cell_length_b 9.000000
_cell_length_c 9.000000
_cell_angle_alpha 90.000000
_cell_angle_beta 90.000000
_cell_angle_gamma 90.000000
_cell_volume 2187.000000
_symmetry_space_group_name_H-M "P B C M"
_symmetry_group_IT_number 57
_symmetry_cell_setting 'orthorhombic'
loop_
_space_group_symop_operation_xyz
x,y,z
-x,-y,1/2+z
x,1/2-y,-z
-x,1/2+y,1/2-z
-x,-y,-z
x,y,1/2-z
-x,1/2+y,z
x,1/2-y,1/2+z
loop_
_atom_site_type_symbol
_atom_site_label
_atom_site_fract_x
_atom_site_fract_y
_atom_site_fract_z
Si Si1 0.454217 0.912043 0.571240
Si Si2 0.853379 0.084748 0.070860
Si Si3 0.256374 0.587252 0.071655
Si Si4 0.046687 0.915664 0.430232
Si Si5 0.353734 0.089704 0.928280
O O1 0.453362 0.750000 0.500000
O O2 0.459666 0.904818 0.750000
O O3 0.500000 0.000000 0.500000
O O4 0.402258 0.992942 0.536650
O O5 0.860880 0.092229 0.250000
O O6 0.798475 0.020818 0.040683
O O7 0.850508 0.250000 0.000000
O O8 0.901363 0.015989 0.990823
O O9 0.259235 0.604758 0.250000
O O10 0.302836 0.489212 0.022009
O O11 0.259878 0.750000 0.000000
O O12 0.044951 0.750000 0.500000
O O13 0.045678 0.912468 0.250000
O O14 0.000000 0.000000 0.500000
O O15 0.351526 0.104324 0.750000
O O16 0.358498 0.250000 0.000000
#
# Coordination Sequence:
#
# PCOD9440629 Si02
#       5
#     8   8   8   8   8
#     4  11  23  39  60  85 114 146 185 228 274 324
#     4   9  16  29  50  75 103 135 172 217 265 317
#     4   9  18  33  54  79 105 134 174 220 266 316
#     4  11  21  35  54  78 107 140 179 222 269 322
#     4  10  22  38  55  79 110 145 181 221 267 319
#
# _framework density 18.289895000000001
#
# number of rings (size 3 to 8) (size 9 to 14) (size 15 to 20)
#    0.000    2.000    0.000    5.400    0.000    4.800 
#    0.000    1.000    0.000    2.400    0.000    0.000 
#    0.000    0.000    0.000    0.000    0.000    0.000 
#
# Total GULP energy -223145.951802 kJ/mol
# GULP energy per Si atom -5578.648795 kJ/mol
# Density = 1.824827 g / cm^3
# Si number density = 18.289895 Si / 1000 Ang^3
#
#
#
# Elastic Constant Matrix: (Units=GPa)
#
#
# Indices 1 2 3 4 5 6 
#
# 1 215.8869 86.9044 77.7122 0.0000 0.0000 0.0000
# 2 86.9044 99.8023 41.7642 0.0000 0.0000 0.0000
# 3 77.7122 41.7642 98.3168 0.0000 0.0000 0.0000
# 4 0.0000 0.0000 0.0000 29.0812 0.0000 0.0000
# 5 0.0000 0.0000 0.0000 0.0000 32.7777 0.0000
# 6 0.0000 0.0000 0.0000 0.0000 0.0000 34.5074
#
#
#
# Elastic Compliance Matrix: (Units=1/GPa)
#
#
# Indices 1 2 3 4 5 6 
#
# 1 0.008399 -0.005516 -0.004295 0.000000 0.000000 0.000000
# 2 -0.005516 0.015808 -0.002356 0.000000 0.000000 0.000000
# 3 -0.004295 -0.002356 0.014567 0.000000 0.000000 0.000000
# 4 0.000000 0.000000 0.000000 0.034387 0.000000 0.000000
# 5 0.000000 0.000000 0.000000 0.000000 0.030509 0.000000
# 6 0.000000 0.000000 0.000000 0.000000 0.000000 0.028979
#
#
# Mechanical properties :
#
#
# Convention : Reuss Voigt Hill
#
# Bulk Modulus (GPa) = 69.24877 91.86309 80.55593
# Shear Modulus (GPa) = 30.90323 33.11492 32.00908
#
# Velocity S-wave (km/s) = 4.11498 4.25968 4.18795
# Velocity P-wave (km/s) = 7.77955 8.63298 8.21735
#
# Compressibility (1/GPa) = 0.01444069
#
# Stress axis : x y z
#
# Youngs Moduli (GPa) = 119.06753 63.25750 68.64813
#
# Poissons Ratio (x) = 0.34891 0.29487
# Poissons Ratio (y) = 0.65674 0.16170
# Poissons Ratio (z) = 0.51145 0.14901
#
# Static dielectric constant tensor:
#      x y z
#    x 1.683000 0.000000 0.000000 
#    y 0.000000 1.616580 0.000000 
#    z 0.000000 0.000000 1.611150 
# 
# From -- ./inp_files/8924.got.cif
#   From: 2010.05.17/outbox.ucp.g08.bks.cvg/sg57_5_cif.got.tgz:8924.got - 2010.06.11 16:39:23.
