data_PCOD9440707
_publ_section_title
;
Structure prediction by ZEFSAII (Michael W. Deem and Ramdas Pophale) SiO2 
 PCOD9440707
Probable space group: P N N M
;
_chemical_formula_sum "Si O2"
_cell_formula_units_Z 58
_cell_length_a 12.828070
_cell_length_b 25.233875
_cell_length_c 9.741903
_cell_angle_alpha 90.000000
_cell_angle_beta 90.000000
_cell_angle_gamma 90.000000
_cell_volume 3153.472656
_symmetry_space_group_name_H-M "P N N M"
_symmetry_group_IT_number 58
_symmetry_cell_setting 'orthorhombic'
loop_
_space_group_symop_operation_xyz
x,y,z
-x,-y,z
1/2+x,1/2-y,1/2-z
1/2-x,1/2+y,1/2-z
-x,-y,-z
x,y,-z
1/2-x,1/2+y,1/2+z
1/2+x,1/2-y,1/2+z
loop_
_atom_site_type_symbol
_atom_site_label
_atom_site_fract_x
_atom_site_fract_y
_atom_site_fract_z
Si Si1 0.552040 0.836654 0.656696
Si Si2 0.584618 0.381868 0.334221
Si Si3 0.000000 0.500000 0.500000
Si Si4 0.188745 0.322864 0.161822
Si Si5 0.572191 0.957144 0.274534
Si Si6 0.149669 0.890398 0.836053
Si Si7 0.739950 0.798207 0.162250
Si Si8 0.206884 0.012135 0.163413
O O1 0.563327 0.817386 0.500000
O O2 0.432615 0.827884 0.699394
O O3 0.573247 0.899479 0.662519
O O4 0.635393 0.809049 0.754228
O O5 0.580440 0.378749 0.500000
O O6 0.466121 0.373895 0.287579
O O7 0.669008 0.338464 0.288954
O O8 0.627193 0.440708 0.303003
O O9 0.979822 0.456081 0.377461
O O10 0.261600 0.360096 0.253069
O O11 0.223453 0.262042 0.177800
O O12 0.198169 0.337005 0.000000
O O13 0.500000 0.000000 0.349529
O O14 0.687989 0.979064 0.248635
O O15 0.161663 0.953709 0.817117
O O16 0.159372 0.880247 0.000000
O O17 0.723110 0.808702 0.000000
O O18 0.235187 0.016612 0.000000
#
# Coordination Sequence:
#
# PCOD9440707 Si02
#       8
#     8   8   2   8   8   8   8   8
#     4  11  24  40  61  87 122 155 194 245 301 354
#     4   9  18  33  58  88 116 148 192 247 294 339
#     4   8  20  28  54  88 118 152 198 252 276 328
#     4  10  24  43  59  84 119 158 190 240 302 351
#     4  10  18  31  54  84 120 157 192 238 287 340
#     4  10  21  35  61  92 116 151 197 243 290 348
#     4  10  22  40  65  84 110 154 201 240 292 352
#     4  10  16  30  54  88 120 147 189 243 291 338
#
# _framework density 18.392422
#
# number of rings (size 3 to 8) (size 9 to 14) (size 15 to 20)
#    0.414    1.655    2.069    1.241    2.897    3.034 
#    0.000    1.379    0.000    0.828    0.000    0.000 
#    0.000    0.000    0.000    0.000    0.000    0.000 
#
# Total GULP energy -322987.520214 kJ/mol
# GULP energy per Si atom -5568.750349 kJ/mol
# Density = 1.835056 g / cm^3
# Si number density = 18.392422 Si / 1000 Ang^3
#
#
#
# Elastic Constant Matrix: (Units=GPa)
#
#
# Indices 1 2 3 4 5 6 
#
# 1 140.7807 26.8060 42.5658 0.0000 0.0000 0.0000
# 2 26.8060 42.6864 20.8240 0.0000 0.0000 0.0000
# 3 42.5658 20.8240 46.4528 0.0000 0.0000 0.0000
# 4 0.0000 0.0000 0.0000 18.4214 0.0000 0.0000
# 5 0.0000 0.0000 0.0000 0.0000 20.4371 0.0000
# 6 0.0000 0.0000 0.0000 0.0000 0.0000 -38.1666
#
#
#
# Elastic Compliance Matrix: (Units=1/GPa)
#
#
# Indices 1 2 3 4 5 6 
#
# 1 0.010001 -0.002316 -0.008126 0.000000 0.000000 0.000000
# 2 -0.002316 0.030520 -0.011559 0.000000 0.000000 0.000000
# 3 -0.008126 -0.011559 0.034155 0.000000 0.000000 0.000000
# 4 0.000000 0.000000 0.000000 0.054285 0.000000 0.000000
# 5 0.000000 0.000000 0.000000 0.000000 0.048931 0.000000
# 6 0.000000 0.000000 0.000000 0.000000 0.000000 -0.026201
#
#
# Mechanical properties :
#
#
# Convention : Reuss Voigt Hill
#
# Bulk Modulus (GPa) = 32.60142 45.59017 39.09580
# Shear Modulus (GPa) = 24.28147 9.45332 16.86740
#
# Velocity S-wave (km/s) = 3.63738 2.26957 3.03162
# Velocity P-wave (km/s) = 5.95018 5.63109 5.79284
#
# Compressibility (1/GPa) = 0.03067351
#
# Stress axis : x y z
#
# Youngs Moduli (GPa) = 99.98752 32.76511 29.27830
#
# Poissons Ratio (x) = 0.07590 0.23791
# Poissons Ratio (y) = 0.23161 0.33843
# Poissons Ratio (z) = 0.81250 0.37874
#
# Static dielectric constant tensor:
#      x y z
#    x 1.646620 0.000000 0.000000 
#    y 0.000000 1.668140 0.000000 
#    z 0.000000 0.000000 1.628450 
# 
# From -- ./inp_files/4458.got.cif
#   From: 2010.05.17/outbox.cif.g08.bks.cpg/sg58_3_cif.got.tgz:4458.got - 2010.06.03 14:20:14.
