data_PCOD9440952
_publ_section_title
;
Structure prediction by ZEFSAII (Michael W. Deem and Ramdas Pophale) SiO2 
 PCOD9440952
Probable space group: P N N M
;
_chemical_formula_sum "Si O2"
_cell_formula_units_Z 64
_cell_length_a 16.146141
_cell_length_b 18.356626
_cell_length_c 8.860946
_cell_angle_alpha 90.000000
_cell_angle_beta 90.000000
_cell_angle_gamma 90.000000
_cell_volume 2626.284015
_symmetry_space_group_name_H-M "P N N M"
_symmetry_group_IT_number 58
_symmetry_cell_setting 'orthorhombic'
loop_
_space_group_symop_operation_xyz
x,y,z
-x,-y,z
1/2+x,1/2-y,1/2-z
1/2-x,1/2+y,1/2-z
-x,-y,-z
x,y,-z
1/2-x,1/2+y,1/2+z
1/2+x,1/2-y,1/2+z
loop_
_atom_site_type_symbol
_atom_site_label
_atom_site_fract_x
_atom_site_fract_y
_atom_site_fract_z
Si Si1 0.399572 0.906221 0.171262
Si Si2 0.937517 0.423275 0.171302
Si Si3 0.277311 0.720531 0.330851
Si Si4 0.788942 0.136763 0.177915
Si Si5 0.437433 0.646161 0.181863
Si Si6 0.124924 0.995067 0.323533
Si Si7 0.721573 0.940246 0.167607
Si Si8 0.474476 0.216966 0.826796
O O1 0.465570 0.935794 0.293003
O O2 0.302183 0.901344 0.201947
O O3 0.434556 0.822151 0.165155
O O4 0.416496 0.932256 0.000000
O O5 0.871721 0.458235 0.286389
O O6 0.931357 0.336178 0.208074
O O7 0.915482 0.437570 0.000000
O O8 0.300750 0.745134 0.500000
O O9 0.225299 0.785093 0.255225
O O10 0.358413 0.688359 0.248786
O O11 0.225569 0.646482 0.341724
O O12 0.858145 0.081669 0.242388
O O13 0.800232 0.146224 0.000000
O O14 0.436186 0.560972 0.230009
O O15 0.513414 0.699706 0.219009
O O16 0.431275 0.644967 0.000000
O O17 0.109324 0.981564 0.500000
O O18 0.213584 0.034445 0.292913
O O19 0.745126 0.968036 0.000000
O O20 0.441846 0.212749 0.000000
#
# Coordination Sequence:
#
# PCOD9440952 Si02
#       8
#     8   8   8   8   8   8   8   8
#     4   8  16  29  46  65  89 122 155 190 228 275
#     4  10  18  28  46  72  96 120 155 201 240 274
#     4  10  19  29  48  72  93 120 158 201 237 276
#     4  11  20  33  50  70  98 132 164 193 236 289
#     4   9  16  30  49  70  95 125 157 192 241 289
#     4  10  21  33  48  71 101 130 160 200 238 280
#     4  10  20  35  50  68  97 131 161 193 239 290
#     4   8  14  27  46  67  90 119 152 189 230 276
#
# _framework density 24.369032000000001
#
# number of rings (size 3 to 8) (size 9 to 14) (size 15 to 20)
#    0.750    1.750    1.250    2.250    0.000    4.500 
#    0.000    0.625    0.000    3.750    0.000    0.875 
#    0.000    7.000    0.000    0.000    0.000    0.000 
#
# Total GULP energy -357033.968080 kJ/mol
# GULP energy per Si atom -5578.655751 kJ/mol
# Density = 2.431357 g / cm^3
# Si number density = 24.369032 Si / 1000 Ang^3
#
#
#
# Elastic Constant Matrix: (Units=GPa)
#
#
# Indices 1 2 3 4 5 6 
#
# 1 25.4649 -0.1604 -2.5302 0.0000 0.0000 0.0000
# 2 -0.1604 117.9211 26.1657 0.0000 0.0000 0.0000
# 3 -2.5302 26.1657 59.4633 0.0000 0.0000 0.0000
# 4 0.0000 0.0000 0.0000 21.0290 0.0000 0.0000
# 5 0.0000 0.0000 0.0000 0.0000 8.3710 0.0000
# 6 0.0000 0.0000 0.0000 0.0000 0.0000 45.5016
#
#
#
# Elastic Compliance Matrix: (Units=1/GPa)
#
#
# Indices 1 2 3 4 5 6 
#
# 1 0.039450 -0.000353 0.001834 0.000000 0.000000 0.000000
# 2 -0.000353 0.009401 -0.004152 0.000000 0.000000 0.000000
# 3 0.001834 -0.004152 0.018722 0.000000 0.000000 0.000000
# 4 0.000000 0.000000 0.000000 0.047553 0.000000 0.000000
# 5 0.000000 0.000000 0.000000 0.000000 0.119461 0.000000
# 6 0.000000 0.000000 0.000000 0.000000 0.000000 0.021977
#
#
# Mechanical properties :
#
#
# Convention : Reuss Voigt Hill
#
# Bulk Modulus (GPa) = 16.06923 27.75551 21.91237
# Shear Modulus (GPa) = 17.68974 26.93859 22.31416
#
# Velocity S-wave (km/s) = 2.69720 3.32843 3.02930
# Velocity P-wave (km/s) = 4.03835 5.11719 4.60944
#
# Compressibility (1/GPa) = 0.06223074
#
# Stress axis : x y z
#
# Youngs Moduli (GPa) = 25.34872 106.37153 53.41296
#
# Poissons Ratio (x) = 0.03758 -0.09796
# Poissons Ratio (y) = 0.00896 0.22176
# Poissons Ratio (z) = -0.04649 0.44163
#
# Static dielectric constant tensor:
#      x y z
#    x 1.966870 0.000000 0.000000 
#    y 0.000000 2.123590 0.000000 
#    z 0.000000 0.000000 1.839000 
# 
# From -- ./inp_files/9291.got.cif
#   From: 2010.05.17/outbox.cif.g08.bks.cpg/sg58_5_cif.got.tgz:9291.got - 2010.06.03 14:20:14.
