data_PCOD9440844
_publ_section_title
;
Structure prediction by ZEFSAII (Michael W. Deem and Ramdas Pophale) SiO2 
 PCOD9440844
Probable space group: P N N M
;
_chemical_formula_sum "Si O2"
_cell_formula_units_Z 58
_cell_length_a 12.969670
_cell_length_b 23.156750
_cell_length_c 7.541570
_cell_angle_alpha 90.000000
_cell_angle_beta 90.000000
_cell_angle_gamma 90.000000
_cell_volume 2265.000486
_symmetry_space_group_name_H-M "P N N M"
_symmetry_group_IT_number 58
_symmetry_cell_setting 'orthorhombic'
loop_
_space_group_symop_operation_xyz
x,y,z
-x,-y,z
1/2+x,1/2-y,1/2-z
1/2-x,1/2+y,1/2-z
-x,-y,-z
x,y,-z
1/2-x,1/2+y,1/2+z
1/2+x,1/2-y,1/2+z
loop_
_atom_site_type_symbol
_atom_site_label
_atom_site_fract_x
_atom_site_fract_y
_atom_site_fract_z
Si Si1 0.000000 0.000000 0.000000
Si Si2 0.928233 0.327651 0.782434
Si Si3 0.729885 0.988692 0.287058
Si Si4 0.568180 0.072470 0.701883
Si Si5 0.250457 0.843676 0.204191
Si Si6 0.210404 0.136408 0.713128
Si Si7 0.418948 0.422515 0.203303
Si Si8 0.394741 0.744121 0.290757
O O1 0.003068 0.948623 0.155497
O O2 0.810860 0.327846 0.726141
O O3 0.978323 0.388333 0.719887
O O4 0.002118 0.275856 0.723917
O O5 0.929070 0.328118 0.000000
O O6 0.715832 0.984018 0.500000
O O7 0.768737 0.927688 0.217768
O O8 0.622317 0.015796 0.218522
O O9 0.821227 0.034432 0.260772
O O10 0.537289 0.059921 0.500000
O O11 0.663719 0.117994 0.696493
O O12 0.136722 0.860358 0.271234
O O13 0.296923 0.779572 0.213932
O O14 0.252399 0.861884 0.000000
O O15 0.210496 0.132163 0.500000
O O16 0.113704 0.176121 0.757928
O O17 0.454565 0.428329 0.000000
O O18 0.390974 0.753184 0.500000
#
# Coordination Sequence:
#
# PCOD9440844 Si02
#       8
#     2   8   8   8   8   8   8   8
#     4  12  22  36  56  90 112 162 202 232 312 360
#     4   8  16  31  54  79 108 139 191 243 289 353
#     4   8  16  31  54  80 113 150 187 227 297 362
#     4   8  14  28  50  79 110 145 172 221 281 343
#     4  10  17  31  55  82 102 139 195 238 285 345
#     4  10  19  34  55  82 111 151 195 244 299 364
#     4  10  20  37  57  84 120 154 195 251 298 363
#     4  10  20  36  54  77 107 151 191 243 307 348
#
# _framework density 25.607060000000001
#
# number of rings (size 3 to 8) (size 9 to 14) (size 15 to 20)
#    0.000    2.759    0.690    3.517    0.000    0.552 
#    1.241    7.586    3.034    1.655    0.000    8.690 
#    0.000    0.000    0.000    0.000    0.000    0.000 
#
# Total GULP energy -323456.729396 kJ/mol
# GULP energy per Si atom -5576.840162 kJ/mol
# Density = 2.554878 g / cm^3
# Si number density = 25.607060 Si / 1000 Ang^3
#
#
#
# Elastic Constant Matrix: (Units=GPa)
#
#
# Indices 1 2 3 4 5 6 
#
# 1 72.2982 9.8943 -1.6924 0.0000 0.0000 0.0000
# 2 9.8943 99.1749 -10.1932 0.0000 0.0000 0.0000
# 3 -1.6924 -10.1932 100.1235 0.0000 0.0000 0.0000
# 4 0.0000 0.0000 0.0000 30.0806 0.0000 0.0000
# 5 0.0000 0.0000 0.0000 0.0000 -61.4912 0.0000
# 6 0.0000 0.0000 0.0000 0.0000 0.0000 31.6655
#
#
#
# Elastic Compliance Matrix: (Units=1/GPa)
#
#
# Indices 1 2 3 4 5 6 
#
# 1 0.014024 -0.001389 0.000096 0.000000 0.000000 0.000000
# 2 -0.001389 0.010327 0.001028 0.000000 0.000000 0.000000
# 3 0.000096 0.001028 0.010094 0.000000 0.000000 0.000000
# 4 0.000000 0.000000 0.000000 0.033244 0.000000 0.000000
# 5 0.000000 0.000000 0.000000 0.000000 -0.016262 0.000000
# 6 0.000000 0.000000 0.000000 0.000000 0.000000 0.031580
#
#
# Mechanical properties :
#
#
# Convention : Reuss Voigt Hill
#
# Bulk Modulus (GPa) = 29.48649 29.73487 29.61068
# Shear Modulus (GPa) = 52.71864 18.29018 35.50441
#
# Velocity S-wave (km/s) = 4.54227 2.67547 3.72762
# Velocity P-wave (km/s) = 6.24897 4.60232 5.48776
#
# Compressibility (1/GPa) = 0.03391384
#
# Stress axis : x y z
#
# Youngs Moduli (GPa) = 71.30647 96.82928 99.06948
#
# Poissons Ratio (x) = 0.13452 -0.00947
# Poissons Ratio (y) = 0.09907 -0.10184
# Poissons Ratio (z) = -0.00682 -0.09953
#
# Static dielectric constant tensor:
#      x y z
#    x 2.100360 0.000000 0.000000 
#    y 0.000000 2.067560 0.000000 
#    z 0.000000 0.000000 2.021270 
# 
# From -- ./inp_files/6687.got.cif
#   From: 2010.05.17/outbox.cif.g08.bks.cpg/sg58_4_cif.got.tgz:6687.got - 2010.06.03 14:20:14.
