data_PCOD9440178
_publ_section_title
;
Structure prediction by ZEFSAII (Michael W. Deem and Ramdas Pophale) SiO2 
 PCOD9440178
Probable space group: P B C M
;
_chemical_formula_sum "Si O2"
_cell_formula_units_Z 40
_cell_length_a 12.455975
_cell_length_b 18.082459
_cell_length_c 8.673940
_cell_angle_alpha 90.000000
_cell_angle_beta 90.000000
_cell_angle_gamma 90.000000
_cell_volume 1953.671903
_symmetry_space_group_name_H-M "P B C M"
_symmetry_group_IT_number 57
_symmetry_cell_setting 'orthorhombic'
loop_
_space_group_symop_operation_xyz
x,y,z
-x,-y,1/2+z
x,1/2-y,-z
-x,1/2+y,1/2-z
-x,-y,-z
x,y,1/2-z
-x,1/2+y,z
x,1/2-y,1/2+z
loop_
_atom_site_type_symbol
_atom_site_label
_atom_site_fract_x
_atom_site_fract_y
_atom_site_fract_z
Si Si1 0.043238 0.922171 0.933643
Si Si2 0.720176 0.405266 0.432699
Si Si3 0.651990 0.560653 0.931558
Si Si4 0.522036 0.329313 0.566757
Si Si5 0.853089 0.670873 0.931652
O O1 0.053134 0.928367 0.750000
O O2 0.158537 0.904235 0.005963
O O3 0.956391 0.860859 0.980719
O O4 0.000000 0.000000 0.000000
O O5 0.717310 0.394072 0.250000
O O6 0.672886 0.485756 0.476248
O O7 0.643557 0.346552 0.516026
O O8 0.638078 0.543585 0.750000
O O9 0.756378 0.612709 0.949050
O O10 0.551897 0.606894 0.994096
O O11 0.488464 0.250000 0.500000
O O12 0.511589 0.329691 0.750000
O O13 0.876634 0.677476 0.750000
O O14 0.821863 0.750000 0.000000
#
# Coordination Sequence:
#
# PCOD9440178 Si02
#       5
#     8   8   8   8   8
#     4  12  24  42  67  96 131 171 218 268 324 386
#     4  12  25  43  69  98 131 172 221 270 328 390
#     4  11  23  42  68  98 133 172 220 270 326 389
#     4  12  26  45  67  95 133 173 220 272 331 392
#     4  11  24  41  65  97 134 173 219 270 327 388
#
# _framework density 20.474267999999999
#
# number of rings (size 3 to 8) (size 9 to 14) (size 15 to 20)
#    0.000    0.400    2.000    7.800    0.000    4.800 
#    0.000    4.000    0.000    0.000    0.000    0.000 
#    0.000    0.000    0.000    0.000    0.000    0.000 
#
# Total GULP energy -224123.707313 kJ/mol
# GULP energy per Si atom -5603.092683 kJ/mol
# Density = 2.042767 g / cm^3
# Si number density = 20.474268 Si / 1000 Ang^3
#
#
#
# Elastic Constant Matrix: (Units=GPa)
#
#
# Indices 1 2 3 4 5 6 
#
# 1 91.1959 -15.9675 14.6583 0.0000 0.0000 0.0000
# 2 -15.9675 39.0745 -0.1902 0.0000 0.0000 0.0000
# 3 14.6583 -0.1902 87.8748 0.0000 0.0000 0.0000
# 4 0.0000 0.0000 0.0000 37.9755 0.0000 0.0000
# 5 0.0000 0.0000 0.0000 0.0000 35.7005 0.0000
# 6 0.0000 0.0000 0.0000 0.0000 0.0000 77.7067
#
#
#
# Elastic Compliance Matrix: (Units=1/GPa)
#
#
# Indices 1 2 3 4 5 6 
#
# 1 0.012158 0.004958 -0.002017 0.000000 0.000000 0.000000
# 2 0.004958 0.027615 -0.000767 0.000000 0.000000 0.000000
# 3 -0.002017 -0.000767 0.011715 0.000000 0.000000 0.000000
# 4 0.000000 0.000000 0.000000 0.026333 0.000000 0.000000
# 5 0.000000 0.000000 0.000000 0.000000 0.028011 0.000000
# 6 0.000000 0.000000 0.000000 0.000000 0.000000 0.012869
#
#
# Mechanical properties :
#
#
# Convention : Reuss Voigt Hill
#
# Bulk Modulus (GPa) = 17.91004 23.90516 20.90760
# Shear Modulus (GPa) = 37.60426 44.91950 41.26188
#
# Velocity S-wave (km/s) = 4.29028 4.68904 4.49408
# Velocity P-wave (km/s) = 5.77135 6.40447 6.09614
#
# Compressibility (1/GPa) = 0.05583459
#
# Stress axis : x y z
#
# Youngs Moduli (GPa) = 82.25158 36.21271 85.36302
#
# Poissons Ratio (x) = -0.17956 0.17220
# Poissons Ratio (y) = -0.40784 0.06550
# Poissons Ratio (z) = 0.16593 0.02779
#
# Static dielectric constant tensor:
#      x y z
#    x 1.724020 0.000000 0.000000 
#    y 0.000000 1.714950 0.000000 
#    z 0.000000 0.000000 1.676940 
# 
# From -- ./inp_files/2656.got.cif
#   From: 2010.05.17/outbox.cif.g08.bks.cpg/sg57_2_cif.got.tgz:2656.got - 2010.06.03 13:58:18.
