data_PCOD9440158
_publ_section_title
;
Structure prediction by ZEFSAII (Michael W. Deem and Ramdas Pophale) SiO2 
 PCOD9440158
Probable space group: P B C M
;
_chemical_formula_sum "Si O2"
_cell_formula_units_Z 40
_cell_length_a 9.254470
_cell_length_b 8.691491
_cell_length_c 24.375822
_cell_angle_alpha 90.000000
_cell_angle_beta 90.000000
_cell_angle_gamma 90.000000
_cell_volume 1960.672721
_symmetry_space_group_name_H-M "P B C M"
_symmetry_group_IT_number 57
_symmetry_cell_setting 'orthorhombic'
loop_
_space_group_symop_operation_xyz
x,y,z
-x,-y,1/2+z
x,1/2-y,-z
-x,1/2+y,1/2-z
-x,-y,-z
x,y,1/2-z
-x,1/2+y,z
x,1/2-y,1/2+z
loop_
_atom_site_type_symbol
_atom_site_label
_atom_site_fract_x
_atom_site_fract_y
_atom_site_fract_z
Si Si1 0.656071 0.802935 0.907180
Si Si2 0.658985 0.438951 0.923396
Si Si3 0.879903 0.239399 0.864057
Si Si4 0.157513 0.412190 0.685900
Si Si5 0.850088 0.036808 0.971776
O O1 0.656477 0.621470 0.914975
O O2 0.500999 0.870692 0.923046
O O3 0.701946 0.848770 0.845581
O O4 0.775613 0.888600 0.944156
O O5 0.750571 0.358818 0.874850
O O6 0.738612 0.411342 0.981313
O O7 0.850067 0.096008 0.823941
O O8 0.888757 0.155135 0.923235
O O9 0.020214 0.330910 0.843670
O O10 0.155926 0.377016 0.750000
O O11 0.000000 0.000000 0.000000
#
# Coordination Sequence:
#
# PCOD9440158 Si02
#       5
#     8   8   8   8   8
#     4  11  24  42  64  94 131 171 223 268 322 396
#     4  12  24  42  63  93 133 173 211 267 328 392
#     4  11  24  40  64  95 126 163 215 261 317 392
#     4  11  23  44  68  94 126 167 216 276 330 380
#     4  11  23  40  64  96 133 172 210 260 321 388
#
# _framework density 20.401161999999999
#
# number of rings (size 3 to 8) (size 9 to 14) (size 15 to 20)
#    0.000    0.800    0.000    9.600    0.000    4.800 
#    0.000    6.000    0.000    0.000    0.000    0.000 
#    0.000    0.000    0.000    0.000    0.000    0.000 
#
# Total GULP energy -223833.621703 kJ/mol
# GULP energy per Si atom -5595.840543 kJ/mol
# Density = 2.035473 g / cm^3
# Si number density = 20.401162 Si / 1000 Ang^3
#
#
#
# Elastic Constant Matrix: (Units=GPa)
#
#
# Indices 1 2 3 4 5 6 
#
# 1 158.9921 67.3009 86.0597 0.0000 0.0000 0.0000
# 2 67.3009 168.2345 58.8990 0.0000 0.0000 0.0000
# 3 86.0597 58.8990 127.7684 0.0000 0.0000 0.0000
# 4 0.0000 0.0000 0.0000 16.9424 0.0000 0.0000
# 5 0.0000 0.0000 0.0000 0.0000 22.5412 0.0000
# 6 0.0000 0.0000 0.0000 0.0000 0.0000 31.7696
#
#
#
# Elastic Compliance Matrix: (Units=1/GPa)
#
#
# Indices 1 2 3 4 5 6 
#
# 1 0.010459 -0.002048 -0.006100 0.000000 0.000000 0.000000
# 2 -0.002048 0.007489 -0.002073 0.000000 0.000000 0.000000
# 3 -0.006100 -0.002073 0.012891 0.000000 0.000000 0.000000
# 4 0.000000 0.000000 0.000000 0.059024 0.000000 0.000000
# 5 0.000000 0.000000 0.000000 0.000000 0.044363 0.000000
# 6 0.000000 0.000000 0.000000 0.000000 0.000000 0.031477
#
#
# Mechanical properties :
#
#
# Convention : Reuss Voigt Hill
#
# Bulk Modulus (GPa) = 96.18827 97.72379 96.95603
# Shear Modulus (GPa) = 26.36987 30.43299 28.40143
#
# Velocity S-wave (km/s) = 3.59913 3.86648 3.73520
# Velocity P-wave (km/s) = 8.03259 8.24245 8.13819
#
# Compressibility (1/GPa) = 0.01039628
#
# Stress axis : x y z
#
# Youngs Moduli (GPa) = 95.61499 133.52709 77.57270
#
# Poissons Ratio (x) = 0.27348 0.47322
# Poissons Ratio (y) = 0.19583 0.16079
# Poissons Ratio (z) = 0.58328 0.27677
#
# Static dielectric constant tensor:
#      x y z
#    x 1.700170 0.000000 0.000000 
#    y 0.000000 1.752120 0.000000 
#    z 0.000000 0.000000 1.728850 
# 
# From -- ./inp_files/26523.got.cif
#   From: 2010.05.17/outbox.cif.g08.bks.cpg/sg57_14_cif.got.tgz:26523.got - 2010.06.03 13:58:18.
