data_PCOD9440411
_publ_section_title
;
Structure prediction by ZEFSAII (Michael W. Deem and Ramdas Pophale) SiO2 
 PCOD9440411
Probable space group: P B C M
;
_chemical_formula_sum "Si O2"
_cell_formula_units_Z 64
_cell_length_a 15.000000
_cell_length_b 24.000000
_cell_length_c 9.000000
_cell_angle_alpha 90.000000
_cell_angle_beta 90.000000
_cell_angle_gamma 90.000000
_cell_volume 3240.000000
_symmetry_space_group_name_H-M "P B C M"
_symmetry_group_IT_number 57
_symmetry_cell_setting 'orthorhombic'
loop_
_space_group_symop_operation_xyz
x,y,z
-x,-y,1/2+z
x,1/2-y,-z
-x,1/2+y,1/2-z
-x,-y,-z
x,y,1/2-z
-x,1/2+y,z
x,1/2-y,1/2+z
loop_
_atom_site_type_symbol
_atom_site_label
_atom_site_fract_x
_atom_site_fract_y
_atom_site_fract_z
Si Si1 0.854809 0.508255 0.571536
Si Si2 0.596235 0.128351 0.576237
Si Si3 0.256095 0.308100 0.926716
Si Si4 0.394556 0.111228 0.924747
Si Si5 0.646597 0.012859 0.426826
Si Si6 0.085138 0.889198 0.571623
Si Si7 0.248719 0.692181 0.074439
Si Si8 0.093022 0.367304 0.071554
O O1 0.865593 0.508822 0.750000
O O2 0.750820 0.497939 0.542366
O O3 0.906661 0.453389 0.517873
O O4 0.882441 0.569461 0.519976
O O5 0.618371 0.130792 0.750000
O O6 0.491193 0.138303 0.558909
O O7 0.615248 0.066388 0.515717
O O8 0.657493 0.171466 0.489397
O O9 0.252103 0.303333 0.750000
O O10 0.285139 0.250000 0.000000
O O11 0.323226 0.356672 0.977420
O O12 0.161027 0.325266 0.995122
O O13 0.366918 0.113569 0.750000
O O14 0.400545 0.045670 0.962821
O O15 0.636507 0.023709 0.250000
O O16 0.068531 0.888963 0.750000
O O17 0.177463 0.856921 0.546274
O O18 0.006850 0.858825 0.484441
O O19 0.254887 0.699994 0.250000
O O20 0.221187 0.750000 0.000000
O O21 0.100752 0.364052 0.250000
#
# Coordination Sequence:
#
# PCOD9440411 Si02
#       8
#     8   8   8   8   8   8   8   8
#     4   9  17  34  61  89 122 163 199 243 301 357
#     4  11  23  38  61  95 128 160 204 252 301 363
#     4  12  26  44  66  90 119 159 207 257 304 362
#     4  10  22  41  64  91 127 164 200 250 306 362
#     4  10  18  36  63  89 125 167 201 243 304 361
#     4  10  21  39  61  89 123 162 206 248 300 360
#     4  11  24  43  65  86 118 162 206 259 310 361
#     4  11  22  39  64  93 126 162 199 246 305 362
#
# _framework density 19.753086
#
# number of rings (size 3 to 8) (size 9 to 14) (size 15 to 20)
#    0.000    1.500    2.500    3.000    0.000    3.500 
#    0.000    1.875    0.000    0.000    0.000    0.000 
#    0.000    0.000    0.000    0.000    0.000    0.000 
#
# Total GULP energy -357624.403155 kJ/mol
# GULP energy per Si atom -5587.881299 kJ/mol
# Density = 1.970813 g / cm^3
# Si number density = 19.753086 Si / 1000 Ang^3
#
#
#
# Elastic Constant Matrix: (Units=GPa)
#
#
# Indices 1 2 3 4 5 6 
#
# 1 32.9052 -1.6286 21.6808 0.0000 0.0000 0.0000
# 2 -1.6286 49.0844 23.1159 0.0000 0.0000 0.0000
# 3 21.6808 23.1159 60.5441 0.0000 0.0000 0.0000
# 4 0.0000 0.0000 0.0000 34.0459 0.0000 0.0000
# 5 0.0000 0.0000 0.0000 0.0000 24.8393 0.0000
# 6 0.0000 0.0000 0.0000 0.0000 0.0000 8.4484
#
#
#
# Elastic Compliance Matrix: (Units=1/GPa)
#
#
# Indices 1 2 3 4 5 6 
#
# 1 0.044046 0.010838 -0.019911 0.000000 0.000000 0.000000
# 2 0.010838 0.027506 -0.014383 0.000000 0.000000 0.000000
# 3 -0.019911 -0.014383 0.029138 0.000000 0.000000 0.000000
# 4 0.000000 0.000000 0.000000 0.029372 0.000000 0.000000
# 5 0.000000 0.000000 0.000000 0.000000 0.040259 0.000000
# 6 0.000000 0.000000 0.000000 0.000000 0.000000 0.118366
#
#
# Mechanical properties :
#
#
# Convention : Reuss Voigt Hill
#
# Bulk Modulus (GPa) = 18.59458 25.42998 22.01228
# Shear Modulus (GPa) = 14.14327 20.09110 17.11718
#
# Velocity S-wave (km/s) = 2.67873 3.19268 2.94693
# Velocity P-wave (km/s) = 4.35906 5.14712 4.76939
#
# Compressibility (1/GPa) = 0.05377912
#
# Stress axis : x y z
#
# Youngs Moduli (GPa) = 22.70368 36.35526 34.31888
#
# Poissons Ratio (x) = -0.39403 0.68332
# Poissons Ratio (y) = -0.24607 0.49361
# Poissons Ratio (z) = 0.45205 0.52290
#
# Static dielectric constant tensor:
#      x y z
#    x 1.705980 0.000000 0.000000 
#    y 0.000000 1.695250 0.000000 
#    z 0.000000 0.000000 1.656730 
# 
# From -- ./inp_files/5634.got.cif
#   From: 2010.05.17/outbox.ucp.g08.bks.cvg/sg57_3_cif.got.tgz:5634.got - 2010.06.11 16:39:23.
