data_PCOD9440273
_publ_section_title
;
Structure prediction by ZEFSAII (Michael W. Deem and Ramdas Pophale) SiO2 
 PCOD9440273
Probable space group: P B C M
;
_chemical_formula_sum "Si O2"
_cell_formula_units_Z 60
_cell_length_a 9.531026
_cell_length_b 16.370461
_cell_length_c 19.061325
_cell_angle_alpha 90.000000
_cell_angle_beta 90.000000
_cell_angle_gamma 90.000000
_cell_volume 2974.086873
_symmetry_space_group_name_H-M "P B C M"
_symmetry_group_IT_number 57
_symmetry_cell_setting 'orthorhombic'
loop_
_space_group_symop_operation_xyz
x,y,z
-x,-y,1/2+z
x,1/2-y,-z
-x,1/2+y,1/2-z
-x,-y,-z
x,y,1/2-z
-x,1/2+y,z
x,1/2-y,1/2+z
loop_
_atom_site_type_symbol
_atom_site_label
_atom_site_fract_x
_atom_site_fract_y
_atom_site_fract_z
Si Si1 0.944969 0.155895 0.987768
Si Si2 0.064935 0.513668 0.750000
Si Si3 0.586489 0.935644 0.952719
Si Si4 0.866437 0.057591 0.375260
Si Si5 0.407680 0.646353 0.330487
Si Si6 0.514877 0.831017 0.331374
Si Si7 0.254553 0.933134 0.119626
Si Si8 0.755794 0.881555 0.074175
O O1 0.828369 0.119774 0.936491
O O2 0.093766 0.151525 0.948231
O O3 0.911583 0.250000 0.000000
O O4 0.942125 0.101778 0.058906
O O5 0.164565 0.556088 0.810970
O O6 0.967500 0.471825 0.687110
O O7 0.494717 0.898764 0.890840
O O8 0.716090 0.980299 0.915954
O O9 0.652672 0.873645 0.007789
O O10 0.500000 0.000000 0.000000
O O11 0.752365 0.121469 0.345316
O O12 0.785142 0.976210 0.403700
O O13 0.443823 0.621699 0.250000
O O14 0.445244 0.741723 0.337327
O O15 0.527040 0.851760 0.250000
O O16 0.407003 0.894491 0.365734
O O17 0.669334 0.837487 0.364601
#
# Coordination Sequence:
#
# PCOD9440273 Si02
#       8
#     8   4   8   8   8   8   8   8
#     4  12  27  46  70 104 144 186 232 297 360 422
#     4  12  26  40  74 104 134 182 240 294 334 418
#     4  12  23  41  69 102 131 178 236 295 338 413
#     4  12  23  48  73 101 137 189 239 287 355 418
#     4  11  25  44  68 101 141 186 230 290 355 426
#     4  11  26  44  67 102 146 185 231 284 358 422
#     4  12  23  45  70 104 135 186 235 289 351 416
#     4  12  25  44  69 100 139 180 236 293 347 415
#
# _framework density 20.174258999999999
#
# number of rings (size 3 to 8) (size 9 to 14) (size 15 to 20)
#    0.000    0.267    6.667    2.000    3.733    1.067 
#    0.000    0.000    0.000    0.000    0.000    0.000 
#    0.000    0.000    0.000    0.000    0.000    0.000 
#
# Total GULP energy -334347.250845 kJ/mol
# GULP energy per Si atom -5572.454181 kJ/mol
# Density = 2.012834 g / cm^3
# Si number density = 20.174259 Si / 1000 Ang^3
#
#
#
# Elastic Constant Matrix: (Units=GPa)
#
#
# Indices 1 2 3 4 5 6 
#
# 1 63.6367 8.1945 33.3128 0.0000 0.0000 0.0000
# 2 8.1945 32.4876 26.4225 0.0000 0.0000 0.0000
# 3 33.3128 26.4225 142.2687 0.0000 0.0000 0.0000
# 4 0.0000 0.0000 0.0000 29.7247 0.0000 0.0000
# 5 0.0000 0.0000 0.0000 0.0000 33.3961 0.0000
# 6 0.0000 0.0000 0.0000 0.0000 0.0000 18.5418
#
#
#
# Elastic Compliance Matrix: (Units=1/GPa)
#
#
# Indices 1 2 3 4 5 6 
#
# 1 0.017956 -0.001307 -0.003962 0.000000 0.000000 0.000000
# 2 -0.001307 0.036353 -0.006445 0.000000 0.000000 0.000000
# 3 -0.003962 -0.006445 0.009154 0.000000 0.000000 0.000000
# 4 0.000000 0.000000 0.000000 0.033642 0.000000 0.000000
# 5 0.000000 0.000000 0.000000 0.000000 0.029944 0.000000
# 6 0.000000 0.000000 0.000000 0.000000 0.000000 0.053932
#
#
# Mechanical properties :
#
#
# Convention : Reuss Voigt Hill
#
# Bulk Modulus (GPa) = 24.97860 41.58362 33.28111
# Shear Modulus (GPa) = 22.96164 27.69672 25.32918
#
# Velocity S-wave (km/s) = 3.37733 3.70925 3.54718
# Velocity P-wave (km/s) = 5.25517 6.24513 5.77142
#
# Compressibility (1/GPa) = 0.04003426
#
# Stress axis : x y z
#
# Youngs Moduli (GPa) = 55.69019 27.50815 109.24541
#
# Poissons Ratio (x) = 0.03596 0.43281
# Poissons Ratio (y) = 0.07279 0.70414
# Poissons Ratio (z) = 0.22064 0.17730
#
# Static dielectric constant tensor:
#      x y z
#    x 1.720950 0.000000 0.000000 
#    y 0.000000 1.745030 0.000000 
#    z 0.000000 0.000000 1.735980 
# 
# From -- ./inp_files/21254.got.cif
#   From: 2010.05.17/outbox.cif.g08.bks.cpg/sg57_11_cif.got.tgz:21254.got - 2010.06.03 13:58:18.
