data_PCOD9440905
_publ_section_title
;
Structure prediction by ZEFSAII (Michael W. Deem and Ramdas Pophale) SiO2 
 PCOD9440905
Probable space group: P N N M
;
_chemical_formula_sum "Si O2"
_cell_formula_units_Z 56
_cell_length_a 18.358925
_cell_length_b 22.825571
_cell_length_c 8.705291
_cell_angle_alpha 90.000000
_cell_angle_beta 90.000000
_cell_angle_gamma 90.000000
_cell_volume 3647.977840
_symmetry_space_group_name_H-M "P N N M"
_symmetry_group_IT_number 58
_symmetry_cell_setting 'orthorhombic'
loop_
_space_group_symop_operation_xyz
x,y,z
-x,-y,z
1/2+x,1/2-y,1/2-z
1/2-x,1/2+y,1/2-z
-x,-y,-z
x,y,-z
1/2-x,1/2+y,1/2+z
1/2+x,1/2-y,1/2+z
loop_
_atom_site_type_symbol
_atom_site_label
_atom_site_fract_x
_atom_site_fract_y
_atom_site_fract_z
Si Si1 0.720435 0.684661 0.817597
Si Si2 0.623847 0.155522 0.315143
Si Si3 0.124812 0.652637 0.682918
Si Si4 0.577802 0.721094 0.681647
Si Si5 0.733103 0.310220 0.183782
Si Si6 0.424461 0.719037 0.182502
Si Si7 0.504083 0.932193 0.685096
O O1 0.791034 0.646011 0.775276
O O2 0.643117 0.678552 0.734875
O O3 0.746679 0.749697 0.769090
O O4 0.709253 0.681858 0.000000
O O5 0.620868 0.165155 0.500000
O O6 0.595018 0.214712 0.235431
O O7 0.570216 0.102539 0.276896
O O8 0.130092 0.654864 0.500000
O O9 0.092947 0.715110 0.742235
O O10 0.205211 0.645972 0.756488
O O11 0.070210 0.602387 0.737364
O O12 0.580369 0.728901 0.500000
O O13 0.498329 0.700840 0.734366
O O14 0.647703 0.319478 0.216220
O O15 0.740886 0.302307 0.000000
O O16 0.436179 0.719104 0.000000
O O17 0.513410 0.929093 0.500000
O O18 0.500000 0.000000 0.729754
#
# Coordination Sequence:
#
# PCOD9440905 Si02
#       7
#     8   8   8   8   8   8   8
#     4   9  16  26  40  59  82 109 144 177 211 254
#     4   9  17  29  44  60  82 114 145 180 219 256
#     4  11  20  30  44  61  84 114 148 184 222 256
#     4  11  19  27  41  61  87 117 146 175 214 260
#     4   9  17  28  42  60  83 111 143 174 213 261
#     4  10  18  27  42  64  87 114 144 177 214 257
#     4  10  20  33  48  65  86 116 153 188 223 261
#
# _framework density 15.350970999999999
#
# number of rings (size 3 to 8) (size 9 to 14) (size 15 to 20)
#    0.000    2.143    1.429    5.571    0.000    2.571 
#    0.000    0.000    0.000    0.000    0.000    0.000 
#    0.000    1.143    0.000   13.143    0.000    3.714 
#
# Total GULP energy -312018.511031 kJ/mol
# GULP energy per Si atom -5571.759126 kJ/mol
# Density = 1.531603 g / cm^3
# Si number density = 15.350971 Si / 1000 Ang^3
#
#
#
# Elastic Constant Matrix: (Units=GPa)
#
#
# Indices 1 2 3 4 5 6 
#
# 1 154.9667 37.2416 43.7631 0.0000 0.0000 0.0000
# 2 37.2416 42.2306 16.4930 0.0000 0.0000 0.0000
# 3 43.7631 16.4930 53.0787 0.0000 0.0000 0.0000
# 4 0.0000 0.0000 0.0000 10.1385 0.0000 0.0000
# 5 0.0000 0.0000 0.0000 0.0000 26.7606 0.0000
# 6 0.0000 0.0000 0.0000 0.0000 0.0000 12.2609
#
#
#
# Elastic Compliance Matrix: (Units=1/GPa)
#
#
# Indices 1 2 3 4 5 6 
#
# 1 0.009632 -0.006137 -0.006035 0.000000 0.000000 0.000000
# 2 -0.006137 0.030861 -0.004529 0.000000 0.000000 0.000000
# 3 -0.006035 -0.004529 0.025223 0.000000 0.000000 0.000000
# 4 0.000000 0.000000 0.000000 0.098634 0.000000 0.000000
# 5 0.000000 0.000000 0.000000 0.000000 0.037368 0.000000
# 6 0.000000 0.000000 0.000000 0.000000 0.000000 0.081560
#
#
# Mechanical properties :
#
#
# Convention : Reuss Voigt Hill
#
# Bulk Modulus (GPa) = 30.94679 49.47459 40.21069
# Shear Modulus (GPa) = 15.26947 20.01722 17.64334
#
# Velocity S-wave (km/s) = 3.15729 3.61497 3.39386
# Velocity P-wave (km/s) = 5.78745 7.05145 6.45049
#
# Compressibility (1/GPa) = 0.03231353
#
# Stress axis : x y z
#
# Youngs Moduli (GPa) = 103.81926 32.40372 39.64680
#
# Poissons Ratio (x) = 0.19888 0.23925
# Poissons Ratio (y) = 0.63718 0.17956
# Poissons Ratio (z) = 0.62650 0.14676
#
# Static dielectric constant tensor:
#      x y z
#    x 1.575770 0.000000 0.000000 
#    y 0.000000 1.467550 0.000000 
#    z 0.000000 0.000000 1.514020 
# 
# From -- ./inp_files/8441.got.cif
#   From: 2010.05.17/outbox.cif.g08.bks.cpg/sg58_5_cif.got.tgz:8441.got - 2010.06.03 14:20:14.
