data_PCOD9440429
_publ_section_title
;
Structure prediction by ZEFSAII (Michael W. Deem and Ramdas Pophale) SiO2 
 PCOD9440429
Probable space group: P B C M
;
_chemical_formula_sum "Si O2"
_cell_formula_units_Z 56
_cell_length_a 21.000000
_cell_length_b 15.000000
_cell_length_c 9.000000
_cell_angle_alpha 90.000000
_cell_angle_beta 90.000000
_cell_angle_gamma 90.000000
_cell_volume 2835.000000
_symmetry_space_group_name_H-M "P B C M"
_symmetry_group_IT_number 57
_symmetry_cell_setting 'orthorhombic'
loop_
_space_group_symop_operation_xyz
x,y,z
-x,-y,1/2+z
x,1/2-y,-z
-x,1/2+y,1/2-z
-x,-y,-z
x,y,1/2-z
-x,1/2+y,z
x,1/2-y,1/2+z
loop_
_atom_site_type_symbol
_atom_site_label
_atom_site_fract_x
_atom_site_fract_y
_atom_site_fract_z
Si Si1 0.975973 0.157892 0.426626
Si Si2 0.517652 0.406836 0.927059
Si Si3 0.871476 0.658330 0.075548
Si Si4 0.383319 0.340936 0.571165
Si Si5 0.348977 0.968365 0.569845
Si Si6 0.121568 0.521005 0.078283
Si Si7 0.236346 0.844410 0.578476
O O1 0.952980 0.250000 0.500000
O O2 0.963510 0.162167 0.250000
O O3 0.941790 0.068602 0.484748
O O4 0.051812 0.154448 0.447550
O O5 0.514635 0.413756 0.750000
O O6 0.459164 0.343952 0.968879
O O7 0.591933 0.401182 0.965234
O O8 0.500000 0.500000 0.000000
O O9 0.858032 0.661503 0.250000
O O10 0.848428 0.750000 0.000000
O O11 0.850736 0.564686 0.005206
O O12 0.356406 0.250000 0.500000
O O13 0.376175 0.339706 0.750000
O O14 0.356890 0.434548 0.505632
O O15 0.347369 0.982195 0.750000
O O16 0.287318 0.915223 0.518332
O O17 0.110821 0.493538 0.250000
O O18 0.170349 0.602959 0.074930
O O19 0.234273 0.750000 0.500000
O O20 0.253744 0.828199 0.750000
#
# Coordination Sequence:
#
# PCOD9440429 Si02
#       7
#     8   8   8   8   8   8   8
#     4   9  18  31  50  77 108 138 170 209 255 304
#     4   8  15  28  47  70  98 130 165 204 249 296
#     4  10  20  34  53  78 105 136 171 210 257 309
#     4  10  19  31  50  78 107 137 171 210 257 309
#     4   9  18  35  54  74 103 138 174 214 255 300
#     4  10  20  35  53  76 106 138 172 213 255 299
#     4  10  22  38  57  79 104 135 172 212 255 301
#
# _framework density 19.753086
#
# number of rings (size 3 to 8) (size 9 to 14) (size 15 to 20)
#    0.000    2.571    0.000    1.714    0.000    3.429 
#    0.000    0.714    0.000    0.000    0.000    0.000 
#    0.000    0.000    0.000    0.000    0.000    0.000 
#
# Total GULP energy -311836.276311 kJ/mol
# GULP energy per Si atom -5568.504934 kJ/mol
# Density = 1.970813 g / cm^3
# Si number density = 19.753086 Si / 1000 Ang^3
#
#
#
# Elastic Constant Matrix: (Units=GPa)
#
#
# Indices 1 2 3 4 5 6 
#
# 1 25.5718 9.9063 9.2178 0.0000 0.0000 0.0000
# 2 9.9063 149.1111 50.0697 0.0000 0.0000 0.0000
# 3 9.2178 50.0697 28.4294 0.0000 0.0000 0.0000
# 4 0.0000 0.0000 0.0000 32.9979 0.0000 0.0000
# 5 0.0000 0.0000 0.0000 0.0000 13.0163 0.0000
# 6 0.0000 0.0000 0.0000 0.0000 0.0000 19.9173
#
#
#
# Elastic Compliance Matrix: (Units=1/GPa)
#
#
# Indices 1 2 3 4 5 6 
#
# 1 0.045608 0.004737 -0.023130 0.000000 0.000000 0.000000
# 2 0.004737 0.016905 -0.031308 0.000000 0.000000 0.000000
# 3 -0.023130 -0.031308 0.097814 0.000000 0.000000 0.000000
# 4 0.000000 0.000000 0.000000 0.030305 0.000000 0.000000
# 5 0.000000 0.000000 0.000000 0.000000 0.076827 0.000000
# 6 0.000000 0.000000 0.000000 0.000000 0.000000 0.050208
#
#
# Mechanical properties :
#
#
# Convention : Reuss Voigt Hill
#
# Bulk Modulus (GPa) = 16.41392 37.94443 27.17918
# Shear Modulus (GPa) = 11.43179 22.11418 16.77298
#
# Velocity S-wave (km/s) = 2.40830 3.34957 2.91715
# Velocity P-wave (km/s) = 4.00759 5.84898 5.01355
#
# Compressibility (1/GPa) = 0.06092390
#
# Stress axis : x y z
#
# Youngs Moduli (GPa) = 21.92585 59.15563 10.22350
#
# Poissons Ratio (x) = -0.28021 0.23647
# Poissons Ratio (y) = -0.10386 0.32008
# Poissons Ratio (z) = 0.50715 1.85205
#
# Static dielectric constant tensor:
#      x y z
#    x 1.800840 0.000000 0.000000 
#    y 0.000000 1.679010 0.000000 
#    z 0.000000 0.000000 1.672350 
# 
# From -- ./inp_files/8137.got.cif
#   From: 2010.05.17/outbox.ucp.g08.bks.cvg/sg57_5_cif.got.tgz:8137.got - 2010.06.11 16:39:23.
