data_PCOD9440427
_publ_section_title
;
Structure prediction by ZEFSAII (Michael W. Deem and Ramdas Pophale) SiO2 
 PCOD9440427
Probable space group: P B C M
;
_chemical_formula_sum "Si O2"
_cell_formula_units_Z 48
_cell_length_a 15.000000
_cell_length_b 21.000000
_cell_length_c 9.000000
_cell_angle_alpha 90.000000
_cell_angle_beta 90.000000
_cell_angle_gamma 90.000000
_cell_volume 2835.000000
_symmetry_space_group_name_H-M "P B C M"
_symmetry_group_IT_number 57
_symmetry_cell_setting 'orthorhombic'
loop_
_space_group_symop_operation_xyz
x,y,z
-x,-y,1/2+z
x,1/2-y,-z
-x,1/2+y,1/2-z
-x,-y,-z
x,y,1/2-z
-x,1/2+y,z
x,1/2-y,1/2+z
loop_
_atom_site_type_symbol
_atom_site_label
_atom_site_fract_x
_atom_site_fract_y
_atom_site_fract_z
Si Si1 0.687168 0.349075 0.425208
Si Si2 0.929970 0.047856 0.426519
Si Si3 0.893054 0.183611 0.926511
Si Si4 0.492257 0.811338 0.925590
Si Si5 0.570027 0.549797 0.071934
Si Si6 0.724851 0.483012 0.926195
O O1 0.668063 0.349615 0.250000
O O2 0.785577 0.320398 0.447173
O O3 0.607783 0.316217 0.512106
O O4 0.691652 0.419805 0.490982
O O5 0.945319 0.054032 0.250000
O O6 0.929713 0.118457 0.499658
O O7 0.831165 0.017696 0.447141
O O8 0.000000 0.000000 0.500000
O O9 0.910904 0.183310 0.750000
O O10 0.923937 0.250000 0.000000
O O11 0.489612 0.802869 0.750000
O O12 0.538043 0.878630 0.959120
O O13 0.536537 0.750000 0.000000
O O14 0.572059 0.540192 0.250000
O O15 0.500000 0.500000 0.000000
O O16 0.666649 0.538084 0.999928
O O17 0.706511 0.478971 0.750000
#
# Coordination Sequence:
#
# PCOD9440427 Si02
#       6
#     8   8   8   8   8   8
#     4  10  19  31  50  75 106 143 178 216 264 319
#     4  10  21  37  58  83 111 142 179 226 277 330
#     4  10  20  33  51  78 110 144 179 217 268 328
#     4  11  23  35  49  72 104 142 183 226 270 319
#     4  11  22  35  54  78 106 142 184 224 266 318
#     4  10  20  34  54  80 108 140 179 223 269 320
#
# _framework density 16.931217
#
# number of rings (size 3 to 8) (size 9 to 14) (size 15 to 20)
#    0.000    1.667    1.667    3.500    0.000    7.333 
#    0.000    0.000    0.000    1.000    0.000    2.333 
#    0.000    0.000    0.000    0.000    0.000    0.000 
#
# Total GULP energy -267903.704544 kJ/mol
# GULP energy per Si atom -5581.327178 kJ/mol
# Density = 1.689268 g / cm^3
# Si number density = 16.931217 Si / 1000 Ang^3
#
#
#
# Elastic Constant Matrix: (Units=GPa)
#
#
# Indices 1 2 3 4 5 6 
#
# 1 42.1155 61.2513 30.3803 0.0000 0.0000 0.0000
# 2 61.2513 152.0830 95.4585 0.0000 0.0000 0.0000
# 3 30.3803 95.4585 69.1850 0.0000 0.0000 0.0000
# 4 0.0000 0.0000 0.0000 30.7029 0.0000 0.0000
# 5 0.0000 0.0000 0.0000 0.0000 26.9299 0.0000
# 6 0.0000 0.0000 0.0000 0.0000 0.0000 34.5629
#
#
#
# Elastic Compliance Matrix: (Units=1/GPa)
#
#
# Indices 1 2 3 4 5 6 
#
# 1 0.095899 -0.091006 0.083455 0.000000 0.000000 0.000000
# 2 -0.091006 0.135446 -0.146920 0.000000 0.000000 0.000000
# 3 0.083455 -0.146920 0.180522 0.000000 0.000000 0.000000
# 4 0.000000 0.000000 0.000000 0.032570 0.000000 0.000000
# 5 0.000000 0.000000 0.000000 0.000000 0.037133 0.000000
# 6 0.000000 0.000000 0.000000 0.000000 0.000000 0.028933
#
#
# Mechanical properties :
#
#
# Convention : Reuss Voigt Hill
#
# Bulk Modulus (GPa) = 9.71586 70.84040 40.27813
# Shear Modulus (GPa) = 5.85650 23.52536 14.69093
#
# Velocity S-wave (km/s) = 1.86185 3.73160 2.94884
# Velocity P-wave (km/s) = 3.22070 7.77801 5.95274
#
# Compressibility (1/GPa) = 0.10292447
#
# Stress axis : x y z
#
# Youngs Moduli (GPa) = 10.42767 7.38303 5.53950
#
# Poissons Ratio (x) = 0.67190 -0.46230
# Poissons Ratio (y) = 0.94898 0.81386
# Poissons Ratio (z) = -0.87024 1.08472
#
# Static dielectric constant tensor:
#      x y z
#    x 1.569440 0.000000 0.000000 
#    y 0.000000 1.569650 0.000000 
#    z 0.000000 0.000000 1.561660 
# 
# From -- ./inp_files/4857.got.cif
#   From: 2010.05.17/outbox.ucp.g08.bks.cvg/sg57_3_cif.got.tgz:4857.got - 2010.06.11 16:39:23.
