data_PCOD9440133
_publ_section_title
;
Structure prediction by ZEFSAII (Michael W. Deem and Ramdas Pophale) SiO2 
 PCOD9440133
Probable space group: P B C M
;
_chemical_formula_sum "Si O2"
_cell_formula_units_Z 60
_cell_length_a 17.285131
_cell_length_b 8.196368
_cell_length_c 18.398418
_cell_angle_alpha 90.000000
_cell_angle_beta 90.000000
_cell_angle_gamma 90.000000
_cell_volume 2606.601290
_symmetry_space_group_name_H-M "P B C M"
_symmetry_group_IT_number 57
_symmetry_cell_setting 'orthorhombic'
loop_
_space_group_symop_operation_xyz
x,y,z
-x,-y,1/2+z
x,1/2-y,-z
-x,1/2+y,1/2-z
-x,-y,-z
x,y,1/2-z
-x,1/2+y,z
x,1/2-y,1/2+z
loop_
_atom_site_type_symbol
_atom_site_label
_atom_site_fract_x
_atom_site_fract_y
_atom_site_fract_z
Si Si1 0.625213 0.595258 0.872816
Si Si2 0.368012 0.737899 0.831301
Si Si3 0.766872 0.938647 0.022872
Si Si4 0.058048 0.011411 0.165085
Si Si5 0.294237 0.176956 0.250000
Si Si6 0.529482 0.369992 0.056141
Si Si7 0.221060 0.914418 0.364484
Si Si8 0.076506 0.337044 0.421498
O O1 0.598086 0.418132 0.842823
O O2 0.687324 0.545856 0.934051
O O3 0.666906 0.704338 0.813172
O O4 0.549893 0.685887 0.905041
O O5 0.381772 0.683483 0.750000
O O6 0.408426 0.604703 0.882115
O O7 0.276899 0.736370 0.846717
O O8 0.846303 0.946235 0.068980
O O9 0.767359 0.750000 0.000000
O O10 0.772532 0.043822 0.949769
O O11 0.035134 0.020883 0.250000
O O12 0.132075 0.894085 0.156595
O O13 0.086233 0.187226 0.135022
O O14 0.991447 0.946264 0.111951
O O15 0.254467 0.060125 0.314050
O O16 0.570430 0.250000 0.000000
O O17 0.500000 0.500000 0.000000
O O18 0.059869 0.250000 0.500000
#
# Coordination Sequence:
#
# PCOD9440133 Si02
#       8
#     8   8   8   8   4   8   8   8
#     4  12  26  46  72 103 141 186 236 295 362 426
#     4  12  28  48  68 106 149 177 235 302 362 420
#     4  11  22  43  72 104 132 181 243 290 340 426
#     4  12  24  45  70 102 146 185 235 291 365 420
#     4  12  24  42  74 102 130 186 234 282 350 428
#     4  12  27  48  71 103 145 191 241 295 352 429
#     4  12  25  45  73 101 139 186 234 293 352 425
#     4  11  24  44  69 104 140 185 238 293 347 432
#
# _framework density 23.018481000000001
#
# number of rings (size 3 to 8) (size 9 to 14) (size 15 to 20)
#    0.000    0.267    7.333    2.000    2.800    1.067 
#    1.200    1.333    0.000    0.000    0.000    0.000 
#    0.000    0.000    0.000    0.000    0.000    0.000 
#
# Total GULP energy -334319.991300 kJ/mol
# GULP energy per Si atom -5571.999855 kJ/mol
# Density = 2.296609 g / cm^3
# Si number density = 23.018481 Si / 1000 Ang^3
#
#
#
# Elastic Constant Matrix: (Units=GPa)
#
#
# Indices 1 2 3 4 5 6 
#
# 1 104.4815 7.4353 57.8761 0.0000 0.0000 0.0000
# 2 7.4353 20.8918 -2.4682 0.0000 0.0000 0.0000
# 3 57.8761 -2.4682 127.8528 0.0000 0.0000 0.0000
# 4 0.0000 0.0000 0.0000 28.7805 0.0000 0.0000
# 5 0.0000 0.0000 0.0000 0.0000 18.8636 0.0000
# 6 0.0000 0.0000 0.0000 0.0000 0.0000 23.8883
#
#
#
# Elastic Compliance Matrix: (Units=1/GPa)
#
#
# Indices 1 2 3 4 5 6 
#
# 1 0.013374 -0.005487 -0.006160 0.000000 0.000000 0.000000
# 2 -0.005487 0.050227 0.003454 0.000000 0.000000 0.000000
# 3 -0.006160 0.003454 0.010677 0.000000 0.000000 0.000000
# 4 0.000000 0.000000 0.000000 0.034746 0.000000 0.000000
# 5 0.000000 0.000000 0.000000 0.000000 0.053012 0.000000
# 6 0.000000 0.000000 0.000000 0.000000 0.000000 0.041861
#
#
# Mechanical properties :
#
#
# Convention : Reuss Voigt Hill
#
# Bulk Modulus (GPa) = 17.27425 42.10140 29.68783
# Shear Modulus (GPa) = 20.86981 26.99867 23.93424
#
# Velocity S-wave (km/s) = 3.01434 3.42850 3.22807
# Velocity P-wave (km/s) = 4.43123 5.83119 5.17873
#
# Compressibility (1/GPa) = 0.05788964
#
# Stress axis : x y z
#
# Youngs Moduli (GPa) = 74.77308 19.90975 93.66241
#
# Poissons Ratio (x) = 0.10925 0.57696
# Poissons Ratio (y) = 0.41031 -0.32348
# Poissons Ratio (z) = 0.46060 -0.06876
#
# Static dielectric constant tensor:
#      x y z
#    x 1.927120 0.000000 0.000000 
#    y 0.000000 2.174320 0.000000 
#    z 0.000000 0.000000 1.858330 
# 
# From -- ./inp_files/22904.got.cif
#   From: 2010.05.17/outbox.cif.g08.bks.cpg/sg57_12_cif.got.tgz:22904.got - 2010.06.03 13:58:18.
