data_PCOD9440137
_publ_section_title
;
Structure prediction by ZEFSAII (Michael W. Deem and Ramdas Pophale) SiO2 
 PCOD9440137
Probable space group: P B C M
;
_chemical_formula_sum "Si O2"
_cell_formula_units_Z 36
_cell_length_a 6.221503
_cell_length_b 12.827545
_cell_length_c 19.288223
_cell_angle_alpha 90.000000
_cell_angle_beta 90.000000
_cell_angle_gamma 90.000000
_cell_volume 1539.327685
_symmetry_space_group_name_H-M "P B C M"
_symmetry_group_IT_number 57
_symmetry_cell_setting 'orthorhombic'
loop_
_space_group_symop_operation_xyz
x,y,z
-x,-y,1/2+z
x,1/2-y,-z
-x,1/2+y,1/2-z
-x,-y,-z
x,y,1/2-z
-x,1/2+y,z
x,1/2-y,1/2+z
loop_
_atom_site_type_symbol
_atom_site_label
_atom_site_fract_x
_atom_site_fract_y
_atom_site_fract_z
Si Si1 0.782736 0.191728 0.750000
Si Si2 0.528630 0.549182 0.750000
Si Si3 0.319879 0.499952 0.105017
Si Si4 0.977723 0.823722 0.862513
Si Si5 0.614593 0.670669 0.250000
Si Si6 0.342716 0.146369 0.475331
O O1 0.730943 0.069979 0.750000
O O2 0.890302 0.236119 0.680602
O O3 0.530746 0.226203 0.750000
O O4 0.622712 0.568406 0.672968
O O5 0.553073 0.422302 0.750000
O O6 0.126716 0.575718 0.126958
O O7 0.511764 0.574191 0.075274
O O8 0.275602 0.424037 0.040559
O O9 0.771801 0.837635 0.813947
O O10 0.864792 0.808294 0.935874
O O11 0.469886 0.250000 0.500000
#
# Coordination Sequence:
#
# PCOD9440137 Si02
#       6
#     4   4   8   8   4   8
#     4  11  25  41  71 105 135 185 227 289 347 414
#     4  12  23  44  75  97 141 185 236 283 367 407
#     4  11  25  46  71 101 140 187 231 299 350 418
#     4  11  22  45  68  98 141 176 236 286 346 422
#     4  11  22  45  66  98 138 174 227 294 346 411
#     4  11  26  45  70 100 144 185 234 287 354 423
#
# _framework density 23.386835000000001
#
# number of rings (size 3 to 8) (size 9 to 14) (size 15 to 20)
#    0.000    0.889    4.444    1.333    6.222    2.667 
#    8.000    0.000    0.000    0.000    0.000    0.000 
#    0.000    0.000    0.000    0.000    0.000    0.000 
#
# Total GULP energy -200872.268291 kJ/mol
# GULP energy per Si atom -5579.785230 kJ/mol
# Density = 2.333361 g / cm^3
# Si number density = 23.386835 Si / 1000 Ang^3
#
#
#
# Elastic Constant Matrix: (Units=GPa)
#
#
# Indices 1 2 3 4 5 6 
#
# 1 80.4037 19.2052 62.8640 0.0000 0.0000 0.0000
# 2 19.2052 55.4917 41.8887 0.0000 0.0000 0.0000
# 3 62.8640 41.8887 193.7712 0.0000 0.0000 0.0000
# 4 0.0000 0.0000 0.0000 24.8303 0.0000 0.0000
# 5 0.0000 0.0000 0.0000 0.0000 9.8095 0.0000
# 6 0.0000 0.0000 0.0000 0.0000 0.0000 27.9819
#
#
#
# Elastic Compliance Matrix: (Units=1/GPa)
#
#
# Indices 1 2 3 4 5 6 
#
# 1 0.016855 -0.002038 -0.005027 0.000000 0.000000 0.000000
# 2 -0.002038 0.021781 -0.004047 0.000000 0.000000 0.000000
# 3 -0.005027 -0.004047 0.007667 0.000000 0.000000 0.000000
# 4 0.000000 0.000000 0.000000 0.040273 0.000000 0.000000
# 5 0.000000 0.000000 0.000000 0.000000 0.101942 0.000000
# 6 0.000000 0.000000 0.000000 0.000000 0.000000 0.035737
#
#
# Mechanical properties :
#
#
# Convention : Reuss Voigt Hill
#
# Bulk Modulus (GPa) = 41.53389 64.17582 52.85485
# Shear Modulus (GPa) = 19.64582 26.23826 22.94204
#
# Velocity S-wave (km/s) = 2.90148 3.35315 3.13546
# Velocity P-wave (km/s) = 5.38729 6.51859 5.97975
#
# Compressibility (1/GPa) = 0.02407672
#
# Stress axis : x y z
#
# Youngs Moduli (GPa) = 59.33003 45.91086 130.43414
#
# Poissons Ratio (x) = 0.09358 0.65576
# Poissons Ratio (y) = 0.12093 0.52791
# Poissons Ratio (z) = 0.29828 0.18582
#
# Static dielectric constant tensor:
#      x y z
#    x 1.975310 0.000000 0.000000 
#    y 0.000000 1.927230 0.000000 
#    z 0.000000 0.000000 1.997590 
# 
# From -- ./inp_files/23528.got.cif
#   From: 2010.05.17/outbox.cif.g08.bks.cpg/sg57_12_cif.got.tgz:23528.got - 2010.06.03 13:58:18.
