data_PCOD9440538
_publ_section_title
;
Structure prediction by ZEFSAII (Michael W. Deem and Ramdas Pophale) SiO2 
 PCOD9440538
Probable space group: P B C M
;
_chemical_formula_sum "Si O2"
_cell_formula_units_Z 48
_cell_length_a 15.000000
_cell_length_b 9.000000
_cell_length_c 18.000000
_cell_angle_alpha 90.000000
_cell_angle_beta 90.000000
_cell_angle_gamma 90.000000
_cell_volume 2430.000000
_symmetry_space_group_name_H-M "P B C M"
_symmetry_group_IT_number 57
_symmetry_cell_setting 'orthorhombic'
loop_
_space_group_symop_operation_xyz
x,y,z
-x,-y,1/2+z
x,1/2-y,-z
-x,1/2+y,1/2-z
-x,-y,-z
x,y,1/2-z
-x,1/2+y,z
x,1/2-y,1/2+z
loop_
_atom_site_type_symbol
_atom_site_label
_atom_site_fract_x
_atom_site_fract_y
_atom_site_fract_z
Si Si1 0.790806 0.605755 0.340293
Si Si2 0.378070 0.934639 0.159621
Si Si3 0.292700 0.422021 0.160938
Si Si4 0.039923 0.265812 0.588982
Si Si5 0.454703 0.883120 0.659098
Si Si6 0.104247 0.957018 0.839162
O O1 0.805316 0.606125 0.250000
O O2 0.723380 0.473552 0.360963
O O3 0.884399 0.617900 0.382432
O O4 0.738223 0.757908 0.361489
O O5 0.377981 0.932877 0.250000
O O6 0.446701 0.065132 0.137004
O O7 0.418695 0.777406 0.134909
O O8 0.302143 0.411591 0.250000
O O9 0.384475 0.491388 0.133498
O O10 0.209970 0.532179 0.146432
O O11 0.041339 0.250000 0.500000
O O12 0.946312 0.325302 0.619601
O O13 0.064622 0.110978 0.628699
O O14 0.454486 0.879928 0.750000
O O15 0.090826 0.949653 0.750000
#
# Coordination Sequence:
#
# PCOD9440538 Si02
#       6
#     8   8   8   8   8   8
#     4   9  17  31  48  69  97 134 173 210 254 310
#     4   9  16  24  40  66  98 130 163 205 257 310
#     4   8  15  27  44  65  93 126 165 209 255 303
#     4  11  22  36  54  79 108 140 176 222 273 321
#     4   9  15  24  39  67 101 130 160 205 260 310
#     4  10  20  36  56  78 104 140 180 221 267 322
#
# _framework density 19.753086
#
# number of rings (size 3 to 8) (size 9 to 14) (size 15 to 20)
#    0.000    2.667    0.000    4.000    0.000    5.333 
#    0.000    3.333    0.000    0.000    0.000   11.667 
#    0.000    0.000    0.000    0.000    0.000    0.000 
#
# Total GULP energy -267711.918650 kJ/mol
# GULP energy per Si atom -5577.331639 kJ/mol
# Density = 1.970813 g / cm^3
# Si number density = 19.753086 Si / 1000 Ang^3
#
#
#
# Elastic Constant Matrix: (Units=GPa)
#
#
# Indices 1 2 3 4 5 6 
#
# 1 36.6654 -18.4338 10.5902 0.0000 0.0000 0.0000
# 2 -18.4338 11.7041 -9.0180 0.0000 0.0000 0.0000
# 3 10.5902 -9.0180 36.3545 0.0000 0.0000 0.0000
# 4 0.0000 0.0000 0.0000 3.8296 0.0000 0.0000
# 5 0.0000 0.0000 0.0000 0.0000 0.6871 0.0000
# 6 0.0000 0.0000 0.0000 0.0000 0.0000 32.1972
#
#
#
# Elastic Compliance Matrix: (Units=1/GPa)
#
#
# Indices 1 2 3 4 5 6 
#
# 1 0.139113 0.232271 0.017092 0.000000 0.000000 0.000000
# 2 0.232271 0.493443 0.054740 0.000000 0.000000 0.000000
# 3 0.017092 0.054740 0.036106 0.000000 0.000000 0.000000
# 4 0.000000 0.000000 0.000000 0.261125 0.000000 0.000000
# 5 0.000000 0.000000 0.000000 0.000000 1.455470 0.000000
# 6 0.000000 0.000000 0.000000 0.000000 0.000000 0.031059
#
#
# Mechanical properties :
#
#
# Convention : Reuss Voigt Hill
#
# Bulk Modulus (GPa) = 0.78316 5.66676 3.22496
# Shear Modulus (GPa) = 2.23841 14.11513 8.17677
#
# Velocity S-wave (km/s) = 1.06567 2.67606 2.03678
# Velocity P-wave (km/s) = 1.38259 3.52469 2.67722
#
# Compressibility (1/GPa) = 1.27687052
#
# Stress axis : x y z
#
# Youngs Moduli (GPa) = 7.18840 2.02658 27.69585
#
# Poissons Ratio (x) = -0.47072 -0.47338
# Poissons Ratio (y) = -1.66966 -1.51607
# Poissons Ratio (z) = -0.12287 -0.11093
#
# Static dielectric constant tensor:
#      x y z
#    x 1.712670 0.000000 0.000000 
#    y 0.000000 1.727610 0.000000 
#    z 0.000000 0.000000 1.657750 
# 
# From -- ./inp_files/22404.got.cif
#   From: 2010.05.17/outbox.ucp.g08.bks.cvg/sg57_12_cif.got.tgz:22404.got - 2010.06.11 16:39:23.
