data_PCOD9440638
_publ_section_title
;
Structure prediction by ZEFSAII (Michael W. Deem and Ramdas Pophale) SiO2 
 PCOD9440638
Probable space group: P B C M
;
_chemical_formula_sum "Si O2"
_cell_formula_units_Z 40
_cell_length_a 9.000000
_cell_length_b 12.000000
_cell_length_c 18.000000
_cell_angle_alpha 90.000000
_cell_angle_beta 90.000000
_cell_angle_gamma 90.000000
_cell_volume 1944.000000
_symmetry_space_group_name_H-M "P B C M"
_symmetry_group_IT_number 57
_symmetry_cell_setting 'orthorhombic'
loop_
_space_group_symop_operation_xyz
x,y,z
-x,-y,1/2+z
x,1/2-y,-z
-x,1/2+y,1/2-z
-x,-y,-z
x,y,1/2-z
-x,1/2+y,z
x,1/2-y,1/2+z
loop_
_atom_site_type_symbol
_atom_site_label
_atom_site_fract_x
_atom_site_fract_y
_atom_site_fract_z
Si Si1 0.674275 0.833415 0.161951
Si Si2 0.585390 0.431459 0.063645
Si Si3 0.107058 0.956725 0.666239
Si Si4 0.235798 0.411198 0.835260
Si Si5 0.900629 0.377459 0.510920
O O1 0.629436 0.830757 0.250000
O O2 0.534206 0.854170 0.107210
O O3 0.796710 0.931616 0.155821
O O4 0.757662 0.718264 0.142403
O O5 0.641171 0.523035 0.121191
O O6 0.500000 0.500000 0.000000
O O7 0.743940 0.383541 0.033749
O O8 0.136232 0.914592 0.750000
O O9 0.145395 0.879650 0.597339
O O10 0.927812 0.965704 0.659516
O O11 0.277079 0.414623 0.750000
O O12 0.967538 0.250000 0.500000
O O13 0.000000 0.500000 0.500000
#
# Coordination Sequence:
#
# PCOD9440638 Si02
#       5
#     8   8   8   8   8
#     4  10  23  43  70 103 140 182 234 298 361 429
#     4  12  25  41  67 100 142 188 232 294 360 425
#     4  10  22  44  70 101 136 183 235 286 353 427
#     4  10  23  43  69 100 137 186 235 293 361 430
#     4  12  28  48  71 108 144 191 242 299 363 430
#
# _framework density 20.576132000000001
#
# number of rings (size 3 to 8) (size 9 to 14) (size 15 to 20)
#    0.000    1.200    4.000    0.600    5.600    0.000 
#    0.000    2.000    0.000    0.000    0.000    0.000 
#    0.000    0.000    0.000    0.000    0.000    0.000 
#
# Total GULP energy -222753.537303 kJ/mol
# GULP energy per Si atom -5568.838433 kJ/mol
# Density = 2.052930 g / cm^3
# Si number density = 20.576132 Si / 1000 Ang^3
#
#
#
# Elastic Constant Matrix: (Units=GPa)
#
#
# Indices 1 2 3 4 5 6 
#
# 1 115.8176 34.2276 46.9127 0.0000 0.0000 0.0000
# 2 34.2276 81.2913 35.2019 0.0000 0.0000 0.0000
# 3 46.9127 35.2019 86.2295 0.0000 0.0000 0.0000
# 4 0.0000 0.0000 0.0000 16.6436 0.0000 0.0000
# 5 0.0000 0.0000 0.0000 0.0000 50.2870 0.0000
# 6 0.0000 0.0000 0.0000 0.0000 0.0000 22.9074
#
#
#
# Elastic Compliance Matrix: (Units=1/GPa)
#
#
# Indices 1 2 3 4 5 6 
#
# 1 0.011508 -0.002592 -0.005202 0.000000 0.000000 0.000000
# 2 -0.002592 0.015527 -0.004928 0.000000 0.000000 0.000000
# 3 -0.005202 -0.004928 0.016439 0.000000 0.000000 0.000000
# 4 0.000000 0.000000 0.000000 0.060083 0.000000 0.000000
# 5 0.000000 0.000000 0.000000 0.000000 0.019886 0.000000
# 6 0.000000 0.000000 0.000000 0.000000 0.000000 0.043654
#
#
# Mechanical properties :
#
#
# Convention : Reuss Voigt Hill
#
# Bulk Modulus (GPa) = 55.47014 57.33586 56.40300
# Shear Modulus (GPa) = 25.18225 29.10068 27.14146
#
# Velocity S-wave (km/s) = 3.50216 3.76479 3.63585
# Velocity P-wave (km/s) = 6.58563 6.84280 6.71545
#
# Compressibility (1/GPa) = 0.01802772
#
# Stress axis : x y z
#
# Youngs Moduli (GPa) = 86.89856 64.40343 60.83034
#
# Poissons Ratio (x) = 0.16697 0.31646
# Poissons Ratio (y) = 0.22528 0.29979
# Poissons Ratio (z) = 0.45208 0.31740
#
# Static dielectric constant tensor:
#      x y z
#    x 1.722310 0.000000 0.000000 
#    y 0.000000 1.800580 0.000000 
#    z 0.000000 0.000000 1.929860 
# 
# From -- ./inp_files/20522.got.cif
#   From: 2010.05.17/outbox.ucp.g08.bks.cvg/sg57_11_cif.got.tgz:20522.got - 2010.06.11 16:39:23.
