data_PCOD9440539
_publ_section_title
;
Structure prediction by ZEFSAII (Michael W. Deem and Ramdas Pophale) SiO2 
 PCOD9440539
Probable space group: P B C M
;
_chemical_formula_sum "Si O2"
_cell_formula_units_Z 40
_cell_length_a 27.000000
_cell_length_b 9.000000
_cell_length_c 9.000000
_cell_angle_alpha 90.000000
_cell_angle_beta 90.000000
_cell_angle_gamma 90.000000
_cell_volume 2187.000000
_symmetry_space_group_name_H-M "P B C M"
_symmetry_group_IT_number 57
_symmetry_cell_setting 'orthorhombic'
loop_
_space_group_symop_operation_xyz
x,y,z
-x,-y,1/2+z
x,1/2-y,-z
-x,1/2+y,1/2-z
-x,-y,-z
x,y,1/2-z
-x,1/2+y,z
x,1/2-y,1/2+z
loop_
_atom_site_type_symbol
_atom_site_label
_atom_site_fract_x
_atom_site_fract_y
_atom_site_fract_z
Si Si1 0.654946 0.911657 0.572252
Si Si2 0.246388 0.911097 0.070985
Si Si3 0.955126 0.912028 0.072790
Si Si4 0.545366 0.913036 0.928540
Si Si5 0.155734 0.413209 0.072077
O O1 0.658735 0.750000 0.500000
O O2 0.656351 0.893811 0.750000
O O3 0.600404 0.976498 0.536383
O O4 0.702358 0.007365 0.528707
O O5 0.243128 0.905998 0.250000
O O6 0.247290 0.750000 0.000000
O O7 0.199148 0.995168 0.004144
O O8 0.961757 0.901819 0.250000
O O9 0.899803 0.976131 0.045702
O O10 0.955204 0.750000 0.000000
O O11 0.000000 0.000000 0.000000
O O12 0.540081 0.906176 0.750000
O O13 0.544968 0.750000 0.000000
O O14 0.500000 0.000000 0.000000
O O15 0.163018 0.403859 0.250000
O O16 0.156922 0.250000 0.000000
#
# Coordination Sequence:
#
# PCOD9440539 Si02
#       5
#     8   8   8   8   8
#     4   9  20  37  57  80 107 141 182 223 268 323
#     4  11  23  38  56  81 111 144 181 225 274 323
#     4  10  21  37  58  83 112 145 183 224 270 321
#     4  10  20  36  56  81 111 144 182 224 270 322
#     4  10  21  38  59  83 110 144 183 224 269 323
#
# _framework density 18.289895000000001
#
# number of rings (size 3 to 8) (size 9 to 14) (size 15 to 20)
#    0.000    2.000    0.000    3.000    0.000    8.000 
#    0.000    2.000    0.000    0.000    0.000    0.000 
#    0.000    0.000    0.000    0.000    0.000    0.000 
#
# Total GULP energy -223191.990617 kJ/mol
# GULP energy per Si atom -5579.799765 kJ/mol
# Density = 1.824827 g / cm^3
# Si number density = 18.289895 Si / 1000 Ang^3
#
#
#
# Elastic Constant Matrix: (Units=GPa)
#
#
# Indices 1 2 3 4 5 6 
#
# 1 226.2273 98.1279 93.0441 0.0000 0.0000 0.0000
# 2 98.1279 74.9751 39.8394 0.0000 0.0000 0.0000
# 3 93.0441 39.8394 84.9050 0.0000 0.0000 0.0000
# 4 0.0000 0.0000 0.0000 31.8994 0.0000 0.0000
# 5 0.0000 0.0000 0.0000 0.0000 31.6018 0.0000
# 6 0.0000 0.0000 0.0000 0.0000 0.0000 35.8888
#
#
#
# Elastic Compliance Matrix: (Units=1/GPa)
#
#
# Indices 1 2 3 4 5 6 
#
# 1 0.013977 -0.013527 -0.008969 0.000000 0.000000 0.000000
# 2 -0.013527 0.030859 0.000344 0.000000 0.000000 0.000000
# 3 -0.008969 0.000344 0.021446 0.000000 0.000000 0.000000
# 4 0.000000 0.000000 0.000000 0.031349 0.000000 0.000000
# 5 0.000000 0.000000 0.000000 0.000000 0.031644 0.000000
# 6 0.000000 0.000000 0.000000 0.000000 0.000000 0.027864
#
#
# Mechanical properties :
#
#
# Convention : Reuss Voigt Hill
#
# Bulk Modulus (GPa) = 45.50312 94.23669 69.86991
# Shear Modulus (GPa) = 23.95002 30.21773 27.08387
#
# Velocity S-wave (km/s) = 3.62258 4.06908 3.85231
# Velocity P-wave (km/s) = 6.51386 8.58559 7.62045
#
# Compressibility (1/GPa) = 0.02197652
#
# Stress axis : x y z
#
# Youngs Moduli (GPa) = 71.54807 32.40552 46.62895
#
# Poissons Ratio (x) = 0.43834 0.41824
# Poissons Ratio (y) = 0.96780 -0.01602
# Poissons Ratio (z) = 0.64175 -0.01113
#
# Static dielectric constant tensor:
#      x y z
#    x 1.655900 0.000000 0.000000 
#    y 0.000000 1.630920 0.000000 
#    z 0.000000 0.000000 1.600740 
# 
# From -- ./inp_files/8852.got.cif
#   From: 2010.05.17/outbox.ucp.g08.bks.cvg/sg57_5_cif.got.tgz:8852.got - 2010.06.11 16:39:23.
