data_PCOD9440584
_publ_section_title
;
Structure prediction by ZEFSAII (Michael W. Deem and Ramdas Pophale) SiO2 
 PCOD9440584
Probable space group: P B C M
;
_chemical_formula_sum "Si O2"
_cell_formula_units_Z 48
_cell_length_a 30.000000
_cell_length_b 9.000000
_cell_length_c 9.000000
_cell_angle_alpha 90.000000
_cell_angle_beta 90.000000
_cell_angle_gamma 90.000000
_cell_volume 2430.000000
_symmetry_space_group_name_H-M "P B C M"
_symmetry_group_IT_number 57
_symmetry_cell_setting 'orthorhombic'
loop_
_space_group_symop_operation_xyz
x,y,z
-x,-y,1/2+z
x,1/2-y,-z
-x,1/2+y,1/2-z
-x,-y,-z
x,y,1/2-z
-x,1/2+y,z
x,1/2-y,1/2+z
loop_
_atom_site_type_symbol
_atom_site_label
_atom_site_fract_x
_atom_site_fract_y
_atom_site_fract_z
Si Si1 0.294062 0.909567 0.424865
Si Si2 0.208385 0.586173 0.428337
Si Si3 0.959697 0.913496 0.428877
Si Si4 0.366181 0.409753 0.422290
Si Si5 0.871694 0.912974 0.928468
Si Si6 0.465196 0.096856 0.916528
O O1 0.298659 0.750000 0.500000
O O2 0.284497 0.899483 0.250000
O O3 0.254222 0.986453 0.516045
O O4 0.338212 0.993432 0.465271
O O5 0.208258 0.750000 0.500000
O O6 0.204535 0.589386 0.250000
O O7 0.169698 0.501577 0.511370
O O8 0.961465 0.750000 0.500000
O O9 0.959769 0.908980 0.250000
O O10 0.915013 0.984243 0.495476
O O11 0.000000 0.000000 0.500000
O O12 0.366356 0.250000 0.500000
O O13 0.349798 0.404062 0.250000
O O14 0.416113 0.471268 0.415244
O O15 0.875069 0.906375 0.750000
O O16 0.868257 0.750000 0.000000
O O17 0.479954 0.124611 0.750000
O O18 0.461269 0.250000 0.000000
O O19 0.500000 0.000000 0.000000
#
# Coordination Sequence:
#
# PCOD9440584 Si02
#       6
#     8   8   8   8   8   8
#     4  11  22  38  59  84 113 148 186 230 278 331
#     4  11  22  39  60  85 115 149 187 232 280 333
#     4  11  22  39  60  86 116 151 190 234 283 335
#     4  10  21  38  58  83 112 146 185 230 278 331
#     4  11  22  39  60  86 116 150 189 233 281 334
#     4  10  21  37  58  82 112 146 185 229 278 330
#
# _framework density 19.753086
#
# number of rings (size 3 to 8) (size 9 to 14) (size 15 to 20)
#    0.000    1.333    0.000    9.000    0.000    4.000 
#    0.000    6.667    0.000    0.000    0.000    0.000 
#    0.000    0.000    0.000    0.000    0.000    0.000 
#
# Total GULP energy -267469.512403 kJ/mol
# GULP energy per Si atom -5572.281508 kJ/mol
# Density = 1.970813 g / cm^3
# Si number density = 19.753086 Si / 1000 Ang^3
#
#
#
# Elastic Constant Matrix: (Units=GPa)
#
#
# Indices 1 2 3 4 5 6 
#
# 1 89.3769 53.6528 52.5862 0.0000 0.0000 0.0000
# 2 53.6528 30.0483 25.7795 0.0000 0.0000 0.0000
# 3 52.5862 25.7795 210.2648 0.0000 0.0000 0.0000
# 4 0.0000 0.0000 0.0000 30.1155 0.0000 0.0000
# 5 0.0000 0.0000 0.0000 0.0000 30.2629 0.0000
# 6 0.0000 0.0000 0.0000 0.0000 0.0000 342.9196
#
#
#
# Elastic Compliance Matrix: (Units=1/GPa)
#
#
# Indices 1 2 3 4 5 6 
#
# 1 -0.150349 0.263961 0.005239 0.000000 0.000000 0.000000
# 2 0.263961 -0.426232 -0.013757 0.000000 0.000000 0.000000
# 3 0.005239 -0.013757 0.005132 0.000000 0.000000 0.000000
# 4 0.000000 0.000000 0.000000 0.033206 0.000000 0.000000
# 5 0.000000 0.000000 0.000000 0.000000 0.033044 0.000000
# 6 0.000000 0.000000 0.000000 0.000000 0.000000 0.002916
#
#
# Mechanical properties :
#
#
# Convention : Reuss Voigt Hill
#
# Bulk Modulus (GPa) = -16.51136 65.96966 24.72915
# Shear Modulus (GPa) = -4.83861 93.83770 44.49955
#
# Velocity S-wave (km/s) = -1.56680 6.89989 4.75151
# Velocity P-wave (km/s) = 3.41324 9.84620 6.53060
#
# Compressibility (1/GPa) = -0.06056435
#
# Stress axis : x y z
#
# Youngs Moduli (GPa) = -6.65120 -2.34614 194.83921
#
# Poissons Ratio (x) = 0.61929 -1.02070
# Poissons Ratio (y) = 1.75566 2.68044
# Poissons Ratio (z) = 0.03484 -0.03228
#
# Static dielectric constant tensor:
#      x y z
#    x 2.090620 0.000000 0.000000 
#    y 0.000000 1.564520 0.000000 
#    z 0.000000 0.000000 1.647910 
# 
# From -- ./inp_files/10057.got.cif
#   From: 2010.05.17/outbox.ucp.g08.bks.cvg/sg57_6_cif.got.tgz:10057.got - 2010.06.11 16:39:23.
