data_PCOD9440755
_publ_section_title
;
Structure prediction by ZEFSAII (Michael W. Deem and Ramdas Pophale) SiO2 
 PCOD9440755
Probable space group: P N N M
;
_chemical_formula_sum "Si O2"
_cell_formula_units_Z 64
_cell_length_a 5.469470
_cell_length_b 20.304594
_cell_length_c 29.254383
_cell_angle_alpha 90.000000
_cell_angle_beta 90.000000
_cell_angle_gamma 90.000000
_cell_volume 3248.856262
_symmetry_space_group_name_H-M "P N N M"
_symmetry_group_IT_number 58
_symmetry_cell_setting 'orthorhombic'
loop_
_space_group_symop_operation_xyz
x,y,z
-x,-y,z
1/2+x,1/2-y,1/2-z
1/2-x,1/2+y,1/2-z
-x,-y,-z
x,y,-z
1/2-x,1/2+y,1/2+z
1/2+x,1/2-y,1/2+z
loop_
_atom_site_type_symbol
_atom_site_label
_atom_site_fract_x
_atom_site_fract_y
_atom_site_fract_z
Si Si1 0.602600 0.733187 0.582950
Si Si2 0.063308 0.603762 0.302801
Si Si3 0.274939 0.271962 0.314355
Si Si4 0.105499 0.731068 0.446317
Si Si5 0.361156 0.418612 0.552688
Si Si6 0.758096 0.538155 0.231645
Si Si7 0.360277 0.085426 0.096584
Si Si8 0.456767 0.656979 0.766645
O O1 0.591039 0.723108 0.637314
O O2 0.359295 0.766743 0.564500
O O3 0.622002 0.661346 0.558612
O O4 0.859496 0.766068 0.570112
O O5 0.179724 0.578625 0.349533
O O6 0.258733 0.614816 0.262439
O O7 0.939978 0.673827 0.314193
O O8 0.848130 0.557349 0.283041
O O9 0.439983 0.292215 0.271195
O O10 0.170822 0.199741 0.305338
O O11 0.091760 0.715519 0.500000
O O12 0.124970 0.663005 0.417548
O O13 0.313141 0.433817 0.500000
O O14 0.629576 0.440666 0.568395
O O15 0.130211 0.438753 0.583296
O O16 0.500000 0.500000 0.228877
O O17 0.675308 0.610928 0.214733
O O18 0.000000 0.500000 0.212425
#
# Coordination Sequence:
#
# PCOD9440755 Si02
#       8
#     8   8   8   8   8   8   8   8
#     4  10  18  28  42  63 100 136 168 218 237 312
#     4  11  21  36  55  78 108 139 173 227 273 318
#     4  11  21  32  50  82 114 142 177 209 286 321
#     4  10  17  28  43  63  96 140 179 209 248 307
#     4  10  17  27  41  63  98 138 170 203 247 310
#     4  11  24  43  59  76 100 139 189 234 273 316
#     4  10  18  27  44  67  95 128 164 215 255 301
#     4  11  22  35  58  80 110 148 175 226 266 342
#
# _framework density 19.699241000000001
#
# number of rings (size 3 to 8) (size 9 to 14) (size 15 to 20)
#    0.000    1.500    5.000    5.250    1.750    0.000 
#    0.000    0.000    0.000    0.000    0.000    0.000 
#    0.000   17.000    0.000    0.000    0.000   21.250 
#
# Total GULP energy -357197.163615 kJ/mol
# GULP energy per Si atom -5581.205681 kJ/mol
# Density = 1.965440 g / cm^3
# Si number density = 19.699241 Si / 1000 Ang^3
#
#
#
# Elastic Constant Matrix: (Units=GPa)
#
#
# Indices 1 2 3 4 5 6 
#
# 1 139.8227 18.2117 8.6615 0.0000 0.0000 0.0000
# 2 18.2117 26.7331 10.0838 0.0000 0.0000 0.0000
# 3 8.6615 10.0838 40.3035 0.0000 0.0000 0.0000
# 4 0.0000 0.0000 0.0000 5.9743 0.0000 0.0000
# 5 0.0000 0.0000 0.0000 0.0000 21.5016 0.0000
# 6 0.0000 0.0000 0.0000 0.0000 0.0000 20.4059
#
#
#
# Elastic Compliance Matrix: (Units=1/GPa)
#
#
# Indices 1 2 3 4 5 6 
#
# 1 0.007854 -0.005205 -0.000386 0.000000 0.000000 0.000000
# 2 -0.005205 0.044754 -0.010079 0.000000 0.000000 0.000000
# 3 -0.000386 -0.010079 0.027416 0.000000 0.000000 0.000000
# 4 0.000000 0.000000 0.000000 0.167385 0.000000 0.000000
# 5 0.000000 0.000000 0.000000 0.000000 0.046508 0.000000
# 6 0.000000 0.000000 0.000000 0.000000 0.000000 0.049005
#
#
# Mechanical properties :
#
#
# Convention : Reuss Voigt Hill
#
# Bulk Modulus (GPa) = 20.53984 31.19704 25.86844
# Shear Modulus (GPa) = 12.80444 20.90317 16.85380
#
# Velocity S-wave (km/s) = 2.55227 3.26101 2.92816
# Velocity P-wave (km/s) = 4.37433 5.48179 4.95907
#
# Compressibility (1/GPa) = 0.04868586
#
# Stress axis : x y z
#
# Youngs Moduli (GPa) = 127.32810 22.34419 36.47466
#
# Poissons Ratio (x) = 0.11630 0.01406
# Poissons Ratio (y) = 0.66272 0.36762
# Poissons Ratio (z) = 0.04910 0.22520
#
# Static dielectric constant tensor:
#      x y z
#    x 1.823200 0.000000 0.000000 
#    y 0.000000 1.763660 0.000000 
#    z 0.000000 0.000000 1.657890 
# 
# From -- ./inp_files/33017.got.cif
#   From: 2010.05.17/outbox.cif.g08.bks.cpg/sg58_17_cif.got.tgz:33017.got - 2010.06.03 14:20:14.
