data_PCOD9440645
_publ_section_title
;
Structure prediction by ZEFSAII (Michael W. Deem and Ramdas Pophale) SiO2 
 PCOD9440645
Probable space group: P B C M
;
_chemical_formula_sum "Si O2"
_cell_formula_units_Z 48
_cell_length_a 15.000000
_cell_length_b 9.000000
_cell_length_c 18.000000
_cell_angle_alpha 90.000000
_cell_angle_beta 90.000000
_cell_angle_gamma 90.000000
_cell_volume 2430.000000
_symmetry_space_group_name_H-M "P B C M"
_symmetry_group_IT_number 57
_symmetry_cell_setting 'orthorhombic'
loop_
_space_group_symop_operation_xyz
x,y,z
-x,-y,1/2+z
x,1/2-y,-z
-x,1/2+y,1/2-z
-x,-y,-z
x,y,1/2-z
-x,1/2+y,z
x,1/2-y,1/2+z
loop_
_atom_site_type_symbol
_atom_site_label
_atom_site_fract_x
_atom_site_fract_y
_atom_site_fract_z
Si Si1 0.725060 0.607959 0.547716
Si Si2 0.072914 0.031135 0.161736
Si Si3 0.115522 0.118967 0.662332
Si Si4 0.780115 0.360309 0.063722
Si Si5 0.611832 0.267502 0.339927
Si Si6 0.534054 0.971187 0.415583
O O1 0.752350 0.750000 0.500000
O O2 0.798992 0.583597 0.611477
O O3 0.725901 0.475612 0.488002
O O4 0.624855 0.626433 0.578639
O O5 0.087476 0.998144 0.250000
O O6 0.142683 0.941210 0.110732
O O7 0.971464 0.980909 0.144582
O O8 0.088422 0.207569 0.151619
O O9 0.136321 0.098367 0.750000
O O10 0.708362 0.289351 0.120681
O O11 0.817337 0.250000 0.000000
O O12 0.618333 0.263906 0.250000
O O13 0.567844 0.119314 0.374352
O O14 0.544806 0.396318 0.368396
O O15 0.500000 0.000000 0.500000
#
# Coordination Sequence:
#
# PCOD9440645 Si02
#       6
#     8   8   8   8   8   8
#     4  12  24  43  68  97 130 172 222 268 330 394
#     4  10  23  44  67  93 134 177 218 274 335 397
#     4  10  24  43  65  97 132 173 221 272 333 395
#     4  12  24  44  65  96 130 175 222 271 332 394
#     4  12  26  44  67 100 132 173 225 273 331 398
#     4  12  24  46  69  96 134 175 219 275 335 400
#
# _framework density 19.753086
#
# number of rings (size 3 to 8) (size 9 to 14) (size 15 to 20)
#    0.000    0.667    5.000    2.500    2.333    2.667 
#    0.000    0.000    0.000    0.000    0.000    0.000 
#    0.000    0.000    0.000    0.000    0.000    0.000 
#
# Total GULP energy -268401.780935 kJ/mol
# GULP energy per Si atom -5591.703769 kJ/mol
# Density = 1.970813 g / cm^3
# Si number density = 19.753086 Si / 1000 Ang^3
#
#
#
# Elastic Constant Matrix: (Units=GPa)
#
#
# Indices 1 2 3 4 5 6 
#
# 1 121.6115 -0.1213 59.8700 0.0000 0.0000 0.0000
# 2 -0.1213 43.3004 32.4993 0.0000 0.0000 0.0000
# 3 59.8700 32.4993 149.8872 0.0000 0.0000 0.0000
# 4 0.0000 0.0000 0.0000 35.8347 0.0000 0.0000
# 5 0.0000 0.0000 0.0000 0.0000 40.5964 0.0000
# 6 0.0000 0.0000 0.0000 0.0000 0.0000 39.3103
#
#
#
# Elastic Compliance Matrix: (Units=1/GPa)
#
#
# Indices 1 2 3 4 5 6 
#
# 1 0.010757 0.003888 -0.005140 0.000000 0.000000 0.000000
# 2 0.003888 0.028988 -0.007838 0.000000 0.000000 0.000000
# 3 -0.005140 -0.007838 0.010424 0.000000 0.000000 0.000000
# 4 0.000000 0.000000 0.000000 0.027906 0.000000 0.000000
# 5 0.000000 0.000000 0.000000 0.000000 0.024633 0.000000
# 6 0.000000 0.000000 0.000000 0.000000 0.000000 0.025439
#
#
# Mechanical properties :
#
#
# Convention : Reuss Voigt Hill
#
# Bulk Modulus (GPa) = 31.26053 55.47724 43.36888
# Shear Modulus (GPa) = 31.84904 37.98504 34.91704
#
# Velocity S-wave (km/s) = 4.01977 4.38995 4.20893
# Velocity P-wave (km/s) = 6.11594 7.33770 6.75450
#
# Compressibility (1/GPa) = 0.03198922
#
# Stress axis : x y z
#
# Youngs Moduli (GPa) = 92.96186 34.49648 95.93049
#
# Poissons Ratio (x) = -0.13411 0.49306
# Poissons Ratio (y) = -0.36142 0.75194
# Poissons Ratio (z) = 0.47780 0.27040
#
# Static dielectric constant tensor:
#      x y z
#    x 1.660140 0.000000 0.000000 
#    y 0.000000 1.752890 0.000000 
#    z 0.000000 0.000000 1.656130 
# 
# From -- ./inp_files/22411.got.cif
#   From: 2010.05.17/outbox.ucp.g08.bks.cvg/sg57_12_cif.got.tgz:22411.got - 2010.06.11 16:39:23.
