data_PCOD9440591
_publ_section_title
;
Structure prediction by ZEFSAII (Michael W. Deem and Ramdas Pophale) SiO2 
 PCOD9440591
Probable space group: P B C M
;
_chemical_formula_sum "Si O2"
_cell_formula_units_Z 64
_cell_length_a 12.000000
_cell_length_b 30.000000
_cell_length_c 9.000000
_cell_angle_alpha 90.000000
_cell_angle_beta 90.000000
_cell_angle_gamma 90.000000
_cell_volume 3240.000000
_symmetry_space_group_name_H-M "P B C M"
_symmetry_group_IT_number 57
_symmetry_cell_setting 'orthorhombic'
loop_
_space_group_symop_operation_xyz
x,y,z
-x,-y,1/2+z
x,1/2-y,-z
-x,1/2+y,1/2-z
-x,-y,-z
x,y,1/2-z
-x,1/2+y,z
x,1/2-y,1/2+z
loop_
_atom_site_type_symbol
_atom_site_label
_atom_site_fract_x
_atom_site_fract_y
_atom_site_fract_z
Si Si1 0.220651 0.793378 0.924482
Si Si2 0.221741 0.547218 0.078006
Si Si3 0.006232 0.179404 0.925550
Si Si4 0.394064 0.382612 0.075414
Si Si5 0.744410 0.704907 0.927888
Si Si6 0.014273 0.087346 0.080328
Si Si7 0.341861 0.873197 0.078353
Si Si8 0.743289 0.957051 0.921280
O O1 0.216605 0.788441 0.750000
O O2 0.271603 0.750000 0.000000
O O3 0.096265 0.799555 0.987682
O O4 0.290747 0.835791 0.973597
O O5 0.248260 0.556758 0.250000
O O6 0.088757 0.553916 0.059767
O O7 0.283726 0.581434 0.971192
O O8 0.257606 0.498480 0.030810
O O9 0.993294 0.186881 0.750000
O O10 0.127347 0.196803 0.974196
O O11 0.003961 0.127118 0.964071
O O12 0.367880 0.391660 0.250000
O O13 0.329586 0.337579 0.032397
O O14 0.525789 0.376784 0.062553
O O15 0.347371 0.421632 0.973645
O O16 0.743325 0.708913 0.750000
O O17 0.701953 0.750000 0.000000
O O18 0.003889 0.105536 0.250000
O O19 0.134190 0.064903 0.067722
O O20 0.315180 0.862711 0.250000
O O21 0.726286 0.970550 0.750000
#
# Coordination Sequence:
#
# PCOD9440591 Si02
#       8
#     8   8   8   8   8   8   8   8
#     4  12  25  42  64  92 128 163 205 252 305 366
#     4  11  23  40  63  91 126 164 202 250 310 368
#     4  11  21  36  63  93 125 163 201 246 305 367
#     4  10  23  44  64  87 121 161 207 258 308 362
#     4  10  22  39  61  91 123 159 198 245 303 360
#     4  10  21  37  60  92 126 161 199 249 306 367
#     4  11  24  43  66  90 120 160 210 260 308 363
#     4  11  23  39  63  94 125 161 206 251 305 368
#
# _framework density 19.753086
#
# number of rings (size 3 to 8) (size 9 to 14) (size 15 to 20)
#    0.000    1.250    2.500    3.375    0.000    5.500 
#    0.000    1.250    0.000    0.000    0.000    0.000 
#    0.000    0.000    0.000    0.000    0.000    0.000 
#
# Total GULP energy -357734.079941 kJ/mol
# GULP energy per Si atom -5589.594999 kJ/mol
# Density = 1.970813 g / cm^3
# Si number density = 19.753086 Si / 1000 Ang^3
#
#
#
# Elastic Constant Matrix: (Units=GPa)
#
#
# Indices 1 2 3 4 5 6 
#
# 1 53.2489 1.2013 28.9263 0.0000 0.0000 0.0000
# 2 1.2013 52.3076 16.6081 0.0000 0.0000 0.0000
# 3 28.9263 16.6081 65.9198 0.0000 0.0000 0.0000
# 4 0.0000 0.0000 0.0000 33.5980 0.0000 0.0000
# 5 0.0000 0.0000 0.0000 0.0000 258.0782 0.0000
# 6 0.0000 0.0000 0.0000 0.0000 0.0000 -67.8499
#
#
#
# Elastic Compliance Matrix: (Units=1/GPa)
#
#
# Indices 1 2 3 4 5 6 
#
# 1 0.025135 0.003179 -0.011830 0.000000 0.000000 0.000000
# 2 0.003179 0.021182 -0.006732 0.000000 0.000000 0.000000
# 3 -0.011830 -0.006732 0.022057 0.000000 0.000000 0.000000
# 4 0.000000 0.000000 0.000000 0.029764 0.000000 0.000000
# 5 0.000000 0.000000 0.000000 0.000000 0.003875 0.000000
# 6 0.000000 0.000000 0.000000 0.000000 0.000000 -0.014738
#
#
# Mechanical properties :
#
#
# Convention : Reuss Voigt Hill
#
# Bulk Modulus (GPa) = 26.59015 29.43864 28.01440
# Shear Modulus (GPa) = 38.29198 53.08128 45.68663
#
# Velocity S-wave (km/s) = 4.40765 5.18948 4.81446
# Velocity P-wave (km/s) = 6.27644 7.13045 6.71703
#
# Compressibility (1/GPa) = 0.03760791
#
# Stress axis : x y z
#
# Youngs Moduli (GPa) = 39.78590 47.20980 45.33673
#
# Poissons Ratio (x) = -0.15008 0.53634
# Poissons Ratio (y) = -0.12648 0.30519
# Poissons Ratio (z) = 0.47068 0.31780
#
# Static dielectric constant tensor:
#      x y z
#    x 1.669450 0.000000 0.000000 
#    y 0.000000 1.796210 0.000000 
#    z 0.000000 0.000000 1.663170 
# 
# From -- ./inp_files/3895.got.cif
#   From: 2010.05.17/outbox.ucp.g08.bks.cvg/sg57_2_cif.got.tgz:3895.got - 2010.06.11 16:39:23.
