data_PCOD9440483
_publ_section_title
;
Structure prediction by ZEFSAII (Michael W. Deem and Ramdas Pophale) SiO2 
 PCOD9440483
Probable space group: P B C M
;
_chemical_formula_sum "Si O2"
_cell_formula_units_Z 48
_cell_length_a 15.000000
_cell_length_b 9.000000
_cell_length_c 18.000000
_cell_angle_alpha 90.000000
_cell_angle_beta 90.000000
_cell_angle_gamma 90.000000
_cell_volume 2430.000000
_symmetry_space_group_name_H-M "P B C M"
_symmetry_group_IT_number 57
_symmetry_cell_setting 'orthorhombic'
loop_
_space_group_symop_operation_xyz
x,y,z
-x,-y,1/2+z
x,1/2-y,-z
-x,1/2+y,1/2-z
-x,-y,-z
x,y,1/2-z
-x,1/2+y,z
x,1/2-y,1/2+z
loop_
_atom_site_type_symbol
_atom_site_label
_atom_site_fract_x
_atom_site_fract_y
_atom_site_fract_z
Si Si1 0.430859 0.670376 0.660667
Si Si2 0.764009 0.671734 0.917029
Si Si3 0.743671 0.143788 0.160893
Si Si4 0.948896 0.806970 0.586265
Si Si5 0.098334 0.876693 0.338716
Si Si6 0.605473 0.837156 0.660244
O O1 0.439085 0.655653 0.750000
O O2 0.354549 0.791047 0.648136
O O3 0.523792 0.735541 0.633096
O O4 0.406374 0.506295 0.633035
O O5 0.755850 0.495866 0.895585
O O6 0.862721 0.713131 0.892589
O O7 0.694189 0.760906 0.867783
O O8 0.755539 0.750000 0.000000
O O9 0.752407 0.101080 0.250000
O O10 0.808622 0.287217 0.149549
O O11 0.967574 0.750000 0.500000
O O12 0.028223 0.750092 0.637682
O O13 0.923146 0.978954 0.608211
O O14 0.092535 0.915533 0.250000
O O15 0.605156 0.839207 0.750000
#
# Coordination Sequence:
#
# PCOD9440483 Si02
#       6
#     8   8   8   8   8   8
#     4   9  18  34  59  89 115 148 194 243 302 362
#     4  11  24  40  57  84 119 160 203 242 295 360
#     4  10  21  39  63  90 120 154 197 253 309 357
#     4  11  24  42  61  87 126 168 202 241 304 373
#     4  11  23  40  67  98 123 154 204 259 302 351
#     4  10  19  35  60  86 116 154 198 248 298 355
#
# _framework density 19.753086
#
# number of rings (size 3 to 8) (size 9 to 14) (size 15 to 20)
#    0.000    1.667    0.000    4.500    0.000    9.333 
#    0.000    7.500    0.000    0.000    0.000    0.000 
#    0.000    0.000    0.000    0.000    0.000    0.000 
#
# Total GULP energy -267453.432861 kJ/mol
# GULP energy per Si atom -5571.946518 kJ/mol
# Density = 1.970813 g / cm^3
# Si number density = 19.753086 Si / 1000 Ang^3
#
#
#
# Elastic Constant Matrix: (Units=GPa)
#
#
# Indices 1 2 3 4 5 6 
#
# 1 21.0327 -52.4741 10.9284 0.0000 0.0000 0.0000
# 2 -52.4741 70.2641 22.0236 0.0000 0.0000 0.0000
# 3 10.9284 22.0236 50.8973 0.0000 0.0000 0.0000
# 4 0.0000 0.0000 0.0000 33.3896 0.0000 0.0000
# 5 0.0000 0.0000 0.0000 0.0000 18.9103 0.0000
# 6 0.0000 0.0000 0.0000 0.0000 0.0000 25.1301
#
#
#
# Elastic Compliance Matrix: (Units=1/GPa)
#
#
# Indices 1 2 3 4 5 6 
#
# 1 -0.028417 -0.026764 0.017683 0.000000 0.000000 0.000000
# 2 -0.026764 -0.008743 0.009530 0.000000 0.000000 0.000000
# 3 0.017683 0.009530 0.011727 0.000000 0.000000 0.000000
# 4 0.000000 0.000000 0.000000 0.029949 0.000000 0.000000
# 5 0.000000 0.000000 0.000000 0.000000 0.052881 0.000000
# 6 0.000000 0.000000 0.000000 0.000000 0.000000 0.039793
#
#
# Mechanical properties :
#
#
# Convention : Reuss Voigt Hill
#
# Bulk Modulus (GPa) = -40.75589 11.46111 -14.64739
# Shear Modulus (GPa) = 56.74339 26.26708 41.50524
#
# Velocity S-wave (km/s) = 5.36551 3.65056 4.58886
# Velocity P-wave (km/s) = 4.20803 4.85629 4.54373
#
# Compressibility (1/GPa) = -0.02453633
#
# Stress axis : x y z
#
# Youngs Moduli (GPa) = -35.19066 -114.37724 85.27302
#
# Poissons Ratio (x) = -3.06123 -1.50785
# Poissons Ratio (y) = -0.94186 -0.81264
# Poissons Ratio (z) = 0.62226 1.09000
#
# Static dielectric constant tensor:
#      x y z
#    x 1.702730 0.000000 0.000000 
#    y 0.000000 1.705130 0.000000 
#    z 0.000000 0.000000 1.716660 
# 
# From -- ./inp_files/22466.got.cif
#   From: 2010.05.17/outbox.ucp.g08.bks.cvg/sg57_12_cif.got.tgz:22466.got - 2010.06.11 16:39:23.
