data_PCOD9440378
_publ_section_title
;
Structure prediction by ZEFSAII (Michael W. Deem and Ramdas Pophale) SiO2 
 PCOD9440378
Probable space group: P B C M
;
_chemical_formula_sum "Si O2"
_cell_formula_units_Z 40
_cell_length_a 7.083304
_cell_length_b 12.907519
_cell_length_c 17.127170
_cell_angle_alpha 90.000000
_cell_angle_beta 90.000000
_cell_angle_gamma 90.000000
_cell_volume 1565.900860
_symmetry_space_group_name_H-M "P B C M"
_symmetry_group_IT_number 57
_symmetry_cell_setting 'orthorhombic'
loop_
_space_group_symop_operation_xyz
x,y,z
-x,-y,1/2+z
x,1/2-y,-z
-x,1/2+y,1/2-z
-x,-y,-z
x,y,1/2-z
-x,1/2+y,z
x,1/2-y,1/2+z
loop_
_atom_site_type_symbol
_atom_site_label
_atom_site_fract_x
_atom_site_fract_y
_atom_site_fract_z
Si Si1 0.292565 0.048163 0.580973
Si Si2 0.515088 0.251194 0.750000
Si Si3 0.258739 0.985970 0.076341
Si Si4 0.058490 0.816904 0.750000
Si Si5 0.603328 0.517407 0.750000
Si Si6 0.795960 0.485138 0.250000
Si Si7 0.786768 0.774285 0.617380
O O1 0.204113 0.971697 0.515627
O O2 0.275670 0.014773 0.671447
O O3 0.221808 0.166187 0.571151
O O4 0.520405 0.044729 0.574109
O O5 0.518640 0.125328 0.750000
O O6 0.398032 0.268162 0.828261
O O7 0.717831 0.304845 0.750000
O O8 0.184587 0.941697 0.159759
O O9 0.227341 0.109842 0.084490
O O10 0.955559 0.926854 0.750000
O O11 0.968644 0.765988 0.673097
O O12 0.408905 0.452657 0.750000
#
# Coordination Sequence:
#
# PCOD9440378 Si02
#       7
#     8   4   8   4   4   4   8
#     4   9  16  27  47  72  95 123 157 191 231 277
#     4   9  17  30  48  71  95 121 157 194 231 278
#     4   9  16  27  47  72  95 123 157 191 231 277
#     4   9  17  30  48  71  95 121 157 194 231 278
#     4   8  15  28  45  67  95 123 153 191 232 276
#     4   8  15  28  45  67  95 123 153 191 232 276
#     4   9  17  30  48  69  95 124 155 193 232 275
#
# _framework density 25.544398999999999
#
# number of rings (size 3 to 8) (size 9 to 14) (size 15 to 20)
#    0.000    3.200    0.000    1.800    0.000    0.000 
#    0.000    2.000    0.000   19.200    0.000   25.200 
#    0.000    0.000    0.000    0.000    0.000    0.000 
#
# Total GULP energy -222731.087654 kJ/mol
# GULP energy per Si atom -5568.277191 kJ/mol
# Density = 2.548626 g / cm^3
# Si number density = 25.544399 Si / 1000 Ang^3
#
#
#
# Elastic Constant Matrix: (Units=GPa)
#
#
# Indices 1 2 3 4 5 6 
#
# 1 223.5689 93.1838 152.9758 0.0000 0.0000 0.0000
# 2 93.1838 129.7985 180.0808 0.0000 0.0000 0.0000
# 3 152.9758 180.0808 404.4214 0.0000 0.0000 0.0000
# 4 0.0000 0.0000 0.0000 18.4768 0.0000 0.0000
# 5 0.0000 0.0000 0.0000 0.0000 -17.0795 0.0000
# 6 0.0000 0.0000 0.0000 0.0000 0.0000 19.3868
#
#
#
# Elastic Compliance Matrix: (Units=1/GPa)
#
#
# Indices 1 2 3 4 5 6 
#
# 1 0.006534 -0.003301 -0.001002 0.000000 0.000000 0.000000
# 2 -0.003301 0.021824 -0.008469 0.000000 0.000000 0.000000
# 3 -0.001002 -0.008469 0.006623 0.000000 0.000000 0.000000
# 4 0.000000 0.000000 0.000000 0.054122 0.000000 0.000000
# 5 0.000000 0.000000 0.000000 0.000000 -0.058550 0.000000
# 6 0.000000 0.000000 0.000000 0.000000 0.000000 0.051582
#
#
# Mechanical properties :
#
#
# Convention : Reuss Voigt Hill
#
# Bulk Modulus (GPa) = 105.96631 178.91883 142.44257
# Shear Modulus (GPa) = 45.11610 26.26005 35.68807
#
# Velocity S-wave (km/s) = 4.20716 3.20975 3.74183
# Velocity P-wave (km/s) = 8.07301 9.16139 8.63436
#
# Compressibility (1/GPa) = 0.00943696
#
# Stress axis : x y z
#
# Youngs Moduli (GPa) = 153.03942 45.82019 150.99642
#
# Poissons Ratio (x) = 0.15127 0.15123
# Poissons Ratio (y) = 0.50525 1.27882
# Poissons Ratio (z) = 0.15328 0.38806
#
# Static dielectric constant tensor:
#      x y z
#    x 2.099380 0.000000 0.000000 
#    y 0.000000 2.343200 0.000000 
#    z 0.000000 0.000000 2.291840 
# 
# From -- ./inp_files/20063.got.cif
#   From: 2010.05.17/outbox.cif.g08.bks.cpg/sg57_11_cif.got.tgz:20063.got - 2010.06.03 13:58:18.
