data_PCOD9440551
_publ_section_title
;
Structure prediction by ZEFSAII (Michael W. Deem and Ramdas Pophale) SiO2 
 PCOD9440551
Probable space group: P B C M
;
_chemical_formula_sum "Si O2"
_cell_formula_units_Z 56
_cell_length_a 9.000000
_cell_length_b 21.000000
_cell_length_c 15.000000
_cell_angle_alpha 90.000000
_cell_angle_beta 90.000000
_cell_angle_gamma 90.000000
_cell_volume 2835.000000
_symmetry_space_group_name_H-M "P B C M"
_symmetry_group_IT_number 57
_symmetry_cell_setting 'orthorhombic'
loop_
_space_group_symop_operation_xyz
x,y,z
-x,-y,1/2+z
x,1/2-y,-z
-x,1/2+y,1/2-z
-x,-y,-z
x,y,1/2-z
-x,1/2+y,z
x,1/2-y,1/2+z
loop_
_atom_site_type_symbol
_atom_site_label
_atom_site_fract_x
_atom_site_fract_y
_atom_site_fract_z
Si Si1 0.820347 0.896641 0.953873
Si Si2 0.082797 0.133293 0.853496
Si Si3 0.581946 0.372154 0.351035
Si Si4 0.678371 0.232607 0.347688
Si Si5 0.021366 0.215808 0.351564
Si Si6 0.567049 0.817971 0.520308
Si Si7 0.823432 0.472482 0.146837
O O1 0.659167 0.869953 0.926057
O O2 0.921487 0.839569 0.915783
O O3 0.852660 0.966445 0.915113
O O4 0.827723 0.892678 0.061162
O O5 0.138096 0.128501 0.750000
O O6 0.055639 0.209199 0.869725
O O7 0.940933 0.085688 0.857477
O O8 0.522959 0.377209 0.250000
O O9 0.687465 0.309476 0.351183
O O10 0.471165 0.350547 0.427059
O O11 0.668660 0.436547 0.373473
O O12 0.613588 0.217385 0.250000
O O13 0.844325 0.208842 0.353425
O O14 0.576124 0.203881 0.424071
O O15 0.075012 0.203905 0.250000
O O16 0.647349 0.750000 0.500000
O O17 0.821173 0.494210 0.250000
#
# Coordination Sequence:
#
# PCOD9440551 Si02
#       7
#     8   8   8   8   8   8   8
#     4  12  24  36  57  91 127 154 178 235 308 352
#     4  10  21  38  60  84 114 154 202 240 276 339
#     4   9  18  36  62  82 106 152 205 242 272 332
#     4   9  18  35  60  86 112 147 197 247 281 326
#     4  10  20  36  61  90 115 149 197 243 284 334
#     4  10  22  36  55  87 119 148 188 235 292 346
#     4  10  21  39  60  83 111 152 200 241 288 343
#
# _framework density 19.753086
#
# number of rings (size 3 to 8) (size 9 to 14) (size 15 to 20)
#    0.000    2.000    1.429    2.143    2.000    3.429 
#    0.000    2.857    0.000    0.000    0.000    0.000 
#    0.000    0.000    0.000    0.000    0.000    0.000 
#
# Total GULP energy -311773.123399 kJ/mol
# GULP energy per Si atom -5567.377204 kJ/mol
# Density = 1.970813 g / cm^3
# Si number density = 19.753086 Si / 1000 Ang^3
#
#
#
# Elastic Constant Matrix: (Units=GPa)
#
#
# Indices 1 2 3 4 5 6 
#
# 1 42.7144 37.2511 38.7166 0.0000 0.0000 0.0000
# 2 37.2511 115.0055 59.7675 0.0000 0.0000 0.0000
# 3 38.7166 59.7675 104.1546 0.0000 0.0000 0.0000
# 4 0.0000 0.0000 0.0000 28.2450 0.0000 0.0000
# 5 0.0000 0.0000 0.0000 0.0000 12.5555 0.0000
# 6 0.0000 0.0000 0.0000 0.0000 0.0000 14.0824
#
#
#
# Elastic Compliance Matrix: (Units=1/GPa)
#
#
# Indices 1 2 3 4 5 6 
#
# 1 0.039182 -0.007299 -0.010377 0.000000 0.000000 0.000000
# 2 -0.007299 0.013750 -0.005177 0.000000 0.000000 0.000000
# 3 -0.010377 -0.005177 0.016429 0.000000 0.000000 0.000000
# 4 0.000000 0.000000 0.000000 0.035404 0.000000 0.000000
# 5 0.000000 0.000000 0.000000 0.000000 0.079646 0.000000
# 6 0.000000 0.000000 0.000000 0.000000 0.000000 0.071010
#
#
# Mechanical properties :
#
#
# Convention : Reuss Voigt Hill
#
# Bulk Modulus (GPa) = 42.27221 59.26054 50.76637
# Shear Modulus (GPa) = 16.18062 19.38589 17.78326
#
# Velocity S-wave (km/s) = 2.86517 3.13615 3.00372
# Velocity P-wave (km/s) = 5.69143 6.57112 6.14703
#
# Compressibility (1/GPa) = 0.02365621
#
# Stress axis : x y z
#
# Youngs Moduli (GPa) = 25.52208 72.72845 60.86787
#
# Poissons Ratio (x) = 0.53082 0.63160
# Poissons Ratio (y) = 0.18628 0.31511
# Poissons Ratio (z) = 0.26483 0.37652
#
# Static dielectric constant tensor:
#      x y z
#    x 1.771640 0.000000 0.000000 
#    y 0.000000 1.664270 0.000000 
#    z 0.000000 0.000000 1.826150 
# 
# From -- ./inp_files/16714.got.cif
#   From: 2010.05.17/outbox.ucp.g08.bks.cvg/sg57_9_cif.got.tgz:16714.got - 2010.06.11 16:39:23.
