data_PCOD9440684
_publ_section_title
;
Structure prediction by ZEFSAII (Michael W. Deem and Ramdas Pophale) SiO2 
 PCOD9440684
Probable space group: P N N M
;
_chemical_formula_sum "Si O2"
_cell_formula_units_Z 56
_cell_length_a 14.930253
_cell_length_b 11.602961
_cell_length_c 14.119000
_cell_angle_alpha 90.000000
_cell_angle_beta 90.000000
_cell_angle_gamma 90.000000
_cell_volume 2445.906988
_symmetry_space_group_name_H-M "P N N M"
_symmetry_group_IT_number 58
_symmetry_cell_setting 'orthorhombic'
loop_
_space_group_symop_operation_xyz
x,y,z
-x,-y,z
1/2+x,1/2-y,1/2-z
1/2-x,1/2+y,1/2-z
-x,-y,-z
x,y,-z
1/2-x,1/2+y,1/2+z
1/2+x,1/2-y,1/2+z
loop_
_atom_site_type_symbol
_atom_site_label
_atom_site_fract_x
_atom_site_fract_y
_atom_site_fract_z
Si Si1 0.472957 0.751723 0.110291
Si Si2 0.619286 0.939354 0.313408
Si Si3 0.225469 0.233834 0.889170
Si Si4 0.120720 0.547391 0.605214
Si Si5 0.447458 0.833425 0.608370
Si Si6 0.701372 0.343094 0.888429
Si Si7 0.627218 0.594262 0.885408
O O1 0.535524 0.864770 0.107360
O O2 0.369664 0.754543 0.141624
O O3 0.537039 0.652527 0.152752
O O4 0.460492 0.718340 0.000000
O O5 0.617425 0.000489 0.211098
O O6 0.534091 0.855993 0.327807
O O7 0.707854 0.864947 0.331304
O O8 0.605754 0.044030 0.386858
O O9 0.286805 0.120877 0.890388
O O10 0.123278 0.238258 0.855666
O O11 0.288868 0.332751 0.846558
O O12 0.212922 0.264084 0.000000
O O13 0.119279 0.490684 0.500000
O O14 0.476406 0.811765 0.500000
O O15 0.645402 0.460911 0.872994
O O16 0.725781 0.332457 0.000000
O O17 0.625641 0.612882 0.000000
#
# Coordination Sequence:
#
# PCOD9440684 Si02
#       7
#     8   8   8   8   8   8   8
#     4   8  15  26  42  62  91 123 144 175 229 277
#     4  11  20  28  45  69  95 125 155 191 228 270
#     4   8  14  28  49  64  88 123 150 182 224 273
#     4   9  19  34  46  63  90 125 163 193 224 267
#     4  10  19  33  49  71  98 123 151 185 234 286
#     4  10  16  24  41  69  96 113 138 183 235 281
#     4   8  12  21  39  65  91 115 136 166 221 281
#
# _framework density 22.895392000000001
#
# number of rings (size 3 to 8) (size 9 to 14) (size 15 to 20)
#    0.000    2.857    1.429    3.857    0.000    2.857 
#    0.000    1.429    0.000    0.000    0.000    3.000 
#    0.000    2.286    0.000    0.286    0.000    0.000 
#
# Total GULP energy -312077.141961 kJ/mol
# GULP energy per Si atom -5572.806106 kJ/mol
# Density = 2.284328 g / cm^3
# Si number density = 22.895392 Si / 1000 Ang^3
#
#
#
# Elastic Constant Matrix: (Units=GPa)
#
#
# Indices 1 2 3 4 5 6 
#
# 1 161.3956 28.3542 23.2548 0.0000 0.0000 0.0000
# 2 28.3542 32.8972 10.8963 0.0000 0.0000 0.0000
# 3 23.2548 10.8963 121.4812 0.0000 0.0000 0.0000
# 4 0.0000 0.0000 0.0000 12.6321 0.0000 0.0000
# 5 0.0000 0.0000 0.0000 0.0000 0.6660 0.0000
# 6 0.0000 0.0000 0.0000 0.0000 0.0000 16.7344
#
#
#
# Elastic Compliance Matrix: (Units=1/GPa)
#
#
# Indices 1 2 3 4 5 6 
#
# 1 0.007390 -0.006081 -0.000869 0.000000 0.000000 0.000000
# 2 -0.006081 0.036333 -0.002095 0.000000 0.000000 0.000000
# 3 -0.000869 -0.002095 0.008586 0.000000 0.000000 0.000000
# 4 0.000000 0.000000 0.000000 0.079163 0.000000 0.000000
# 5 0.000000 0.000000 0.000000 0.000000 1.501557 0.000000
# 6 0.000000 0.000000 0.000000 0.000000 0.000000 0.059757
#
#
# Mechanical properties :
#
#
# Convention : Reuss Voigt Hill
#
# Bulk Modulus (GPa) = 29.22416 48.97607 39.10012
# Shear Modulus (GPa) = 2.90312 22.89108 12.89710
#
# Velocity S-wave (km/s) = 1.12727 3.16541 2.37598
# Velocity P-wave (km/s) = 3.80608 5.89894 4.96406
#
# Compressibility (1/GPa) = 0.03421826
#
# Stress axis : x y z
#
# Youngs Moduli (GPa) = 135.32662 27.52327 116.46880
#
# Poissons Ratio (x) = 0.16737 0.10122
# Poissons Ratio (y) = 0.82294 0.24398
# Poissons Ratio (z) = 0.11761 0.05766
#
# Static dielectric constant tensor:
#      x y z
#    x 1.931080 0.000000 0.000000 
#    y 0.000000 1.888900 0.000000 
#    z 0.000000 0.000000 1.879090 
# 
# From -- ./inp_files/22411.got.cif
#   From: 2010.05.17/outbox.cif.g08.bks.cpg/sg58_12_cif.got.tgz:22411.got - 2010.06.03 14:20:14.
