data_PCOD9440579
_publ_section_title
;
Structure prediction by ZEFSAII (Michael W. Deem and Ramdas Pophale) SiO2 
 PCOD9440579
Probable space group: P B C M
;
_chemical_formula_sum "Si O2"
_cell_formula_units_Z 64
_cell_length_a 24.000000
_cell_length_b 15.000000
_cell_length_c 9.000000
_cell_angle_alpha 90.000000
_cell_angle_beta 90.000000
_cell_angle_gamma 90.000000
_cell_volume 3240.000000
_symmetry_space_group_name_H-M "P B C M"
_symmetry_group_IT_number 57
_symmetry_cell_setting 'orthorhombic'
loop_
_space_group_symop_operation_xyz
x,y,z
-x,-y,1/2+z
x,1/2-y,-z
-x,1/2+y,1/2-z
-x,-y,-z
x,y,1/2-z
-x,1/2+y,z
x,1/2-y,1/2+z
loop_
_atom_site_type_symbol
_atom_site_label
_atom_site_fract_x
_atom_site_fract_y
_atom_site_fract_z
Si Si1 0.025723 0.149639 0.428476
Si Si2 0.194474 0.976254 0.427243
Si Si3 0.700382 0.151483 0.571846
Si Si4 0.080952 0.976611 0.573085
Si Si5 0.762859 0.652603 0.573343
Si Si6 0.473162 0.416529 0.923153
Si Si7 0.365561 0.345745 0.424628
Si Si8 0.407103 0.656450 0.424728
O O1 0.028891 0.250000 0.500000
O O2 0.034983 0.156972 0.250000
O O3 0.966333 0.099000 0.452797
O O4 0.065949 0.072972 0.498883
O O5 0.188298 0.981238 0.250000
O O6 0.203710 0.074791 0.493827
O O7 0.247263 0.912719 0.459292
O O8 0.138251 0.942439 0.503203
O O9 0.711276 0.250000 0.500000
O O10 0.694010 0.161630 0.750000
O O11 0.643537 0.105121 0.506735
O O12 0.085299 0.989949 0.750000
O O13 0.770942 0.750000 0.500000
O O14 0.773973 0.657546 0.750000
O O15 0.697846 0.625380 0.552874
O O16 0.462475 0.428272 0.750000
O O17 0.526309 0.352361 0.940690
O O18 0.500000 0.500000 0.000000
O O19 0.415728 0.398670 0.003636
O O20 0.369547 0.250000 0.500000
O O21 0.375641 0.338730 0.250000
O O22 0.396457 0.750000 0.500000
O O23 0.395997 0.650261 0.250000
#
# Coordination Sequence:
#
# PCOD9440579 Si02
#       8
#     8   8   8   8   8   8   8   8
#     4  10  21  39  65  95 129 167 206 250 297 348
#     4  11  24  40  61  90 124 161 203 251 301 351
#     4  10  22  39  60  86 115 154 198 246 299 356
#     4  10  22  40  62  92 127 165 208 250 297 348
#     4  10  22  40  62  87 117 154 199 248 301 362
#     4  11  24  37  53  80 110 142 182 234 291 356
#     4  10  21  38  59  82 108 143 185 233 293 357
#     4  10  21  37  57  79 105 140 183 232 289 351
#
# _framework density 19.753086
#
# number of rings (size 3 to 8) (size 9 to 14) (size 15 to 20)
#    0.000    1.750    0.000    4.125    1.750    9.000 
#    0.000    5.000    0.000    0.000    0.000    0.000 
#    0.000    0.000    0.000    0.000    0.000    0.000 
#
# Total GULP energy -356673.937664 kJ/mol
# GULP energy per Si atom -5573.030276 kJ/mol
# Density = 1.970813 g / cm^3
# Si number density = 19.753086 Si / 1000 Ang^3
#
#
#
# Elastic Constant Matrix: (Units=GPa)
#
#
# Indices 1 2 3 4 5 6 
#
# 1 21.7003 2.7170 48.3715 0.0000 0.0000 0.0000
# 2 2.7170 55.6364 33.4780 0.0000 0.0000 0.0000
# 3 48.3715 33.4780 59.6448 0.0000 0.0000 0.0000
# 4 0.0000 0.0000 0.0000 27.3328 0.0000 0.0000
# 5 0.0000 0.0000 0.0000 0.0000 34.7205 0.0000
# 6 0.0000 0.0000 0.0000 0.0000 0.0000 18.2627
#
#
#
# Elastic Compliance Matrix: (Units=1/GPa)
#
#
# Indices 1 2 3 4 5 6 
#
# 1 -0.029646 -0.019659 0.035077 0.000000 0.000000 0.000000
# 2 -0.019659 0.014104 0.008027 0.000000 0.000000 0.000000
# 3 0.035077 0.008027 -0.016187 0.000000 0.000000 0.000000
# 4 0.000000 0.000000 0.000000 0.036586 0.000000 0.000000
# 5 0.000000 0.000000 0.000000 0.000000 0.028801 0.000000
# 6 0.000000 0.000000 0.000000 0.000000 0.000000 0.054756
#
#
# Mechanical properties :
#
#
# Convention : Reuss Voigt Hill
#
# Bulk Modulus (GPa) = 65.95845 34.01272 49.98558
# Shear Modulus (GPa) = 107.34804 19.55753 63.45278
#
# Velocity S-wave (km/s) = 7.37990 3.15000 5.67386
# Velocity P-wave (km/s) = 10.29957 5.52144 8.26340
#
# Compressibility (1/GPa) = 0.01516106
#
# Stress axis : x y z
#
# Youngs Moduli (GPa) = -33.73132 70.90364 -61.77745
#
# Poissons Ratio (x) = 1.39391 2.16699
# Poissons Ratio (y) = -0.66313 0.49591
# Poissons Ratio (z) = 1.18320 -0.56916
#
# Static dielectric constant tensor:
#      x y z
#    x 1.608050 0.000000 0.000000 
#    y 0.000000 1.661250 0.000000 
#    z 0.000000 0.000000 1.654380 
# 
# From -- ./inp_files/9512.got.cif
#   From: 2010.05.17/outbox.ucp.g08.bks.cvg/sg57_5_cif.got.tgz:9512.got - 2010.06.11 16:39:23.
