data_PCOD9440729
_publ_section_title
;
Structure prediction by ZEFSAII (Michael W. Deem and Ramdas Pophale) SiO2 
 PCOD9440729
Probable space group: P N N M
;
_chemical_formula_sum "Si O2"
_cell_formula_units_Z 64
_cell_length_a 12.492429
_cell_length_b 25.080122
_cell_length_c 9.155731
_cell_angle_alpha 90.000000
_cell_angle_beta 90.000000
_cell_angle_gamma 90.000000
_cell_volume 2868.597126
_symmetry_space_group_name_H-M "P N N M"
_symmetry_group_IT_number 58
_symmetry_cell_setting 'orthorhombic'
loop_
_space_group_symop_operation_xyz
x,y,z
-x,-y,z
1/2+x,1/2-y,1/2-z
1/2-x,1/2+y,1/2-z
-x,-y,-z
x,y,-z
1/2-x,1/2+y,1/2+z
1/2+x,1/2-y,1/2+z
loop_
_atom_site_type_symbol
_atom_site_label
_atom_site_fract_x
_atom_site_fract_y
_atom_site_fract_z
Si Si1 0.965576 0.555640 0.335974
Si Si2 0.528421 0.578387 0.323444
Si Si3 0.116577 0.173140 0.834634
Si Si4 0.745223 0.236664 0.823608
Si Si5 0.350768 0.856696 0.324910
Si Si6 0.690444 0.904188 0.762717
Si Si7 0.655709 0.494957 0.825603
Si Si8 0.928396 0.307289 0.838260
O O1 0.922824 0.547596 0.500000
O O2 0.879968 0.585975 0.238229
O O3 0.000000 0.500000 0.267617
O O4 0.080784 0.584779 0.347981
O O5 0.528547 0.570958 0.500000
O O6 0.490078 0.639242 0.295783
O O7 0.762990 0.678182 0.255606
O O8 0.435596 0.543394 0.244811
O O9 0.154473 0.221356 0.731894
O O10 0.212341 0.128742 0.834886
O O11 0.106727 0.193180 0.000000
O O12 0.854897 0.263418 0.765260
O O13 0.743449 0.234819 0.000000
O O14 0.340058 0.857543 0.500000
O O15 0.458486 0.824250 0.277523
O O16 0.134777 0.948013 0.246991
O O17 0.738269 0.960082 0.706795
O O18 0.644752 0.860303 0.650862
O O19 0.642924 0.500575 0.000000
O O20 0.950981 0.287571 0.000000
#
# Coordination Sequence:
#
# PCOD9440729 Si02
#       8
#     8   8   8   8   8   8   8   8
#     4  10  21  37  58  82 107 136 176 222 270 322
#     4   9  17  27  40  63  98 136 172 210 257 310
#     4   9  17  29  47  73 104 137 174 215 260 312
#     4  10  19  32  54  81 108 138 174 218 266 317
#     4  10  20  36  58  83 112 144 179 220 270 324
#     4   9  17  29  49  76 104 132 171 220 267 310
#     4  10  17  25  42  66  95 132 173 215 258 307
#     4   8  16  31  51  77 106 136 172 214 263 317
#
# _framework density 22.310555000000001
#
# number of rings (size 3 to 8) (size 9 to 14) (size 15 to 20)
#    0.000    2.625    0.000    3.000    0.000    5.750 
#    0.000    1.875    2.750    0.000    0.000    0.000 
#    0.000    0.000    0.000    0.000    0.000    0.000 
#
# Total GULP energy -356356.268110 kJ/mol
# GULP energy per Si atom -5568.066689 kJ/mol
# Density = 2.225978 g / cm^3
# Si number density = 22.310555 Si / 1000 Ang^3
#
#
#
# Elastic Constant Matrix: (Units=GPa)
#
#
# Indices 1 2 3 4 5 6 
#
# 1 46.6843 0.8891 -1.2950 0.0000 0.0000 0.0000
# 2 0.8891 70.0486 17.2863 0.0000 0.0000 0.0000
# 3 -1.2950 17.2863 86.0853 0.0000 0.0000 0.0000
# 4 0.0000 0.0000 0.0000 19.8918 0.0000 0.0000
# 5 0.0000 0.0000 0.0000 0.0000 20.1620 0.0000
# 6 0.0000 0.0000 0.0000 0.0000 0.0000 31.2037
#
#
#
# Elastic Compliance Matrix: (Units=1/GPa)
#
#
# Indices 1 2 3 4 5 6 
#
# 1 0.021439 -0.000370 0.000397 0.000000 0.000000 0.000000
# 2 -0.000370 0.015027 -0.003023 0.000000 0.000000 0.000000
# 3 0.000397 -0.003023 0.012229 0.000000 0.000000 0.000000
# 4 0.000000 0.000000 0.000000 0.050272 0.000000 0.000000
# 5 0.000000 0.000000 0.000000 0.000000 0.049598 0.000000
# 6 0.000000 0.000000 0.000000 0.000000 0.000000 0.032048
#
#
# Mechanical properties :
#
#
# Convention : Reuss Voigt Hill
#
# Bulk Modulus (GPa) = 23.41808 26.28655 24.85231
# Shear Modulus (GPa) = 24.89564 26.64736 25.77150
#
# Velocity S-wave (km/s) = 3.34409 3.45973 3.40240
# Velocity P-wave (km/s) = 5.04279 5.26948 5.15738
#
# Compressibility (1/GPa) = 0.04270206
#
# Stress axis : x y z
#
# Youngs Moduli (GPa) = 46.64501 66.54908 81.77026
#
# Poissons Ratio (x) = 0.02463 -0.03245
# Poissons Ratio (y) = 0.01726 0.24719
# Poissons Ratio (z) = -0.01851 0.20118
#
# Static dielectric constant tensor:
#      x y z
#    x 1.910680 0.000000 0.000000 
#    y 0.000000 1.893870 0.000000 
#    z 0.000000 0.000000 1.779840 
# 
# From -- ./inp_files/14934.got.cif
#   From: 2010.05.17/outbox.cif.g08.bks.cpg/sg58_8_cif.got.tgz:14934.got - 2010.06.03 14:20:14.
