data_PCOD9440780
_publ_section_title
;
Structure prediction by ZEFSAII (Michael W. Deem and Ramdas Pophale) SiO2 
 PCOD9440780
Probable space group: P N N M
;
_chemical_formula_sum "Si O2"
_cell_formula_units_Z 48
_cell_length_a 14.545949
_cell_length_b 8.097430
_cell_length_c 18.656445
_cell_angle_alpha 90.000000
_cell_angle_beta 90.000000
_cell_angle_gamma 90.000000
_cell_volume 2197.445714
_symmetry_space_group_name_H-M "P N N M"
_symmetry_group_IT_number 58
_symmetry_cell_setting 'orthorhombic'
loop_
_space_group_symop_operation_xyz
x,y,z
-x,-y,z
1/2+x,1/2-y,1/2-z
1/2-x,1/2+y,1/2-z
-x,-y,-z
x,y,-z
1/2-x,1/2+y,1/2+z
1/2+x,1/2-y,1/2+z
loop_
_atom_site_type_symbol
_atom_site_label
_atom_site_fract_x
_atom_site_fract_y
_atom_site_fract_z
Si Si1 0.570139 0.141547 0.865701
Si Si2 0.630713 0.020735 0.275369
Si Si3 0.346125 0.136746 0.581478
Si Si4 0.206965 0.761319 0.680627
Si Si5 0.368949 0.518814 0.918822
Si Si6 0.270888 0.485508 0.584633
O O1 0.568581 0.329925 0.891911
O O2 0.500000 0.000000 0.891458
O O3 0.570488 0.130525 0.778637
O O4 0.669325 0.079804 0.894556
O O5 0.606596 0.970427 0.356350
O O6 0.650746 0.851771 0.234036
O O7 0.728985 0.112049 0.277793
O O8 0.379983 0.113223 0.500000
O O9 0.238252 0.081136 0.581946
O O10 0.340438 0.333271 0.598064
O O11 0.275955 0.649519 0.632395
O O12 0.136787 0.859542 0.630754
O O13 0.391811 0.476569 0.000000
O O14 0.274331 0.522787 0.500000
#
# Coordination Sequence:
#
# PCOD9440780 Si02
#       6
#     8   8   8   8   8   8
#     4  10  20  32  46  65  95 137 173 192 225 279
#     4  10  18  29  46  67  93 121 157 201 243 288
#     4   8  15  28  46  68  90 114 146 191 248 290
#     4  10  17  28  47  71  94 120 153 199 252 285
#     4   9  17  29  46  68  94 122 154 192 231 277
#     4   9  17  29  47  72  97 120 153 197 242 292
#
# _framework density 21.843541999999999
#
# number of rings (size 3 to 8) (size 9 to 14) (size 15 to 20)
#    0.000    2.667    0.000    6.000    0.000    2.000 
#    0.000    3.333    0.000    5.500    0.000    0.000 
#    0.000    4.000    0.000    0.167    0.000    0.000 
#
# Total GULP energy -267802.722196 kJ/mol
# GULP energy per Si atom -5579.223379 kJ/mol
# Density = 2.179383 g / cm^3
# Si number density = 21.843542 Si / 1000 Ang^3
#
#
#
# Elastic Constant Matrix: (Units=GPa)
#
#
# Indices 1 2 3 4 5 6 
#
# 1 42.1576 6.5705 8.7825 0.0000 0.0000 0.0000
# 2 6.5705 69.9673 26.0924 0.0000 0.0000 0.0000
# 3 8.7825 26.0924 98.2505 0.0000 0.0000 0.0000
# 4 0.0000 0.0000 0.0000 -52.2035 0.0000 0.0000
# 5 0.0000 0.0000 0.0000 0.0000 0.8539 0.0000
# 6 0.0000 0.0000 0.0000 0.0000 0.0000 9.3240
#
#
#
# Elastic Compliance Matrix: (Units=1/GPa)
#
#
# Indices 1 2 3 4 5 6 
#
# 1 0.024338 -0.001636 -0.001741 0.000000 0.000000 0.000000
# 2 -0.001636 0.015973 -0.004096 0.000000 0.000000 0.000000
# 3 -0.001741 -0.004096 0.011421 0.000000 0.000000 0.000000
# 4 0.000000 0.000000 0.000000 -0.019156 0.000000 0.000000
# 5 0.000000 0.000000 0.000000 0.000000 1.171084 0.000000
# 6 0.000000 0.000000 0.000000 0.000000 0.000000 0.107251
#
#
# Mechanical properties :
#
#
# Convention : Reuss Voigt Hill
#
# Bulk Modulus (GPa) = 27.18362 32.58515 29.88439
# Shear Modulus (GPa) = 3.73659 2.85687 3.29673
#
# Velocity S-wave (km/s) = 1.30932 1.14487 1.22985
# Velocity P-wave (km/s) = 3.84155 4.08626 3.96579
#
# Compressibility (1/GPa) = 0.03678686
#
# Stress axis : x y z
#
# Youngs Moduli (GPa) = 41.08760 62.60380 87.55474
#
# Poissons Ratio (x) = 0.10244 0.15243
# Poissons Ratio (y) = 0.06723 0.35861
# Poissons Ratio (z) = 0.07153 0.25641
#
# Static dielectric constant tensor:
#      x y z
#    x 1.834800 0.000000 0.000000 
#    y 0.000000 1.845000 0.000000 
#    z 0.000000 0.000000 1.820110 
# 
# From -- ./inp_files/27223.got.cif
#   From: 2010.05.17/outbox.cif.g08.bks.cpg/sg58_14_cif.got.tgz:27223.got - 2010.06.03 14:20:14.
