data_PCOD9440382
_publ_section_title
;
Structure prediction by ZEFSAII (Michael W. Deem and Ramdas Pophale) SiO2 
 PCOD9440382
Probable space group: P B C M
;
_chemical_formula_sum "Si O2"
_cell_formula_units_Z 48
_cell_length_a 14.641743
_cell_length_b 8.494662
_cell_length_c 14.367869
_cell_angle_alpha 90.000000
_cell_angle_beta 90.000000
_cell_angle_gamma 90.000000
_cell_volume 1787.027527
_symmetry_space_group_name_H-M "P B C M"
_symmetry_group_IT_number 57
_symmetry_cell_setting 'orthorhombic'
loop_
_space_group_symop_operation_xyz
x,y,z
-x,-y,1/2+z
x,1/2-y,-z
-x,1/2+y,1/2-z
-x,-y,-z
x,y,1/2-z
-x,1/2+y,z
x,1/2-y,1/2+z
loop_
_atom_site_type_symbol
_atom_site_label
_atom_site_fract_x
_atom_site_fract_y
_atom_site_fract_z
Si Si1 0.364459 0.251723 0.886989
Si Si2 0.478716 0.953697 0.604640
Si Si3 0.864639 0.386186 0.363206
Si Si4 0.189515 0.416637 0.355838
Si Si5 0.034341 0.201226 0.363871
Si Si6 0.695234 0.216106 0.137614
O O1 0.424521 0.399381 0.855203
O O2 0.261618 0.228266 0.854322
O O3 0.421983 0.098391 0.854295
O O4 0.361793 0.250000 0.000000
O O5 0.407957 0.807081 0.605317
O O6 0.500000 0.000000 0.500000
O O7 0.862918 0.390197 0.250000
O O8 0.916577 0.542210 0.394421
O O9 0.760258 0.358680 0.392902
O O10 0.930334 0.239204 0.389270
O O11 0.167284 0.464149 0.250000
O O12 0.097160 0.347180 0.396283
O O13 0.247640 0.561262 0.394642
O O14 0.037081 0.200061 0.250000
O O15 0.690632 0.214705 0.250000
#
# Coordination Sequence:
#
# PCOD9440382 Si02
#       6
#     8   8   8   8   8   8
#     4   9  18  32  48  66  88 121 157 194 237 284
#     4   9  18  32  48  66  89 121 159 196 239 289
#     4   9  16  26  42  67  99 131 159 189 229 276
#     4   9  17  29  45  67  94 123 156 193 233 276
#     4   9  16  26  42  67  99 131 160 190 228 277
#     4   9  17  29  45  67  95 125 159 200 240 276
#
# _framework density 26.860246
#
# number of rings (size 3 to 8) (size 9 to 14) (size 15 to 20)
#    0.000    3.000    0.000    1.000    0.000    6.000 
#    0.000    0.000    0.000    0.000    0.000   22.167 
#    0.000    0.000    0.000    0.000    0.000    0.000 
#
# Total GULP energy -268495.486084 kJ/mol
# GULP energy per Si atom -5593.655960 kJ/mol
# Density = 2.679911 g / cm^3
# Si number density = 26.860246 Si / 1000 Ang^3
#
#
#
# Elastic Constant Matrix: (Units=GPa)
#
#
# Indices 1 2 3 4 5 6 
#
# 1 137.1510 -0.8182 25.3724 0.0000 0.0000 0.0000
# 2 -0.8182 40.1392 29.6561 0.0000 0.0000 0.0000
# 3 25.3724 29.6561 117.1053 0.0000 0.0000 0.0000
# 4 0.0000 0.0000 0.0000 10.2966 0.0000 0.0000
# 5 0.0000 0.0000 0.0000 0.0000 26.3678 0.0000
# 6 0.0000 0.0000 0.0000 0.0000 0.0000 40.7999
#
#
#
# Elastic Compliance Matrix: (Units=1/GPa)
#
#
# Indices 1 2 3 4 5 6 
#
# 1 0.007690 0.001707 -0.002098 0.000000 0.000000 0.000000
# 2 0.001707 0.031027 -0.008227 0.000000 0.000000 0.000000
# 3 -0.002098 -0.008227 0.011077 0.000000 0.000000 0.000000
# 4 0.000000 0.000000 0.000000 0.097119 0.000000 0.000000
# 5 0.000000 0.000000 0.000000 0.000000 0.037925 0.000000
# 6 0.000000 0.000000 0.000000 0.000000 0.000000 0.024510
#
#
# Mechanical properties :
#
#
# Convention : Reuss Voigt Hill
#
# Bulk Modulus (GPa) = 30.71559 44.75735 37.73647
# Shear Modulus (GPa) = 21.05824 31.50521 26.28173
#
# Velocity S-wave (km/s) = 2.80302 3.42852 3.13143
# Velocity P-wave (km/s) = 4.68360 5.68966 5.21097
#
# Compressibility (1/GPa) = 0.03255676
#
# Stress axis : x y z
#
# Youngs Moduli (GPa) = 130.04575 32.23047 90.27371
#
# Poissons Ratio (x) = -0.05502 0.18943
# Poissons Ratio (y) = -0.22200 0.74269
# Poissons Ratio (z) = 0.27288 0.26516
#
# Static dielectric constant tensor:
#      x y z
#    x 2.033480 0.000000 0.000000 
#    y 0.000000 2.169050 0.000000 
#    z 0.000000 0.000000 2.073120 
# 
# From -- ./inp_files/25262.got.cif
#   From: 2010.05.17/outbox.cif.g08.bks.cpg/sg57_13_cif.got.tgz:25262.got - 2010.06.03 13:58:18.
