data_PCOD9440095
_publ_section_title
;
Structure prediction by ZEFSAII (Michael W. Deem and Ramdas Pophale) SiO2 
 PCOD9440095
Probable space group: P B C M
;
_chemical_formula_sum "Si O2"
_cell_formula_units_Z 64
_cell_length_a 5.162644
_cell_length_b 17.723584
_cell_length_c 30.052069
_cell_angle_alpha 90.000000
_cell_angle_beta 90.000000
_cell_angle_gamma 90.000000
_cell_volume 2749.780980
_symmetry_space_group_name_H-M "P B C M"
_symmetry_group_IT_number 57
_symmetry_cell_setting 'orthorhombic'
loop_
_space_group_symop_operation_xyz
x,y,z
-x,-y,1/2+z
x,1/2-y,-z
-x,1/2+y,1/2-z
-x,-y,-z
x,y,1/2-z
-x,1/2+y,z
x,1/2-y,1/2+z
loop_
_atom_site_type_symbol
_atom_site_label
_atom_site_fract_x
_atom_site_fract_y
_atom_site_fract_z
Si Si1 0.226750 0.050668 0.466310
Si Si2 0.008634 0.845242 0.800094
Si Si3 0.397294 0.643637 0.410905
Si Si4 0.929112 0.271061 0.452265
Si Si5 0.528057 0.762477 0.667965
Si Si6 0.237715 0.129581 0.621479
Si Si7 0.490332 0.604857 0.962808
Si Si8 0.937575 0.468915 0.872502
O O1 0.454892 0.107126 0.451218
O O2 0.223429 0.088227 0.515478
O O3 0.053582 0.044737 0.422235
O O4 0.309195 0.965183 0.476054
O O5 0.074786 0.868972 0.750000
O O6 0.240311 0.789578 0.817753
O O7 0.959020 0.916036 0.833006
O O8 0.742392 0.799279 0.801067
O O9 0.159718 0.692629 0.429538
O O10 0.558002 0.701382 0.381346
O O11 0.338204 0.572495 0.379508
O O12 0.060601 0.250000 0.500000
O O13 0.669744 0.317911 0.465939
O O14 0.073041 0.317216 0.412776
O O15 0.615869 0.676872 0.659447
O O16 0.457751 0.095769 0.589530
O O17 0.076342 0.057120 0.637373
#
# Coordination Sequence:
#
# PCOD9440095 Si02
#       8
#     8   8   8   8   8   8   8   8
#     4  11  22  39  59  93 134 187 236 298 357 412
#     4  11  25  49  78 110 139 176 231 297 371 456
#     4  11  22  39  62  91 129 179 238 280 355 418
#     4  12  25  38  57  92 138 197 252 310 341 412
#     4  11  24  44  73 104 142 182 227 288 361 442
#     4  12  25  41  63  98 139 189 241 290 361 420
#     4  11  24  38  59  89 142 188 246 298 349 414
#     4  11  24  41  70  97 136 183 235 297 366 442
#
# _framework density 23.274581000000001
#
# number of rings (size 3 to 8) (size 9 to 14) (size 15 to 20)
#    0.000    0.750    6.250    1.875    1.750    1.000 
#    0.000    1.250    0.000    0.000    0.000    0.000 
#    0.000    0.000    0.000    0.000    0.000    0.000 
#
# Total GULP energy -356802.158717 kJ/mol
# GULP energy per Si atom -5575.033730 kJ/mol
# Density = 2.322161 g / cm^3
# Si number density = 23.274581 Si / 1000 Ang^3
#
#
#
# Elastic Constant Matrix: (Units=GPa)
#
#
# Indices 1 2 3 4 5 6 
#
# 1 55.2791 3.7696 5.0741 0.0000 0.0000 0.0000
# 2 3.7696 99.5851 22.1024 0.0000 0.0000 0.0000
# 3 5.0741 22.1024 89.8807 0.0000 0.0000 0.0000
# 4 0.0000 0.0000 0.0000 13.8711 0.0000 0.0000
# 5 0.0000 0.0000 0.0000 0.0000 22.2990 0.0000
# 6 0.0000 0.0000 0.0000 0.0000 0.0000 19.7344
#
#
#
# Elastic Compliance Matrix: (Units=1/GPa)
#
#
# Indices 1 2 3 4 5 6 
#
# 1 0.018207 -0.000488 -0.000908 0.000000 0.000000 0.000000
# 2 -0.000488 0.010634 -0.002588 0.000000 0.000000 0.000000
# 3 -0.000908 -0.002588 0.011813 0.000000 0.000000 0.000000
# 4 0.000000 0.000000 0.000000 0.072092 0.000000 0.000000
# 5 0.000000 0.000000 0.000000 0.000000 0.044845 0.000000
# 6 0.000000 0.000000 0.000000 0.000000 0.000000 0.050673
#
#
# Mechanical properties :
#
#
# Convention : Reuss Voigt Hill
#
# Bulk Modulus (GPa) = 30.59210 34.07078 32.33144
# Shear Modulus (GPa) = 22.01413 25.43417 23.72415
#
# Velocity S-wave (km/s) = 3.07879 3.30932 3.19614
# Velocity P-wave (km/s) = 5.08047 5.41041 5.24803
#
# Compressibility (1/GPa) = 0.03268818
#
# Stress axis : x y z
#
# Youngs Moduli (GPa) = 54.92509 94.03425 84.64955
#
# Poissons Ratio (x) = 0.04586 0.07685
# Poissons Ratio (y) = 0.02679 0.21904
# Poissons Ratio (z) = 0.04987 0.24332
#
# Static dielectric constant tensor:
#      x y z
#    x 2.018940 0.000000 0.000000 
#    y 0.000000 1.915540 0.000000 
#    z 0.000000 0.000000 1.949450 
# 
# From -- ./inp_files/29277.got.cif
#   From: 2010.05.17/outbox.cif.g08.bks.cpg/sg57_15_cif.got.tgz:29277.got - 2010.06.03 13:58:18.
