data_PCOD9440676
_publ_section_title
;
Structure prediction by ZEFSAII (Michael W. Deem and Ramdas Pophale) SiO2 
 PCOD9440676
Probable space group: P N N M
;
_chemical_formula_sum "Si O2"
_cell_formula_units_Z 58
_cell_length_a 14.973056
_cell_length_b 7.138042
_cell_length_c 22.533890
_cell_angle_alpha 90.000000
_cell_angle_beta 90.000000
_cell_angle_gamma 90.000000
_cell_volume 2408.383914
_symmetry_space_group_name_H-M "P N N M"
_symmetry_group_IT_number 58
_symmetry_cell_setting 'orthorhombic'
loop_
_space_group_symop_operation_xyz
x,y,z
-x,-y,z
1/2+x,1/2-y,1/2-z
1/2-x,1/2+y,1/2-z
-x,-y,-z
x,y,-z
1/2-x,1/2+y,1/2+z
1/2+x,1/2-y,1/2+z
loop_
_atom_site_type_symbol
_atom_site_label
_atom_site_fract_x
_atom_site_fract_y
_atom_site_fract_z
Si Si1 0.995737 0.273847 0.672540
Si Si2 0.912783 0.360014 0.437273
Si Si3 0.189539 0.198009 0.669086
Si Si4 0.307126 0.925775 0.291317
Si Si5 0.000000 0.500000 0.000000
Si Si6 0.775650 0.080929 0.065876
Si Si7 0.953568 0.295734 0.799818
Si Si8 0.417738 0.728088 0.603994
O O1 0.089100 0.209602 0.645979
O O2 0.000000 0.500000 0.681551
O O3 0.923172 0.243624 0.622249
O O4 0.982431 0.201103 0.738808
O O5 0.915816 0.255354 0.500000
O O6 0.817617 0.464731 0.434927
O O7 0.000000 0.500000 0.437899
O O8 0.209322 0.989979 0.691590
O O9 0.186496 0.332068 0.727446
O O10 0.255963 0.269883 0.617482
O O11 0.353648 0.132046 0.290450
O O12 0.351508 0.807989 0.344179
O O13 0.946930 0.625454 0.947279
O O14 0.859854 0.944155 0.077945
O O15 0.788857 0.165916 0.000000
O O16 0.000000 0.500000 0.804732
O O17 0.990475 0.195887 0.858159
#
# Coordination Sequence:
#
# PCOD9440676 Si02
#       8
#     8   8   8   8   2   8   8   8
#     4  10  15  31  56  79 106 153 195 239 283 364
#     4   9  16  29  53  83 113 146 197 242 292 352
#     4  12  22  36  60  91 126 156 204 261 320 364
#     4  11  22  38  60  90 119 159 206 260 317 371
#     4  12  20  40  72  86 110 178 224 250 302 412
#     4  11  22  36  59  96 122 154 208 263 303 373
#     4   9  16  34  57  78 106 152 208 243 290 366
#     4  11  21  40  66  88 116 161 219 256 308 376
#
# _framework density 24.082536999999999
#
# number of rings (size 3 to 8) (size 9 to 14) (size 15 to 20)
#    0.000    1.517    9.655    0.828    0.000    0.000 
#    1.241    0.690    0.000    4.138    0.000    1.931 
#    0.000    0.000    0.000    0.000    0.000    0.000 
#
# Total GULP energy -322925.327532 kJ/mol
# GULP energy per Si atom -5567.678061 kJ/mol
# Density = 2.402772 g / cm^3
# Si number density = 24.082537 Si / 1000 Ang^3
#
#
#
# Elastic Constant Matrix: (Units=GPa)
#
#
# Indices 1 2 3 4 5 6 
#
# 1 60.4174 16.3347 18.7718 0.0000 0.0000 0.0000
# 2 16.3347 48.4321 35.3180 0.0000 0.0000 0.0000
# 3 18.7718 35.3180 207.7842 0.0000 0.0000 0.0000
# 4 0.0000 0.0000 0.0000 3.1180 0.0000 0.0000
# 5 0.0000 0.0000 0.0000 0.0000 26.8734 0.0000
# 6 0.0000 0.0000 0.0000 0.0000 0.0000 17.3707
#
#
#
# Elastic Compliance Matrix: (Units=1/GPa)
#
#
# Indices 1 2 3 4 5 6 
#
# 1 0.018298 -0.005669 -0.000690 0.000000 0.000000 0.000000
# 2 -0.005669 0.025325 -0.003792 0.000000 0.000000 0.000000
# 3 -0.000690 -0.003792 0.005520 0.000000 0.000000 0.000000
# 4 0.000000 0.000000 0.000000 0.320721 0.000000 0.000000
# 5 0.000000 0.000000 0.000000 0.000000 0.037211 0.000000
# 6 0.000000 0.000000 0.000000 0.000000 0.000000 0.057568
#
#
# Mechanical properties :
#
#
# Convention : Reuss Voigt Hill
#
# Bulk Modulus (GPa) = 34.67229 50.83142 42.75186
# Shear Modulus (GPa) = 10.11002 25.88637 17.99820
#
# Velocity S-wave (km/s) = 2.05114 3.28213 2.73674
# Velocity P-wave (km/s) = 4.47639 5.95954 5.27040
#
# Compressibility (1/GPa) = 0.02884148
#
# Stress axis : x y z
#
# Youngs Moduli (GPa) = 54.64959 39.48687 181.17224
#
# Poissons Ratio (x) = 0.22384 0.12494
# Poissons Ratio (y) = 0.30979 0.68709
# Poissons Ratio (z) = 0.03769 0.14975
#
# Static dielectric constant tensor:
#      x y z
#    x 2.173750 0.000000 0.000000 
#    y 0.000000 1.934930 0.000000 
#    z 0.000000 0.000000 1.973920 
# 
# From -- ./inp_files/32201.got.cif
#   From: 2010.05.17/outbox.cif.g08.bks.cpg/sg58_17_cif.got.tgz:32201.got - 2010.06.03 14:20:14.
