data_PCOD9440475
_publ_section_title
;
Structure prediction by ZEFSAII (Michael W. Deem and Ramdas Pophale) SiO2 
 PCOD9440475
Probable space group: P B C M
;
_chemical_formula_sum "Si O2"
_cell_formula_units_Z 48
_cell_length_a 9.000000
_cell_length_b 30.000000
_cell_length_c 9.000000
_cell_angle_alpha 90.000000
_cell_angle_beta 90.000000
_cell_angle_gamma 90.000000
_cell_volume 2430.000000
_symmetry_space_group_name_H-M "P B C M"
_symmetry_group_IT_number 57
_symmetry_cell_setting 'orthorhombic'
loop_
_space_group_symop_operation_xyz
x,y,z
-x,-y,1/2+z
x,1/2-y,-z
-x,1/2+y,1/2-z
-x,-y,-z
x,y,1/2-z
-x,1/2+y,z
x,1/2-y,1/2+z
loop_
_atom_site_type_symbol
_atom_site_label
_atom_site_fract_x
_atom_site_fract_y
_atom_site_fract_z
Si Si1 0.634765 0.119935 0.924011
Si Si2 0.881882 0.797484 0.575830
Si Si3 0.295147 0.138207 0.577508
Si Si4 0.176975 0.701425 0.571325
Si Si5 0.209423 0.534172 0.575341
Si Si6 0.860107 0.948042 0.424057
O O1 0.682527 0.118892 0.750000
O O2 0.459621 0.119855 0.928166
O O3 0.697769 0.166771 0.978262
O O4 0.701745 0.075401 0.992091
O O5 0.874121 0.750000 0.500000
O O6 0.908248 0.795269 0.750000
O O7 0.731282 0.821482 0.531916
O O8 0.022780 0.818578 0.490706
O O9 0.262249 0.150517 0.750000
O O10 0.186669 0.099878 0.521147
O O11 0.197948 0.750000 0.500000
O O12 0.171330 0.705887 0.750000
O O13 0.241644 0.529469 0.750000
O O14 0.231722 0.487074 0.499346
O O15 0.034948 0.544873 0.557563
O O16 0.826515 0.948706 0.250000
#
# Coordination Sequence:
#
# PCOD9440475 Si02
#       6
#     8   8   8   8   8   8
#     4   9  19  34  54  78 106 142 177 214 263 316
#     4  11  22  37  57  81 106 136 176 218 262 309
#     4  10  20  36  55  77 108 143 177 214 262 316
#     4  10  19  35  57  80 105 135 174 216 261 310
#     4   9  17  32  52  74 101 136 179 220 258 306
#     4   9  18  32  52  76 103 137 175 217 263 307
#
# _framework density 19.753086
#
# number of rings (size 3 to 8) (size 9 to 14) (size 15 to 20)
#    0.000    2.333    0.000    4.000    0.000    4.667 
#    0.000    9.167    0.000    0.000    0.000    0.000 
#    0.000    0.000    0.000    0.000    0.000    0.000 
#
# Total GULP energy -267245.282677 kJ/mol
# GULP energy per Si atom -5567.610056 kJ/mol
# Density = 1.970813 g / cm^3
# Si number density = 19.753086 Si / 1000 Ang^3
#
#
#
# Elastic Constant Matrix: (Units=GPa)
#
#
# Indices 1 2 3 4 5 6 
#
# 1 -132.1317 40.2618 52.3474 0.0000 0.0000 0.0000
# 2 40.2618 54.9845 15.3394 0.0000 0.0000 0.0000
# 3 52.3474 15.3394 32.3498 0.0000 0.0000 0.0000
# 4 0.0000 0.0000 0.0000 19.8602 0.0000 0.0000
# 5 0.0000 0.0000 0.0000 0.0000 11.6801 0.0000
# 6 0.0000 0.0000 0.0000 0.0000 0.0000 -88.7421
#
#
#
# Elastic Compliance Matrix: (Units=1/GPa)
#
#
# Indices 1 2 3 4 5 6 
#
# 1 -0.004508 0.001459 0.006603 0.000000 0.000000 0.000000
# 2 0.001459 0.020487 -0.012075 0.000000 0.000000 0.000000
# 3 0.006603 -0.012075 0.025954 0.000000 0.000000 0.000000
# 4 0.000000 0.000000 0.000000 0.050352 0.000000 0.000000
# 5 0.000000 0.000000 0.000000 0.000000 0.085616 0.000000
# 6 0.000000 0.000000 0.000000 0.000000 0.000000 -0.011269
#
#
# Mechanical properties :
#
#
# Convention : Reuss Voigt Hill
#
# Bulk Modulus (GPa) = 29.49348 19.01107 24.25227
# Shear Modulus (GPa) = 26.88734 -21.62342 2.63196
#
# Velocity S-wave (km/s) = 3.69341 -3.31219 1.15556
# Velocity P-wave (km/s) = 5.75776 2.23210 3.75297
#
# Compressibility (1/GPa) = 0.03390580
#
# Stress axis : x y z
#
# Youngs Moduli (GPa) = -221.83532 48.81037 38.53044
#
# Poissons Ratio (x) = -0.07121 -0.25441
# Poissons Ratio (y) = 0.32362 0.46526
# Poissons Ratio (z) = 1.46472 0.58939
#
# Static dielectric constant tensor:
#      x y z
#    x 1.738930 0.000000 0.000000 
#    y 0.000000 1.709840 0.000000 
#    z 0.000000 0.000000 1.680820 
# 
# From -- ./inp_files/2118.got.cif
#   From: 2010.05.17/outbox.ucp.g08.bks.cvg/sg57_2_cif.got.tgz:2118.got - 2010.06.11 16:39:23.
