data_PCOD9440826
_publ_section_title
;
Structure prediction by ZEFSAII (Michael W. Deem and Ramdas Pophale) SiO2 
 PCOD9440826
Probable space group: P N N M
;
_chemical_formula_sum "Si O2"
_cell_formula_units_Z 58
_cell_length_a 12.822270
_cell_length_b 23.176083
_cell_length_c 7.529941
_cell_angle_alpha 90.000000
_cell_angle_beta 90.000000
_cell_angle_gamma 90.000000
_cell_volume 2237.672520
_symmetry_space_group_name_H-M "P N N M"
_symmetry_group_IT_number 58
_symmetry_cell_setting 'orthorhombic'
loop_
_space_group_symop_operation_xyz
x,y,z
-x,-y,z
1/2+x,1/2-y,1/2-z
1/2-x,1/2+y,1/2-z
-x,-y,-z
x,y,-z
1/2-x,1/2+y,1/2+z
1/2+x,1/2-y,1/2+z
loop_
_atom_site_type_symbol
_atom_site_label
_atom_site_fract_x
_atom_site_fract_y
_atom_site_fract_z
Si Si1 0.000000 0.000000 0.000000
Si Si2 0.923840 0.327294 0.783040
Si Si3 0.727664 0.992511 0.293651
Si Si4 0.561439 0.070736 0.701913
Si Si5 0.254313 0.843580 0.209537
Si Si6 0.204406 0.133244 0.796071
Si Si7 0.415337 0.426016 0.208471
Si Si8 0.400795 0.739591 0.286007
O O1 0.002676 0.051394 0.841832
O O2 0.807443 0.327118 0.716556
O O3 0.974837 0.387620 0.716875
O O4 0.997772 0.274883 0.725536
O O5 0.923494 0.327715 0.000000
O O6 0.720436 0.007902 0.500000
O O7 0.760538 0.926712 0.286536
O O8 0.615223 0.013125 0.219785
O O9 0.821343 0.031395 0.220906
O O10 0.525470 0.060241 0.500000
O O11 0.661326 0.114143 0.699695
O O12 0.139358 0.863459 0.270553
O O13 0.301968 0.780731 0.243233
O O14 0.257916 0.853651 0.000000
O O15 0.115354 0.174568 0.717373
O O16 0.183823 0.120878 0.000000
O O17 0.438287 0.435919 0.000000
O O18 0.406759 0.735431 0.500000
#
# Coordination Sequence:
#
# PCOD9440826 Si02
#       8
#     2   8   8   8   8   8   8   8
#     4  12  22  36  60  90 120 158 210 244 320 364
#     4   9  18  36  59  80 108 147 200 246 297 371
#     4   9  19  36  58  82 115 160 200 232 297 374
#     4   8  16  32  55  81 111 151 185 231 286 352
#     4  10  17  30  56  86 107 141 197 248 294 350
#     4  11  23  36  56  84 119 157 196 252 315 369
#     4  10  21  38  59  86 122 161 201 255 309 370
#     4   9  20  39  58  77 109 158 197 245 312 365
#
# _framework density 25.919789999999999
#
# number of rings (size 3 to 8) (size 9 to 14) (size 15 to 20)
#    0.000    2.483    0.690    3.517    0.966    4.414 
#    0.000    4.138    3.034    3.310    0.000    0.000 
#    0.000    0.000    0.000    0.000    0.000    0.000 
#
# Total GULP energy -323547.132574 kJ/mol
# GULP energy per Si atom -5578.398837 kJ/mol
# Density = 2.586080 g / cm^3
# Si number density = 25.919790 Si / 1000 Ang^3
#
#
#
# Elastic Constant Matrix: (Units=GPa)
#
#
# Indices 1 2 3 4 5 6 
#
# 1 83.7970 7.8711 0.0903 0.0000 0.0000 0.0000
# 2 7.8711 104.7618 0.5862 0.0000 0.0000 0.0000
# 3 0.0903 0.5862 114.6962 0.0000 0.0000 0.0000
# 4 0.0000 0.0000 0.0000 12.5376 0.0000 0.0000
# 5 0.0000 0.0000 0.0000 0.0000 9.9189 0.0000
# 6 0.0000 0.0000 0.0000 0.0000 0.0000 31.9927
#
#
#
# Elastic Compliance Matrix: (Units=1/GPa)
#
#
# Indices 1 2 3 4 5 6 
#
# 1 0.012018 -0.000903 -0.000005 0.000000 0.000000 0.000000
# 2 -0.000903 0.009614 -0.000048 0.000000 0.000000 0.000000
# 3 -0.000005 -0.000048 0.008719 0.000000 0.000000 0.000000
# 4 0.000000 0.000000 0.000000 0.079760 0.000000 0.000000
# 5 0.000000 0.000000 0.000000 0.000000 0.100818 0.000000
# 6 0.000000 0.000000 0.000000 0.000000 0.000000 0.031257
#
#
# Mechanical properties :
#
#
# Convention : Reuss Voigt Hill
#
# Bulk Modulus (GPa) = 35.16363 35.59448 35.37905
# Shear Modulus (GPa) = 19.71778 30.53699 25.12738
#
# Velocity S-wave (km/s) = 2.76111 3.43612 3.11694
# Velocity P-wave (km/s) = 4.87450 5.43184 5.16070
#
# Compressibility (1/GPa) = 0.02843847
#
# Stress axis : x y z
#
# Youngs Moduli (GPa) = 83.20564 104.01955 114.69294
#
# Poissons Ratio (x) = 0.09393 0.00056
# Poissons Ratio (y) = 0.07513 0.00555
# Poissons Ratio (z) = 0.00040 0.00504
#
# Static dielectric constant tensor:
#      x y z
#    x 2.198890 0.000000 0.000000 
#    y 0.000000 2.108930 0.000000 
#    z 0.000000 0.000000 2.070260 
# 
# From -- ./inp_files/6688.got.cif
#   From: 2010.05.17/outbox.cif.g08.bks.cpg/sg58_4_cif.got.tgz:6688.got - 2010.06.03 14:20:14.
