data_PCOD9440712
_publ_section_title
;
Structure prediction by ZEFSAII (Michael W. Deem and Ramdas Pophale) SiO2 
 PCOD9440712
Probable space group: P N N M
;
_chemical_formula_sum "Si O2"
_cell_formula_units_Z 28
_cell_length_a 11.779718
_cell_length_b 20.067702
_cell_length_c 5.628897
_cell_angle_alpha 90.000000
_cell_angle_beta 90.000000
_cell_angle_gamma 90.000000
_cell_volume 1330.625491
_symmetry_space_group_name_H-M "P N N M"
_symmetry_group_IT_number 58
_symmetry_cell_setting 'orthorhombic'
loop_
_space_group_symop_operation_xyz
x,y,z
-x,-y,z
1/2+x,1/2-y,1/2-z
1/2-x,1/2+y,1/2-z
-x,-y,-z
x,y,-z
1/2-x,1/2+y,1/2+z
1/2+x,1/2-y,1/2+z
loop_
_atom_site_type_symbol
_atom_site_label
_atom_site_fract_x
_atom_site_fract_y
_atom_site_fract_z
Si Si1 0.580666 0.324633 0.500000
Si Si2 0.109820 0.450110 0.000000
Si Si3 0.533978 0.818452 0.500000
Si Si4 0.441405 0.427313 0.750500
Si Si5 0.163384 0.654635 0.500000
Si Si6 0.138709 0.499232 0.500000
O O1 0.515075 0.255609 0.500000
O O2 0.539443 0.371489 0.717826
O O3 0.713421 0.312631 0.500000
O O4 0.170252 0.466566 0.248480
O O5 0.000000 0.500000 0.000000
O O6 0.062228 0.375501 0.000000
O O7 0.600858 0.828484 0.249412
O O8 0.500000 0.500000 0.754163
O O9 0.377289 0.421694 0.500000
O O10 0.382053 0.415948 0.000000
O O11 0.180219 0.574908 0.500000
O O12 0.000000 0.500000 0.500000
#
# Coordination Sequence:
#
# PCOD9440712 Si02
#       6
#     4   4   4   8   4   4
#     4  10  25  38  64  86 129 163 211 246 311 374
#     4  10  16  34  59  83 108 147 185 244 310 337
#     4  12  24  38  63  86 128 162 198 263 309 361
#     4   8  16  34  60  83 108 149 196 245 295 350
#     4  12  24  38  63  91 116 169 213 244 307 373
#     4  10  16  34  59  86 107 140 197 249 294 355
#
# _framework density 21.042736999999999
#
# number of rings (size 3 to 8) (size 9 to 14) (size 15 to 20)
#    0.857    1.143    5.714    0.000    4.000    0.000 
#    0.000    0.000   12.571    0.000    0.000    0.000 
#    0.000    0.000    0.000    0.000    0.000    0.000 
#
# Total GULP energy -155981.648022 kJ/mol
# GULP energy per Si atom -5570.773144 kJ/mol
# Density = 2.099484 g / cm^3
# Si number density = 21.042737 Si / 1000 Ang^3
#
#
#
# Elastic Constant Matrix: (Units=GPa)
#
#
# Indices 1 2 3 4 5 6 
#
# 1 44.7038 26.6415 56.2229 0.0000 0.0000 0.0000
# 2 26.6415 149.7714 44.4095 0.0000 0.0000 0.0000
# 3 56.2229 44.4095 269.6170 0.0000 0.0000 0.0000
# 4 0.0000 0.0000 0.0000 217.8857 0.0000 0.0000
# 5 0.0000 0.0000 0.0000 0.0000 35.3338 0.0000
# 6 0.0000 0.0000 0.0000 0.0000 0.0000 8.7270
#
#
#
# Elastic Compliance Matrix: (Units=1/GPa)
#
#
# Indices 1 2 3 4 5 6 
#
# 1 0.032405 -0.003954 -0.006106 0.000000 0.000000 0.000000
# 2 -0.003954 0.007502 -0.000411 0.000000 0.000000 0.000000
# 3 -0.006106 -0.000411 0.005050 0.000000 0.000000 0.000000
# 4 0.000000 0.000000 0.000000 0.004590 0.000000 0.000000
# 5 0.000000 0.000000 0.000000 0.000000 0.028301 0.000000
# 6 0.000000 0.000000 0.000000 0.000000 0.000000 0.114587
#
#
# Mechanical properties :
#
#
# Convention : Reuss Voigt Hill
#
# Bulk Modulus (GPa) = 41.64046 79.84890 60.74468
# Shear Modulus (GPa) = 22.58536 74.84387 48.71461
#
# Velocity S-wave (km/s) = 3.27969 5.97032 4.81670
# Velocity P-wave (km/s) = 5.84580 9.24958 7.73719
#
# Compressibility (1/GPa) = 0.02401510
#
# Stress axis : x y z
#
# Youngs Moduli (GPa) = 30.85914 133.29663 198.01903
#
# Poissons Ratio (x) = 0.52702 1.20915
# Poissons Ratio (y) = 0.12201 0.08143
# Poissons Ratio (z) = 0.18843 0.05482
#
# Static dielectric constant tensor:
#      x y z
#    x 1.709240 0.000000 0.000000 
#    y 0.000000 1.658160 0.000000 
#    z 0.000000 0.000000 1.823700 
# 
# From -- ./inp_files/490.got.cif
#   From: 2010.05.17/outbox.cif.g08.bks.cpg/sg58_1_cif.got.tgz:490.got - 2010.06.03 14:20:14.
