data_PCOD9440694
_publ_section_title
;
Structure prediction by ZEFSAII (Michael W. Deem and Ramdas Pophale) SiO2 
 PCOD9440694
Probable space group: P N N M
;
_chemical_formula_sum "Si O2"
_cell_formula_units_Z 36
_cell_length_a 11.962080
_cell_length_b 22.269840
_cell_length_c 5.665743
_cell_angle_alpha 90.000000
_cell_angle_beta 90.000000
_cell_angle_gamma 90.000000
_cell_volume 1509.317718
_symmetry_space_group_name_H-M "P N N M"
_symmetry_group_IT_number 58
_symmetry_cell_setting 'orthorhombic'
loop_
_space_group_symop_operation_xyz
x,y,z
-x,-y,z
1/2+x,1/2-y,1/2-z
1/2-x,1/2+y,1/2-z
-x,-y,-z
x,y,-z
1/2-x,1/2+y,1/2+z
1/2+x,1/2-y,1/2+z
loop_
_atom_site_type_symbol
_atom_site_label
_atom_site_fract_x
_atom_site_fract_y
_atom_site_fract_z
Si Si1 0.120132 0.032651 0.749080
Si Si2 0.367241 0.014363 0.000000
Si Si3 0.070175 0.324192 0.000000
Si Si4 0.075781 0.149964 0.500000
Si Si5 0.233045 0.894358 0.000000
Si Si6 0.613229 0.220876 0.000000
Si Si7 0.828874 0.132493 0.500000
Si Si8 0.418776 0.057086 0.500000
O O1 0.170642 0.012513 0.500000
O O2 0.098956 0.103765 0.713966
O O3 0.177133 0.021374 0.000000
O O4 0.000000 0.000000 0.757519
O O5 0.353695 0.051439 0.249028
O O6 0.500000 0.000000 0.000000
O O7 0.328050 0.944205 0.000000
O O8 0.204004 0.339564 0.000000
O O9 0.050978 0.290746 0.750140
O O10 0.995394 0.383771 0.000000
O O11 0.148078 0.209578 0.500000
O O12 0.945223 0.168761 0.500000
O O13 0.167730 0.900622 0.753922
O O14 0.286750 0.827818 0.000000
O O15 0.500000 0.000000 0.500000
#
# Coordination Sequence:
#
# PCOD9440694 Si02
#       8
#     8   4   4   4   4   4   4   4
#     4   8  16  30  48  72 101 118 146 197 251 290
#     4  10  16  26  49  70  91 122 162 194 230 298
#     4  10  20  35  45  74 103 135 158 215 261 287
#     4  10  21  30  54  80  97 128 177 209 248 304
#     4  10  20  35  45  74 105 134 158 211 265 288
#     4  10  20  31  49  68 106 126 173 211 247 296
#     4  10  20  31  49  68 109 128 162 205 266 300
#     4  10  16  26  49  70  91 119 164 193 232 295
#
# _framework density 23.851838000000001
#
# number of rings (size 3 to 8) (size 9 to 14) (size 15 to 20)
#    0.667    1.778    0.000    6.667    3.111    0.000 
#    0.000    0.000    0.000    0.000    0.000   74.667 
#    0.000    0.000    0.000    0.000    0.000    0.000 
#
# Total GULP energy -200658.051158 kJ/mol
# GULP energy per Si atom -5573.834754 kJ/mol
# Density = 2.379755 g / cm^3
# Si number density = 23.851838 Si / 1000 Ang^3
#
#
#
# Elastic Constant Matrix: (Units=GPa)
#
#
# Indices 1 2 3 4 5 6 
#
# 1 42.9978 23.5895 18.4731 0.0000 0.0000 0.0000
# 2 23.5895 147.4167 41.9896 0.0000 0.0000 0.0000
# 3 18.4731 41.9896 257.4343 0.0000 0.0000 0.0000
# 4 0.0000 0.0000 0.0000 -51.4328 0.0000 0.0000
# 5 0.0000 0.0000 0.0000 0.0000 40.3633 0.0000
# 6 0.0000 0.0000 0.0000 0.0000 0.0000 27.5179
#
#
#
# Elastic Compliance Matrix: (Units=1/GPa)
#
#
# Indices 1 2 3 4 5 6 
#
# 1 0.025866 -0.003786 -0.001239 0.000000 0.000000 0.000000
# 2 -0.003786 0.007668 -0.000979 0.000000 0.000000 0.000000
# 3 -0.001239 -0.000979 0.004133 0.000000 0.000000 0.000000
# 4 0.000000 0.000000 0.000000 -0.019443 0.000000 0.000000
# 5 0.000000 0.000000 0.000000 0.000000 0.024775 0.000000
# 6 0.000000 0.000000 0.000000 0.000000 0.000000 0.036340
#
#
# Mechanical properties :
#
#
# Convention : Reuss Voigt Hill
#
# Bulk Modulus (GPa) = 38.97143 68.43923 53.70533
# Shear Modulus (GPa) = 50.04956 27.54278 38.79617
#
# Velocity S-wave (km/s) = 4.58575 3.40184 4.03742
# Velocity P-wave (km/s) = 6.66432 6.64724 6.65579
#
# Compressibility (1/GPa) = 0.02565982
#
# Stress axis : x y z
#
# Youngs Moduli (GPa) = 38.66023 130.40794 241.95189
#
# Poissons Ratio (x) = 0.49377 0.29967
# Poissons Ratio (y) = 0.14638 0.23688
# Poissons Ratio (z) = 0.04788 0.12768
#
# Static dielectric constant tensor:
#      x y z
#    x 1.997430 0.000000 0.000000 
#    y 0.000000 1.876740 0.000000 
#    z 0.000000 0.000000 2.008760 
# 
# From -- ./inp_files/793.got.cif
#   From: 2010.05.17/outbox.cif.g08.bks.cpg/sg58_1_cif.got.tgz:793.got - 2010.06.03 14:20:14.
