data_PCOD9440962
_publ_section_title
;
Structure prediction by ZEFSAII (Michael W. Deem and Ramdas Pophale) SiO2 
 PCOD9440962
Probable space group: P N N M
;
_chemical_formula_sum "Si O2"
_cell_formula_units_Z 64
_cell_length_a 22.435325
_cell_length_b 19.416431
_cell_length_c 8.429256
_cell_angle_alpha 90.000000
_cell_angle_beta 90.000000
_cell_angle_gamma 90.000000
_cell_volume 3671.901416
_symmetry_space_group_name_H-M "P N N M"
_symmetry_group_IT_number 58
_symmetry_cell_setting 'orthorhombic'
loop_
_space_group_symop_operation_xyz
x,y,z
-x,-y,z
1/2+x,1/2-y,1/2-z
1/2-x,1/2+y,1/2-z
-x,-y,-z
x,y,-z
1/2-x,1/2+y,1/2+z
1/2+x,1/2-y,1/2+z
loop_
_atom_site_type_symbol
_atom_site_label
_atom_site_fract_x
_atom_site_fract_y
_atom_site_fract_z
Si Si1 0.013841 0.423090 0.809440
Si Si2 0.909608 0.322714 0.807863
Si Si3 0.192744 0.580313 0.689563
Si Si4 0.814500 0.966026 0.314170
Si Si5 0.768291 0.111708 0.809198
Si Si6 0.888594 0.171641 0.808013
Si Si7 0.066105 0.978477 0.808274
Si Si8 0.856687 0.570946 0.690206
O O1 0.081415 0.407047 0.764663
O O2 0.000000 0.500000 0.748437
O O3 0.964611 0.369431 0.750361
O O4 0.009084 0.424687 0.000000
O O5 0.848403 0.359460 0.757271
O O6 0.913781 0.244046 0.750097
O O7 0.910915 0.321718 0.000000
O O8 0.191087 0.581463 0.500000
O O9 0.261886 0.580999 0.742240
O O10 0.162868 0.506763 0.740585
O O11 0.817637 0.953699 0.500000
O O12 0.790293 0.042657 0.275809
O O13 0.881374 0.969586 0.244921
O O14 0.817805 0.168188 0.772020
O O15 0.699193 0.120088 0.769325
O O16 0.771336 0.098585 0.000000
O O17 0.917698 0.099560 0.753255
O O18 0.894313 0.171143 0.000000
O O19 0.066995 0.977655 0.000000
O O20 0.000000 0.000000 0.755944
O O21 0.863246 0.569709 0.500000
#
# Coordination Sequence:
#
# PCOD9440962 Si02
#       8
#     8   8   8   8   8   8   8   8
#     4  10  19  29  42  66  99 130 163 200 236 283
#     4  10  19  31  48  69  95 132 169 203 248 299
#     4  10  19  31  47  69  96 126 162 205 246 292
#     4  10  18  28  47  75 101 123 152 199 250 294
#     4   8  15  30  49  70  92 119 157 200 241 292
#     4   8  15  30  52  73  94 124 164 204 245 300
#     4   9  17  32  55  78  99 130 168 205 247 300
#     4   9  17  28  46  68  90 119 158 200 239 278
#
# _framework density 17.429662
#
# number of rings (size 3 to 8) (size 9 to 14) (size 15 to 20)
#    0.000    2.750    1.250    3.000    0.000    3.000 
#    0.000    2.500    2.750    0.000    0.000    0.000 
#    0.000    0.000    0.000    0.000    0.000    0.000 
#
# Total GULP energy -356321.439456 kJ/mol
# GULP energy per Si atom -5567.522491 kJ/mol
# Density = 1.738999 g / cm^3
# Si number density = 17.429662 Si / 1000 Ang^3
#
#
#
# Elastic Constant Matrix: (Units=GPa)
#
#
# Indices 1 2 3 4 5 6 
#
# 1 151.5752 57.7633 15.8666 0.0000 0.0000 0.0000
# 2 57.7633 75.4262 9.8569 0.0000 0.0000 0.0000
# 3 15.8666 9.8569 9.8499 0.0000 0.0000 0.0000
# 4 0.0000 0.0000 0.0000 7.5958 0.0000 0.0000
# 5 0.0000 0.0000 0.0000 0.0000 0.9112 0.0000
# 6 0.0000 0.0000 0.0000 0.0000 0.0000 18.5322
#
#
#
# Elastic Compliance Matrix: (Units=1/GPa)
#
#
# Indices 1 2 3 4 5 6 
#
# 1 0.010075 -0.006436 -0.009788 0.000000 0.000000 0.000000
# 2 -0.006436 0.019365 -0.009010 0.000000 0.000000 0.000000
# 3 -0.009788 -0.009010 0.126308 0.000000 0.000000 0.000000
# 4 0.000000 0.000000 0.000000 0.131651 0.000000 0.000000
# 5 0.000000 0.000000 0.000000 0.000000 1.097473 0.000000
# 6 0.000000 0.000000 0.000000 0.000000 0.000000 0.053960
#
#
# Mechanical properties :
#
#
# Convention : Reuss Voigt Hill
#
# Bulk Modulus (GPa) = 9.49866 44.86944 27.18405
# Shear Modulus (GPa) = 3.27999 15.63213 9.45606
#
# Velocity S-wave (km/s) = 1.37329 2.99803 2.33175
# Velocity P-wave (km/s) = 2.82420 6.14681 4.78327
#
# Compressibility (1/GPa) = 0.10527798
#
# Stress axis : x y z
#
# Youngs Moduli (GPa) = 99.25741 51.64040 7.91715
#
# Poissons Ratio (x) = 0.33238 0.07749
# Poissons Ratio (y) = 0.63886 0.07134
# Poissons Ratio (z) = 0.97153 0.46530
#
# Static dielectric constant tensor:
#      x y z
#    x 1.619750 0.000000 0.000000 
#    y 0.000000 1.597830 0.000000 
#    z 0.000000 0.000000 1.596060 
# 
# From -- ./inp_files/9444.got.cif
#   From: 2010.05.17/outbox.cif.g08.bks.cpg/sg58_5_cif.got.tgz:9444.got - 2010.06.03 14:20:14.
