data_PCOD9440197
_publ_section_title
;
Structure prediction by ZEFSAII (Michael W. Deem and Ramdas Pophale) SiO2 
 PCOD9440197
Probable space group: P B C M
;
_chemical_formula_sum "Si O2"
_cell_formula_units_Z 40
_cell_length_a 9.191705
_cell_length_b 14.594477
_cell_length_c 14.246433
_cell_angle_alpha 90.000000
_cell_angle_beta 90.000000
_cell_angle_gamma 90.000000
_cell_volume 1911.132306
_symmetry_space_group_name_H-M "P B C M"
_symmetry_group_IT_number 57
_symmetry_cell_setting 'orthorhombic'
loop_
_space_group_symop_operation_xyz
x,y,z
-x,-y,1/2+z
x,1/2-y,-z
-x,1/2+y,1/2-z
-x,-y,-z
x,y,1/2-z
-x,1/2+y,z
x,1/2-y,1/2+z
loop_
_atom_site_type_symbol
_atom_site_label
_atom_site_fract_x
_atom_site_fract_y
_atom_site_fract_z
Si Si1 0.723512 0.359475 0.643219
Si Si2 0.229799 0.448253 0.750000
Si Si3 0.972740 0.586693 0.066553
Si Si4 0.494016 0.990796 0.387378
Si Si5 0.474687 0.223938 0.642100
Si Si6 0.779745 0.750000 0.000000
O O1 0.758009 0.331569 0.750000
O O2 0.638994 0.456200 0.644451
O O3 0.606514 0.286311 0.605278
O O4 0.870850 0.368253 0.586975
O O5 0.105999 0.436659 0.665363
O O6 0.357757 0.464799 0.667165
O O7 0.875302 0.660130 0.011689
O O8 0.000000 0.500000 0.000000
O O9 0.500000 0.000000 0.500000
O O10 0.491492 0.883279 0.364391
O O11 0.453090 0.251157 0.750000
O O12 0.327324 0.243102 0.587973
#
# Coordination Sequence:
#
# PCOD9440197 Si02
#       6
#     8   4   8   8   8   4
#     4  11  23  44  73 101 147 190 237 305 372 445
#     4  12  24  46  78 104 150 200 244 314 384 446
#     4  12  28  49  71 111 155 199 247 311 392 459
#     4  12  24  44  77 109 141 193 258 311 365 447
#     4  11  24  45  73 107 142 187 255 302 369 440
#     4  12  28  46  76 110 146 198 252 320 372 460
#
# _framework density 20.93
#
# number of rings (size 3 to 8) (size 9 to 14) (size 15 to 20)
#    0.000    0.400    3.000    6.000    4.200    4.000 
#    1.800    0.000    0.000    0.000    0.000    0.000 
#    0.000    0.000    0.000    0.000    0.000    0.000 
#
# Total GULP energy -222799.487634 kJ/mol
# GULP energy per Si atom -5569.987191 kJ/mol
# Density = 2.088236 g / cm^3
# Si number density = 20.930000 Si / 1000 Ang^3
#
#
#
# Elastic Constant Matrix: (Units=GPa)
#
#
# Indices 1 2 3 4 5 6 
#
# 1 194.2361 73.3005 68.8546 0.0000 0.0000 0.0000
# 2 73.3005 112.4840 43.8017 0.0000 0.0000 0.0000
# 3 68.8546 43.8017 157.9375 0.0000 0.0000 0.0000
# 4 0.0000 0.0000 0.0000 25.9716 0.0000 0.0000
# 5 0.0000 0.0000 0.0000 0.0000 18.8304 0.0000
# 6 0.0000 0.0000 0.0000 0.0000 0.0000 26.1357
#
#
#
# Elastic Compliance Matrix: (Units=1/GPa)
#
#
# Indices 1 2 3 4 5 6 
#
# 1 0.007411 -0.004004 -0.002121 0.000000 0.000000 0.000000
# 2 -0.004004 0.012129 -0.001618 0.000000 0.000000 0.000000
# 3 -0.002121 -0.001618 0.007705 0.000000 0.000000 0.000000
# 4 0.000000 0.000000 0.000000 0.038504 0.000000 0.000000
# 5 0.000000 0.000000 0.000000 0.000000 0.053106 0.000000
# 6 0.000000 0.000000 0.000000 0.000000 0.000000 0.038262
#
#
# Mechanical properties :
#
#
# Convention : Reuss Voigt Hill
#
# Bulk Modulus (GPa) = 85.03410 92.95235 88.99322
# Shear Modulus (GPa) = 28.32512 32.76758 30.54635
#
# Velocity S-wave (km/s) = 3.68275 3.96103 3.82442
# Velocity P-wave (km/s) = 7.66809 8.08871 7.88120
#
# Compressibility (1/GPa) = 0.01175999
#
# Stress axis : x y z
#
# Youngs Moduli (GPa) = 134.93515 82.44452 129.78660
#
# Poissons Ratio (x) = 0.33008 0.27522
# Poissons Ratio (y) = 0.54023 0.21006
# Poissons Ratio (z) = 0.28614 0.13343
#
# Static dielectric constant tensor:
#      x y z
#    x 1.721900 0.000000 0.000000 
#    y 0.000000 1.796780 0.000000 
#    z 0.000000 0.000000 1.803650 
# 
# From -- ./inp_files/15977.got.cif
#   From: 2010.05.17/outbox.cif.g08.bks.cpg/sg57_8_cif.got.tgz:15977.got - 2010.06.03 13:58:18.
