data_PCOD9440656
_publ_section_title
;
Structure prediction by ZEFSAII (Michael W. Deem and Ramdas Pophale) SiO2 
 PCOD9440656
Probable space group: P B C M
;
_chemical_formula_sum "Si O2"
_cell_formula_units_Z 64
_cell_length_a 12.000000
_cell_length_b 18.000000
_cell_length_c 15.000000
_cell_angle_alpha 90.000000
_cell_angle_beta 90.000000
_cell_angle_gamma 90.000000
_cell_volume 3240.000000
_symmetry_space_group_name_H-M "P B C M"
_symmetry_group_IT_number 57
_symmetry_cell_setting 'orthorhombic'
loop_
_space_group_symop_operation_xyz
x,y,z
-x,-y,1/2+z
x,1/2-y,-z
-x,1/2+y,1/2-z
-x,-y,-z
x,y,1/2-z
-x,1/2+y,z
x,1/2-y,1/2+z
loop_
_atom_site_type_symbol
_atom_site_label
_atom_site_fract_x
_atom_site_fract_y
_atom_site_fract_z
Si Si1 0.387493 0.177069 0.353909
Si Si2 0.602596 0.104852 0.356157
Si Si3 0.803906 0.313269 0.558404
Si Si4 0.762140 0.693411 0.859600
Si Si5 0.879399 0.034890 0.002974
Si Si6 0.032567 0.212948 0.143187
Si Si7 0.271705 0.471195 0.143046
Si Si8 0.177107 0.070505 0.351885
O O1 0.412891 0.195643 0.250000
O O2 0.497426 0.145309 0.397368
O O3 0.330462 0.249670 0.391924
O O4 0.292520 0.114873 0.351831
O O5 0.587349 0.100376 0.250000
O O6 0.713342 0.150472 0.377592
O O7 0.623832 0.020616 0.386560
O O8 0.748392 0.250000 0.500000
O O9 0.857753 0.378108 0.498225
O O10 0.909029 0.279082 0.608808
O O11 0.763457 0.694226 0.750000
O O12 0.882072 0.723879 0.889050
O O13 0.732632 0.612054 0.890249
O O14 0.816853 0.995027 0.921964
O O15 0.832805 0.011333 0.099256
O O16 0.000000 0.000000 0.000000
O O17 0.033176 0.215437 0.250000
O O18 0.085133 0.132374 0.120515
O O19 0.265187 0.471466 0.250000
O O20 0.152758 0.046810 0.250000
#
# Coordination Sequence:
#
# PCOD9440656 Si02
#       8
#     8   8   8   8   8   8   8   8
#     4   8  15  32  59  83 108 141 183 232 277 327
#     4   9  18  36  58  77 103 148 191 220 270 336
#     4  11  23  36  50  72 110 146 180 222 268 328
#     4   8  15  29  52  84 109 131 175 234 283 319
#     4  11  22  36  53  80 108 143 184 220 277 331
#     4   9  17  31  53  76 102 138 177 221 275 329
#     4   9  19  34  54  81 112 143 184 230 273 324
#     4   9  18  35  57  82 108 137 176 228 283 329
#
# _framework density 19.753086
#
# number of rings (size 3 to 8) (size 9 to 14) (size 15 to 20)
#    0.000    2.750    1.250    1.875    1.750    1.000 
#    0.000    8.125    0.000    3.000    0.000    0.000 
#    0.000    0.000    0.000    0.000    0.000    0.000 
#
# Total GULP energy -356275.774396 kJ/mol
# GULP energy per Si atom -5566.808975 kJ/mol
# Density = 1.970813 g / cm^3
# Si number density = 19.753086 Si / 1000 Ang^3
#
#
#
# Elastic Constant Matrix: (Units=GPa)
#
#
# Indices 1 2 3 4 5 6 
#
# 1 6.7239 -5.5281 -2.8590 0.0000 0.0000 0.0000
# 2 -5.5281 83.6802 12.6493 0.0000 0.0000 0.0000
# 3 -2.8590 12.6493 5.1213 0.0000 0.0000 0.0000
# 4 0.0000 0.0000 0.0000 -5.8934 0.0000 0.0000
# 5 0.0000 0.0000 0.0000 0.0000 -67.5761 0.0000
# 6 0.0000 0.0000 0.0000 0.0000 0.0000 -0.2936
#
#
#
# Elastic Compliance Matrix: (Units=1/GPa)
#
#
# Indices 1 2 3 4 5 6 
#
# 1 0.196737 -0.005754 0.124043 0.000000 0.000000 0.000000
# 2 -0.005754 0.019239 -0.050731 0.000000 0.000000 0.000000
# 3 0.124043 -0.050731 0.389815 0.000000 0.000000 0.000000
# 4 0.000000 0.000000 0.000000 -0.169680 0.000000 0.000000
# 5 0.000000 0.000000 0.000000 0.000000 -0.014798 0.000000
# 6 0.000000 0.000000 0.000000 0.000000 0.000000 -3.406338
#
#
# Mechanical properties :
#
#
# Convention : Reuss Voigt Hill
#
# Bulk Modulus (GPa) = 1.34969 11.56107 6.45538
# Shear Modulus (GPa) = -1.74024 -8.66841 -5.20432
#
# Velocity S-wave (km/s) = -0.93963 -2.09712 -1.62493
# Velocity P-wave (km/s) = 0.70174 0.04028 0.49539
#
# Compressibility (1/GPa) = 0.74090839
#
# Stress axis : x y z
#
# Youngs Moduli (GPa) = 5.08292 51.97858 2.56532
#
# Poissons Ratio (x) = 0.29907 -0.31821
# Poissons Ratio (y) = 0.02925 0.13014
# Poissons Ratio (z) = -0.63050 2.63691
#
# Static dielectric constant tensor:
#      x y z
#    x 1.712700 0.000000 0.000000 
#    y 0.000000 1.749250 0.000000 
#    z 0.000000 0.000000 1.694060 
# 
# From -- ./inp_files/17984.got.cif
#   From: 2010.05.17/outbox.ucp.g08.bks.cvg/sg57_9_cif.got.tgz:17984.got - 2010.06.11 16:39:23.
