data_PCOD9440180
_publ_section_title
;
Structure prediction by ZEFSAII (Michael W. Deem and Ramdas Pophale) SiO2 
 PCOD9440180
Probable space group: P B C M
;
_chemical_formula_sum "Si O2"
_cell_formula_units_Z 56
_cell_length_a 18.968723
_cell_length_b 9.067417
_cell_length_c 15.794154
_cell_angle_alpha 90.000000
_cell_angle_beta 90.000000
_cell_angle_gamma 90.000000
_cell_volume 2716.552182
_symmetry_space_group_name_H-M "P B C M"
_symmetry_group_IT_number 57
_symmetry_cell_setting 'orthorhombic'
loop_
_space_group_symop_operation_xyz
x,y,z
-x,-y,1/2+z
x,1/2-y,-z
-x,1/2+y,1/2-z
-x,-y,-z
x,y,1/2-z
-x,1/2+y,z
x,1/2-y,1/2+z
loop_
_atom_site_type_symbol
_atom_site_label
_atom_site_fract_x
_atom_site_fract_y
_atom_site_fract_z
Si Si1 0.697270 0.889182 0.548351
Si Si2 0.826021 0.465480 0.349836
Si Si3 0.922773 0.928461 0.498622
Si Si4 0.289631 0.851258 0.928344
Si Si5 0.845903 0.391222 0.654232
Si Si6 0.459215 0.078733 0.420836
Si Si7 0.576201 0.282358 0.154782
O O1 0.732118 0.750000 0.500000
O O2 0.618342 0.846154 0.575412
O O3 0.750800 0.968439 0.614771
O O4 0.679786 0.012278 0.478544
O O5 0.831583 0.503541 0.250000
O O6 0.881458 0.533115 0.415271
O O7 0.843548 0.288657 0.354608
O O8 0.926732 0.750000 0.500000
O O9 0.884080 0.011337 0.418572
O O10 0.000000 0.000000 0.500000
O O11 0.237076 0.917554 0.860002
O O12 0.350340 0.751831 0.890422
O O13 0.251431 0.750000 0.000000
O O14 0.869487 0.426809 0.750000
O O15 0.514854 0.195668 0.390471
O O16 0.500000 0.000000 0.500000
O O17 0.443988 0.951177 0.353533
O O18 0.583171 0.232352 0.250000
#
# Coordination Sequence:
#
# PCOD9440180 Si02
#       7
#     8   8   8   8   8   8   8
#     4  12  24  41  66  97 130 178 232 280 348 408
#     4  11  24  44  71 103 140 180 228 280 339 406
#     4  12  26  47  74 104 143 185 226 276 336 401
#     4  12  20  41  67  92 130 176 225 273 339 415
#     4  11  23  42  72 105 136 179 228 280 338 405
#     4  12  23  42  63  86 122 174 225 279 345 416
#     4  12  25  40  60  93 126 167 223 287 348 412
#
# _framework density 20.614366
#
# number of rings (size 3 to 8) (size 9 to 14) (size 15 to 20)
#    0.000    0.286    5.714    3.857    0.000    3.429 
#    0.000    0.714    0.000    0.000    0.000    0.000 
#    0.000    0.000    0.000    0.000    0.000    0.000 
#
# Total GULP energy -312154.949563 kJ/mol
# GULP energy per Si atom -5574.195528 kJ/mol
# Density = 2.056745 g / cm^3
# Si number density = 20.614366 Si / 1000 Ang^3
#
#
#
# Elastic Constant Matrix: (Units=GPa)
#
#
# Indices 1 2 3 4 5 6 
#
# 1 134.9789 40.1692 62.5142 0.0000 0.0000 0.0000
# 2 40.1692 92.3311 65.9460 0.0000 0.0000 0.0000
# 3 62.5142 65.9460 138.7209 0.0000 0.0000 0.0000
# 4 0.0000 0.0000 0.0000 13.7425 0.0000 0.0000
# 5 0.0000 0.0000 0.0000 0.0000 -12.9451 0.0000
# 6 0.0000 0.0000 0.0000 0.0000 0.0000 26.4996
#
#
#
# Elastic Compliance Matrix: (Units=1/GPa)
#
#
# Indices 1 2 3 4 5 6 
#
# 1 0.009522 -0.001632 -0.003515 0.000000 0.000000 0.000000
# 2 -0.001632 0.016678 -0.007193 0.000000 0.000000 0.000000
# 3 -0.003515 -0.007193 0.012212 0.000000 0.000000 0.000000
# 4 0.000000 0.000000 0.000000 0.072767 0.000000 0.000000
# 5 0.000000 0.000000 0.000000 0.000000 -0.077249 0.000000
# 6 0.000000 0.000000 0.000000 0.000000 0.000000 0.037736
#
#
# Mechanical properties :
#
#
# Convention : Reuss Voigt Hill
#
# Bulk Modulus (GPa) = 72.82272 78.14332 75.48302
# Shear Modulus (GPa) = 49.54148 18.61949 34.08049
#
# Velocity S-wave (km/s) = 4.90761 3.00864 4.07042
# Velocity P-wave (km/s) = 8.21680 7.07522 7.66728
#
# Compressibility (1/GPa) = 0.01373198
#
# Stress axis : x y z
#
# Youngs Moduli (GPa) = 105.01598 59.95861 81.88349
#
# Poissons Ratio (x) = 0.09785 0.28786
# Poissons Ratio (y) = 0.17138 0.58900
# Poissons Ratio (z) = 0.36918 0.43129
#
# Static dielectric constant tensor:
#      x y z
#    x 1.716330 0.000000 0.000000 
#    y 0.000000 1.784510 0.000000 
#    z 0.000000 0.000000 1.574600 
# 
# From -- ./inp_files/19336.got.cif
#   From: 2010.05.17/outbox.cif.g08.bks.cpg/sg57_10_cif.got.tgz:19336.got - 2010.06.03 13:58:18.
