data_PCOD9440530
_publ_section_title
;
Structure prediction by ZEFSAII (Michael W. Deem and Ramdas Pophale) SiO2 
 PCOD9440530
Probable space group: P B C M
;
_chemical_formula_sum "Si O2"
_cell_formula_units_Z 48
_cell_length_a 9.000000
_cell_length_b 15.000000
_cell_length_c 18.000000
_cell_angle_alpha 90.000000
_cell_angle_beta 90.000000
_cell_angle_gamma 90.000000
_cell_volume 2430.000000
_symmetry_space_group_name_H-M "P B C M"
_symmetry_group_IT_number 57
_symmetry_cell_setting 'orthorhombic'
loop_
_space_group_symop_operation_xyz
x,y,z
-x,-y,1/2+z
x,1/2-y,-z
-x,1/2+y,1/2-z
-x,-y,-z
x,y,1/2-z
-x,1/2+y,z
x,1/2-y,1/2+z
loop_
_atom_site_type_symbol
_atom_site_label
_atom_site_fract_x
_atom_site_fract_y
_atom_site_fract_z
Si Si1 0.958570 0.616816 0.428968
Si Si2 0.467678 0.851736 0.161265
Si Si3 0.093320 0.065212 0.898991
Si Si4 0.786354 0.762622 0.162250
Si Si5 0.608328 0.467150 0.659029
Si Si6 0.711802 0.290595 0.918801
O O1 0.976609 0.516869 0.394739
O O2 0.119393 0.668895 0.423177
O O3 0.914288 0.599243 0.515185
O O4 0.841004 0.678775 0.386082
O O5 0.465734 0.850200 0.250000
O O6 0.622707 0.800580 0.139545
O O7 0.328110 0.795264 0.131825
O O8 0.483780 0.957122 0.140745
O O9 0.096542 0.156229 0.851693
O O10 0.242772 0.016126 0.870404
O O11 0.781964 0.741311 0.250000
O O12 0.612526 0.454466 0.750000
O O13 0.612654 0.372586 0.615386
O O14 0.675346 0.250000 0.000000
#
# Coordination Sequence:
#
# PCOD9440530 Si02
#       6
#     8   8   8   8   8   8
#     4  10  21  36  56  83 115 145 182 238 291 341
#     4   9  20  38  56  77 109 149 194 239 281 338
#     4   9  18  35  57  79 111 151 187 224 280 347
#     4  10  20  35  57  82 107 143 192 238 283 339
#     4   9  19  37  60  83 111 153 198 238 286 345
#     4  11  22  35  56  86 118 152 189 234 294 350
#
# _framework density 19.753086
#
# number of rings (size 3 to 8) (size 9 to 14) (size 15 to 20)
#    0.000    2.333    0.000    3.500    0.000    7.333 
#    0.000    5.000    0.000    0.000    0.000    0.000 
#    0.000    0.000    0.000    0.000    0.000    0.000 
#
# Total GULP energy -267410.723507 kJ/mol
# GULP energy per Si atom -5571.056740 kJ/mol
# Density = 1.970813 g / cm^3
# Si number density = 19.753086 Si / 1000 Ang^3
#
#
#
# Elastic Constant Matrix: (Units=GPa)
#
#
# Indices 1 2 3 4 5 6 
#
# 1 18.9387 4.2729 13.4995 0.0000 0.0000 0.0000
# 2 4.2729 101.8094 39.1240 0.0000 0.0000 0.0000
# 3 13.4995 39.1240 63.9081 0.0000 0.0000 0.0000
# 4 0.0000 0.0000 0.0000 47.8718 0.0000 0.0000
# 5 0.0000 0.0000 0.0000 0.0000 11.5627 0.0000
# 6 0.0000 0.0000 0.0000 0.0000 0.0000 37.2851
#
#
#
# Elastic Compliance Matrix: (Units=1/GPa)
#
#
# Indices 1 2 3 4 5 6 
#
# 1 0.062962 0.003228 -0.015276 0.000000 0.000000 0.000000
# 2 0.003228 0.013009 -0.008646 0.000000 0.000000 0.000000
# 3 -0.015276 -0.008646 0.024167 0.000000 0.000000 0.000000
# 4 0.000000 0.000000 0.000000 0.020889 0.000000 0.000000
# 5 0.000000 0.000000 0.000000 0.000000 0.086485 0.000000
# 6 0.000000 0.000000 0.000000 0.000000 0.000000 0.026820
#
#
# Mechanical properties :
#
#
# Convention : Reuss Voigt Hill
#
# Bulk Modulus (GPa) = 17.02102 33.16099 25.09101
# Shear Modulus (GPa) = 16.93165 27.86124 22.39644
#
# Velocity S-wave (km/s) = 2.93091 3.75970 3.37088
# Velocity P-wave (km/s) = 4.48211 5.97255 5.28018
#
# Compressibility (1/GPa) = 0.05875088
#
# Stress axis : x y z
#
# Youngs Moduli (GPa) = 15.88253 76.86781 41.37840
#
# Poissons Ratio (x) = -0.24811 0.63208
# Poissons Ratio (y) = -0.05126 0.35776
# Poissons Ratio (z) = 0.24262 0.66460
#
# Static dielectric constant tensor:
#      x y z
#    x 1.721830 0.000000 0.000000 
#    y 0.000000 1.733500 0.000000 
#    z 0.000000 0.000000 1.690550 
# 
# From -- ./inp_files/20972.got.cif
#   From: 2010.05.17/outbox.ucp.g08.bks.cvg/sg57_11_cif.got.tgz:20972.got - 2010.06.11 16:39:23.
