data_PCOD9440152
_publ_section_title
;
Structure prediction by ZEFSAII (Michael W. Deem and Ramdas Pophale) SiO2 
 PCOD9440152
Probable space group: P B C M
;
_chemical_formula_sum "Si O2"
_cell_formula_units_Z 48
_cell_length_a 14.668803
_cell_length_b 20.768804
_cell_length_c 8.729188
_cell_angle_alpha 90.000000
_cell_angle_beta 90.000000
_cell_angle_gamma 90.000000
_cell_volume 2659.377628
_symmetry_space_group_name_H-M "P B C M"
_symmetry_group_IT_number 57
_symmetry_cell_setting 'orthorhombic'
loop_
_space_group_symop_operation_xyz
x,y,z
-x,-y,1/2+z
x,1/2-y,-z
-x,1/2+y,1/2-z
-x,-y,-z
x,y,1/2-z
-x,1/2+y,z
x,1/2-y,1/2+z
loop_
_atom_site_type_symbol
_atom_site_label
_atom_site_fract_x
_atom_site_fract_y
_atom_site_fract_z
Si Si1 0.753788 0.015422 0.567745
Si Si2 0.935454 0.818614 0.933406
Si Si3 0.059307 0.941260 0.933474
Si Si4 0.448616 0.937817 0.432517
Si Si5 0.441715 0.319541 0.567040
Si Si6 0.747316 0.628221 0.566975
O O1 0.763567 0.004458 0.750000
O O2 0.840714 0.053487 0.505182
O O3 0.658775 0.051892 0.540803
O O4 0.750011 0.946073 0.486079
O O5 0.925740 0.815073 0.750000
O O6 0.007218 0.875053 0.969613
O O7 0.964185 0.750000 0.000000
O O8 0.838480 0.837978 0.005733
O O9 0.064694 0.947780 0.750000
O O10 0.000000 0.000000 0.000000
O O11 0.464646 0.934993 0.250000
O O12 0.489276 0.874484 0.510082
O O13 0.500000 0.000000 0.500000
O O14 0.466228 0.250000 0.500000
O O15 0.439503 0.317644 0.750000
O O16 0.342031 0.339193 0.504553
O O17 0.743239 0.632163 0.750000
#
# Coordination Sequence:
#
# PCOD9440152 Si02
#       6
#     8   8   8   8   8   8
#     4  11  23  39  62  93 126 158 204 255 304 362
#     4  11  24  41  61  89 125 162 205 251 306 366
#     4  11  23  39  63  90 122 162 206 253 304 363
#     4  11  23  40  64  92 124 164 206 254 307 365
#     4  12  25  42  63  90 127 165 207 257 310 372
#     4  12  23  37  62  92 126 163 202 250 310 371
#
# _framework density 18.049336
#
# number of rings (size 3 to 8) (size 9 to 14) (size 15 to 20)
#    0.000    0.667    3.333    5.500    0.000    4.000 
#    0.000    0.833    0.000    2.000    0.000    0.000 
#    0.000    0.000    0.000    0.000    0.000    0.000 
#
# Total GULP energy -268620.456514 kJ/mol
# GULP energy per Si atom -5596.259511 kJ/mol
# Density = 1.800826 g / cm^3
# Si number density = 18.049336 Si / 1000 Ang^3
#
#
#
# Elastic Constant Matrix: (Units=GPa)
#
#
# Indices 1 2 3 4 5 6 
#
# 1 127.5082 77.6218 83.1000 0.0000 0.0000 0.0000
# 2 77.6218 172.1758 88.6964 0.0000 0.0000 0.0000
# 3 83.1000 88.6964 140.4063 0.0000 0.0000 0.0000
# 4 0.0000 0.0000 0.0000 34.2092 0.0000 0.0000
# 5 0.0000 0.0000 0.0000 0.0000 33.2733 0.0000
# 6 0.0000 0.0000 0.0000 0.0000 0.0000 -5.2055
#
#
#
# Elastic Compliance Matrix: (Units=1/GPa)
#
#
# Indices 1 2 3 4 5 6 
#
# 1 0.013719 -0.002968 -0.006245 0.000000 0.000000 0.000000
# 2 -0.002968 0.009252 -0.004088 0.000000 0.000000 0.000000
# 3 -0.006245 -0.004088 0.013401 0.000000 0.000000 0.000000
# 4 0.000000 0.000000 0.000000 0.029232 0.000000 0.000000
# 5 0.000000 0.000000 0.000000 0.000000 0.030054 0.000000
# 6 0.000000 0.000000 0.000000 0.000000 0.000000 -0.192104
#
#
# Mechanical properties :
#
#
# Convention : Reuss Voigt Hill
#
# Bulk Modulus (GPa) = 102.35160 104.32517 103.33838
# Shear Modulus (GPa) = -75.09005 25.16688 -24.96158
#
# Velocity S-wave (km/s) = -6.45701 3.73813 -3.72286
# Velocity P-wave (km/s) = 1.11312 8.74969 6.23683
#
# Compressibility (1/GPa) = 0.00977024
#
# Stress axis : x y z
#
# Youngs Moduli (GPa) = 72.88934 108.08471 74.62288
#
# Poissons Ratio (x) = 0.32080 0.46602
# Poissons Ratio (y) = 0.21634 0.30506
# Poissons Ratio (z) = 0.45519 0.44185
#
# Static dielectric constant tensor:
#      x y z
#    x 1.596190 0.000000 0.000000 
#    y 0.000000 1.595770 0.000000 
#    z 0.000000 0.000000 1.603740 
# 
# From -- ./inp_files/4667.got.cif
#   From: 2010.05.17/outbox.cif.g08.bks.cpg/sg57_3_cif.got.tgz:4667.got - 2010.06.03 13:58:18.
