data_PCOD9440172
_publ_section_title
;
Structure prediction by ZEFSAII (Michael W. Deem and Ramdas Pophale) SiO2 
 PCOD9440172
Probable space group: P B C M
;
_chemical_formula_sum "Si O2"
_cell_formula_units_Z 48
_cell_length_a 16.648294
_cell_length_b 10.011910
_cell_length_c 14.533018
_cell_angle_alpha 90.000000
_cell_angle_beta 90.000000
_cell_angle_gamma 90.000000
_cell_volume 2422.381188
_symmetry_space_group_name_H-M "P B C M"
_symmetry_group_IT_number 57
_symmetry_cell_setting 'orthorhombic'
loop_
_space_group_symop_operation_xyz
x,y,z
-x,-y,1/2+z
x,1/2-y,-z
-x,1/2+y,1/2-z
-x,-y,-z
x,y,1/2-z
-x,1/2+y,z
x,1/2-y,1/2+z
loop_
_atom_site_type_symbol
_atom_site_label
_atom_site_fract_x
_atom_site_fract_y
_atom_site_fract_z
Si Si1 0.157423 0.531777 0.355404
Si Si2 0.424244 0.032249 0.250000
Si Si3 0.001949 0.125720 0.066074
Si Si4 0.170609 0.217818 0.140312
Si Si5 0.586593 0.206052 0.250000
Si Si6 0.339861 0.375935 0.941196
Si Si7 0.682432 0.128511 0.066809
O O1 0.184201 0.535563 0.250000
O O2 0.070796 0.599027 0.364557
O O3 0.157312 0.374984 0.382082
O O4 0.223211 0.608621 0.414105
O O5 0.507346 0.114204 0.250000
O O6 0.380798 0.080957 0.155302
O O7 0.428739 0.868296 0.250000
O O8 0.088326 0.144787 0.112799
O O9 0.985720 0.250000 0.000000
O O10 0.000000 0.000000 0.000000
O O11 0.183701 0.206550 0.250000
O O12 0.248217 0.161523 0.087821
O O13 0.637022 0.162138 0.160680
O O14 0.372981 0.250000 0.000000
O O15 0.344490 0.496215 0.013499
O O16 0.668069 0.250000 0.000000
#
# Coordination Sequence:
#
# PCOD9440172 Si02
#       7
#     8   4   8   8   4   8   8
#     4  11  23  41  67  99 138 188 242 296 354 415
#     4  12  30  52  76 113 150 185 234 297 358 433
#     4  12  23  41  60  95 140 182 241 296 347 416
#     4  11  23  42  67  99 140 186 243 295 354 423
#     4  12  30  52  76 113 150 183 236 295 360 433
#     4  12  25  46  78 109 144 193 243 289 363 431
#     4  12  25  47  75 107 148 187 236 299 352 428
#
# _framework density 19.815214000000001
#
# number of rings (size 3 to 8) (size 9 to 14) (size 15 to 20)
#    0.000    0.333    6.667    2.500    2.333    1.333 
#    0.000    1.667    0.000    0.000    0.000    0.000 
#    0.000    0.000    0.000    0.000    0.000    0.000 
#
# Total GULP energy -268232.785451 kJ/mol
# GULP energy per Si atom -5588.183030 kJ/mol
# Density = 1.977011 g / cm^3
# Si number density = 19.815214 Si / 1000 Ang^3
#
#
#
# Elastic Constant Matrix: (Units=GPa)
#
#
# Indices 1 2 3 4 5 6 
#
# 1 96.9481 38.1929 46.2251 0.0000 0.0000 0.0000
# 2 38.1929 150.8346 64.1557 0.0000 0.0000 0.0000
# 3 46.2251 64.1557 144.4256 0.0000 0.0000 0.0000
# 4 0.0000 0.0000 0.0000 41.8178 0.0000 0.0000
# 5 0.0000 0.0000 0.0000 0.0000 -5.9318 0.0000
# 6 0.0000 0.0000 0.0000 0.0000 0.0000 20.0122
#
#
#
# Elastic Compliance Matrix: (Units=1/GPa)
#
#
# Indices 1 2 3 4 5 6 
#
# 1 0.012562 -0.001813 -0.003215 0.000000 0.000000 0.000000
# 2 -0.001813 0.008436 -0.003167 0.000000 0.000000 0.000000
# 3 -0.003215 -0.003167 0.009360 0.000000 0.000000 0.000000
# 4 0.000000 0.000000 0.000000 0.023913 0.000000 0.000000
# 5 0.000000 0.000000 0.000000 0.000000 -0.168582 0.000000
# 6 0.000000 0.000000 0.000000 0.000000 0.000000 0.049970
#
#
# Mechanical properties :
#
#
# Convention : Reuss Voigt Hill
#
# Bulk Modulus (GPa) = 71.59730 76.59510 74.09620
# Shear Modulus (GPa) = -115.48920 27.42192 -44.03364
#
# Velocity S-wave (km/s) = -7.64262 3.72409 -4.71915
# Velocity P-wave (km/s) = 6.45512 7.56508 2.78943
#
# Compressibility (1/GPa) = 0.01396701
#
# Stress axis : x y z
#
# Youngs Moduli (GPa) = 79.60413 118.53993 106.83935
#
# Poissons Ratio (x) = 0.21495 0.34351
# Poissons Ratio (y) = 0.14435 0.33836
# Poissons Ratio (z) = 0.25594 0.37541
#
# Static dielectric constant tensor:
#      x y z
#    x 1.661900 0.000000 0.000000 
#    y 0.000000 1.838390 0.000000 
#    z 0.000000 0.000000 1.676300 
# 
# From -- ./inp_files/18987.got.cif
#   From: 2010.05.17/outbox.cif.g08.bks.cpg/sg57_10_cif.got.tgz:18987.got - 2010.06.03 13:58:18.
