data_PCOD9440937
_publ_section_title
;
Structure prediction by ZEFSAII (Michael W. Deem and Ramdas Pophale) SiO2 
 PCOD9440937
Probable space group: P N N M
;
_chemical_formula_sum "Si O2"
_cell_formula_units_Z 56
_cell_length_a 18.978015
_cell_length_b 21.537203
_cell_length_c 8.508521
_cell_angle_alpha 90.000000
_cell_angle_beta 90.000000
_cell_angle_gamma 90.000000
_cell_volume 3477.716391
_symmetry_space_group_name_H-M "P N N M"
_symmetry_group_IT_number 58
_symmetry_cell_setting 'orthorhombic'
loop_
_space_group_symop_operation_xyz
x,y,z
-x,-y,z
1/2+x,1/2-y,1/2-z
1/2-x,1/2+y,1/2-z
-x,-y,-z
x,y,-z
1/2-x,1/2+y,1/2+z
1/2+x,1/2-y,1/2+z
loop_
_atom_site_type_symbol
_atom_site_label
_atom_site_fract_x
_atom_site_fract_y
_atom_site_fract_z
Si Si1 0.155802 0.877220 0.810325
Si Si2 0.658599 0.373921 0.188208
Si Si3 0.079474 0.247881 0.812822
Si Si4 0.082396 0.747245 0.810219
Si Si5 0.706446 0.185105 0.185714
Si Si6 0.580970 0.499730 0.810288
Si Si7 0.283807 0.193755 0.814417
O O1 0.111155 0.815819 0.763742
O O2 0.237224 0.866453 0.760155
O O3 0.120998 0.938978 0.745480
O O4 0.155294 0.878961 0.000000
O O5 0.610685 0.314828 0.236267
O O6 0.620800 0.437105 0.240297
O O7 0.735343 0.363921 0.265099
O O8 0.665895 0.374164 0.000000
O O9 0.131981 0.303993 0.768452
O O10 0.998983 0.258797 0.764093
O O11 0.081109 0.239028 0.000000
O O12 0.134826 0.696964 0.734525
O O13 0.087514 0.742852 0.000000
O O14 0.748623 0.249043 0.219736
O O15 0.695187 0.178761 0.000000
O O16 0.500000 0.500000 0.754496
O O17 0.579828 0.499589 0.000000
O O18 0.276466 0.204625 0.000000
#
# Coordination Sequence:
#
# PCOD9440937 Si02
#       7
#     8   8   8   8   8   8   8
#     4   9  18  31  46  63  87 122 154 182 218 259
#     4  10  19  31  45  62  91 125 151 183 226 263
#     4  10  18  28  46  70  92 117 150 185 221 266
#     4   9  18  31  45  66  95 120 145 182 229 271
#     4   9  17  30  45  63  90 119 147 182 227 270
#     4  10  21  33  45  65  91 120 154 187 218 256
#     4  10  18  28  45  66  86 114 153 188 220 265
#
# _framework density 16.102519999999998
#
# number of rings (size 3 to 8) (size 9 to 14) (size 15 to 20)
#    0.000    2.429    0.000    6.000    0.000    5.429 
#    0.000    0.000    0.000    0.000    0.000    1.000 
#    0.000    8.000    0.000    0.000    0.000    0.000 
#
# Total GULP energy -312064.434541 kJ/mol
# GULP energy per Si atom -5572.579188 kJ/mol
# Density = 1.606587 g / cm^3
# Si number density = 16.102520 Si / 1000 Ang^3
#
#
#
# Elastic Constant Matrix: (Units=GPa)
#
#
# Indices 1 2 3 4 5 6 
#
# 1 157.3114 64.3833 19.4932 0.0000 0.0000 0.0000
# 2 64.3833 75.7287 9.7963 0.0000 0.0000 0.0000
# 3 19.4932 9.7963 10.9256 0.0000 0.0000 0.0000
# 4 0.0000 0.0000 0.0000 14.8387 0.0000 0.0000
# 5 0.0000 0.0000 0.0000 0.0000 25.2368 0.0000
# 6 0.0000 0.0000 0.0000 0.0000 0.0000 26.7842
#
#
#
# Elastic Compliance Matrix: (Units=1/GPa)
#
#
# Indices 1 2 3 4 5 6 
#
# 1 0.011152 -0.007814 -0.012891 0.000000 0.000000 0.000000
# 2 -0.007814 0.020412 -0.004361 0.000000 0.000000 0.000000
# 3 -0.012891 -0.004361 0.118439 0.000000 0.000000 0.000000
# 4 0.000000 0.000000 0.000000 0.067391 0.000000 0.000000
# 5 0.000000 0.000000 0.000000 0.000000 0.039625 0.000000
# 6 0.000000 0.000000 0.000000 0.000000 0.000000 0.037335
#
#
# Mechanical properties :
#
#
# Convention : Reuss Voigt Hill
#
# Bulk Modulus (GPa) = 10.01298 47.92348 28.96823
# Shear Modulus (GPa) = 13.23530 23.39148 18.31339
#
# Velocity S-wave (km/s) = 2.87006 3.81551 3.37605
# Velocity P-wave (km/s) = 4.14907 7.01690 5.76419
#
# Compressibility (1/GPa) = 0.09987039
#
# Stress axis : x y z
#
# Youngs Moduli (GPa) = 89.66820 48.98983 8.44320
#
# Poissons Ratio (x) = 0.38280 0.10884
# Poissons Ratio (y) = 0.70065 0.03682
# Poissons Ratio (z) = 1.15594 0.21366
#
# Static dielectric constant tensor:
#      x y z
#    x 1.578270 0.000000 0.000000 
#    y 0.000000 1.521030 0.000000 
#    z 0.000000 0.000000 1.546140 
# 
# From -- ./inp_files/8148.got.cif
#   From: 2010.05.17/outbox.cif.g08.bks.cpg/sg58_5_cif.got.tgz:8148.got - 2010.06.03 14:20:14.
