data_PCOD9440202
_publ_section_title
;
Structure prediction by ZEFSAII (Michael W. Deem and Ramdas Pophale) SiO2 
 PCOD9440202
Probable space group: P B C M
;
_chemical_formula_sum "Si O2"
_cell_formula_units_Z 32
_cell_length_a 5.771791
_cell_length_b 15.832561
_cell_length_c 14.881316
_cell_angle_alpha 90.000000
_cell_angle_beta 90.000000
_cell_angle_gamma 90.000000
_cell_volume 1359.887887
_symmetry_space_group_name_H-M "P B C M"
_symmetry_group_IT_number 57
_symmetry_cell_setting 'orthorhombic'
loop_
_space_group_symop_operation_xyz
x,y,z
-x,-y,1/2+z
x,1/2-y,-z
-x,1/2+y,1/2-z
-x,-y,-z
x,y,1/2-z
-x,1/2+y,z
x,1/2-y,1/2+z
loop_
_atom_site_type_symbol
_atom_site_label
_atom_site_fract_x
_atom_site_fract_y
_atom_site_fract_z
Si Si1 0.688606 0.250000 0.500000
Si Si2 0.048577 0.151982 0.392753
Si Si3 0.375183 0.085203 0.540542
Si Si4 0.604505 0.914981 0.250000
Si Si5 0.748209 0.080508 0.250000
Si Si6 0.595255 0.774115 0.750000
O O1 0.541931 0.167199 0.526653
O O2 0.859799 0.220357 0.421600
O O3 0.157702 0.107316 0.478625
O O4 0.246325 0.199169 0.334998
O O5 0.919011 0.081345 0.334253
O O6 0.303207 0.083329 0.645821
O O7 0.500000 0.000000 0.500000
O O8 0.507626 0.821403 0.250000
O O9 0.537220 0.013929 0.250000
O O10 0.627424 0.169260 0.250000
#
# Coordination Sequence:
#
# PCOD9440202 Si02
#       6
#     4   8   8   4   4   4
#     4  12  24  44  72 102 144 192 234 290 356 428
#     4  11  24  44  71 100 141 188 231 288 362 425
#     4  12  27  46  70 103 146 188 238 300 359 423
#     4  12  24  42  70  98 132 184 237 286 350 420
#     4  11  25  45  69 100 142 184 232 295 356 422
#     4  11  23  45  71 104 142 182 233 293 350 424
#
# _framework density 23.531351999999998
#
# number of rings (size 3 to 8) (size 9 to 14) (size 15 to 20)
#    0.000    0.500    0.000    9.750    0.000    8.000 
#    0.000    6.250    0.000    0.000    0.000    0.000 
#    0.000    0.000    0.000    0.000    0.000    0.000 
#
# Total GULP energy -178391.614903 kJ/mol
# GULP energy per Si atom -5574.737966 kJ/mol
# Density = 2.347779 g / cm^3
# Si number density = 23.531352 Si / 1000 Ang^3
#
#
#
# Elastic Constant Matrix: (Units=GPa)
#
#
# Indices 1 2 3 4 5 6 
#
# 1 76.1212 32.7358 47.3422 0.0000 0.0000 0.0000
# 2 32.7358 181.2415 44.7833 0.0000 0.0000 0.0000
# 3 47.3422 44.7833 182.7435 0.0000 0.0000 0.0000
# 4 0.0000 0.0000 0.0000 13.2053 0.0000 0.0000
# 5 0.0000 0.0000 0.0000 0.0000 17.2812 0.0000
# 6 0.0000 0.0000 0.0000 0.0000 0.0000 26.8820
#
#
#
# Elastic Compliance Matrix: (Units=1/GPa)
#
#
# Indices 1 2 3 4 5 6 
#
# 1 0.016331 -0.002027 -0.003734 0.000000 0.000000 0.000000
# 2 -0.002027 0.006125 -0.000976 0.000000 0.000000 0.000000
# 3 -0.003734 -0.000976 0.006679 0.000000 0.000000 0.000000
# 4 0.000000 0.000000 0.000000 0.075727 0.000000 0.000000
# 5 0.000000 0.000000 0.000000 0.000000 0.057866 0.000000
# 6 0.000000 0.000000 0.000000 0.000000 0.000000 0.037200
#
#
# Mechanical properties :
#
#
# Convention : Reuss Voigt Hill
#
# Bulk Modulus (GPa) = 63.85445 76.64764 70.25105
# Shear Modulus (GPa) = 22.87056 32.49001 27.68029
#
# Velocity S-wave (km/s) = 3.12094 3.71982 3.43347
# Velocity P-wave (km/s) = 6.33892 7.14792 6.75554
#
# Compressibility (1/GPa) = 0.01566061
#
# Stress axis : x y z
#
# Youngs Moduli (GPa) = 61.23332 163.27227 149.73136
#
# Poissons Ratio (x) = 0.33096 0.55910
# Poissons Ratio (y) = 0.12412 0.14611
# Poissons Ratio (z) = 0.22865 0.15932
#
# Static dielectric constant tensor:
#      x y z
#    x 1.872510 0.000000 0.000000 
#    y 0.000000 1.882010 0.000000 
#    z 0.000000 0.000000 1.577740 
# 
# From -- ./inp_files/14801.got.cif
#   From: 2010.05.17/outbox.cif.g08.bks.cpg/sg57_8_cif.got.tgz:14801.got - 2010.06.03 13:58:18.
