data_PCOD9440326
_publ_section_title
;
Structure prediction by ZEFSAII (Michael W. Deem and Ramdas Pophale) SiO2 
 PCOD9440326
Probable space group: P B C M
;
_chemical_formula_sum "Si O2"
_cell_formula_units_Z 32
_cell_length_a 11.607933
_cell_length_b 8.059494
_cell_length_c 14.648213
_cell_angle_alpha 90.000000
_cell_angle_beta 90.000000
_cell_angle_gamma 90.000000
_cell_volume 1370.399891
_symmetry_space_group_name_H-M "P B C M"
_symmetry_group_IT_number 57
_symmetry_cell_setting 'orthorhombic'
loop_
_space_group_symop_operation_xyz
x,y,z
-x,-y,1/2+z
x,1/2-y,-z
-x,1/2+y,1/2-z
-x,-y,-z
x,y,1/2-z
-x,1/2+y,z
x,1/2-y,1/2+z
loop_
_atom_site_type_symbol
_atom_site_label
_atom_site_fract_x
_atom_site_fract_y
_atom_site_fract_z
Si Si1 0.316727 0.094704 0.584449
Si Si2 0.887075 0.041452 0.750000
Si Si3 0.149697 0.354342 0.250000
Si Si4 0.743138 0.395971 0.073550
Si Si5 0.465071 0.413532 0.641533
O O1 0.223917 0.090113 0.663748
O O2 0.397014 0.255009 0.602833
O O3 0.247751 0.059139 0.491429
O O4 0.413218 0.950227 0.594738
O O5 0.831441 0.114303 0.842696
O O6 0.022723 0.071600 0.750000
O O7 0.857621 0.845749 0.750000
O O8 0.619645 0.430690 0.121245
O O9 0.755774 0.250000 0.000000
O O10 0.479594 0.395894 0.750000
#
# Coordination Sequence:
#
# PCOD9440326 Si02
#       5
#     8   4   4   8   8
#     4  12  25  46  80 117 156 204 247 317 383 462
#     4  12  30  57  77 108 154 207 264 332 374 437
#     4  12  28  53  81 110 156 203 264 320 376 451
#     4  12  27  48  79 114 157 202 257 313 383 467
#     4  12  22  47  78 117 163 201 242 318 392 463
#
# _framework density 23.350847999999999
#
# number of rings (size 3 to 8) (size 9 to 14) (size 15 to 20)
#    0.000    0.000    6.250    3.000    3.500    1.000 
#    0.000    0.000    0.000    0.000    0.000    0.000 
#    0.000    0.000    0.000    0.000    0.000    0.000 
#
# Total GULP energy -179054.068221 kJ/mol
# GULP energy per Si atom -5595.439632 kJ/mol
# Density = 2.329770 g / cm^3
# Si number density = 23.350848 Si / 1000 Ang^3
#
#
#
# Elastic Constant Matrix: (Units=GPa)
#
#
# Indices 1 2 3 4 5 6 
#
# 1 178.3385 35.4645 74.9287 0.0000 0.0000 0.0000
# 2 35.4645 76.4880 29.6217 0.0000 0.0000 0.0000
# 3 74.9287 29.6217 172.7690 0.0000 0.0000 0.0000
# 4 0.0000 0.0000 0.0000 34.1412 0.0000 0.0000
# 5 0.0000 0.0000 0.0000 0.0000 -44.0334 0.0000
# 6 0.0000 0.0000 0.0000 0.0000 0.0000 32.6246
#
#
#
# Elastic Compliance Matrix: (Units=1/GPa)
#
#
# Indices 1 2 3 4 5 6 
#
# 1 0.007211 -0.002284 -0.002736 0.000000 0.000000 0.000000
# 2 -0.002284 0.014727 -0.001534 0.000000 0.000000 0.000000
# 3 -0.002736 -0.001534 0.007238 0.000000 0.000000 0.000000
# 4 0.000000 0.000000 0.000000 0.029290 0.000000 0.000000
# 5 0.000000 0.000000 0.000000 0.000000 -0.022710 0.000000
# 6 0.000000 0.000000 0.000000 0.000000 0.000000 0.030652
#
#
# Mechanical properties :
#
#
# Convention : Reuss Voigt Hill
#
# Bulk Modulus (GPa) = 62.23778 78.62504 70.43141
# Shear Modulus (GPa) = 58.91244 23.71851 41.31548
#
# Velocity S-wave (km/s) = 5.02832 3.19053 4.21091
# Velocity P-wave (km/s) = 7.77324 6.87873 7.33962
#
# Compressibility (1/GPa) = 0.01606741
#
# Stress axis : x y z
#
# Youngs Moduli (GPa) = 138.67859 67.90159 138.16669
#
# Poissons Ratio (x) = 0.15508 0.37799
# Poissons Ratio (y) = 0.31673 0.21201
# Poissons Ratio (z) = 0.37939 0.10419
#
# Static dielectric constant tensor:
#      x y z
#    x 1.805070 0.000000 0.000000 
#    y 0.000000 2.099720 0.000000 
#    z 0.000000 0.000000 1.880830 
# 
# From -- ./inp_files/17213.got.cif
#   From: 2010.05.17/outbox.cif.g08.bks.cpg/sg57_9_cif.got.tgz:17213.got - 2010.06.03 13:58:18.
