data_PCOD9440821
_publ_section_title
;
Structure prediction by ZEFSAII (Michael W. Deem and Ramdas Pophale) SiO2 
 PCOD9440821
Probable space group: P N N M
;
_chemical_formula_sum "Si O2"
_cell_formula_units_Z 52
_cell_length_a 14.750953
_cell_length_b 20.271629
_cell_length_c 7.815900
_cell_angle_alpha 90.000000
_cell_angle_beta 90.000000
_cell_angle_gamma 90.000000
_cell_volume 2337.156115
_symmetry_space_group_name_H-M "P N N M"
_symmetry_group_IT_number 58
_symmetry_cell_setting 'orthorhombic'
loop_
_space_group_symop_operation_xyz
x,y,z
-x,-y,z
1/2+x,1/2-y,1/2-z
1/2-x,1/2+y,1/2-z
-x,-y,-z
x,y,-z
1/2-x,1/2+y,1/2+z
1/2+x,1/2-y,1/2+z
loop_
_atom_site_type_symbol
_atom_site_label
_atom_site_fract_x
_atom_site_fract_y
_atom_site_fract_z
Si Si1 0.723643 0.927590 0.299593
Si Si2 0.000000 0.000000 0.746068
Si Si3 0.426704 0.169471 0.290816
Si Si4 0.413774 0.623573 0.697543
Si Si5 0.312306 0.295605 0.301257
Si Si6 0.805628 0.059093 0.192028
Si Si7 0.891617 0.727637 0.793834
O O1 0.733789 0.912077 0.500000
O O2 0.629504 0.895426 0.240583
O O3 0.806777 0.891072 0.206731
O O4 0.739837 0.005568 0.277575
O O5 0.963689 0.929169 0.683066
O O6 0.096219 0.975515 0.819974
O O7 0.428323 0.170933 0.500000
O O8 0.369970 0.234122 0.231877
O O9 0.530921 0.176747 0.237169
O O10 0.444281 0.611974 0.500000
O O11 0.429615 0.699117 0.740669
O O12 0.341344 0.301561 0.500000
O O13 0.319618 0.369232 0.224865
O O14 0.206038 0.279078 0.290029
O O15 0.770585 0.069532 0.000000
O O16 0.878824 0.722914 0.000000
#
# Coordination Sequence:
#
# PCOD9440821 Si02
#       7
#     8   4   8   8   8   8   8
#     4  10  19  33  53  75 106 141 172 214 269 325
#     4  10  17  30  53  82 107 136 179 220 269 334
#     4   9  18  34  56  79 105 142 184 222 271 328
#     4  10  18  30  51  78 107 137 174 221 268 322
#     4  10  20  37  57  80 111 145 181 228 279 327
#     4  10  20  34  55  79 107 141 180 225 273 325
#     4  10  20  34  55  81 107 140 186 231 269 323
#
# _framework density 22.249261000000001
#
# number of rings (size 3 to 8) (size 9 to 14) (size 15 to 20)
#    0.000    2.154    1.538    3.692    0.000    3.077 
#    0.000    9.231    0.000   12.000    0.000    0.000 
#    0.000    0.000    0.000    0.000    0.000    0.000 
#
# Total GULP energy -289720.997796 kJ/mol
# GULP energy per Si atom -5571.557650 kJ/mol
# Density = 2.219862 g / cm^3
# Si number density = 22.249261 Si / 1000 Ang^3
#
#
#
# Elastic Constant Matrix: (Units=GPa)
#
#
# Indices 1 2 3 4 5 6 
#
# 1 51.6772 -8.8486 -4.5660 0.0000 0.0000 0.0000
# 2 -8.8486 73.6346 5.1374 0.0000 0.0000 0.0000
# 3 -4.5660 5.1374 43.5686 0.0000 0.0000 0.0000
# 4 0.0000 0.0000 0.0000 -146.2387 0.0000 0.0000
# 5 0.0000 0.0000 0.0000 0.0000 5.9420 0.0000
# 6 0.0000 0.0000 0.0000 0.0000 0.0000 36.4849
#
#
#
# Elastic Compliance Matrix: (Units=1/GPa)
#
#
# Indices 1 2 3 4 5 6 
#
# 1 0.019899 0.002264 0.001818 0.000000 0.000000 0.000000
# 2 0.002264 0.013951 -0.001408 0.000000 0.000000 0.000000
# 3 0.001818 -0.001408 0.023309 0.000000 0.000000 0.000000
# 4 0.000000 0.000000 0.000000 -0.006838 0.000000 0.000000
# 5 0.000000 0.000000 0.000000 0.000000 0.168294 0.000000
# 6 0.000000 0.000000 0.000000 0.000000 0.000000 0.027409
#
#
# Mechanical properties :
#
#
# Convention : Reuss Voigt Hill
#
# Bulk Modulus (GPa) = 15.99761 16.92511 16.46136
# Shear Modulus (GPa) = 19.11978 -8.95187 5.08396
#
# Velocity S-wave (km/s) = 2.93464 -2.00803 1.51326
# Velocity P-wave (km/s) = 4.32303 1.49911 3.23542
#
# Compressibility (1/GPa) = 0.06250936
#
# Stress axis : x y z
#
# Youngs Moduli (GPa) = 50.25307 71.67996 42.90208
#
# Poissons Ratio (x) = -0.16231 -0.07801
# Poissons Ratio (y) = -0.11379 0.06039
# Poissons Ratio (z) = -0.09138 0.10090
#
# Static dielectric constant tensor:
#      x y z
#    x 1.798800 0.000000 0.000000 
#    y 0.000000 1.857180 0.000000 
#    z 0.000000 0.000000 1.847330 
# 
# From -- ./inp_files/6142.got.cif
#   From: 2010.05.17/outbox.cif.g08.bks.cpg/sg58_4_cif.got.tgz:6142.got - 2010.06.03 14:20:14.
