data_PCOD9440851
_publ_section_title
;
Structure prediction by ZEFSAII (Michael W. Deem and Ramdas Pophale) SiO2 
 PCOD9440851
Probable space group: P N N M
;
_chemical_formula_sum "Si O2"
_cell_formula_units_Z 32
_cell_length_a 13.693610
_cell_length_b 7.436011
_cell_length_c 11.195661
_cell_angle_alpha 90.000000
_cell_angle_beta 90.000000
_cell_angle_gamma 90.000000
_cell_volume 1140.007525
_symmetry_space_group_name_H-M "P N N M"
_symmetry_group_IT_number 58
_symmetry_cell_setting 'orthorhombic'
loop_
_space_group_symop_operation_xyz
x,y,z
-x,-y,z
1/2+x,1/2-y,1/2-z
1/2-x,1/2+y,1/2-z
-x,-y,-z
x,y,-z
1/2-x,1/2+y,1/2+z
1/2+x,1/2-y,1/2+z
loop_
_atom_site_type_symbol
_atom_site_label
_atom_site_fract_x
_atom_site_fract_y
_atom_site_fract_z
Si Si1 0.695480 0.702301 0.753832
Si Si2 0.716749 0.727741 0.500000
Si Si3 0.591367 0.317414 0.247459
Si Si4 0.046816 0.301117 0.500000
Si Si5 0.557781 0.184274 0.500000
Si Si6 0.240523 0.676234 0.500000
O O1 0.675388 0.793884 0.625766
O O2 0.641466 0.512475 0.758888
O O3 0.814317 0.684494 0.746830
O O4 0.681467 0.805082 0.878385
O O5 0.834744 0.733919 0.500000
O O6 0.702226 0.511252 0.500000
O O7 0.539169 0.286195 0.374185
O O8 0.526344 0.283023 0.130604
O O9 0.000000 0.500000 0.500000
O O10 0.676600 0.171131 0.500000
O O11 0.500000 0.000000 0.500000
#
# Coordination Sequence:
#
# PCOD9440851 Si02
#       6
#     8   4   8   4   4   4
#     4  10  17  32  52  79 105 135 178 232 270 304
#     4  10  18  34  51  80 111 134 177 239 265 307
#     4  10  19  31  53  79 104 134 180 225 266 320
#     4  10  21  33  51  79 110 142 175 218 273 335
#     4  10  18  31  50  76 107 138 167 218 273 320
#     4  10  19  32  52  81 106 135 182 226 278 310
#
# _framework density 28.069987999999999
#
# number of rings (size 3 to 8) (size 9 to 14) (size 15 to 20)
#    0.000    2.000    5.000    1.500    0.000    0.000 
#    0.000    0.000    0.000    3.000    0.000    7.000 
#    0.000    0.000    0.000    0.000    0.000    0.000 
#
# Total GULP energy -178982.077211 kJ/mol
# GULP energy per Si atom -5593.189913 kJ/mol
# Density = 2.800610 g / cm^3
# Si number density = 28.069988 Si / 1000 Ang^3
#
#
#
# Elastic Constant Matrix: (Units=GPa)
#
#
# Indices 1 2 3 4 5 6 
#
# 1 144.3708 21.5588 15.1527 0.0000 0.0000 0.0000
# 2 21.5588 112.3904 64.9470 0.0000 0.0000 0.0000
# 3 15.1527 64.9470 360.1225 0.0000 0.0000 0.0000
# 4 0.0000 0.0000 0.0000 67.7331 0.0000 0.0000
# 5 0.0000 0.0000 0.0000 0.0000 -23.9924 0.0000
# 6 0.0000 0.0000 0.0000 0.0000 0.0000 67.2651
#
#
#
# Elastic Compliance Matrix: (Units=1/GPa)
#
#
# Indices 1 2 3 4 5 6 
#
# 1 0.007132 -0.001334 -0.000060 0.000000 0.000000 0.000000
# 2 -0.001334 0.010182 -0.001780 0.000000 0.000000 0.000000
# 3 -0.000060 -0.001780 0.003100 0.000000 0.000000 0.000000
# 4 0.000000 0.000000 0.000000 0.014764 0.000000 0.000000
# 5 0.000000 0.000000 0.000000 0.000000 -0.041680 0.000000
# 6 0.000000 0.000000 0.000000 0.000000 0.000000 0.014867
#
#
# Mechanical properties :
#
#
# Convention : Reuss Voigt Hill
#
# Bulk Modulus (GPa) = 71.08491 91.13342 81.10916
# Shear Modulus (GPa) = 257.71707 56.54949 157.13328
#
# Velocity S-wave (km/s) = 9.59227 4.49329 7.49004
# Velocity P-wave (km/s) = 12.16805 7.71080 10.18621
#
# Compressibility (1/GPa) = 0.01406768
#
# Stress axis : x y z
#
# Youngs Moduli (GPa) = 140.21292 98.21160 322.53986
#
# Poissons Ratio (x) = 0.13098 0.01921
# Poissons Ratio (y) = 0.18699 0.57418
# Poissons Ratio (z) = 0.00835 0.17484
#
# Static dielectric constant tensor:
#      x y z
#    x 2.241670 0.000000 0.000000 
#    y 0.000000 2.132350 0.000000 
#    z 0.000000 0.000000 2.252870 
# 
# From -- ./inp_files/12491.got.cif
#   From: 2010.05.17/outbox.cif.g08.bks.cpg/sg58_7_cif.got.tgz:12491.got - 2010.06.03 14:20:14.
