data_PCOD9440108
_publ_section_title
;
Structure prediction by ZEFSAII (Michael W. Deem and Ramdas Pophale) SiO2 
 PCOD9440108
Probable space group: P B C M
;
_chemical_formula_sum "Si O2"
_cell_formula_units_Z 48
_cell_length_a 28.566912
_cell_length_b 9.463851
_cell_length_c 9.603384
_cell_angle_alpha 90.000000
_cell_angle_beta 90.000000
_cell_angle_gamma 90.000000
_cell_volume 2596.303662
_symmetry_space_group_name_H-M "P B C M"
_symmetry_group_IT_number 57
_symmetry_cell_setting 'orthorhombic'
loop_
_space_group_symop_operation_xyz
x,y,z
-x,-y,1/2+z
x,1/2-y,-z
-x,1/2+y,1/2-z
-x,-y,-z
x,y,1/2-z
-x,1/2+y,z
x,1/2-y,1/2+z
loop_
_atom_site_type_symbol
_atom_site_label
_atom_site_fract_x
_atom_site_fract_y
_atom_site_fract_z
Si Si1 0.618057 0.750000 0.000000
Si Si2 0.325178 0.984347 0.589277
Si Si3 0.963158 0.399738 0.919116
Si Si4 0.541534 0.198139 0.750000
Si Si5 0.229624 0.394254 0.083510
Si Si6 0.122646 0.107979 0.913505
Si Si7 0.555248 0.864005 0.750000
Si Si8 0.391271 0.750000 0.000000
O O1 0.585735 0.672628 0.113750
O O2 0.651141 0.862572 0.076332
O O3 0.327555 0.936102 0.750000
O O4 0.356677 0.882456 0.497244
O O5 0.271030 0.998009 0.546551
O O6 0.972303 0.385735 0.750000
O O7 0.913893 0.482173 0.935520
O O8 0.962971 0.250000 0.000000
O O9 0.000000 0.500000 0.000000
O O10 0.490356 0.264918 0.750000
O O11 0.572844 0.252727 0.624799
O O12 0.540321 0.027862 0.750000
O O13 0.233819 0.369340 0.250000
O O14 0.176077 0.437364 0.054231
O O15 0.237556 0.250000 0.000000
O O16 0.120805 0.145877 0.750000
O O17 0.111543 0.250000 0.000000
#
# Coordination Sequence:
#
# PCOD9440108 Si02
#       8
#     4   8   8   4   8   8   4   4
#     4  12  23  40  64  90 116 148 191 234 288 346
#     4  11  22  39  64  90 117 153 193 240 291 344
#     4  11  23  39  60  89 122 166 213 263 314 370
#     4  12  28  44  64  86 118 150 192 232 291 348
#     4   9  18  35  59  89 120 155 195 243 293 353
#     4   9  19  36  59  86 122 159 201 249 301 356
#     4  12  28  42  62  90 116 152 188 238 285 352
#     4  12  25  44  62  86 118 152 189 240 286 346
#
# _framework density 18.487821
#
# number of rings (size 3 to 8) (size 9 to 14) (size 15 to 20)
#    0.000    1.333    4.167    1.500    2.333    4.000 
#    3.000    0.000    0.000    0.000    0.000    0.000 
#    0.000    0.000    0.000    0.000    0.000    0.000 
#
# Total GULP energy -267815.615064 kJ/mol
# GULP energy per Si atom -5579.491980 kJ/mol
# Density = 1.844574 g / cm^3
# Si number density = 18.487821 Si / 1000 Ang^3
#
#
#
# Elastic Constant Matrix: (Units=GPa)
#
#
# Indices 1 2 3 4 5 6 
#
# 1 119.0820 49.3613 45.8465 0.0000 0.0000 0.0000
# 2 49.3613 60.4694 6.4238 0.0000 0.0000 0.0000
# 3 45.8465 6.4238 77.2943 0.0000 0.0000 0.0000
# 4 0.0000 0.0000 0.0000 19.0397 0.0000 0.0000
# 5 0.0000 0.0000 0.0000 0.0000 30.1936 0.0000
# 6 0.0000 0.0000 0.0000 0.0000 0.0000 26.7119
#
#
#
# Elastic Compliance Matrix: (Units=1/GPa)
#
#
# Indices 1 2 3 4 5 6 
#
# 1 0.017461 -0.013271 -0.009254 0.000000 0.000000 0.000000
# 2 -0.013271 0.026770 0.005646 0.000000 0.000000 0.000000
# 3 -0.009254 0.005646 0.017957 0.000000 0.000000 0.000000
# 4 0.000000 0.000000 0.000000 0.052522 0.000000 0.000000
# 5 0.000000 0.000000 0.000000 0.000000 0.033120 0.000000
# 6 0.000000 0.000000 0.000000 0.000000 0.000000 0.037436
#
#
# Mechanical properties :
#
#
# Convention : Reuss Voigt Hill
#
# Bulk Modulus (GPa) = 35.17111 51.12321 43.14716
# Shear Modulus (GPa) = 21.88181 25.53667 23.70924
#
# Velocity S-wave (km/s) = 3.44405 3.72058 3.58498
# Velocity P-wave (km/s) = 5.90598 6.79480 6.36592
#
# Compressibility (1/GPa) = 0.02843243
#
# Stress axis : x y z
#
# Youngs Moduli (GPa) = 57.26974 37.35495 55.68771
#
# Poissons Ratio (x) = 0.49572 0.51534
# Poissons Ratio (y) = 0.76000 -0.31444
# Poissons Ratio (z) = 0.52998 -0.21092
#
# Static dielectric constant tensor:
#      x y z
#    x 1.635620 0.000000 0.000000 
#    y 0.000000 1.616340 0.000000 
#    z 0.000000 0.000000 1.630430 
# 
# From -- ./inp_files/10222.got.cif
#   From: 2010.05.17/outbox.cif.g08.bks.cpg/sg57_6_cif.got.tgz:10222.got - 2010.06.03 13:58:18.
