data_PCOD9440922
_publ_section_title
;
Structure prediction by ZEFSAII (Michael W. Deem and Ramdas Pophale) SiO2 
 PCOD9440922
Probable space group: P N N M
;
_chemical_formula_sum "Si O2"
_cell_formula_units_Z 56
_cell_length_a 14.024615
_cell_length_b 8.704726
_cell_length_c 30.039374
_cell_angle_alpha 90.000000
_cell_angle_beta 90.000000
_cell_angle_gamma 90.000000
_cell_volume 3667.219720
_symmetry_space_group_name_H-M "P N N M"
_symmetry_group_IT_number 58
_symmetry_cell_setting 'orthorhombic'
loop_
_space_group_symop_operation_xyz
x,y,z
-x,-y,z
1/2+x,1/2-y,1/2-z
1/2-x,1/2+y,1/2-z
-x,-y,-z
x,y,-z
1/2-x,1/2+y,1/2+z
1/2+x,1/2-y,1/2+z
loop_
_atom_site_type_symbol
_atom_site_label
_atom_site_fract_x
_atom_site_fract_y
_atom_site_fract_z
Si Si1 0.607890 0.433776 0.000000
Si Si2 0.604501 0.933587 0.728026
Si Si3 0.895499 0.066413 0.771974
Si Si4 0.285516 0.434944 0.817467
Si Si5 0.392110 0.933776 0.000000
Si Si6 0.392793 0.065142 0.092302
Si Si7 0.107207 0.934858 0.592302
Si Si8 0.285516 0.065056 0.182533
O O1 0.500000 0.500000 0.000000
O O2 0.605955 0.250000 0.000000
O O3 0.648778 0.497265 0.046319
O O4 0.600839 0.750000 0.726837
O O5 0.644367 0.981199 0.776872
O O6 0.500000 0.000000 0.720536
O O7 0.683210 0.993089 0.693291
O O8 0.855633 0.018801 0.723128
O O9 0.816790 0.006911 0.806709
O O10 0.000000 0.000000 0.779464
O O11 0.330791 0.477698 0.864685
O O12 0.276990 0.250000 0.816128
O O13 0.500000 0.000000 0.000000
O O14 0.351222 0.997265 0.046319
O O15 0.398197 0.250000 0.089016
O O16 0.330791 0.022302 0.135315
O O17 0.500000 0.000000 0.097945
O O18 0.000000 0.000000 0.597945
#
# Coordination Sequence:
#
# PCOD9440922 Si02
#       8
#     4   8   8   8   4   8   8   8
#     4  10  18  28  42  62  89 118 149 182 220 266
#     4  10  19  31  47  66  91 120 150 186 223 261
#     4  10  19  31  47  66  91 120 150 186 223 261
#     4   9  19  32  46  66  90 119 153 185 220 263
#     4  10  18  28  42  62  89 118 149 182 220 266
#     4  10  18  29  45  65  91 120 150 184 222 264
#     4  10  18  29  45  65  91 120 150 184 222 264
#     4   9  19  32  46  66  90 119 153 185 220 263
#
# _framework density 15.270424
#
# number of rings (size 3 to 8) (size 9 to 14) (size 15 to 20)
#    0.000    2.286    0.000    5.571    0.000    3.429 
#    0.000    0.000    0.000    0.000    0.000    1.000 
#    0.000    0.000    0.000    0.000    0.000    0.000 
#
# Total GULP energy -312288.605033 kJ/mol
# GULP energy per Si atom -5576.582233 kJ/mol
# Density = 1.523567 g / cm^3
# Si number density = 15.270424 Si / 1000 Ang^3
#
#
#
# Elastic Constant Matrix: (Units=GPa)
#
#
# Indices 1 2 3 4 5 6 
#
# 1 109.5481 37.1544 69.5212 0.0000 0.0000 0.0000
# 2 37.1544 56.5040 51.6186 0.0000 0.0000 0.0000
# 3 69.5212 51.6186 150.3467 0.0000 0.0000 0.0000
# 4 0.0000 0.0000 0.0000 22.9901 0.0000 0.0000
# 5 0.0000 0.0000 0.0000 0.0000 21.8777 0.0000
# 6 0.0000 0.0000 0.0000 0.0000 0.0000 23.0829
#
#
#
# Elastic Compliance Matrix: (Units=1/GPa)
#
#
# Indices 1 2 3 4 5 6 
#
# 1 0.013727 -0.004702 -0.004733 0.000000 0.000000 0.000000
# 2 -0.004702 0.027396 -0.007232 0.000000 0.000000 0.000000
# 3 -0.004733 -0.007232 0.011323 0.000000 0.000000 0.000000
# 4 0.000000 0.000000 0.000000 0.043497 0.000000 0.000000
# 5 0.000000 0.000000 0.000000 0.000000 0.045709 0.000000
# 6 0.000000 0.000000 0.000000 0.000000 0.000000 0.043322
#
#
# Mechanical properties :
#
#
# Convention : Reuss Voigt Hill
#
# Bulk Modulus (GPa) = 52.32319 70.33190 61.32755
# Shear Modulus (GPa) = 22.25409 24.13045 23.19227
#
# Velocity S-wave (km/s) = 3.82164 3.97950 3.90137
# Velocity P-wave (km/s) = 7.33567 8.20200 7.78090
#
# Compressibility (1/GPa) = 0.01911198
#
# Stress axis : x y z
#
# Youngs Moduli (GPa) = 72.84977 36.50138 88.31891
#
# Poissons Ratio (x) = 0.17165 0.41800
# Poissons Ratio (y) = 0.34257 0.63868
# Poissons Ratio (z) = 0.34479 0.26396
#
# Static dielectric constant tensor:
#      x y z
#    x 1.473860 0.000000 0.000000 
#    y 0.000000 1.508880 0.000000 
#    z 0.000000 0.000000 1.534070 
# 
# From -- ./inp_files/35082.got.cif
#   From: 2010.05.17/outbox.cif.g08.bks.cpg/sg58_18_cif.got.tgz:35082.got - 2010.06.03 14:20:14.
