data_PCOD9440129
_publ_section_title
;
Structure prediction by ZEFSAII (Michael W. Deem and Ramdas Pophale) SiO2 
 PCOD9440129
Probable space group: P B C M
;
_chemical_formula_sum "Si O2"
_cell_formula_units_Z 32
_cell_length_a 5.011983
_cell_length_b 10.113498
_cell_length_c 24.738786
_cell_angle_alpha 90.000000
_cell_angle_beta 90.000000
_cell_angle_gamma 90.000000
_cell_volume 1253.976408
_symmetry_space_group_name_H-M "P B C M"
_symmetry_group_IT_number 57
_symmetry_cell_setting 'orthorhombic'
loop_
_space_group_symop_operation_xyz
x,y,z
-x,-y,1/2+z
x,1/2-y,-z
-x,1/2+y,1/2-z
-x,-y,-z
x,y,1/2-z
-x,1/2+y,z
x,1/2-y,1/2+z
loop_
_atom_site_type_symbol
_atom_site_label
_atom_site_fract_x
_atom_site_fract_y
_atom_site_fract_z
Si Si1 0.298262 0.763721 0.191305
Si Si2 0.853971 0.072960 0.951639
Si Si3 0.350052 0.168605 0.904104
Si Si4 0.992803 0.522119 0.155396
O O1 0.428231 0.747284 0.250000
O O2 0.064172 0.655803 0.184773
O O3 0.489519 0.745874 0.139553
O O4 0.164450 0.908553 0.187307
O O5 0.558084 0.131627 0.951841
O O6 0.059825 0.187047 0.931162
O O7 0.843183 0.969036 0.902031
O O8 0.000000 0.000000 0.000000
O O9 0.269129 0.044950 0.864988
#
# Coordination Sequence:
#
# PCOD9440129 Si02
#       4
#     8   8   8   8
#     4  11  22  42  67  97 137 185 222 286 343 403
#     4   9  18  40  70  93 132 173 218 278 340 391
#     4   9  21  39  63  95 132 162 228 265 327 404
#     4   9  23  40  67  98 138 169 238 275 335 418
#
# _framework density 25.518820000000002
#
# number of rings (size 3 to 8) (size 9 to 14) (size 15 to 20)
#    1.500    1.000    0.000    1.500    0.000    6.000 
#    0.000    5.000    5.500    0.000    0.000    0.000 
#    0.000    0.000    0.000    0.000    0.000    0.000 
#
# Total GULP energy -178291.112685 kJ/mol
# GULP energy per Si atom -5571.597271 kJ/mol
# Density = 2.546074 g / cm^3
# Si number density = 25.518820 Si / 1000 Ang^3
#
#
#
# Elastic Constant Matrix: (Units=GPa)
#
#
# Indices 1 2 3 4 5 6 
#
# 1 140.6706 -4.9453 -0.8161 0.0000 0.0000 0.0000
# 2 -4.9453 67.5020 4.1436 0.0000 0.0000 0.0000
# 3 -0.8161 4.1436 87.2611 0.0000 0.0000 0.0000
# 4 0.0000 0.0000 0.0000 6.6130 0.0000 0.0000
# 5 0.0000 0.0000 0.0000 0.0000 14.2385 0.0000
# 6 0.0000 0.0000 0.0000 0.0000 0.0000 25.7245
#
#
#
# Elastic Compliance Matrix: (Units=1/GPa)
#
#
# Indices 1 2 3 4 5 6 
#
# 1 0.007127 0.000520 0.000042 0.000000 0.000000 0.000000
# 2 0.000520 0.014896 -0.000702 0.000000 0.000000 0.000000
# 3 0.000042 -0.000702 0.011494 0.000000 0.000000 0.000000
# 4 0.000000 0.000000 0.000000 0.151217 0.000000 0.000000
# 5 0.000000 0.000000 0.000000 0.000000 0.070232 0.000000
# 6 0.000000 0.000000 0.000000 0.000000 0.000000 0.038873
#
#
# Mechanical properties :
#
#
# Convention : Reuss Voigt Hill
#
# Bulk Modulus (GPa) = 30.08904 32.46646 31.27775
# Shear Modulus (GPa) = 16.38277 29.11863 22.75070
#
# Velocity S-wave (km/s) = 2.53650 3.38163 2.98908
# Velocity P-wave (km/s) = 4.51608 5.29126 4.91896
#
# Compressibility (1/GPa) = 0.03323470
#
# Stress axis : x y z
#
# Youngs Moduli (GPa) = 140.30528 67.13411 87.00487
#
# Poissons Ratio (x) = -0.03488 -0.00365
# Poissons Ratio (y) = -0.07290 0.06112
# Poissons Ratio (z) = -0.00589 0.04716
#
# Static dielectric constant tensor:
#      x y z
#    x 2.029980 0.000000 0.000000 
#    y 0.000000 2.114270 0.000000 
#    z 0.000000 0.000000 2.731080 
# 
# From -- ./inp_files/27757.got.cif
#   From: 2010.05.17/outbox.cif.g08.bks.cpg/sg57_14_cif.got.tgz:27757.got - 2010.06.03 13:58:18.
