data_PCOD9440236
_publ_section_title
;
Structure prediction by ZEFSAII (Michael W. Deem and Ramdas Pophale) SiO2 
 PCOD9440236
Probable space group: P B C M
;
_chemical_formula_sum "Si O2"
_cell_formula_units_Z 32
_cell_length_a 7.810305
_cell_length_b 23.873849
_cell_length_c 8.633329
_cell_angle_alpha 90.000000
_cell_angle_beta 90.000000
_cell_angle_gamma 90.000000
_cell_volume 1609.788156
_symmetry_space_group_name_H-M "P B C M"
_symmetry_group_IT_number 57
_symmetry_cell_setting 'orthorhombic'
loop_
_space_group_symop_operation_xyz
x,y,z
-x,-y,1/2+z
x,1/2-y,-z
-x,1/2+y,1/2-z
-x,-y,-z
x,y,1/2-z
-x,1/2+y,z
x,1/2-y,1/2+z
loop_
_atom_site_type_symbol
_atom_site_label
_atom_site_fract_x
_atom_site_fract_y
_atom_site_fract_z
Si Si1 0.828474 0.875467 0.565484
Si Si2 0.187170 0.608075 0.565007
Si Si3 0.308229 0.492547 0.434912
Si Si4 0.505069 0.688716 0.935533
O O1 0.840304 0.874058 0.750000
O O2 0.773056 0.937346 0.509230
O O3 0.680910 0.833939 0.507557
O O4 0.012439 0.863451 0.490476
O O5 0.183689 0.599593 0.750000
O O6 0.206014 0.548157 0.482443
O O7 0.352238 0.645619 0.525844
O O8 0.500000 0.500000 0.500000
O O9 0.313262 0.486170 0.250000
O O10 0.520795 0.690316 0.750000
O O11 0.465734 0.750000 0.000000
#
# Coordination Sequence:
#
# PCOD9440236 Si02
#       4
#     8   8   8   8
#     4  12  25  42  67  97 133 172 215 265 323 385
#     4  11  24  43  67  96 132 172 216 265 323 384
#     4  12  23  39  65  97 133 171 214 261 324 388
#     4  11  25  45  69  94 127 169 218 271 323 382
#
# _framework density 19.878392000000002
#
# number of rings (size 3 to 8) (size 9 to 14) (size 15 to 20)
#    0.000    0.500    2.500    6.750    0.000    4.000 
#    0.000    2.500    0.000    0.000    0.000    0.000 
#    0.000    0.000    0.000    0.000    0.000    0.000 
#
# Total GULP energy -179221.142479 kJ/mol
# GULP energy per Si atom -5600.660702 kJ/mol
# Density = 1.983315 g / cm^3
# Si number density = 19.878392 Si / 1000 Ang^3
#
#
#
# Elastic Constant Matrix: (Units=GPa)
#
#
# Indices 1 2 3 4 5 6 
#
# 1 76.8650 -28.5059 2.2004 0.0000 0.0000 0.0000
# 2 -28.5059 49.4107 -3.1243 0.0000 0.0000 0.0000
# 3 2.2004 -3.1243 57.0849 0.0000 0.0000 0.0000
# 4 0.0000 0.0000 0.0000 33.6131 0.0000 0.0000
# 5 0.0000 0.0000 0.0000 0.0000 35.3810 0.0000
# 6 0.0000 0.0000 0.0000 0.0000 0.0000 8.8652
#
#
#
# Elastic Compliance Matrix: (Units=1/GPa)
#
#
# Indices 1 2 3 4 5 6 
#
# 1 0.016552 0.009542 -0.000116 0.000000 0.000000 0.000000
# 2 0.009542 0.025809 0.001045 0.000000 0.000000 0.000000
# 3 -0.000116 0.001045 0.017579 0.000000 0.000000 0.000000
# 4 0.000000 0.000000 0.000000 0.029750 0.000000 0.000000
# 5 0.000000 0.000000 0.000000 0.000000 0.028264 0.000000
# 6 0.000000 0.000000 0.000000 0.000000 0.000000 0.112801
#
#
# Mechanical properties :
#
#
# Convention : Reuss Voigt Hill
#
# Bulk Modulus (GPa) = 12.36371 13.83343 13.09857
# Shear Modulus (GPa) = 21.11712 29.75789 25.43750
#
# Velocity S-wave (km/s) = 3.26285 3.87330 3.58111
# Velocity P-wave (km/s) = 4.51975 5.19398 4.86855
#
# Compressibility (1/GPa) = 0.08088188
#
# Stress axis : x y z
#
# Youngs Moduli (GPa) = 60.41663 38.74564 56.88469
#
# Poissons Ratio (x) = -0.36970 0.00659
# Poissons Ratio (y) = -0.57648 -0.05943
# Poissons Ratio (z) = 0.00699 -0.04048
#
# Static dielectric constant tensor:
#      x y z
#    x 1.711930 0.000000 0.000000 
#    y 0.000000 1.678040 0.000000 
#    z 0.000000 0.000000 1.658920 
# 
# From -- ./inp_files/1425.got.cif
#   From: 2010.05.17/outbox.cif.g08.bks.cpg/sg57_1_cif.got.tgz:1425.got - 2010.06.03 13:58:18.
