data_PCOD9440696
_publ_section_title
;
Structure prediction by ZEFSAII (Michael W. Deem and Ramdas Pophale) SiO2 
 PCOD9440696
Probable space group: P N N M
;
_chemical_formula_sum "Si O2"
_cell_formula_units_Z 64
_cell_length_a 33.516624
_cell_length_b 5.354607
_cell_length_c 24.123384
_cell_angle_alpha 90.000000
_cell_angle_beta 90.000000
_cell_angle_gamma 90.000000
_cell_volume 4329.383911
_symmetry_space_group_name_H-M "P N N M"
_symmetry_group_IT_number 58
_symmetry_cell_setting 'orthorhombic'
loop_
_space_group_symop_operation_xyz
x,y,z
-x,-y,z
1/2+x,1/2-y,1/2-z
1/2-x,1/2+y,1/2-z
-x,-y,-z
x,y,-z
1/2-x,1/2+y,1/2+z
1/2+x,1/2-y,1/2+z
loop_
_atom_site_type_symbol
_atom_site_label
_atom_site_fract_x
_atom_site_fract_y
_atom_site_fract_z
Si Si1 0.478216 0.750000 0.750125
Si Si2 0.220736 0.250167 0.935999
Si Si3 0.011819 0.750000 0.125603
Si Si4 0.331959 0.250168 0.436457
Si Si5 0.699309 0.249897 0.226417
Si Si6 0.112055 0.249905 0.231392
Si Si7 0.104113 0.749905 0.840555
Si Si8 0.262025 0.250103 0.822305
O O1 0.500000 0.500000 0.770320
O O2 0.485354 0.749997 0.682847
O O3 0.431182 0.749999 0.760909
O O4 0.500000 0.000000 0.770319
O O5 0.194400 0.500613 0.928522
O O6 0.253124 0.250102 0.887415
O O7 0.194380 0.999803 0.928522
O O8 0.235311 0.250139 0.000000
O O9 0.057688 0.749990 0.143059
O O10 0.000000 0.500000 0.094803
O O11 0.000000 0.000000 0.094803
O O12 0.346090 0.250140 0.500000
O O13 0.367994 0.250085 0.393896
O O14 0.651791 0.249937 0.232024
O O15 0.714944 0.499933 0.196382
O O16 0.720400 0.249904 0.287306
O O17 0.714940 0.999841 0.196386
O O18 0.112657 0.500714 0.194550
O O19 0.112663 0.998883 0.194624
#
# Coordination Sequence:
#
# PCOD9440696 Si02
#       8
#     8   8   8   8   8   8   8   8
#     4  10  16  29  41  61  87 110 145 200 211 245
#     4  10  20  36  55  69  87 117 157 197 233 272
#     4  10  16  28  40  61  79 110 145 189 225 252
#     4  10  21  33  46  69  88 105 144 199 246 272
#     4  10  21  30  46  67  96 128 143 179 225 289
#     4  12  20  29  46  70  86 116 162 176 222 272
#     4  12  19  28  48  62  87 116 146 196 226 273
#     4  10  19  35  46  65  97 120 149 182 229 271
#
# _framework density 14.782703
#
# number of rings (size 3 to 8) (size 9 to 14) (size 15 to 20)
#    0.000    1.500    5.000    3.750    0.000    2.000 
#    0.000    0.000    0.000    0.750    0.000    0.000 
#    0.000    0.000    0.000    0.000    0.000   12.500 
#
# Total GULP energy -356942.330649 kJ/mol
# GULP energy per Si atom -5577.223916 kJ/mol
# Density = 1.474906 g / cm^3
# Si number density = 14.782703 Si / 1000 Ang^3
#
#
#
# Elastic Constant Matrix: (Units=GPa)
#
#
# Indices 1 2 3 4 5 6 
#
# 1 110.8263 38.2757 43.6453 0.0000 0.0000 0.0000
# 2 38.2757 145.1731 30.1084 0.0000 0.0000 0.0000
# 3 43.6453 30.1084 56.2578 0.0000 0.0000 0.0000
# 4 0.0000 0.0000 0.0000 133.6134 0.0000 0.0000
# 5 0.0000 0.0000 0.0000 0.0000 11.2580 0.0000
# 6 0.0000 0.0000 0.0000 0.0000 0.0000 -0.8763
#
#
#
# Elastic Compliance Matrix: (Units=1/GPa)
#
#
# Indices 1 2 3 4 5 6 
#
# 1 0.013291 -0.001536 -0.009489 0.000000 0.000000 0.000000
# 2 -0.001536 0.007926 -0.003050 0.000000 0.000000 0.000000
# 3 -0.009489 -0.003050 0.026769 0.000000 0.000000 0.000000
# 4 0.000000 0.000000 0.000000 0.007484 0.000000 0.000000
# 5 0.000000 0.000000 0.000000 0.000000 0.088826 0.000000
# 6 0.000000 0.000000 0.000000 0.000000 0.000000 -1.141124
#
#
# Mechanical properties :
#
#
# Convention : Reuss Voigt Hill
#
# Bulk Modulus (GPa) = 50.41449 59.59066 55.00258
# Shear Modulus (GPa) = -5.19715 42.14754 18.47519
#
# Velocity S-wave (km/s) = -1.87705 5.34540 3.53906
# Velocity P-wave (km/s) = 5.42955 8.85981 7.34766
#
# Compressibility (1/GPa) = 0.01983557
#
# Stress axis : x y z
#
# Youngs Moduli (GPa) = 75.24165 126.16829 37.35646
#
# Poissons Ratio (x) = 0.19382 0.35447
# Poissons Ratio (y) = 0.11558 0.11394
# Poissons Ratio (z) = 0.71395 0.38482
#
# Static dielectric constant tensor:
#      x y z
#    x 1.481280 0.000000 0.000000 
#    y 0.000000 1.549720 0.000000 
#    z 0.000000 0.000000 1.459690 
# 
# From -- ./inp_files/32492.got.cif
#   From: 2010.05.17/outbox.cif.g08.bks.cpg/sg58_17_cif.got.tgz:32492.got - 2010.06.03 14:20:14.
