data_PCOD9440190
_publ_section_title
;
Structure prediction by ZEFSAII (Michael W. Deem and Ramdas Pophale) SiO2 
 PCOD9440190
Probable space group: P B C M
;
_chemical_formula_sum "Si O2"
_cell_formula_units_Z 40
_cell_length_a 12.182331
_cell_length_b 8.999300
_cell_length_c 18.350018
_cell_angle_alpha 90.000000
_cell_angle_beta 90.000000
_cell_angle_gamma 90.000000
_cell_volume 2011.757456
_symmetry_space_group_name_H-M "P B C M"
_symmetry_group_IT_number 57
_symmetry_cell_setting 'orthorhombic'
loop_
_space_group_symop_operation_xyz
x,y,z
-x,-y,1/2+z
x,1/2-y,-z
-x,1/2+y,1/2-z
-x,-y,-z
x,y,1/2-z
-x,1/2+y,z
x,1/2-y,1/2+z
loop_
_atom_site_type_symbol
_atom_site_label
_atom_site_fract_x
_atom_site_fract_y
_atom_site_fract_z
Si Si1 0.141453 0.196679 0.166869
Si Si2 0.800558 0.889381 0.051402
Si Si3 0.084757 0.819838 0.919649
Si Si4 0.610484 0.080002 0.525976
Si Si5 0.741253 0.121048 0.834927
O O1 0.124511 0.239375 0.250000
O O2 0.225630 0.308679 0.127405
O O3 0.026607 0.204781 0.124457
O O4 0.186841 0.029774 0.163161
O O5 0.896444 0.005406 0.067962
O O6 0.827378 0.750000 0.000000
O O7 0.707546 0.986488 0.012600
O O8 0.184950 0.748295 0.873394
O O9 0.085070 0.750000 0.000000
O O10 0.610503 0.250000 0.500000
O O11 0.638092 0.088066 0.612149
O O12 0.500000 0.000000 0.500000
O O13 0.716602 0.153998 0.750000
#
# Coordination Sequence:
#
# PCOD9440190 Si02
#       5
#     8   8   8   8   8
#     4  11  25  39  61  99 141 185 224 273 332 396
#     4  12  22  42  66  98 133 176 232 277 331 404
#     4  12  22  39  64  97 137 183 229 266 326 400
#     4  12  25  48  74 100 125 172 227 283 347 413
#     4  11  23  44  66  98 141 174 220 284 338 399
#
# _framework density 19.883113000000002
#
# number of rings (size 3 to 8) (size 9 to 14) (size 15 to 20)
#    0.000    0.400    6.000    3.000    0.000    5.600 
#    0.000    2.000    0.000    0.000    0.000    0.000 
#    0.000    0.000    0.000    0.000    0.000    0.000 
#
# Total GULP energy -223543.068945 kJ/mol
# GULP energy per Si atom -5588.576724 kJ/mol
# Density = 1.983786 g / cm^3
# Si number density = 19.883113 Si / 1000 Ang^3
#
#
#
# Elastic Constant Matrix: (Units=GPa)
#
#
# Indices 1 2 3 4 5 6 
#
# 1 63.5270 21.0423 63.5777 0.0000 0.0000 0.0000
# 2 21.0423 142.1286 64.6948 0.0000 0.0000 0.0000
# 3 63.5777 64.6948 204.6671 0.0000 0.0000 0.0000
# 4 0.0000 0.0000 0.0000 30.5241 0.0000 0.0000
# 5 0.0000 0.0000 0.0000 0.0000 22.4824 0.0000
# 6 0.0000 0.0000 0.0000 0.0000 0.0000 25.6981
#
#
#
# Elastic Compliance Matrix: (Units=1/GPa)
#
#
# Indices 1 2 3 4 5 6 
#
# 1 0.022847 -0.000178 -0.007041 0.000000 0.000000 0.000000
# 2 -0.000178 0.008220 -0.002543 0.000000 0.000000 0.000000
# 3 -0.007041 -0.002543 0.007877 0.000000 0.000000 0.000000
# 4 0.000000 0.000000 0.000000 0.032761 0.000000 0.000000
# 5 0.000000 0.000000 0.000000 0.000000 0.044479 0.000000
# 6 0.000000 0.000000 0.000000 0.000000 0.000000 0.038913
#
#
# Mechanical properties :
#
#
# Convention : Reuss Voigt Hill
#
# Bulk Modulus (GPa) = 51.49248 78.77248 65.13248
# Shear Modulus (GPa) = 27.61000 33.14145 30.37573
#
# Velocity S-wave (km/s) = 3.73046 4.08709 3.91284
# Velocity P-wave (km/s) = 6.67150 7.87250 7.29675
#
# Compressibility (1/GPa) = 0.01942031
#
# Stress axis : x y z
#
# Youngs Moduli (GPa) = 43.76991 121.65833 126.95097
#
# Poissons Ratio (x) = 0.02160 0.89386
# Poissons Ratio (y) = 0.00777 0.32285
# Poissons Ratio (z) = 0.30818 0.30939
#
# Static dielectric constant tensor:
#      x y z
#    x 1.704750 0.000000 0.000000 
#    y 0.000000 1.722070 0.000000 
#    z 0.000000 0.000000 1.739990 
# 
# From -- ./inp_files/21608.got.cif
#   From: 2010.05.17/outbox.cif.g08.bks.cpg/sg57_11_cif.got.tgz:21608.got - 2010.06.03 13:58:18.
