data_PCOD9440391
_publ_section_title
;
Structure prediction by ZEFSAII (Michael W. Deem and Ramdas Pophale) SiO2 
 PCOD9440391
Probable space group: P B C M
;
_chemical_formula_sum "Si O2"
_cell_formula_units_Z 56
_cell_length_a 18.000000
_cell_length_b 21.000000
_cell_length_c 9.000000
_cell_angle_alpha 90.000000
_cell_angle_beta 90.000000
_cell_angle_gamma 90.000000
_cell_volume 3402.000000
_symmetry_space_group_name_H-M "P B C M"
_symmetry_group_IT_number 57
_symmetry_cell_setting 'orthorhombic'
loop_
_space_group_symop_operation_xyz
x,y,z
-x,-y,1/2+z
x,1/2-y,-z
-x,1/2+y,1/2-z
-x,-y,-z
x,y,1/2-z
-x,1/2+y,z
x,1/2-y,1/2+z
loop_
_atom_site_type_symbol
_atom_site_label
_atom_site_fract_x
_atom_site_fract_y
_atom_site_fract_z
Si Si1 0.213438 0.100383 0.078162
Si Si2 0.390233 0.961846 0.924999
Si Si3 0.912701 0.069222 0.078712
Si Si4 0.238824 0.552286 0.577255
Si Si5 0.551082 0.909180 0.924795
Si Si6 0.339919 0.318115 0.426138
Si Si7 0.936863 0.584580 0.920964
O O1 0.220463 0.119663 0.250000
O O2 0.228694 0.024608 0.069959
O O3 0.273167 0.136450 0.979076
O O4 0.130744 0.111723 0.017059
O O5 0.380303 0.975560 0.750000
O O6 0.462806 0.917764 0.941927
O O7 0.315282 0.933630 0.992930
O O8 0.410977 0.027063 0.009858
O O9 0.911798 0.089400 0.250000
O O10 0.925355 0.992363 0.077669
O O11 0.834156 0.080903 0.999855
O O12 0.982918 0.097412 0.991573
O O13 0.242807 0.569975 0.750000
O O14 0.568805 0.904680 0.750000
O O15 0.585344 0.850313 0.011528
O O16 0.329266 0.250000 0.500000
O O17 0.341894 0.313526 0.250000
O O18 0.932794 0.605220 0.750000
#
# Coordination Sequence:
#
# PCOD9440391 Si02
#       7
#     8   8   8   8   8   8   8
#     4  10  19  31  46  65  90 121 158 196 236 280
#     4  10  19  30  48  70  95 125 158 196 239 290
#     4   9  16  25  38  58  87 120 155 189 226 270
#     4  10  18  27  43  65  94 125 157 195 234 282
#     4  10  20  34  49  69  94 122 158 198 241 290
#     4  12  24  37  53  70  93 124 161 203 246 290
#     4   9  16  26  40  59  85 118 155 189 226 271
#
# _framework density 16.460905
#
# number of rings (size 3 to 8) (size 9 to 14) (size 15 to 20)
#    0.000    2.000    1.429    3.857    0.000    6.286 
#    0.000    0.000    0.000    0.000    0.000    0.000 
#    0.000    1.143    0.000    8.000    0.000    6.714 
#
# Total GULP energy -312423.558477 kJ/mol
# GULP energy per Si atom -5578.992116 kJ/mol
# Density = 1.642344 g / cm^3
# Si number density = 16.460905 Si / 1000 Ang^3
#
#
#
# Elastic Constant Matrix: (Units=GPa)
#
#
# Indices 1 2 3 4 5 6 
#
# 1 121.5956 0.5112 66.0071 0.0000 0.0000 0.0000
# 2 0.5112 13.4762 12.9209 0.0000 0.0000 0.0000
# 3 66.0071 12.9209 138.8302 0.0000 0.0000 0.0000
# 4 0.0000 0.0000 0.0000 15.8700 0.0000 0.0000
# 5 0.0000 0.0000 0.0000 0.0000 32.0603 0.0000
# 6 0.0000 0.0000 0.0000 0.0000 0.0000 3.0180
#
#
#
# Elastic Compliance Matrix: (Units=1/GPa)
#
#
# Indices 1 2 3 4 5 6 
#
# 1 0.011412 0.005237 -0.005913 0.000000 0.000000 0.000000
# 2 0.005237 0.083878 -0.010296 0.000000 0.000000 0.000000
# 3 -0.005913 -0.010296 0.010973 0.000000 0.000000 0.000000
# 4 0.000000 0.000000 0.000000 0.063012 0.000000 0.000000
# 5 0.000000 0.000000 0.000000 0.000000 0.031191 0.000000
# 6 0.000000 0.000000 0.000000 0.000000 0.000000 0.331350
#
#
# Mechanical properties :
#
#
# Convention : Reuss Voigt Hill
#
# Bulk Modulus (GPa) = 11.86000 48.08673 29.97336
# Shear Modulus (GPa) = 8.59302 23.15383 15.87342
#
# Velocity S-wave (km/s) = 2.28727 3.75453 3.10870
# Velocity P-wave (km/s) = 3.76776 6.93336 5.57976
#
# Compressibility (1/GPa) = 0.08431706
#
# Stress axis : x y z
#
# Youngs Moduli (GPa) = 87.62792 11.92205 91.13479
#
# Poissons Ratio (x) = -0.06243 0.53890
# Poissons Ratio (y) = -0.45887 0.93835
# Poissons Ratio (z) = 0.51816 0.12275
#
# Static dielectric constant tensor:
#      x y z
#    x 1.562730 0.000000 0.000000 
#    y 0.000000 1.530710 0.000000 
#    z 0.000000 0.000000 1.550340 
# 
# From -- ./inp_files/6977.got.cif
#   From: 2010.05.17/outbox.ucp.g08.bks.cvg/sg57_4_cif.got.tgz:6977.got - 2010.06.11 16:39:23.
