data_PCOD9440469
_publ_section_title
;
Structure prediction by ZEFSAII (Michael W. Deem and Ramdas Pophale) SiO2 
 PCOD9440469
Probable space group: P B C M
;
_chemical_formula_sum "Si O2"
_cell_formula_units_Z 48
_cell_length_a 9.000000
_cell_length_b 18.000000
_cell_length_c 15.000000
_cell_angle_alpha 90.000000
_cell_angle_beta 90.000000
_cell_angle_gamma 90.000000
_cell_volume 2430.000000
_symmetry_space_group_name_H-M "P B C M"
_symmetry_group_IT_number 57
_symmetry_cell_setting 'orthorhombic'
loop_
_space_group_symop_operation_xyz
x,y,z
-x,-y,1/2+z
x,1/2-y,-z
-x,1/2+y,1/2-z
-x,-y,-z
x,y,1/2-z
-x,1/2+y,z
x,1/2-y,1/2+z
loop_
_atom_site_type_symbol
_atom_site_label
_atom_site_fract_x
_atom_site_fract_y
_atom_site_fract_z
Si Si1 0.857563 0.014866 0.396715
Si Si2 0.962941 0.380961 0.353452
Si Si3 0.395073 0.096666 0.651737
Si Si4 0.834719 0.911284 0.650566
Si Si5 0.308145 0.552452 0.934264
Si Si6 0.808341 0.739025 0.895129
O O1 0.761839 0.060018 0.468108
O O2 0.989434 0.068054 0.360590
O O3 0.957847 0.941120 0.419405
O O4 0.728106 0.968944 0.346231
O O5 0.993671 0.401262 0.250000
O O6 0.036106 0.301499 0.370785
O O7 0.790754 0.393252 0.372342
O O8 0.463929 0.100701 0.750000
O O9 0.521396 0.073387 0.581241
O O10 0.312551 0.175896 0.633681
O O11 0.793297 0.934052 0.750000
O O12 0.804219 0.823406 0.640888
O O13 0.736698 0.966795 0.589635
O O14 0.796463 0.750000 0.000000
#
# Coordination Sequence:
#
# PCOD9440469 Si02
#       6
#     8   8   8   8   8   8
#     4  10  19  34  57  84 113 146 185 231 276 328
#     4  10  19  36  58  83 113 152 190 228 280 345
#     4  11  22  39  58  82 117 159 190 223 282 353
#     4  11  20  35  59  88 112 142 189 243 282 322
#     4  11  21  36  59  86 115 150 190 232 279 339
#     4  11  22  38  58  81 111 149 191 237 284 333
#
# _framework density 19.753086
#
# number of rings (size 3 to 8) (size 9 to 14) (size 15 to 20)
#    0.000    1.333    0.000   12.000    0.000    0.000 
#    0.000    4.167    0.000    0.000    0.000    0.000 
#    0.000    0.000    0.000    0.000    0.000    0.000 
#
# Total GULP energy -267279.599017 kJ/mol
# GULP energy per Si atom -5568.324980 kJ/mol
# Density = 1.970813 g / cm^3
# Si number density = 19.753086 Si / 1000 Ang^3
#
#
#
# Elastic Constant Matrix: (Units=GPa)
#
#
# Indices 1 2 3 4 5 6 
#
# 1 102.6010 33.0796 7.4474 0.0000 0.0000 0.0000
# 2 33.0796 115.4959 5.6106 0.0000 0.0000 0.0000
# 3 7.4474 5.6106 55.7149 0.0000 0.0000 0.0000
# 4 0.0000 0.0000 0.0000 70.2397 0.0000 0.0000
# 5 0.0000 0.0000 0.0000 0.0000 23.1075 0.0000
# 6 0.0000 0.0000 0.0000 0.0000 0.0000 27.1314
#
#
#
# Elastic Compliance Matrix: (Units=1/GPa)
#
#
# Indices 1 2 3 4 5 6 
#
# 1 0.010809 -0.003041 -0.001139 0.000000 0.000000 0.000000
# 2 -0.003041 0.009556 -0.000556 0.000000 0.000000 0.000000
# 3 -0.001139 -0.000556 0.018157 0.000000 0.000000 0.000000
# 4 0.000000 0.000000 0.000000 0.014237 0.000000 0.000000
# 5 0.000000 0.000000 0.000000 0.000000 0.043276 0.000000
# 6 0.000000 0.000000 0.000000 0.000000 0.000000 0.036858
#
#
# Mechanical properties :
#
#
# Convention : Reuss Voigt Hill
#
# Bulk Modulus (GPa) = 34.42116 40.67634 37.54875
# Shear Modulus (GPa) = 32.88446 39.27399 36.07922
#
# Velocity S-wave (km/s) = 4.08459 4.46381 4.27841
# Velocity P-wave (km/s) = 6.30149 6.87056 6.59217
#
# Compressibility (1/GPa) = 0.02905189
#
# Stress axis : x y z
#
# Youngs Moduli (GPa) = 92.51131 104.64398 55.07609
#
# Poissons Ratio (x) = 0.31819 0.06271
# Poissons Ratio (y) = 0.28130 0.03062
# Poissons Ratio (z) = 0.10534 0.05817
#
# Static dielectric constant tensor:
#      x y z
#    x 1.711000 0.000000 0.000000 
#    y 0.000000 1.674460 0.000000 
#    z 0.000000 0.000000 1.772790 
# 
# From -- ./inp_files/16335.got.cif
#   From: 2010.05.17/outbox.ucp.g08.bks.cvg/sg57_9_cif.got.tgz:16335.got - 2010.06.11 16:39:23.
