data_PCOD9440159
_publ_section_title
;
Structure prediction by ZEFSAII (Michael W. Deem and Ramdas Pophale) SiO2 
 PCOD9440159
Probable space group: P B C M
;
_chemical_formula_sum "Si O2"
_cell_formula_units_Z 40
_cell_length_a 7.619118
_cell_length_b 14.642096
_cell_length_c 16.887154
_cell_angle_alpha 90.000000
_cell_angle_beta 90.000000
_cell_angle_gamma 90.000000
_cell_volume 1883.928489
_symmetry_space_group_name_H-M "P B C M"
_symmetry_group_IT_number 57
_symmetry_cell_setting 'orthorhombic'
loop_
_space_group_symop_operation_xyz
x,y,z
-x,-y,1/2+z
x,1/2-y,-z
-x,1/2+y,1/2-z
-x,-y,-z
x,y,1/2-z
-x,1/2+y,z
x,1/2-y,1/2+z
loop_
_atom_site_type_symbol
_atom_site_label
_atom_site_fract_x
_atom_site_fract_y
_atom_site_fract_z
Si Si1 0.204677 0.850128 0.505590
Si Si2 0.431921 0.396216 0.489551
Si Si3 0.759661 0.676131 0.660736
Si Si4 0.113862 0.124038 0.107059
Si Si5 0.877199 0.428857 0.335716
O O1 0.124196 0.750000 0.500000
O O2 0.406575 0.843498 0.530237
O O3 0.078289 0.895084 0.569513
O O4 0.204692 0.893232 0.418035
O O5 0.500000 0.500000 0.500000
O O6 0.383875 0.357397 0.402929
O O7 0.251942 0.384699 0.536016
O O8 0.688423 0.678456 0.750000
O O9 0.846598 0.775768 0.642355
O O10 0.921121 0.604483 0.658435
O O11 0.144226 0.037798 0.163140
O O12 0.811057 0.393581 0.250000
#
# Coordination Sequence:
#
# PCOD9440159 Si02
#       5
#     8   8   8   8   8
#     4  12  22  40  68  95 127 169 221 279 328 402
#     4  12  24  41  68  97 129 176 227 275 333 404
#     4  11  24  44  68 100 140 178 224 286 345 406
#     4  12  22  45  69  94 132 179 224 275 339 407
#     4  11  23  40  65  95 128 172 217 270 341 399
#
# _framework density 21.232227999999999
#
# number of rings (size 3 to 8) (size 9 to 14) (size 15 to 20)
#    0.000    0.400    6.000    4.200    0.000    0.800 
#    0.000    0.000    0.000    4.800    0.000    0.000 
#    0.000    0.000    0.000    0.000    0.000    0.000 
#
# Total GULP energy -223122.184499 kJ/mol
# GULP energy per Si atom -5578.054612 kJ/mol
# Density = 2.118390 g / cm^3
# Si number density = 21.232228 Si / 1000 Ang^3
#
#
#
# Elastic Constant Matrix: (Units=GPa)
#
#
# Indices 1 2 3 4 5 6 
#
# 1 78.2591 8.3098 21.4213 0.0000 0.0000 0.0000
# 2 8.3098 111.7261 42.9519 0.0000 0.0000 0.0000
# 3 21.4213 42.9519 118.3506 0.0000 0.0000 0.0000
# 4 0.0000 0.0000 0.0000 26.3559 0.0000 0.0000
# 5 0.0000 0.0000 0.0000 0.0000 17.4937 0.0000
# 6 0.0000 0.0000 0.0000 0.0000 0.0000 33.4640
#
#
#
# Elastic Compliance Matrix: (Units=1/GPa)
#
#
# Indices 1 2 3 4 5 6 
#
# 1 0.013445 -0.000075 -0.002406 0.000000 0.000000 0.000000
# 2 -0.000075 0.010402 -0.003762 0.000000 0.000000 0.000000
# 3 -0.002406 -0.003762 0.010250 0.000000 0.000000 0.000000
# 4 0.000000 0.000000 0.000000 0.037942 0.000000 0.000000
# 5 0.000000 0.000000 0.000000 0.000000 0.057164 0.000000
# 6 0.000000 0.000000 0.000000 0.000000 0.000000 0.029883
#
#
# Mechanical properties :
#
#
# Convention : Reuss Voigt Hill
#
# Bulk Modulus (GPa) = 46.27185 50.41134 48.34160
# Shear Modulus (GPa) = 27.96813 31.17290 29.57052
#
# Velocity S-wave (km/s) = 3.63333 3.83585 3.73596
# Velocity P-wave (km/s) = 6.28028 6.58883 6.43641
#
# Compressibility (1/GPa) = 0.02161141
#
# Stress axis : x y z
#
# Youngs Moduli (GPa) = 74.37889 96.13409 97.55936
#
# Poissons Ratio (x) = 0.00720 0.23476
# Poissons Ratio (y) = 0.00557 0.36698
# Poissons Ratio (z) = 0.17898 0.36162
#
# Static dielectric constant tensor:
#      x y z
#    x 1.767690 0.000000 0.000000 
#    y 0.000000 1.889990 0.000000 
#    z 0.000000 0.000000 1.837910 
# 
# From -- ./inp_files/15922.got.cif
#   From: 2010.05.17/outbox.cif.g08.bks.cpg/sg57_8_cif.got.tgz:15922.got - 2010.06.03 13:58:18.
