data_PCOD9440015
_publ_section_title
;
Structure prediction by ZEFSAII (Michael W. Deem and Ramdas Pophale) SiO2 
 PCOD9440015
Probable space group: P B C M
;
_chemical_formula_sum "Si O2"
_cell_formula_units_Z 48
_cell_length_a 32.739693
_cell_length_b 9.173599
_cell_length_c 8.543365
_cell_angle_alpha 90.000000
_cell_angle_beta 90.000000
_cell_angle_gamma 90.000000
_cell_volume 2565.921207
_symmetry_space_group_name_H-M "P B C M"
_symmetry_group_IT_number 57
_symmetry_cell_setting 'orthorhombic'
loop_
_space_group_symop_operation_xyz
x,y,z
-x,-y,1/2+z
x,1/2-y,-z
-x,1/2+y,1/2-z
-x,-y,-z
x,y,1/2-z
-x,1/2+y,z
x,1/2-y,1/2+z
loop_
_atom_site_type_symbol
_atom_site_label
_atom_site_fract_x
_atom_site_fract_y
_atom_site_fract_z
Si Si1 0.376008 0.417051 0.061784
Si Si2 0.198711 0.084507 0.560832
Si Si3 0.882139 0.086076 0.061498
Si Si4 0.539004 0.584932 0.436327
Si Si5 0.712218 0.916127 0.438797
Si Si6 0.039346 0.414203 0.562910
O O1 0.378823 0.415524 0.250000
O O2 0.331749 0.481953 0.013657
O O3 0.375185 0.250000 0.000000
O O4 0.417734 0.481549 0.993731
O O5 0.194494 0.250000 0.500000
O O6 0.198212 0.089851 0.750000
O O7 0.243487 0.024194 0.511261
O O8 0.160503 0.987760 0.509903
O O9 0.883683 0.085766 0.250000
O O10 0.884823 0.250000 0.000000
O O11 0.919911 0.993465 0.996979
O O12 0.537086 0.750000 0.500000
O O13 0.500000 0.500000 0.500000
O O14 0.538653 0.587703 0.250000
O O15 0.712330 0.750000 0.500000
O O16 0.711885 0.913290 0.250000
O O17 0.038462 0.250000 0.500000
O O18 0.038739 0.413578 0.750000
O O19 0.000000 0.500000 0.500000
#
# Coordination Sequence:
#
# PCOD9440015 Si02
#       6
#     8   8   8   8   8   8
#     4   9  15  25  43  68  97 129 166 209 259 311
#     4   9  18  32  52  78 107 138 174 217 266 317
#     4  11  23  39  58  82 113 150 190 230 273 320
#     4  11  21  34  51  73 101 133 171 214 263 316
#     4   8  14  25  43  69  99 130 165 209 259 310
#     4  12  25  43  65  90 119 150 186 227 274 324
#
# _framework density 18.706731999999999
#
# number of rings (size 3 to 8) (size 9 to 14) (size 15 to 20)
#    0.000    2.000    0.000    6.000    0.000    3.333 
#    0.000    0.000    0.000    1.000    0.000    2.333 
#    0.000    0.000    0.000    0.000    0.000    0.000 
#
# Total GULP energy -267714.556525 kJ/mol
# GULP energy per Si atom -5577.386594 kJ/mol
# Density = 1.866415 g / cm^3
# Si number density = 18.706732 Si / 1000 Ang^3
#
#
#
# Elastic Constant Matrix: (Units=GPa)
#
#
# Indices 1 2 3 4 5 6 
#
# 1 245.6690 79.8921 63.7874 0.0000 0.0000 0.0000
# 2 79.8921 82.2856 29.5501 0.0000 0.0000 0.0000
# 3 63.7874 29.5501 97.5556 0.0000 0.0000 0.0000
# 4 0.0000 0.0000 0.0000 24.1269 0.0000 0.0000
# 5 0.0000 0.0000 0.0000 0.0000 27.8133 0.0000
# 6 0.0000 0.0000 0.0000 0.0000 0.0000 28.3699
#
#
#
# Elastic Compliance Matrix: (Units=1/GPa)
#
#
# Indices 1 2 3 4 5 6 
#
# 1 0.006496 -0.005366 -0.002622 0.000000 0.000000 0.000000
# 2 -0.005366 0.018068 -0.001964 0.000000 0.000000 0.000000
# 3 -0.002622 -0.001964 0.012560 0.000000 0.000000 0.000000
# 4 0.000000 0.000000 0.000000 0.041448 0.000000 0.000000
# 5 0.000000 0.000000 0.000000 0.000000 0.035954 0.000000
# 6 0.000000 0.000000 0.000000 0.000000 0.000000 0.035249
#
#
# Mechanical properties :
#
#
# Convention : Reuss Voigt Hill
#
# Bulk Modulus (GPa) = 58.07393 85.77437 71.92415
# Shear Modulus (GPa) = 28.50312 32.88073 30.69193
#
# Velocity S-wave (km/s) = 3.90767 4.19704 4.05494
# Velocity P-wave (km/s) = 7.17438 8.33298 7.77529
#
# Compressibility (1/GPa) = 0.01721943
#
# Stress axis : x y z
#
# Youngs Moduli (GPa) = 153.93314 55.34704 79.61598
#
# Poissons Ratio (x) = 0.29697 0.20878
# Poissons Ratio (y) = 0.82595 0.15640
# Poissons Ratio (z) = 0.40367 0.10873
#
# Static dielectric constant tensor:
#      x y z
#    x 1.712910 0.000000 0.000000 
#    y 0.000000 1.604400 0.000000 
#    z 0.000000 0.000000 1.635240 
# 
# From -- ./inp_files/9886.got.cif
#   From: 2010.05.17/outbox.cif.g08.bks.cpg/sg57_5_cif.got.tgz:9886.got - 2010.06.03 13:58:18.
