data_PCOD9440745
_publ_section_title
;
Structure prediction by ZEFSAII (Michael W. Deem and Ramdas Pophale) SiO2 
 PCOD9440745
Probable space group: P N N M
;
_chemical_formula_sum "Si O2"
_cell_formula_units_Z 56
_cell_length_a 18.242975
_cell_length_b 22.441499
_cell_length_c 9.059668
_cell_angle_alpha 90.000000
_cell_angle_beta 90.000000
_cell_angle_gamma 90.000000
_cell_volume 3709.025409
_symmetry_space_group_name_H-M "P N N M"
_symmetry_group_IT_number 58
_symmetry_cell_setting 'orthorhombic'
loop_
_space_group_symop_operation_xyz
x,y,z
-x,-y,z
1/2+x,1/2-y,1/2-z
1/2-x,1/2+y,1/2-z
-x,-y,-z
x,y,-z
1/2-x,1/2+y,1/2+z
1/2+x,1/2-y,1/2+z
loop_
_atom_site_type_symbol
_atom_site_label
_atom_site_fract_x
_atom_site_fract_y
_atom_site_fract_z
Si Si1 0.871415 0.150568 0.176819
Si Si2 0.510670 0.569588 0.174990
Si Si3 0.787084 0.683198 0.674462
Si Si4 0.418362 0.224193 0.825321
Si Si5 0.568362 0.210945 0.325888
Si Si6 0.259345 0.195416 0.173931
Si Si7 0.891246 0.850979 0.172747
O O1 0.784700 0.143971 0.210390
O O2 0.900253 0.211812 0.251236
O O3 0.920664 0.097736 0.239234
O O4 0.879515 0.156035 0.000000
O O5 0.500000 0.500000 0.207192
O O6 0.439793 0.606604 0.227526
O O7 0.521276 0.577147 0.000000
O O8 0.800107 0.680767 0.500000
O O9 0.863074 0.674762 0.759795
O O10 0.760598 0.749103 0.722697
O O11 0.491638 0.198847 0.753348
O O12 0.345318 0.184016 0.804570
O O13 0.429065 0.233037 0.000000
O O14 0.562843 0.201362 0.500000
O O15 0.585544 0.281786 0.303150
O O16 0.196322 0.146833 0.199935
O O17 0.250242 0.213526 0.000000
O O18 0.905228 0.864261 0.000000
#
# Coordination Sequence:
#
# PCOD9440745 Si02
#       7
#     8   8   8   8   8   8   8
#     4  10  19  31  45  61  83 113 147 184 222 261
#     4  11  23  34  45  63  85 113 152 192 226 261
#     4   9  17  27  41  61  83 110 145 177 212 259
#     4  10  17  26  43  64  88 117 145 175 213 256
#     4  10  18  27  41  63  90 117 146 176 210 256
#     4   8  16  28  41  60  84 111 142 175 213 258
#     4   9  17  30  45  59  82 113 145 182 219 256
#
# _framework density 15.098307
#
# number of rings (size 3 to 8) (size 9 to 14) (size 15 to 20)
#    0.000    2.429    1.429    3.000    0.000    5.714 
#    0.000    0.000    0.000    0.000    0.000    0.000 
#    0.000    1.143    0.000   12.857    0.000    6.429 
#
# Total GULP energy -311886.817657 kJ/mol
# GULP energy per Si atom -5569.407458 kJ/mol
# Density = 1.506394 g / cm^3
# Si number density = 15.098307 Si / 1000 Ang^3
#
#
#
# Elastic Constant Matrix: (Units=GPa)
#
#
# Indices 1 2 3 4 5 6 
#
# 1 137.7874 22.7870 59.1355 0.0000 0.0000 0.0000
# 2 22.7870 28.1472 23.8973 0.0000 0.0000 0.0000
# 3 59.1355 23.8973 64.5242 0.0000 0.0000 0.0000
# 4 0.0000 0.0000 0.0000 14.1299 0.0000 0.0000
# 5 0.0000 0.0000 0.0000 0.0000 27.0974 0.0000
# 6 0.0000 0.0000 0.0000 0.0000 0.0000 8.8475
#
#
#
# Elastic Compliance Matrix: (Units=1/GPa)
#
#
# Indices 1 2 3 4 5 6 
#
# 1 0.011969 -0.000549 -0.010766 0.000000 0.000000 0.000000
# 2 -0.000549 0.051848 -0.018699 0.000000 0.000000 0.000000
# 3 -0.010766 -0.018699 0.032290 0.000000 0.000000 0.000000
# 4 0.000000 0.000000 0.000000 0.070772 0.000000 0.000000
# 5 0.000000 0.000000 0.000000 0.000000 0.036904 0.000000
# 6 0.000000 0.000000 0.000000 0.000000 0.000000 0.113027
#
#
# Mechanical properties :
#
#
# Convention : Reuss Voigt Hill
#
# Bulk Modulus (GPa) = 27.71724 49.12205 38.41964
# Shear Modulus (GPa) = 12.85794 18.32422 15.59108
#
# Velocity S-wave (km/s) = 2.92141 3.48754 3.21695
# Velocity P-wave (km/s) = 5.45685 6.98732 6.26897
#
# Compressibility (1/GPa) = 0.03607863
#
# Stress axis : x y z
#
# Youngs Moduli (GPa) = 83.54991 19.28712 30.96899
#
# Poissons Ratio (x) = 0.01059 0.33341
# Poissons Ratio (y) = 0.04588 0.57910
# Poissons Ratio (z) = 0.89949 0.36065
#
# Static dielectric constant tensor:
#      x y z
#    x 1.554730 0.000000 0.000000 
#    y 0.000000 1.457070 0.000000 
#    z 0.000000 0.000000 1.501870 
# 
# From -- ./inp_files/8141.got.cif
#   From: 2010.05.17/outbox.cif.g08.bks.cpg/sg58_5_cif.got.tgz:8141.got - 2010.06.03 14:20:14.
