data_PCOD9440519
_publ_section_title
;
Structure prediction by ZEFSAII (Michael W. Deem and Ramdas Pophale) SiO2 
 PCOD9440519
Probable space group: P B C M
;
_chemical_formula_sum "Si O2"
_cell_formula_units_Z 48
_cell_length_a 30.000000
_cell_length_b 9.000000
_cell_length_c 9.000000
_cell_angle_alpha 90.000000
_cell_angle_beta 90.000000
_cell_angle_gamma 90.000000
_cell_volume 2430.000000
_symmetry_space_group_name_H-M "P B C M"
_symmetry_group_IT_number 57
_symmetry_cell_setting 'orthorhombic'
loop_
_space_group_symop_operation_xyz
x,y,z
-x,-y,1/2+z
x,1/2-y,-z
-x,1/2+y,1/2-z
-x,-y,-z
x,y,1/2-z
-x,1/2+y,z
x,1/2-y,1/2+z
loop_
_atom_site_type_symbol
_atom_site_label
_atom_site_fract_x
_atom_site_fract_y
_atom_site_fract_z
Si Si1 0.622581 0.750000 0.000000
Si Si2 0.319906 0.981077 0.413986
Si Si3 0.041872 0.085862 0.071030
Si Si4 0.534269 0.349462 0.750000
Si Si5 0.233871 0.416091 0.071672
Si Si6 0.142271 0.084983 0.071047
Si Si7 0.555147 0.669501 0.750000
Si Si8 0.396891 0.750000 0.000000
O O1 0.655465 0.638873 0.082345
O O2 0.588772 0.826723 0.112839
O O3 0.302215 0.947446 0.250000
O O4 0.361416 0.873542 0.448089
O O5 0.277856 0.990853 0.524658
O O6 0.036968 0.093545 0.250000
O O7 0.092231 0.021547 0.041933
O O8 0.041313 0.250000 0.000000
O O9 0.000000 0.000000 0.000000
O O10 0.526959 0.522586 0.750000
O O11 0.484106 0.288914 0.750000
O O12 0.567658 0.308497 0.617979
O O13 0.230872 0.404245 0.250000
O O14 0.239070 0.250000 0.000000
O O15 0.187310 0.479763 0.003732
O O16 0.148040 0.092509 0.250000
O O17 0.140510 0.250000 0.000000
#
# Coordination Sequence:
#
# PCOD9440519 Si02
#       8
#     4   8   8   4   8   8   4   4
#     4  12  25  42  66  94 122 160 193 248 288 356
#     4  12  25  42  66  92 121 161 202 248 301 359
#     4  10  20  34  57  87 122 167 214 265 318 375
#     4  12  28  46  68  96 124 164 196 248 293 362
#     4  11  22  34  59  92 125 159 201 253 307 363
#     4   9  17  32  53  83 123 161 205 258 312 366
#     4  12  28  44  68  94 130 154 204 240 299 354
#     4  12  27  46  68  90 126 160 201 244 304 358
#
# _framework density 19.753086
#
# number of rings (size 3 to 8) (size 9 to 14) (size 15 to 20)
#    0.000    1.000    4.167    4.000    4.667    3.333 
#    0.000    0.000    1.833    0.000    0.000    0.000 
#    0.000    0.000    0.000    0.000    0.000    0.000 
#
# Total GULP energy -267477.137896 kJ/mol
# GULP energy per Si atom -5572.440373 kJ/mol
# Density = 1.970813 g / cm^3
# Si number density = 19.753086 Si / 1000 Ang^3
#
#
#
# Elastic Constant Matrix: (Units=GPa)
#
#
# Indices 1 2 3 4 5 6 
#
# 1 129.2243 -15.2687 21.2632 0.0000 0.0000 0.0000
# 2 -15.2687 3.1329 -7.7318 0.0000 0.0000 0.0000
# 3 21.2632 -7.7318 114.4608 0.0000 0.0000 0.0000
# 4 0.0000 0.0000 0.0000 12.7513 0.0000 0.0000
# 5 0.0000 0.0000 0.0000 0.0000 54.8064 0.0000
# 6 0.0000 0.0000 0.0000 0.0000 0.0000 24.8171
#
#
#
# Elastic Compliance Matrix: (Units=1/GPa)
#
#
# Indices 1 2 3 4 5 6 
#
# 1 0.019237 0.101923 0.003311 0.000000 0.000000 0.000000
# 2 0.101923 0.923076 0.043419 0.000000 0.000000 0.000000
# 3 0.003311 0.043419 0.011054 0.000000 0.000000 0.000000
# 4 0.000000 0.000000 0.000000 0.078423 0.000000 0.000000
# 5 0.000000 0.000000 0.000000 0.000000 0.018246 0.000000
# 6 0.000000 0.000000 0.000000 0.000000 0.000000 0.040295
#
#
# Mechanical properties :
#
#
# Convention : Reuss Voigt Hill
#
# Bulk Modulus (GPa) = 0.79957 27.03816 13.91886
# Shear Modulus (GPa) = 4.13252 35.04532 19.58892
#
# Velocity S-wave (km/s) = 1.44797 4.21666 3.15253
# Velocity P-wave (km/s) = 1.78918 6.11758 4.50699
#
# Compressibility (1/GPa) = 1.25067441
#
# Stress axis : x y z
#
# Youngs Moduli (GPa) = 51.98444 1.08333 90.46158
#
# Poissons Ratio (x) = -0.11042 -0.29955
# Poissons Ratio (y) = -5.29842 -3.92776
# Poissons Ratio (z) = -0.17214 -0.04704
#
# Static dielectric constant tensor:
#      x y z
#    x 1.662110 0.000000 0.000000 
#    y 0.000000 1.756900 0.000000 
#    z 0.000000 0.000000 1.721090 
# 
# From -- ./inp_files/10218.got.cif
#   From: 2010.05.17/outbox.ucp.g08.bks.cvg/sg57_6_cif.got.tgz:10218.got - 2010.06.11 16:39:23.
