data_PCOD9440941
_publ_section_title
;
Structure prediction by ZEFSAII (Michael W. Deem and Ramdas Pophale) SiO2 
 PCOD9440941
Probable space group: P N N M
;
_chemical_formula_sum "Si O2"
_cell_formula_units_Z 64
_cell_length_a 27.463304
_cell_length_b 10.660198
_cell_length_c 13.386966
_cell_angle_alpha 90.000000
_cell_angle_beta 90.000000
_cell_angle_gamma 90.000000
_cell_volume 3919.225173
_symmetry_space_group_name_H-M "P N N M"
_symmetry_group_IT_number 58
_symmetry_cell_setting 'orthorhombic'
loop_
_space_group_symop_operation_xyz
x,y,z
-x,-y,z
1/2+x,1/2-y,1/2-z
1/2-x,1/2+y,1/2-z
-x,-y,-z
x,y,-z
1/2-x,1/2+y,1/2+z
1/2+x,1/2-y,1/2+z
loop_
_atom_site_type_symbol
_atom_site_label
_atom_site_fract_x
_atom_site_fract_y
_atom_site_fract_z
Si Si1 0.902550 0.755519 0.385098
Si Si2 0.726808 0.670010 0.613614
Si Si3 0.505419 0.643382 0.878851
Si Si4 0.178110 0.341302 0.756977
Si Si5 0.715871 0.407077 0.686527
Si Si6 0.679906 0.880192 0.741507
Si Si7 0.889383 0.249942 0.383063
Si Si8 0.168361 0.009198 0.610539
O O1 0.901243 0.708746 0.500000
O O2 0.869845 0.676147 0.310033
O O3 0.876302 0.892212 0.386688
O O4 0.957889 0.776592 0.351583
O O5 0.739115 0.700400 0.500000
O O6 0.775597 0.667896 0.681274
O O7 0.705490 0.529086 0.620974
O O8 0.690869 0.772342 0.661221
O O9 0.500000 0.500000 0.842521
O O10 0.556823 0.704792 0.852298
O O11 0.504895 0.637042 0.000000
O O12 0.185863 0.220850 0.828099
O O13 0.178368 0.479670 0.802289
O O14 0.773138 0.377196 0.684410
O O15 0.703628 0.452997 0.799879
O O16 0.633117 0.850525 0.808344
O O17 0.890487 0.288930 0.500000
O O18 0.853851 0.128640 0.376645
O O19 0.190891 0.018560 0.500000
#
# Coordination Sequence:
#
# PCOD9440941 Si02
#       8
#     8   8   8   8   8   8   8   8
#     4   9  15  25  44  68  94 127 161 192 233 282
#     4  10  19  33  51  69  93 127 166 205 242 279
#     4   9  15  25  42  68  98 127 163 204 236 272
#     4   9  19  32  48  67  98 128 161 194 241 291
#     4   9  18  32  49  67  91 123 166 205 233 275
#     4  10  20  32  46  66  98 130 162 202 238 287
#     4  10  18  28  45  70  99 130 162 197 237 281
#     4   9  15  26  47  71  93 122 159 195 234 278
#
# _framework density 16.329758999999999
#
# number of rings (size 3 to 8) (size 9 to 14) (size 15 to 20)
#    0.000    2.625    2.500    0.375    0.000    5.500 
#    0.000    1.250    0.000    2.250    0.000    0.000 
#    0.000   14.500    0.000    0.000    0.000    0.000 
#
# Total GULP energy -356488.696956 kJ/mol
# GULP energy per Si atom -5570.135890 kJ/mol
# Density = 1.629259 g / cm^3
# Si number density = 16.329759 Si / 1000 Ang^3
#
#
#
# Elastic Constant Matrix: (Units=GPa)
#
#
# Indices 1 2 3 4 5 6 
#
# 1 83.8280 24.0547 7.8926 0.0000 0.0000 0.0000
# 2 24.0547 96.4173 14.8720 0.0000 0.0000 0.0000
# 3 7.8926 14.8720 20.0373 0.0000 0.0000 0.0000
# 4 0.0000 0.0000 0.0000 2.9154 0.0000 0.0000
# 5 0.0000 0.0000 0.0000 0.0000 18.8064 0.0000
# 6 0.0000 0.0000 0.0000 0.0000 0.0000 17.5745
#
#
#
# Elastic Compliance Matrix: (Units=1/GPa)
#
#
# Indices 1 2 3 4 5 6 
#
# 1 0.013014 -0.002774 -0.003067 0.000000 0.000000 0.000000
# 2 -0.002774 0.012304 -0.008039 0.000000 0.000000 0.000000
# 3 -0.003067 -0.008039 0.057082 0.000000 0.000000 0.000000
# 4 0.000000 0.000000 0.000000 0.343009 0.000000 0.000000
# 5 0.000000 0.000000 0.000000 0.000000 0.053173 0.000000
# 6 0.000000 0.000000 0.000000 0.000000 0.000000 0.056901
#
#
# Mechanical properties :
#
#
# Convention : Reuss Voigt Hill
#
# Bulk Modulus (GPa) = 18.30208 32.65792 25.48000
# Shear Modulus (GPa) = 8.59909 18.09014 13.34461
#
# Velocity S-wave (km/s) = 2.29724 3.33198 2.86177
# Velocity P-wave (km/s) = 4.27418 5.90298 5.15334
#
# Compressibility (1/GPa) = 0.05463860
#
# Stress axis : x y z
#
# Youngs Moduli (GPa) = 76.84094 81.27687 17.51862
#
# Poissons Ratio (x) = 0.22543 0.05374
# Poissons Ratio (y) = 0.21313 0.14084
# Poissons Ratio (z) = 0.23571 0.65342
#
# Static dielectric constant tensor:
#      x y z
#    x 1.548280 0.000000 0.000000 
#    y 0.000000 1.608780 0.000000 
#    z 0.000000 0.000000 1.526040 
# 
# From -- ./inp_files/17854.got.cif
#   From: 2010.05.17/outbox.cif.g08.bks.cpg/sg58_9_cif.got.tgz:17854.got - 2010.06.03 14:20:14.
