data_PCOD9440270
_publ_section_title
;
Structure prediction by ZEFSAII (Michael W. Deem and Ramdas Pophale) SiO2 
 PCOD9440270
Probable space group: P B C M
;
_chemical_formula_sum "Si O2"
_cell_formula_units_Z 48
_cell_length_a 5.863932
_cell_length_b 14.477525
_cell_length_c 25.729494
_cell_angle_alpha 90.000000
_cell_angle_beta 90.000000
_cell_angle_gamma 90.000000
_cell_volume 2184.311108
_symmetry_space_group_name_H-M "P B C M"
_symmetry_group_IT_number 57
_symmetry_cell_setting 'orthorhombic'
loop_
_space_group_symop_operation_xyz
x,y,z
-x,-y,1/2+z
x,1/2-y,-z
-x,1/2+y,1/2-z
-x,-y,-z
x,y,1/2-z
-x,1/2+y,z
x,1/2-y,1/2+z
loop_
_atom_site_type_symbol
_atom_site_label
_atom_site_fract_x
_atom_site_fract_y
_atom_site_fract_z
Si Si1 0.162339 0.488050 0.950672
Si Si2 0.224336 0.778509 0.861918
Si Si3 0.792176 0.581605 0.750000
Si Si4 0.804039 0.006349 0.361714
Si Si5 0.127024 0.225036 0.050933
Si Si6 0.489698 0.366935 0.426316
Si Si7 0.284136 0.810232 0.250000
O O1 0.217610 0.379604 0.947442
O O2 0.353464 0.564859 0.958962
O O3 0.032939 0.508954 0.896038
O O4 0.000000 0.500000 0.000000
O O5 0.266535 0.887277 0.868593
O O6 0.382483 0.711258 0.894448
O O7 0.260733 0.749993 0.802417
O O8 0.984817 0.761954 0.891981
O O9 0.811210 0.519855 0.698368
O O10 0.538581 0.636236 0.750000
O O11 0.037800 0.635688 0.750000
O O12 0.625437 0.937360 0.386719
O O13 0.304452 0.307521 0.044028
O O14 0.968580 0.250000 0.000000
#
# Coordination Sequence:
#
# PCOD9440270 Si02
#       7
#     8   8   4   8   8   8   4
#     4  11  25  45  69 102 146 194 246 315 380 465
#     4  11  25  45  69 104 144 192 243 313 372 461
#     4  12  25  48  77 111 147 203 250 322 385 461
#     4  11  25  44  69 105 145 190 250 305 385 452
#     4  11  25  43  68 103 140 192 249 310 379 457
#     4  12  22  42  69  99 140 187 244 303 380 442
#     4  12  25  48  79 107 151 197 256 316 389 453
#
# _framework density 21.974892000000001
#
# number of rings (size 3 to 8) (size 9 to 14) (size 15 to 20)
#    0.000    0.667    1.667    6.500    0.000    6.000 
#    0.000    1.667    0.000    0.000    0.000    0.000 
#    0.000    0.000    0.000    0.000    0.000    0.000 
#
# Total GULP energy -267807.244840 kJ/mol
# GULP energy per Si atom -5579.317601 kJ/mol
# Density = 2.192488 g / cm^3
# Si number density = 21.974892 Si / 1000 Ang^3
#
#
#
# Elastic Constant Matrix: (Units=GPa)
#
#
# Indices 1 2 3 4 5 6 
#
# 1 78.9662 55.6008 28.8211 0.0000 0.0000 0.0000
# 2 55.6008 123.2336 31.7787 0.0000 0.0000 0.0000
# 3 28.8211 31.7787 127.0077 0.0000 0.0000 0.0000
# 4 0.0000 0.0000 0.0000 47.8618 0.0000 0.0000
# 5 0.0000 0.0000 0.0000 0.0000 19.3741 0.0000
# 6 0.0000 0.0000 0.0000 0.0000 0.0000 61.9075
#
#
#
# Elastic Compliance Matrix: (Units=1/GPa)
#
#
# Indices 1 2 3 4 5 6 
#
# 1 0.019188 -0.008054 -0.002339 0.000000 0.000000 0.000000
# 2 -0.008054 0.012055 -0.001189 0.000000 0.000000 0.000000
# 3 -0.002339 -0.001189 0.008702 0.000000 0.000000 0.000000
# 4 0.000000 0.000000 0.000000 0.020894 0.000000 0.000000
# 5 0.000000 0.000000 0.000000 0.000000 0.051615 0.000000
# 6 0.000000 0.000000 0.000000 0.000000 0.000000 0.016153
#
#
# Mechanical properties :
#
#
# Convention : Reuss Voigt Hill
#
# Bulk Modulus (GPa) = 59.58979 62.40096 60.99538
# Shear Modulus (GPa) = 31.77323 40.02912 35.90118
#
# Velocity S-wave (km/s) = 3.80661 4.27263 4.04634
# Velocity P-wave (km/s) = 6.81883 7.26627 7.04610
#
# Compressibility (1/GPa) = 0.01678140
#
# Stress axis : x y z
#
# Youngs Moduli (GPa) = 52.11460 82.95218 114.91966
#
# Poissons Ratio (x) = 0.66812 0.26880
# Poissons Ratio (y) = 0.41975 0.13659
# Poissons Ratio (z) = 0.12190 0.09860
#
# Static dielectric constant tensor:
#      x y z
#    x 2.156480 0.000000 0.000000 
#    y 0.000000 1.757130 0.000000 
#    z 0.000000 0.000000 1.813760 
# 
# From -- ./inp_files/28001.got.cif
#   From: 2010.05.17/outbox.cif.g08.bks.cpg/sg57_15_cif.got.tgz:28001.got - 2010.06.03 13:58:18.
