data_PCOD9440769
_publ_section_title
;
Structure prediction by ZEFSAII (Michael W. Deem and Ramdas Pophale) SiO2 
 PCOD9440769
Probable space group: P N N M
;
_chemical_formula_sum "Si O2"
_cell_formula_units_Z 40
_cell_length_a 12.767888
_cell_length_b 16.301408
_cell_length_c 7.818896
_cell_angle_alpha 90.000000
_cell_angle_beta 90.000000
_cell_angle_gamma 90.000000
_cell_volume 1627.382413
_symmetry_space_group_name_H-M "P N N M"
_symmetry_group_IT_number 58
_symmetry_cell_setting 'orthorhombic'
loop_
_space_group_symop_operation_xyz
x,y,z
-x,-y,z
1/2+x,1/2-y,1/2-z
1/2-x,1/2+y,1/2-z
-x,-y,-z
x,y,-z
1/2-x,1/2+y,1/2+z
1/2+x,1/2-y,1/2+z
loop_
_atom_site_type_symbol
_atom_site_label
_atom_site_fract_x
_atom_site_fract_y
_atom_site_fract_z
Si Si1 0.319909 0.860464 0.698022
Si Si2 0.511195 0.379402 0.204407
Si Si3 0.174471 0.001148 0.804546
Si Si4 0.965985 0.415196 0.304099
Si Si5 0.636916 0.761460 0.790953
O O1 0.343800 0.843503 0.500000
O O2 0.425520 0.865201 0.803668
O O3 0.237514 0.791791 0.761423
O O4 0.263452 0.949913 0.708209
O O5 0.425580 0.440960 0.283819
O O6 0.626561 0.411081 0.251136
O O7 0.466269 0.291510 0.257547
O O8 0.501102 0.386552 0.000000
O O9 0.206502 0.005983 0.000000
O O10 0.934898 0.433554 0.500000
O O11 0.000000 0.500000 0.217450
O O12 0.879012 0.354314 0.229371
O O13 0.639571 0.763973 0.000000
#
# Coordination Sequence:
#
# PCOD9440769 Si02
#       5
#     8   8   8   8   8
#     4  10  20  37  59  82 114 155 199 241 289 355
#     4   9  15  27  48  75 111 149 185 231 291 349
#     4  10  17  27  47  78 113 146 188 236 287 344
#     4  10  21  40  63  86 118 156 194 242 298 354
#     4   8  17  35  58  82 113 153 193 236 294 351
#
# _framework density 24.579350000000002
#
# number of rings (size 3 to 8) (size 9 to 14) (size 15 to 20)
#    0.000    2.600    0.000    5.400    0.000    0.400 
#    3.600    6.000    0.000    0.000    0.000    0.000 
#    0.000    0.000    0.000    0.000    0.000    0.000 
#
# Total GULP energy -223271.290116 kJ/mol
# GULP energy per Si atom -5581.782253 kJ/mol
# Density = 2.452341 g / cm^3
# Si number density = 24.579350 Si / 1000 Ang^3
#
#
#
# Elastic Constant Matrix: (Units=GPa)
#
#
# Indices 1 2 3 4 5 6 
#
# 1 95.7583 31.7293 5.5393 0.0000 0.0000 0.0000
# 2 31.7293 108.4503 3.2427 0.0000 0.0000 0.0000
# 3 5.5393 3.2427 69.2744 0.0000 0.0000 0.0000
# 4 0.0000 0.0000 0.0000 5.4839 0.0000 0.0000
# 5 0.0000 0.0000 0.0000 0.0000 6.3722 0.0000
# 6 0.0000 0.0000 0.0000 0.0000 0.0000 21.3820
#
#
#
# Elastic Compliance Matrix: (Units=1/GPa)
#
#
# Indices 1 2 3 4 5 6 
#
# 1 0.011605 -0.003372 -0.000770 0.000000 0.000000 0.000000
# 2 -0.003372 0.010214 -0.000208 0.000000 0.000000 0.000000
# 3 -0.000770 -0.000208 0.014507 0.000000 0.000000 0.000000
# 4 0.000000 0.000000 0.000000 0.182350 0.000000 0.000000
# 5 0.000000 0.000000 0.000000 0.000000 0.156933 0.000000
# 6 0.000000 0.000000 0.000000 0.000000 0.000000 0.046768
#
#
# Mechanical properties :
#
#
# Convention : Reuss Voigt Hill
#
# Bulk Modulus (GPa) = 36.20080 39.38952 37.79516
# Shear Modulus (GPa) = 11.35626 22.17908 16.76767
#
# Velocity S-wave (km/s) = 2.15181 3.00717 2.61470
# Velocity P-wave (km/s) = 4.57535 5.30261 4.95235
#
# Compressibility (1/GPa) = 0.02762370
#
# Stress axis : x y z
#
# Youngs Moduli (GPa) = 86.17066 97.90820 68.93376
#
# Poissons Ratio (x) = 0.33017 0.05309
# Poissons Ratio (y) = 0.29059 0.01437
# Poissons Ratio (z) = 0.06636 0.02041
#
# Static dielectric constant tensor:
#      x y z
#    x 1.951420 0.000000 0.000000 
#    y 0.000000 2.051490 0.000000 
#    z 0.000000 0.000000 1.872920 
# 
# From -- ./inp_files/5561.got.cif
#   From: 2010.05.17/outbox.cif.g08.bks.cpg/sg58_3_cif.got.tgz:5561.got - 2010.06.03 14:20:14.
