data_PCOD9440896
_publ_section_title
;
Structure prediction by ZEFSAII (Michael W. Deem and Ramdas Pophale) SiO2 
 PCOD9440896
Probable space group: P N N M
;
_chemical_formula_sum "Si O2"
_cell_formula_units_Z 64
_cell_length_a 19.095061
_cell_length_b 27.394758
_cell_length_c 8.129995
_cell_angle_alpha 90.000000
_cell_angle_beta 90.000000
_cell_angle_gamma 90.000000
_cell_volume 4252.837580
_symmetry_space_group_name_H-M "P N N M"
_symmetry_group_IT_number 58
_symmetry_cell_setting 'orthorhombic'
loop_
_space_group_symop_operation_xyz
x,y,z
-x,-y,z
1/2+x,1/2-y,1/2-z
1/2-x,1/2+y,1/2-z
-x,-y,-z
x,y,-z
1/2-x,1/2+y,1/2+z
1/2+x,1/2-y,1/2+z
loop_
_atom_site_type_symbol
_atom_site_label
_atom_site_fract_x
_atom_site_fract_y
_atom_site_fract_z
Si Si1 0.221592 0.288020 0.190449
Si Si2 0.340944 0.349574 0.698647
Si Si3 0.800835 0.305384 0.190460
Si Si4 0.585978 0.450803 0.806121
Si Si5 0.912767 0.755965 0.696174
Si Si6 0.834197 0.855023 0.298289
Si Si7 0.072476 0.753332 0.199051
Si Si8 0.928822 0.058066 0.194156
O O1 0.264544 0.336624 0.231892
O O2 0.257595 0.245567 0.299493
O O3 0.139651 0.284285 0.229022
O O4 0.232972 0.275698 0.000000
O O5 0.336587 0.349328 0.500000
O O6 0.392353 0.304929 0.749356
O O7 0.375231 0.400424 0.751575
O O8 0.745021 0.343899 0.260528
O O9 0.876129 0.290013 0.261176
O O10 0.811805 0.318594 0.000000
O O11 0.632990 0.406045 0.743993
O O12 0.597608 0.503098 0.722854
O O13 0.504275 0.437725 0.779974
O O14 0.598364 0.456793 0.000000
O O15 0.906655 0.754038 0.500000
O O16 0.882959 0.809100 0.751287
O O17 0.993049 0.749964 0.744782
O O18 0.833436 0.855041 0.500000
O O19 0.074146 0.752321 0.000000
O O20 0.940847 0.065209 0.000000
#
# Coordination Sequence:
#
# PCOD9440896 Si02
#       8
#     8   8   8   8   8   8   8   8
#     4  10  18  27  41  60  80 102 134 171 202 237
#     4   9  18  31  44  57  79 111 140 168 205 246
#     4   8  15  29  43  56  80 109 134 163 202 243
#     4  10  18  28  42  60  82 106 138 176 206 233
#     4  10  18  28  41  57  82 111 137 164 198 240
#     4   8  15  27  42  57  75 107 141 165 196 236
#     4   9  16  26  41  60  80 103 134 168 198 232
#     4  10  19  30  42  57  80 109 139 169 206 245
#
# _framework density 15.048776
#
# number of rings (size 3 to 8) (size 9 to 14) (size 15 to 20)
#    0.000    2.750    0.000    5.250    0.000    3.000 
#    0.000    5.625    0.000    0.000    0.000    0.000 
#    0.000    1.000    0.000   11.500    0.000    2.875 
#
# Total GULP energy -356384.887437 kJ/mol
# GULP energy per Si atom -5568.513866 kJ/mol
# Density = 1.501452 g / cm^3
# Si number density = 15.048776 Si / 1000 Ang^3
#
#
#
# Elastic Constant Matrix: (Units=GPa)
#
#
# Indices 1 2 3 4 5 6 
#
# 1 115.2885 56.7576 6.4901 0.0000 0.0000 0.0000
# 2 56.7576 82.5208 3.9028 0.0000 0.0000 0.0000
# 3 6.4901 3.9028 18.4620 0.0000 0.0000 0.0000
# 4 0.0000 0.0000 0.0000 0.9515 0.0000 0.0000
# 5 0.0000 0.0000 0.0000 0.0000 17.7577 0.0000
# 6 0.0000 0.0000 0.0000 0.0000 0.0000 29.7840
#
#
#
# Elastic Compliance Matrix: (Units=1/GPa)
#
#
# Indices 1 2 3 4 5 6 
#
# 1 0.013252 -0.008984 -0.002759 0.000000 0.000000 0.000000
# 2 -0.008984 0.018332 -0.000717 0.000000 0.000000 0.000000
# 3 -0.002759 -0.000717 0.055287 0.000000 0.000000 0.000000
# 4 0.000000 0.000000 0.000000 1.051017 0.000000 0.000000
# 5 0.000000 0.000000 0.000000 0.000000 0.056313 0.000000
# 6 0.000000 0.000000 0.000000 0.000000 0.000000 0.033575
#
#
# Mechanical properties :
#
#
# Convention : Reuss Voigt Hill
#
# Bulk Modulus (GPa) = 16.14222 38.95247 27.54734
# Shear Modulus (GPa) = 3.92666 19.64002 11.78334
#
# Velocity S-wave (km/s) = 1.61708 3.61652 2.80127
# Velocity P-wave (km/s) = 3.77313 6.58630 5.36730
#
# Compressibility (1/GPa) = 0.06194936
#
# Stress axis : x y z
#
# Youngs Moduli (GPa) = 75.45825 54.55076 18.08747
#
# Poissons Ratio (x) = 0.49011 0.04991
# Poissons Ratio (y) = 0.67795 0.01297
# Poissons Ratio (z) = 0.20822 0.03911
#
# Static dielectric constant tensor:
#      x y z
#    x 1.516370 0.000000 0.000000 
#    y 0.000000 1.497810 0.000000 
#    z 0.000000 0.000000 1.533560 
# 
# From -- ./inp_files/8546.got.cif
#   From: 2010.05.17/outbox.cif.g08.bks.cpg/sg58_5_cif.got.tgz:8546.got - 2010.06.03 14:20:14.
