data_PCOD9440486
_publ_section_title
;
Structure prediction by ZEFSAII (Michael W. Deem and Ramdas Pophale) SiO2 
 PCOD9440486
Probable space group: P B C M
;
_chemical_formula_sum "Si O2"
_cell_formula_units_Z 56
_cell_length_a 15.000000
_cell_length_b 9.000000
_cell_length_c 21.000000
_cell_angle_alpha 90.000000
_cell_angle_beta 90.000000
_cell_angle_gamma 90.000000
_cell_volume 2835.000000
_symmetry_space_group_name_H-M "P B C M"
_symmetry_group_IT_number 57
_symmetry_cell_setting 'orthorhombic'
loop_
_space_group_symop_operation_xyz
x,y,z
-x,-y,1/2+z
x,1/2-y,-z
-x,1/2+y,1/2-z
-x,-y,-z
x,y,1/2-z
-x,1/2+y,z
x,1/2-y,1/2+z
loop_
_atom_site_type_symbol
_atom_site_label
_atom_site_fract_x
_atom_site_fract_y
_atom_site_fract_z
Si Si1 0.447775 0.841943 0.322188
Si Si2 0.117914 0.872413 0.172701
Si Si3 0.401262 0.071393 0.498605
Si Si4 0.381896 0.975206 0.866731
Si Si5 0.225075 0.343358 0.177266
Si Si6 0.937723 0.037498 0.172808
Si Si7 0.705844 0.529551 0.129617
O O1 0.468666 0.798502 0.250000
O O2 0.413619 0.693118 0.356716
O O3 0.535111 0.915666 0.352217
O O4 0.370219 0.965226 0.323884
O O5 0.130852 0.876537 0.250000
O O6 0.088920 0.704915 0.154605
O O7 0.207886 0.926523 0.139114
O O8 0.036912 0.984177 0.156339
O O9 0.408919 0.250000 0.500000
O O10 0.344071 0.024912 0.437788
O O11 0.500000 0.000000 0.500000
O O12 0.354331 0.008970 0.561389
O O13 0.299371 0.026915 0.824065
O O14 0.207480 0.296658 0.250000
O O15 0.134972 0.416376 0.150411
O O16 0.263960 0.198266 0.143101
O O17 0.933296 0.035022 0.250000
#
# Coordination Sequence:
#
# PCOD9440486 Si02
#       7
#     8   8   8   8   8   8   8
#     4  12  24  39  60  93 127 161 201 264 333 390
#     4  10  19  36  60  96 131 168 210 262 330 393
#     4  12  25  47  65  87 120 171 230 268 312 377
#     4  12  24  41  61  86 123 166 214 263 316 381
#     4  11  21  37  59  91 126 165 206 259 325 385
#     4   9  19  35  61  93 136 173 207 255 324 406
#     4  12  24  38  63  90 127 168 214 267 312 379
#
# _framework density 19.753086
#
# number of rings (size 3 to 8) (size 9 to 14) (size 15 to 20)
#    0.000    0.857    2.857    6.000    0.000    3.429 
#    0.000    0.000    0.000    0.857    0.000    0.000 
#    0.000    0.000    0.000    0.000    0.000    0.000 
#
# Total GULP energy -313063.961661 kJ/mol
# GULP energy per Si atom -5590.427887 kJ/mol
# Density = 1.970813 g / cm^3
# Si number density = 19.753086 Si / 1000 Ang^3
#
#
#
# Elastic Constant Matrix: (Units=GPa)
#
#
# Indices 1 2 3 4 5 6 
#
# 1 107.2810 20.2659 37.6123 0.0000 0.0000 0.0000
# 2 20.2659 79.8203 33.5381 0.0000 0.0000 0.0000
# 3 37.6123 33.5381 88.8923 0.0000 0.0000 0.0000
# 4 0.0000 0.0000 0.0000 25.4803 0.0000 0.0000
# 5 0.0000 0.0000 0.0000 0.0000 20.0839 0.0000
# 6 0.0000 0.0000 0.0000 0.0000 0.0000 38.0792
#
#
#
# Elastic Compliance Matrix: (Units=1/GPa)
#
#
# Indices 1 2 3 4 5 6 
#
# 1 0.011011 -0.000996 -0.004283 0.000000 0.000000 0.000000
# 2 -0.000996 0.014978 -0.005230 0.000000 0.000000 0.000000
# 3 -0.004283 -0.005230 0.015035 0.000000 0.000000 0.000000
# 4 0.000000 0.000000 0.000000 0.039246 0.000000 0.000000
# 5 0.000000 0.000000 0.000000 0.000000 0.049791 0.000000
# 6 0.000000 0.000000 0.000000 0.000000 0.000000 0.026261
#
#
# Mechanical properties :
#
#
# Convention : Reuss Voigt Hill
#
# Bulk Modulus (GPa) = 49.98359 50.98068 50.48214
# Shear Modulus (GPa) = 27.17248 29.03384 28.10316
#
# Velocity S-wave (km/s) = 3.71294 3.83801 3.77599
# Velocity P-wave (km/s) = 6.61365 6.74577 6.68004
#
# Compressibility (1/GPa) = 0.02000656
#
# Stress axis : x y z
#
# Youngs Moduli (GPa) = 90.81689 66.76277 66.51121
#
# Poissons Ratio (x) = 0.06649 0.28489
# Poissons Ratio (y) = 0.09045 0.34784
# Poissons Ratio (z) = 0.38900 0.34915
#
# Static dielectric constant tensor:
#      x y z
#    x 1.694960 0.000000 0.000000 
#    y 0.000000 1.696360 0.000000 
#    z 0.000000 0.000000 1.763130 
# 
# From -- ./inp_files/25375.got.cif
#   From: 2010.05.17/outbox.ucp.g08.bks.cvg/sg57_13_cif.got.tgz:25375.got - 2010.06.11 16:39:23.
