data_PCOD9440287
_publ_section_title
;
Structure prediction by ZEFSAII (Michael W. Deem and Ramdas Pophale) SiO2 
 PCOD9440287
Probable space group: P B C M
;
_chemical_formula_sum "Si O2"
_cell_formula_units_Z 32
_cell_length_a 5.541213
_cell_length_b 17.556464
_cell_length_c 14.598123
_cell_angle_alpha 90.000000
_cell_angle_beta 90.000000
_cell_angle_gamma 90.000000
_cell_volume 1420.165353
_symmetry_space_group_name_H-M "P B C M"
_symmetry_group_IT_number 57
_symmetry_cell_setting 'orthorhombic'
loop_
_space_group_symop_operation_xyz
x,y,z
-x,-y,1/2+z
x,1/2-y,-z
-x,1/2+y,1/2-z
-x,-y,-z
x,y,1/2-z
-x,1/2+y,z
x,1/2-y,1/2+z
loop_
_atom_site_type_symbol
_atom_site_label
_atom_site_fract_x
_atom_site_fract_y
_atom_site_fract_z
Si Si1 0.797469 0.562019 0.482265
Si Si2 0.534871 0.057822 0.641511
Si Si3 0.706258 0.221024 0.604401
Si Si4 0.804639 0.800174 0.849173
O O1 0.619313 0.518488 0.410823
O O2 0.699577 0.579492 0.583108
O O3 0.845518 0.640479 0.431167
O O4 0.000000 0.500000 0.500000
O O5 0.506457 0.048459 0.750000
O O6 0.702031 0.130363 0.619327
O O7 0.710370 0.250000 0.500000
O O8 0.450395 0.255648 0.640812
O O9 0.953649 0.250072 0.648731
O O10 0.795908 0.840179 0.750000
#
# Coordination Sequence:
#
# PCOD9440287 Si02
#       4
#     8   8   8   8
#     4  11  26  47  69 104 142 189 237 297 363 428
#     4  11  25  46  72 104 143 189 242 297 361 433
#     4  12  25  48  73 108 146 189 239 300 358 425
#     4  12  26  46  74 107 145 190 240 294 359 430
#
# _framework density 22.532586999999999
#
# number of rings (size 3 to 8) (size 9 to 14) (size 15 to 20)
#    0.000    0.500    2.500    5.250    7.000    2.000 
#    0.000    0.000    0.000    0.000    0.000    0.000 
#    0.000    0.000    0.000    0.000    0.000    0.000 
#
# Total GULP energy -178742.779588 kJ/mol
# GULP energy per Si atom -5585.711862 kJ/mol
# Density = 2.248130 g / cm^3
# Si number density = 22.532587 Si / 1000 Ang^3
#
#
#
# Elastic Constant Matrix: (Units=GPa)
#
#
# Indices 1 2 3 4 5 6 
#
# 1 123.1643 29.2578 28.5899 0.0000 0.0000 0.0000
# 2 29.2578 81.5373 3.8888 0.0000 0.0000 0.0000
# 3 28.5899 3.8888 183.0669 0.0000 0.0000 0.0000
# 4 0.0000 0.0000 0.0000 32.2504 0.0000 0.0000
# 5 0.0000 0.0000 0.0000 0.0000 -102.6899 0.0000
# 6 0.0000 0.0000 0.0000 0.0000 0.0000 42.9429
#
#
#
# Elastic Compliance Matrix: (Units=1/GPa)
#
#
# Indices 1 2 3 4 5 6 
#
# 1 0.009206 -0.003238 -0.001369 0.000000 0.000000 0.000000
# 2 -0.003238 0.013416 0.000221 0.000000 0.000000 0.000000
# 3 -0.001369 0.000221 0.005672 0.000000 0.000000 0.000000
# 4 0.000000 0.000000 0.000000 0.031007 0.000000 0.000000
# 5 0.000000 0.000000 0.000000 0.000000 -0.009738 0.000000
# 6 0.000000 0.000000 0.000000 0.000000 0.000000 0.023287
#
#
# Mechanical properties :
#
#
# Convention : Reuss Voigt Hill
#
# Bulk Modulus (GPa) = 51.22750 56.80461 54.01606
# Shear Modulus (GPa) = 56.73480 16.23614 36.48547
#
# Velocity S-wave (km/s) = 5.02331 2.68724 4.02833
# Velocity P-wave (km/s) = 7.51193 5.90704 6.75730
#
# Compressibility (1/GPa) = 0.01952076
#
# Stress axis : x y z
#
# Youngs Moduli (GPa) = 108.62201 74.53934 176.31743
#
# Poissons Ratio (x) = 0.24137 0.24137
# Poissons Ratio (y) = 0.35173 -0.03892
# Poissons Ratio (z) = 0.14870 -0.01645
#
# Static dielectric constant tensor:
#      x y z
#    x 1.907810 0.000000 0.000000 
#    y 0.000000 1.738960 0.000000 
#    z 0.000000 0.000000 1.830490 
# 
# From -- ./inp_files/14694.got.cif
#   From: 2010.05.17/outbox.cif.g08.bks.cpg/sg57_8_cif.got.tgz:14694.got - 2010.06.03 13:58:18.
