data_PCOD9440798
_publ_section_title
;
Structure prediction by ZEFSAII (Michael W. Deem and Ramdas Pophale) SiO2 
 PCOD9440798
Probable space group: P N N M
;
_chemical_formula_sum "Si O2"
_cell_formula_units_Z 64
_cell_length_a 31.326662
_cell_length_b 15.119352
_cell_length_c 8.214366
_cell_angle_alpha 90.000000
_cell_angle_beta 90.000000
_cell_angle_gamma 90.000000
_cell_volume 3890.642699
_symmetry_space_group_name_H-M "P N N M"
_symmetry_group_IT_number 58
_symmetry_cell_setting 'orthorhombic'
loop_
_space_group_symop_operation_xyz
x,y,z
-x,-y,z
1/2+x,1/2-y,1/2-z
1/2-x,1/2+y,1/2-z
-x,-y,-z
x,y,-z
1/2-x,1/2+y,1/2+z
1/2+x,1/2-y,1/2+z
loop_
_atom_site_type_symbol
_atom_site_label
_atom_site_fract_x
_atom_site_fract_y
_atom_site_fract_z
Si Si1 0.133282 0.822868 0.687960
Si Si2 0.706178 0.186929 0.806290
Si Si3 0.451609 0.400781 0.305243
Si Si4 0.674319 0.502015 0.690236
Si Si5 0.776218 0.493929 0.692222
Si Si6 0.133413 0.186192 0.196286
Si Si7 0.289714 0.203455 0.197734
Si Si8 0.547613 0.395975 0.698900
O O1 0.127862 0.800369 0.500000
O O2 0.086328 0.835060 0.760790
O O3 0.168153 0.754821 0.758545
O O4 0.155006 0.918770 0.707565
O O5 0.662147 0.236437 0.767907
O O6 0.746534 0.243517 0.741871
O O7 0.706359 0.086447 0.739274
O O8 0.712098 0.181755 0.000000
O O9 0.453697 0.405217 0.500000
O O10 0.442505 0.502309 0.250519
O O11 0.499264 0.376142 0.247626
O O12 0.662385 0.517590 0.500000
O O13 0.725096 0.500867 0.702613
O O14 0.656560 0.406511 0.736231
O O15 0.787652 0.491630 0.500000
O O16 0.788680 0.397710 0.759105
O O17 0.084641 0.171078 0.251401
O O18 0.134089 0.195354 0.000000
O O19 0.290635 0.202003 0.000000
O O20 0.548394 0.395691 0.500000
#
# Coordination Sequence:
#
# PCOD9440798 Si02
#       8
#     8   8   8   8   8   8   8   8
#     4  11  21  29  44  71  98 122 154 196 240 269
#     4  11  21  31  47  71  93 117 155 198 233 265
#     4   9  16  30  49  67  91 122 160 191 220 276
#     4  10  17  29  49  65  88 129 163 185 218 273
#     4   9  18  33  48  62  87 125 162 188 221 267
#     4  10  18  31  49  68  92 125 158 184 224 278
#     4  10  20  35  49  63  89 128 163 188 222 277
#     4   8  15  28  49  70  87 122 164 188 212 275
#
# _framework density 16.449725000000001
#
# number of rings (size 3 to 8) (size 9 to 14) (size 15 to 20)
#    0.000    2.250    3.750    1.500    0.000    1.000 
#    0.000    3.125    0.000    0.000    0.000    0.875 
#    0.000    7.000    0.000    0.000    0.000    0.000 
#
# Total GULP energy -356649.821735 kJ/mol
# GULP energy per Si atom -5572.653465 kJ/mol
# Density = 1.641228 g / cm^3
# Si number density = 16.449725 Si / 1000 Ang^3
#
#
#
# Elastic Constant Matrix: (Units=GPa)
#
#
# Indices 1 2 3 4 5 6 
#
# 1 109.6171 62.0762 12.0057 0.0000 0.0000 0.0000
# 2 62.0762 106.0026 11.7039 0.0000 0.0000 0.0000
# 3 12.0057 11.7039 7.1540 0.0000 0.0000 0.0000
# 4 0.0000 0.0000 0.0000 15.8379 0.0000 0.0000
# 5 0.0000 0.0000 0.0000 0.0000 20.9233 0.0000
# 6 0.0000 0.0000 0.0000 0.0000 0.0000 24.2126
#
#
#
# Elastic Compliance Matrix: (Units=1/GPa)
#
#
# Indices 1 2 3 4 5 6 
#
# 1 0.014548 -0.007108 -0.012786 0.000000 0.000000 0.000000
# 2 -0.007108 0.014986 -0.012589 0.000000 0.000000 0.000000
# 3 -0.012786 -0.012589 0.181836 0.000000 0.000000 0.000000
# 4 0.000000 0.000000 0.000000 0.063140 0.000000 0.000000
# 5 0.000000 0.000000 0.000000 0.000000 0.047794 0.000000
# 6 0.000000 0.000000 0.000000 0.000000 0.000000 0.041301
#
#
# Mechanical properties :
#
#
# Convention : Reuss Voigt Hill
#
# Bulk Modulus (GPa) = 6.83041 43.81615 25.32328
# Shear Modulus (GPa) = 10.47400 21.32727 15.90064
#
# Velocity S-wave (km/s) = 2.52608 3.60462 3.11242
# Velocity P-wave (km/s) = 3.55942 6.63465 5.32391
#
# Compressibility (1/GPa) = 0.14640416
#
# Stress axis : x y z
#
# Youngs Moduli (GPa) = 68.73671 66.72843 5.49946
#
# Poissons Ratio (x) = 0.47430 0.07032
# Poissons Ratio (y) = 0.48857 0.06923
# Poissons Ratio (z) = 0.87889 0.84004
#
# Static dielectric constant tensor:
#      x y z
#    x 1.568120 0.000000 0.000000 
#    y 0.000000 1.556510 0.000000 
#    z 0.000000 0.000000 1.588190 
# 
# From -- ./inp_files/7157.got.cif
#   From: 2010.05.17/outbox.cif.g08.bks.cpg/sg58_4_cif.got.tgz:7157.got - 2010.06.03 14:20:14.
