data_PCOD9440870
_publ_section_title
;
Structure prediction by ZEFSAII (Michael W. Deem and Ramdas Pophale) SiO2 
 PCOD9440870
Probable space group: P N N M
;
_chemical_formula_sum "Si O2"
_cell_formula_units_Z 52
_cell_length_a 8.137231
_cell_length_b 9.766659
_cell_length_c 31.401408
_cell_angle_alpha 90.000000
_cell_angle_beta 90.000000
_cell_angle_gamma 90.000000
_cell_volume 2495.581695
_symmetry_space_group_name_H-M "P N N M"
_symmetry_group_IT_number 58
_symmetry_cell_setting 'orthorhombic'
loop_
_space_group_symop_operation_xyz
x,y,z
-x,-y,z
1/2+x,1/2-y,1/2-z
1/2-x,1/2+y,1/2-z
-x,-y,-z
x,y,-z
1/2-x,1/2+y,1/2+z
1/2+x,1/2-y,1/2+z
loop_
_atom_site_type_symbol
_atom_site_label
_atom_site_fract_x
_atom_site_fract_y
_atom_site_fract_z
Si Si1 0.250807 0.413309 0.289802
Si Si2 0.589867 0.143974 0.454240
Si Si3 0.202635 0.249652 0.867225
Si Si4 0.500000 0.500000 0.597914
Si Si5 0.439215 0.855503 0.877178
Si Si6 0.730328 0.666506 0.452520
Si Si7 0.110895 0.215884 0.779185
O O1 0.181290 0.390345 0.337761
O O2 0.135780 0.320133 0.259655
O O3 0.273476 0.576723 0.279913
O O4 0.428606 0.345273 0.282389
O O5 0.679391 0.158810 0.500000
O O6 0.686963 0.166302 0.410807
O O7 0.436927 0.247547 0.454370
O O8 0.500000 0.000000 0.453311
O O9 0.393567 0.213587 0.862453
O O10 0.148333 0.304445 0.821610
O O11 0.073204 0.122764 0.873844
O O12 0.344460 0.471629 0.567372
O O13 0.349195 0.778487 0.915745
O O14 0.500000 0.000000 0.896008
O O15 0.799280 0.655077 0.500000
#
# Coordination Sequence:
#
# PCOD9440870 Si02
#       7
#     8   8   8   4   8   8   8
#     4  11  24  42  66  92 126 168 205 262 317 377
#     4   9  20  41  64  87 121 166 211 258 309 363
#     4  11  21  37  62  88 120 159 205 249 306 370
#     4  10  17  34  56  86 118 160 194 250 305 352
#     4  12  22  38  60  88 129 165 192 250 320 369
#     4  10  20  34  56  88 121 157 204 249 299 364
#     4  11  23  42  66  94 124 161 217 256 315 376
#
# _framework density 20.836827
#
# number of rings (size 3 to 8) (size 9 to 14) (size 15 to 20)
#    0.000    1.385    3.077    3.923    0.000    1.538 
#    5.538    0.769    0.000    2.769    0.000    0.000 
#    0.000    0.000    0.000    0.000    0.000    0.000 
#
# Total GULP energy -289726.355573 kJ/mol
# GULP energy per Si atom -5571.660684 kJ/mol
# Density = 2.078940 g / cm^3
# Si number density = 20.836827 Si / 1000 Ang^3
#
#
#
# Elastic Constant Matrix: (Units=GPa)
#
#
# Indices 1 2 3 4 5 6 
#
# 1 79.7176 2.3539 25.1488 0.0000 0.0000 0.0000
# 2 2.3539 25.0736 21.5026 0.0000 0.0000 0.0000
# 3 25.1488 21.5026 131.9670 0.0000 0.0000 0.0000
# 4 0.0000 0.0000 0.0000 13.7831 0.0000 0.0000
# 5 0.0000 0.0000 0.0000 0.0000 26.9285 0.0000
# 6 0.0000 0.0000 0.0000 0.0000 0.0000 9.3232
#
#
#
# Elastic Compliance Matrix: (Units=1/GPa)
#
#
# Indices 1 2 3 4 5 6 
#
# 1 0.013372 0.001081 -0.002724 0.000000 0.000000 0.000000
# 2 0.001081 0.046448 -0.007774 0.000000 0.000000 0.000000
# 3 -0.002724 -0.007774 0.009364 0.000000 0.000000 0.000000
# 4 0.000000 0.000000 0.000000 0.072553 0.000000 0.000000
# 5 0.000000 0.000000 0.000000 0.000000 0.037135 0.000000
# 6 0.000000 0.000000 0.000000 0.000000 0.000000 0.107260
#
#
# Mechanical properties :
#
#
# Convention : Reuss Voigt Hill
#
# Bulk Modulus (GPa) = 19.86163 37.19654 28.52908
# Shear Modulus (GPa) = 15.54005 22.52381 19.03193
#
# Velocity S-wave (km/s) = 2.73389 3.29136 3.02550
# Velocity P-wave (km/s) = 4.41794 5.68632 5.09178
#
# Compressibility (1/GPa) = 0.05034833
#
# Stress axis : x y z
#
# Youngs Moduli (GPa) = 74.78400 21.52939 106.79682
#
# Poissons Ratio (x) = -0.02327 0.29096
# Poissons Ratio (y) = -0.08085 0.83027
# Poissons Ratio (z) = 0.20374 0.16737
#
# Static dielectric constant tensor:
#      x y z
#    x 1.786620 0.000000 0.000000 
#    y 0.000000 1.668750 0.000000 
#    z 0.000000 0.000000 1.797770 
# 
# From -- ./inp_files/33297.got.cif
#   From: 2010.05.17/outbox.cif.g08.bks.cpg/sg58_17_cif.got.tgz:33297.got - 2010.06.03 14:20:14.
