data_PCOD9440864
_publ_section_title
;
Structure prediction by ZEFSAII (Michael W. Deem and Ramdas Pophale) SiO2 
 PCOD9440864
Probable space group: P N N M
;
_chemical_formula_sum "Si O2"
_cell_formula_units_Z 56
_cell_length_a 9.401829
_cell_length_b 18.209117
_cell_length_c 19.645679
_cell_angle_alpha 90.000000
_cell_angle_beta 90.000000
_cell_angle_gamma 90.000000
_cell_volume 3363.320683
_symmetry_space_group_name_H-M "P N N M"
_symmetry_group_IT_number 58
_symmetry_cell_setting 'orthorhombic'
loop_
_space_group_symop_operation_xyz
x,y,z
-x,-y,z
1/2+x,1/2-y,1/2-z
1/2-x,1/2+y,1/2-z
-x,-y,-z
x,y,-z
1/2-x,1/2+y,1/2+z
1/2+x,1/2-y,1/2+z
loop_
_atom_site_type_symbol
_atom_site_label
_atom_site_fract_x
_atom_site_fract_y
_atom_site_fract_z
Si Si1 0.411128 0.926415 0.332323
Si Si2 0.837666 0.360910 0.920352
Si Si3 0.780565 0.446348 0.313630
Si Si4 0.161635 0.026749 0.338269
Si Si5 0.096497 0.392212 0.685246
Si Si6 0.550453 0.415357 0.423016
Si Si7 0.720744 0.688705 0.421028
O O1 0.517041 0.886144 0.383198
O O2 0.373622 0.880031 0.265359
O O3 0.500000 0.000000 0.308949
O O4 0.266208 0.960173 0.360818
O O5 0.708730 0.405000 0.884829
O O6 0.817220 0.273988 0.913429
O O7 0.844657 0.379530 0.000000
O O8 0.707332 0.452475 0.239310
O O9 0.827887 0.529704 0.332059
O O10 0.671733 0.411879 0.366813
O O11 0.926862 0.401261 0.316253
O O12 0.000000 0.000000 0.341105
O O13 0.159926 0.334673 0.632770
O O14 0.500000 0.500000 0.421805
O O15 0.601255 0.399363 0.500000
O O16 0.418316 0.361724 0.408717
O O17 0.764159 0.675731 0.500000
#
# Coordination Sequence:
#
# PCOD9440864 Si02
#       7
#     8   8   8   8   8   8   8
#     4   9  17  36  58  83 108 144 187 230 279 348
#     4  10  21  41  59  78 115 154 187 231 289 344
#     4  10  18  32  54  81 112 145 179 235 282 323
#     4  10  20  35  59  89 113 135 187 243 295 338
#     4  10  17  33  54  77 114 142 181 231 275 331
#     4  10  19  32  51  78 107 147 197 225 262 329
#     4  10  22  37  54  79 116 157 191 230 278 331
#
# _framework density 16.650210999999999
#
# number of rings (size 3 to 8) (size 9 to 14) (size 15 to 20)
#    0.000    2.143    5.714    0.429    2.000    3.429 
#    2.571    2.857    0.000    3.429    0.000    0.000 
#    0.000    0.000    0.000    0.000    0.000    0.000 
#
# Total GULP energy -311988.748755 kJ/mol
# GULP energy per Si atom -5571.227656 kJ/mol
# Density = 1.661231 g / cm^3
# Si number density = 16.650211 Si / 1000 Ang^3
#
#
#
# Elastic Constant Matrix: (Units=GPa)
#
#
# Indices 1 2 3 4 5 6 
#
# 1 112.9886 51.4790 57.8373 0.0000 0.0000 0.0000
# 2 51.4790 68.6733 54.7487 0.0000 0.0000 0.0000
# 3 57.8373 54.7487 95.3125 0.0000 0.0000 0.0000
# 4 0.0000 0.0000 0.0000 23.5082 0.0000 0.0000
# 5 0.0000 0.0000 0.0000 0.0000 20.6817 0.0000
# 6 0.0000 0.0000 0.0000 0.0000 0.0000 18.5251
#
#
#
# Elastic Compliance Matrix: (Units=1/GPa)
#
#
# Indices 1 2 3 4 5 6 
#
# 1 0.014506 -0.007114 -0.004716 0.000000 0.000000 0.000000
# 2 -0.007114 0.030353 -0.013118 0.000000 0.000000 0.000000
# 3 -0.004716 -0.013118 0.020889 0.000000 0.000000 0.000000
# 4 0.000000 0.000000 0.000000 0.042538 0.000000 0.000000
# 5 0.000000 0.000000 0.000000 0.000000 0.048352 0.000000
# 6 0.000000 0.000000 0.000000 0.000000 0.000000 0.053981
#
#
# Mechanical properties :
#
#
# Convention : Reuss Voigt Hill
#
# Bulk Modulus (GPa) = 63.08735 67.23382 65.16058
# Shear Modulus (GPa) = 18.81128 20.07029 19.44078
#
# Velocity S-wave (km/s) = 3.36488 3.47566 3.42072
# Velocity P-wave (km/s) = 7.28483 7.52162 7.40417
#
# Compressibility (1/GPa) = 0.01585104
#
# Stress axis : x y z
#
# Youngs Moduli (GPa) = 68.93828 32.94599 47.87299
#
# Poissons Ratio (x) = 0.23438 0.22576
# Poissons Ratio (y) = 0.49044 0.62800
# Poissons Ratio (z) = 0.32510 0.43218
#
# Static dielectric constant tensor:
#      x y z
#    x 1.560140 0.000000 0.000000 
#    y 0.000000 1.553140 0.000000 
#    z 0.000000 0.000000 1.581870 
# 
# From -- ./inp_files/29072.got.cif
#   From: 2010.05.17/outbox.cif.g08.bks.cpg/sg58_15_cif.got.tgz:29072.got - 2010.06.03 14:20:14.
