data_PCOD9440895
_publ_section_title
;
Structure prediction by ZEFSAII (Michael W. Deem and Ramdas Pophale) SiO2 
 PCOD9440895
Probable space group: P N N M
;
_chemical_formula_sum "Si O2"
_cell_formula_units_Z 64
_cell_length_a 18.996493
_cell_length_b 27.076051
_cell_length_c 8.796440
_cell_angle_alpha 90.000000
_cell_angle_beta 90.000000
_cell_angle_gamma 90.000000
_cell_volume 4524.449031
_symmetry_space_group_name_H-M "P N N M"
_symmetry_group_IT_number 58
_symmetry_cell_setting 'orthorhombic'
loop_
_space_group_symop_operation_xyz
x,y,z
-x,-y,z
1/2+x,1/2-y,1/2-z
1/2-x,1/2+y,1/2-z
-x,-y,-z
x,y,-z
1/2-x,1/2+y,1/2+z
1/2+x,1/2-y,1/2+z
loop_
_atom_site_type_symbol
_atom_site_label
_atom_site_fract_x
_atom_site_fract_y
_atom_site_fract_z
Si Si1 0.579912 0.058731 0.817267
Si Si2 0.590987 0.759068 0.182144
Si Si3 0.583983 0.944313 0.817363
Si Si4 0.072168 0.256672 0.684758
Si Si5 0.197018 0.194853 0.325224
Si Si6 0.343494 0.848904 0.680749
Si Si7 0.714657 0.702267 0.674979
Si Si8 0.332828 0.145283 0.316742
O O1 0.497578 0.067197 0.778283
O O2 0.628514 0.098410 0.736173
O O3 0.596676 0.001765 0.779429
O O4 0.586027 0.064217 0.000000
O O5 0.509498 0.751394 0.223417
O O6 0.642037 0.716127 0.243564
O O7 0.618906 0.810527 0.251817
O O8 0.596577 0.761888 0.000000
O O9 0.635436 0.906256 0.736699
O O10 0.590245 0.939189 0.000000
O O11 0.078277 0.259101 0.500000
O O12 0.121978 0.211552 0.740431
O O13 0.104595 0.307093 0.750340
O O14 0.184123 0.180051 0.500000
O O15 0.241217 0.246180 0.325184
O O16 0.252791 0.155862 0.259868
O O17 0.344276 0.845392 0.500000
O O18 0.265643 0.836270 0.742572
O O19 0.703230 0.688355 0.500000
O O20 0.332670 0.148850 0.500000
#
# Coordination Sequence:
#
# PCOD9440895 Si02
#       8
#     8   8   8   8   8   8   8   8
#     4   9  18  32  45  57  78 110 142 172 212 254
#     4  10  18  27  42  63  84 108 142 177 204 239
#     4   9  18  31  45  59  78 107 143 178 209 247
#     4   9  17  29  43  58  82 115 143 168 203 246
#     4   7  13  26  40  54  74 105 138 161 191 239
#     4  11  20  28  42  63  84 108 142 178 207 243
#     4   9  17  30  44  57  80 111 138 168 209 251
#     4  10  18  27  41  59  82 112 141 170 208 249
#
# _framework density 14.145367999999999
#
# number of rings (size 3 to 8) (size 9 to 14) (size 15 to 20)
#    0.000    2.750    0.000    5.250    0.000    5.000 
#    0.000    1.875    0.000    0.000    0.000    0.000 
#    0.000    1.000    0.000   11.500    0.000    2.875 
#
# Total GULP energy -356423.691759 kJ/mol
# GULP energy per Si atom -5569.120184 kJ/mol
# Density = 1.411317 g / cm^3
# Si number density = 14.145368 Si / 1000 Ang^3
#
#
#
# Elastic Constant Matrix: (Units=GPa)
#
#
# Indices 1 2 3 4 5 6 
#
# 1 115.3008 55.7972 39.7112 0.0000 0.0000 0.0000
# 2 55.7972 73.9136 31.4285 0.0000 0.0000 0.0000
# 3 39.7112 31.4285 43.7700 0.0000 0.0000 0.0000
# 4 0.0000 0.0000 0.0000 18.3812 0.0000 0.0000
# 5 0.0000 0.0000 0.0000 0.0000 17.1726 0.0000
# 6 0.0000 0.0000 0.0000 0.0000 0.0000 27.3943
#
#
#
# Elastic Compliance Matrix: (Units=1/GPa)
#
#
# Indices 1 2 3 4 5 6 
#
# 1 0.015438 -0.008203 -0.008116 0.000000 0.000000 0.000000
# 2 -0.008203 0.023834 -0.009671 0.000000 0.000000 0.000000
# 3 -0.008116 -0.009671 0.037155 0.000000 0.000000 0.000000
# 4 0.000000 0.000000 0.000000 0.054403 0.000000 0.000000
# 5 0.000000 0.000000 0.000000 0.000000 0.058232 0.000000
# 6 0.000000 0.000000 0.000000 0.000000 0.000000 0.036504
#
#
# Mechanical properties :
#
#
# Convention : Reuss Voigt Hill
#
# Bulk Modulus (GPa) = 40.90755 54.09535 47.50145
# Shear Modulus (GPa) = 17.50107 19.65945 18.58026
#
# Velocity S-wave (km/s) = 3.52124 3.73207 3.62819
# Velocity P-wave (km/s) = 6.74644 7.54298 7.15580
#
# Compressibility (1/GPa) = 0.02444536
#
# Stress axis : x y z
#
# Youngs Moduli (GPa) = 64.77520 41.95671 26.91432
#
# Poissons Ratio (x) = 0.34417 0.21845
# Poissons Ratio (y) = 0.53135 0.26030
# Poissons Ratio (z) = 0.52574 0.40578
#
# Static dielectric constant tensor:
#      x y z
#    x 1.481140 0.000000 0.000000 
#    y 0.000000 1.448910 0.000000 
#    z 0.000000 0.000000 1.479070 
# 
# From -- ./inp_files/8540.got.cif
#   From: 2010.05.17/outbox.cif.g08.bks.cpg/sg58_5_cif.got.tgz:8540.got - 2010.06.03 14:20:14.
