data_PCOD9440714
_publ_section_title
;
Structure prediction by ZEFSAII (Michael W. Deem and Ramdas Pophale) SiO2 
 PCOD9440714
Probable space group: P N N M
;
_chemical_formula_sum "Si O2"
_cell_formula_units_Z 48
_cell_length_a 8.044678
_cell_length_b 14.175833
_cell_length_c 19.749409
_cell_angle_alpha 90.000000
_cell_angle_beta 90.000000
_cell_angle_gamma 90.000000
_cell_volume 2252.222837
_symmetry_space_group_name_H-M "P N N M"
_symmetry_group_IT_number 58
_symmetry_cell_setting 'orthorhombic'
loop_
_space_group_symop_operation_xyz
x,y,z
-x,-y,z
1/2+x,1/2-y,1/2-z
1/2-x,1/2+y,1/2-z
-x,-y,-z
x,y,-z
1/2-x,1/2+y,1/2+z
1/2+x,1/2-y,1/2+z
loop_
_atom_site_type_symbol
_atom_site_label
_atom_site_fract_x
_atom_site_fract_y
_atom_site_fract_z
Si Si1 0.722171 0.349844 0.000000
Si Si2 0.770539 0.586716 0.383183
Si Si3 0.988966 0.679579 0.500000
Si Si4 0.690038 0.447042 0.500000
Si Si5 0.180492 0.049402 0.777320
Si Si6 0.953979 0.774280 0.000000
Si Si7 0.961949 0.775447 0.853212
Si Si8 0.865385 0.418490 0.141203
O O1 0.550254 0.291122 0.000000
O O2 0.765457 0.401652 0.070551
O O3 0.864217 0.269633 0.000000
O O4 0.906844 0.637512 0.430614
O O5 0.708370 0.504278 0.432509
O O6 0.803161 0.523773 0.316455
O O7 0.628597 0.662328 0.365788
O O8 0.170008 0.634385 0.500000
O O9 0.524828 0.386564 0.500000
O O10 0.238661 0.057182 0.700694
O O11 0.155950 0.154593 0.810108
O O12 0.000000 0.000000 0.782229
O O13 0.881361 0.751106 0.073436
O O14 0.033255 0.674115 0.831763
O O15 0.000000 0.500000 0.129617
#
# Coordination Sequence:
#
# PCOD9440714 Si02
#       8
#     4   8   4   4   8   4   8   8
#     4  10  22  45  68  82 119 171 228 261 301 369
#     4  10  18  35  59  90 132 158 194 236 322 394
#     4  11  20  36  58  96 130 162 196 260 327 368
#     4  11  21  28  57 100 132 152 198 255 323 387
#     4  10  23  40  62  96 128 163 200 256 326 384
#     4  10  16  35  60  92 119 157 207 241 304 376
#     4  10  20  37  65  89 120 170 208 250 308 385
#     4  11  24  44  66  88 117 171 228 264 304 362
#
# _framework density 21.312279
#
# number of rings (size 3 to 8) (size 9 to 14) (size 15 to 20)
#    0.000    1.667    5.000    1.750    0.000    4.667 
#    3.000    3.750    0.000    0.000    0.000    0.000 
#    0.000    0.000    0.000    0.000    0.000    0.000 
#
# Total GULP energy -267369.293090 kJ/mol
# GULP energy per Si atom -5570.193606 kJ/mol
# Density = 2.126377 g / cm^3
# Si number density = 21.312279 Si / 1000 Ang^3
#
#
#
# Elastic Constant Matrix: (Units=GPa)
#
#
# Indices 1 2 3 4 5 6 
#
# 1 53.8581 24.9571 27.0960 0.0000 0.0000 0.0000
# 2 24.9571 95.6840 27.9849 0.0000 0.0000 0.0000
# 3 27.0960 27.9849 109.2229 0.0000 0.0000 0.0000
# 4 0.0000 0.0000 0.0000 2.9036 0.0000 0.0000
# 5 0.0000 0.0000 0.0000 0.0000 14.9980 0.0000
# 6 0.0000 0.0000 0.0000 0.0000 0.0000 24.9910
#
#
#
# Elastic Compliance Matrix: (Units=1/GPa)
#
#
# Indices 1 2 3 4 5 6 
#
# 1 0.023005 -0.004682 -0.004507 0.000000 0.000000 0.000000
# 2 -0.004682 0.012251 -0.001977 0.000000 0.000000 0.000000
# 3 -0.004507 -0.001977 0.010780 0.000000 0.000000 0.000000
# 4 0.000000 0.000000 0.000000 0.344405 0.000000 0.000000
# 5 0.000000 0.000000 0.000000 0.000000 0.066676 0.000000
# 6 0.000000 0.000000 0.000000 0.000000 0.000000 0.040014
#
#
# Mechanical properties :
#
#
# Convention : Reuss Voigt Hill
#
# Bulk Modulus (GPa) = 42.19014 46.53788 44.36401
# Shear Modulus (GPa) = 9.48111 20.49365 14.98738
#
# Velocity S-wave (km/s) = 2.11147 3.10431 2.65472
# Velocity P-wave (km/s) = 5.07775 5.89344 5.50074
#
# Compressibility (1/GPa) = 0.02370222
#
# Stress axis : x y z
#
# Youngs Moduli (GPa) = 43.46973 81.62892 92.76097
#
# Poissons Ratio (x) = 0.38218 0.41811
# Poissons Ratio (y) = 0.20352 0.18342
# Poissons Ratio (z) = 0.19593 0.16141
#
# Static dielectric constant tensor:
#      x y z
#    x 1.902170 0.000000 0.000000 
#    y 0.000000 1.832770 0.000000 
#    z 0.000000 0.000000 1.827270 
# 
# From -- ./inp_files/25360.got.cif
#   From: 2010.05.17/outbox.cif.g08.bks.cpg/sg58_13_cif.got.tgz:25360.got - 2010.06.03 14:20:14.
