data_PCOD9440364
_publ_section_title
;
Structure prediction by ZEFSAII (Michael W. Deem and Ramdas Pophale) SiO2 
 PCOD9440364
Probable space group: P B C M
;
_chemical_formula_sum "Si O2"
_cell_formula_units_Z 20
_cell_length_a 4.778346
_cell_length_b 10.783710
_cell_length_c 14.390905
_cell_angle_alpha 90.000000
_cell_angle_beta 90.000000
_cell_angle_gamma 90.000000
_cell_volume 741.538835
_symmetry_space_group_name_H-M "P B C M"
_symmetry_group_IT_number 57
_symmetry_cell_setting 'orthorhombic'
loop_
_space_group_symop_operation_xyz
x,y,z
-x,-y,1/2+z
x,1/2-y,-z
-x,1/2+y,1/2-z
-x,-y,-z
x,y,1/2-z
-x,1/2+y,z
x,1/2-y,1/2+z
loop_
_atom_site_type_symbol
_atom_site_label
_atom_site_fract_x
_atom_site_fract_y
_atom_site_fract_z
Si Si1 0.780773 0.144675 0.250000
Si Si2 0.926443 0.467695 0.105583
Si Si3 0.583133 0.700484 0.605186
O O1 0.430365 0.702452 0.330008
O O2 0.978315 0.078049 0.329924
O O3 0.112094 0.347637 0.134816
O O4 0.608454 0.423473 0.111952
O O5 0.000000 0.500000 0.000000
O O6 0.592467 0.750000 0.500000
#
# Coordination Sequence:
#
# PCOD9440364 Si02
#       3
#     4   8   8
#     4  12  28  48  82 108 160 208 260 332 392 474
#     4  12  27  50  76 116 155 205 262 326 398 467
#     4  12  27  49  77 113 153 204 264 323 393 476
#
# _framework density 26.970939000000001
#
# number of rings (size 3 to 8) (size 9 to 14) (size 15 to 20)
#    0.000    0.000    4.000    4.800    0.000    3.200 
#    0.000    0.000    0.000    0.000    0.000    0.000 
#    0.000    0.000    0.000    0.000    0.000    0.000 
#
# Total GULP energy -111445.553004 kJ/mol
# GULP energy per Si atom -5572.277650 kJ/mol
# Density = 2.690955 g / cm^3
# Si number density = 26.970939 Si / 1000 Ang^3
#
#
#
# Elastic Constant Matrix: (Units=GPa)
#
#
# Indices 1 2 3 4 5 6 
#
# 1 118.0828 27.4653 -19.5137 0.0000 0.0000 0.0000
# 2 27.4653 106.2484 -11.2213 0.0000 0.0000 0.0000
# 3 -19.5137 -11.2213 140.2993 0.0000 0.0000 0.0000
# 4 0.0000 0.0000 0.0000 5.3909 0.0000 0.0000
# 5 0.0000 0.0000 0.0000 0.0000 58.3259 0.0000
# 6 0.0000 0.0000 0.0000 0.0000 0.0000 83.8793
#
#
#
# Elastic Compliance Matrix: (Units=1/GPa)
#
#
# Indices 1 2 3 4 5 6 
#
# 1 0.009174 -0.002256 0.001096 0.000000 0.000000 0.000000
# 2 -0.002256 0.010047 0.000490 0.000000 0.000000 0.000000
# 3 0.001096 0.000490 0.007319 0.000000 0.000000 0.000000
# 4 0.000000 0.000000 0.000000 0.185499 0.000000 0.000000
# 5 0.000000 0.000000 0.000000 0.000000 0.017145 0.000000
# 6 0.000000 0.000000 0.000000 0.000000 0.000000 0.011922
#
#
# Mechanical properties :
#
#
# Convention : Reuss Voigt Hill
#
# Bulk Modulus (GPa) = 39.68350 39.78790 39.73570
# Shear Modulus (GPa) = 19.93245 54.04590 36.98918
#
# Velocity S-wave (km/s) = 2.72147 4.48130 3.70732
# Velocity P-wave (km/s) = 4.96191 6.44672 5.75243
#
# Compressibility (1/GPa) = 0.02519939
#
# Stress axis : x y z
#
# Youngs Moduli (GPa) = 108.99908 99.53439 136.62739
#
# Poissons Ratio (x) = 0.22454 -0.14969
# Poissons Ratio (y) = 0.24589 -0.06692
# Poissons Ratio (z) = -0.11942 -0.04875
#
# Static dielectric constant tensor:
#      x y z
#    x 2.020920 0.000000 0.000000 
#    y 0.000000 2.226890 0.000000 
#    z 0.000000 0.000000 1.983080 
# 
# From -- ./inp_files/10407.got.cif
#   From: 2010.05.17/outbox.cif.g08.bks.cpg/sg57_6_cif.got.tgz:10407.got - 2010.06.03 13:58:18.
