data_PCOD9440869
_publ_section_title
;
Structure prediction by ZEFSAII (Michael W. Deem and Ramdas Pophale) SiO2 
 PCOD9440869
Probable space group: P N N M
;
_chemical_formula_sum "Si O2"
_cell_formula_units_Z 48
_cell_length_a 19.717935
_cell_length_b 9.252107
_cell_length_c 14.892603
_cell_angle_alpha 90.000000
_cell_angle_beta 90.000000
_cell_angle_gamma 90.000000
_cell_volume 2716.893969
_symmetry_space_group_name_H-M "P N N M"
_symmetry_group_IT_number 58
_symmetry_cell_setting 'orthorhombic'
loop_
_space_group_symop_operation_xyz
x,y,z
-x,-y,z
1/2+x,1/2-y,1/2-z
1/2-x,1/2+y,1/2-z
-x,-y,-z
x,y,-z
1/2-x,1/2+y,1/2+z
1/2+x,1/2-y,1/2+z
loop_
_atom_site_type_symbol
_atom_site_label
_atom_site_fract_x
_atom_site_fract_y
_atom_site_fract_z
Si Si1 0.590130 0.363254 0.814502
Si Si2 0.700639 0.136923 0.795019
Si Si3 0.834637 0.914144 0.500000
Si Si4 0.432495 0.307407 0.185936
Si Si5 0.170470 0.655384 0.195689
Si Si6 0.281144 0.965473 0.000000
Si Si7 0.146047 0.766866 0.500000
Si Si8 0.187870 0.730731 0.000000
O O1 0.641121 0.249686 0.769935
O O2 0.620010 0.379609 0.914472
O O3 0.588361 0.529942 0.782546
O O4 0.513555 0.306080 0.815915
O O5 0.770951 0.224614 0.786439
O O6 0.698042 0.997474 0.731302
O O7 0.692460 0.086906 0.900322
O O8 0.814852 0.081639 0.500000
O O9 0.765399 0.827269 0.500000
O O10 0.396925 0.194570 0.250815
O O11 0.401553 0.273721 0.087842
O O12 0.156300 0.670121 0.090271
O O13 0.203547 0.903654 0.000000
O O14 0.302736 0.133016 0.000000
#
# Coordination Sequence:
#
# PCOD9440869 Si02
#       8
#     8   8   4   8   8   4   4   4
#     4  10  19  36  55  82 114 150 180 232 286 347
#     4  11  21  35  57  78 113 143 189 229 283 334
#     4  10  17  34  55  80 116 153 176 214 293 357
#     4  10  21  34  57  83 117 148 187 228 285 341
#     4  11  22  36  55  83 108 153 190 233 275 332
#     4  10  18  34  50  83 110 143 176 227 276 330
#     4  10  19  31  50  88 116 148 180 221 277 349
#     4  10  22  37  55  74 117 156 183 230 283 324
#
# _framework density 17.667233
#
# number of rings (size 3 to 8) (size 9 to 14) (size 15 to 20)
#    0.000    1.667    5.000    1.500    2.333    2.667 
#    0.000    0.833    0.000    4.000    0.000    0.000 
#    0.000    0.000    0.000    0.000    0.000    0.000 
#
# Total GULP energy -267383.957636 kJ/mol
# GULP energy per Si atom -5570.499117 kJ/mol
# Density = 1.762702 g / cm^3
# Si number density = 17.667233 Si / 1000 Ang^3
#
#
#
# Elastic Constant Matrix: (Units=GPa)
#
#
# Indices 1 2 3 4 5 6 
#
# 1 37.7305 14.6023 2.5022 0.0000 0.0000 0.0000
# 2 14.6023 78.3120 15.6775 0.0000 0.0000 0.0000
# 3 2.5022 15.6775 69.8569 0.0000 0.0000 0.0000
# 4 0.0000 0.0000 0.0000 24.4226 0.0000 0.0000
# 5 0.0000 0.0000 0.0000 0.0000 -8.9478 0.0000
# 6 0.0000 0.0000 0.0000 0.0000 0.0000 29.9468
#
#
#
# Elastic Compliance Matrix: (Units=1/GPa)
#
#
# Indices 1 2 3 4 5 6 
#
# 1 0.028567 -0.005363 0.000180 0.000000 0.000000 0.000000
# 2 -0.005363 0.014377 -0.003034 0.000000 0.000000 0.000000
# 3 0.000180 -0.003034 0.014990 0.000000 0.000000 0.000000
# 4 0.000000 0.000000 0.000000 0.040946 0.000000 0.000000
# 5 0.000000 0.000000 0.000000 0.000000 -0.111760 0.000000
# 6 0.000000 0.000000 0.000000 0.000000 0.000000 0.033393
#
#
# Mechanical properties :
#
#
# Convention : Reuss Voigt Hill
#
# Bulk Modulus (GPa) = 24.09652 27.94039 26.01845
# Shear Modulus (GPa) = 98.46466 19.29214 58.87840
#
# Velocity S-wave (km/s) = 7.47355 3.30809 5.77916
# Velocity P-wave (km/s) = 9.38832 5.51728 7.70003
#
# Compressibility (1/GPa) = 0.04149977
#
# Stress axis : x y z
#
# Youngs Moduli (GPa) = 35.00503 69.55608 66.71332
#
# Poissons Ratio (x) = 0.37302 -0.01203
# Poissons Ratio (y) = 0.18773 0.20244
# Poissons Ratio (z) = -0.00631 0.21106
#
# Static dielectric constant tensor:
#      x y z
#    x 1.567820 0.000000 0.000000 
#    y 0.000000 1.658900 0.000000 
#    z 0.000000 0.000000 1.622820 
# 
# From -- ./inp_files/19923.got.cif
#   From: 2010.05.17/outbox.cif.g08.bks.cpg/sg58_10_cif.got.tgz:19923.got - 2010.06.03 14:20:14.
