data_PCOD9440670
_publ_section_title
;
Structure prediction by ZEFSAII (Michael W. Deem and Ramdas Pophale) SiO2 
 PCOD9440670
Probable space group: P N N M
;
_chemical_formula_sum "Si O2"
_cell_formula_units_Z 32
_cell_length_a 5.351114
_cell_length_b 7.383673
_cell_length_c 36.881396
_cell_angle_alpha 90.000000
_cell_angle_beta 90.000000
_cell_angle_gamma 90.000000
_cell_volume 1457.216263
_symmetry_space_group_name_H-M "P N N M"
_symmetry_group_IT_number 58
_symmetry_cell_setting 'orthorhombic'
loop_
_space_group_symop_operation_xyz
x,y,z
-x,-y,z
1/2+x,1/2-y,1/2-z
1/2-x,1/2+y,1/2-z
-x,-y,-z
x,y,-z
1/2-x,1/2+y,1/2+z
1/2+x,1/2-y,1/2+z
loop_
_atom_site_type_symbol
_atom_site_label
_atom_site_fract_x
_atom_site_fract_y
_atom_site_fract_z
Si Si1 0.383492 0.699858 0.269146
Si Si2 0.239194 0.805835 0.957138
Si Si3 0.249605 0.622574 0.345854
Si Si4 0.738373 0.781656 0.926434
O O1 0.500000 0.500000 0.270400
O O2 0.625797 0.805092 0.253803
O O3 0.300190 0.742916 0.310247
O O4 0.495109 0.710780 0.946453
O O5 0.997531 0.709089 0.941373
O O6 0.250884 0.003798 0.937857
O O7 0.219913 0.833017 0.000000
O O8 0.500000 0.500000 0.350851
O O9 0.213986 0.728162 0.383337
O O10 0.000000 0.500000 0.339866
#
# Coordination Sequence:
#
# PCOD9440670 Si02
#       4
#     8   8   8   8
#     4  11  23  39  59  83 109 141 182 232 283 336
#     4  10  16  22  33  53  86 122 170 206 240 294
#     4  11  18  31  48  68  94 129 172 225 251 314
#     4  10  15  24  35  54  81 118 168 207 236 290
#
# _framework density 21.959675000000001
#
# number of rings (size 3 to 8) (size 9 to 14) (size 15 to 20)
#    0.000    1.500    5.000    7.500    0.000    0.000 
#    0.000    0.000    0.000    0.000    0.000    0.000 
#    0.000    0.000    0.000    0.000    0.000  145.000 
#
# Total GULP energy -178528.303482 kJ/mol
# GULP energy per Si atom -5579.009484 kJ/mol
# Density = 2.190969 g / cm^3
# Si number density = 21.959675 Si / 1000 Ang^3
#
#
#
# Elastic Constant Matrix: (Units=GPa)
#
#
# Indices 1 2 3 4 5 6 
#
# 1 223.1055 4.5508 62.8459 0.0000 0.0000 0.0000
# 2 4.5508 40.8948 6.9209 0.0000 0.0000 0.0000
# 3 62.8459 6.9209 206.4452 0.0000 0.0000 0.0000
# 4 0.0000 0.0000 0.0000 -1.0734 0.0000 0.0000
# 5 0.0000 0.0000 0.0000 0.0000 44.3808 0.0000
# 6 0.0000 0.0000 0.0000 0.0000 0.0000 4.1833
#
#
#
# Elastic Compliance Matrix: (Units=1/GPa)
#
#
# Indices 1 2 3 4 5 6 
#
# 1 0.004906 -0.000295 -0.001484 0.000000 0.000000 0.000000
# 2 -0.000295 0.024610 -0.000735 0.000000 0.000000 0.000000
# 3 -0.001484 -0.000735 0.005320 0.000000 0.000000 0.000000
# 4 0.000000 0.000000 0.000000 -0.931586 0.000000 0.000000
# 5 0.000000 0.000000 0.000000 0.000000 0.022532 0.000000
# 6 0.000000 0.000000 0.000000 0.000000 0.000000 0.239044
#
#
# Mechanical properties :
#
#
# Convention : Reuss Voigt Hill
#
# Bulk Modulus (GPa) = 33.54688 68.78673 51.16681
# Shear Modulus (GPa) = -8.06179 35.90666 13.92243
#
# Velocity S-wave (km/s) = -1.91811 4.04805 2.52067
# Velocity P-wave (km/s) = 3.22556 7.29664 5.64115
#
# Compressibility (1/GPa) = 0.02980903
#
# Stress axis : x y z
#
# Youngs Moduli (GPa) = 203.82706 40.63345 187.96301
#
# Poissons Ratio (x) = 0.01198 0.27887
# Poissons Ratio (y) = 0.06010 0.13820
# Poissons Ratio (z) = 0.30240 0.02988
#
# Static dielectric constant tensor:
#      x y z
#    x 2.055130 0.000000 0.000000 
#    y 0.000000 1.776260 0.000000 
#    z 0.000000 0.000000 1.783500 
# 
# From -- ./inp_files/34003.got.cif
#   From: 2010.05.17/outbox.cif.g08.bks.cpg/sg58_18_cif.got.tgz:34003.got - 2010.06.03 14:20:14.
