data_PCOD9440149
_publ_section_title
;
Structure prediction by ZEFSAII (Michael W. Deem and Ramdas Pophale) SiO2 
 PCOD9440149
Probable space group: P B C M
;
_chemical_formula_sum "Si O2"
_cell_formula_units_Z 32
_cell_length_a 9.082826
_cell_length_b 13.239661
_cell_length_c 11.553051
_cell_angle_alpha 90.000000
_cell_angle_beta 90.000000
_cell_angle_gamma 90.000000
_cell_volume 1389.295248
_symmetry_space_group_name_H-M "P B C M"
_symmetry_group_IT_number 57
_symmetry_cell_setting 'orthorhombic'
loop_
_space_group_symop_operation_xyz
x,y,z
-x,-y,1/2+z
x,1/2-y,-z
-x,1/2+y,1/2-z
-x,-y,-z
x,y,1/2-z
-x,1/2+y,z
x,1/2-y,1/2+z
loop_
_atom_site_type_symbol
_atom_site_label
_atom_site_fract_x
_atom_site_fract_y
_atom_site_fract_z
Si Si1 0.840426 0.506945 0.440881
Si Si2 0.357575 0.398735 0.377057
Si Si3 0.315373 0.688296 0.619436
Si Si4 0.105002 0.229377 0.374548
O O1 0.709752 0.523716 0.532895
O O2 0.799490 0.404491 0.377791
O O3 0.846898 0.612862 0.374113
O O4 0.000000 0.500000 0.500000
O O5 0.350925 0.445647 0.250000
O O6 0.520842 0.358618 0.395237
O O7 0.245974 0.303285 0.378683
O O8 0.290920 0.750000 0.500000
O O9 0.314955 0.737029 0.750000
O O10 0.030798 0.250000 0.500000
O O11 0.029688 0.248993 0.250000
#
# Coordination Sequence:
#
# PCOD9440149 Si02
#       4
#     8   8   8   8
#     4  11  23  38  60  94 130 168 209 259 321 389
#     4   9  20  39  65  92 123 164 213 264 320 381
#     4  11  24  43  65  93 127 169 220 273 323 379
#     4   9  18  36  60  87 117 155 200 248 301 365
#
# _framework density 23.033262000000001
#
# number of rings (size 3 to 8) (size 9 to 14) (size 15 to 20)
#    0.000    2.000    0.000    3.750    0.000    6.000 
#    0.000   11.250    0.000    0.000    0.000    0.000 
#    0.000    0.000    0.000    0.000    0.000    0.000 
#
# Total GULP energy -178521.871157 kJ/mol
# GULP energy per Si atom -5578.808474 kJ/mol
# Density = 2.298084 g / cm^3
# Si number density = 23.033262 Si / 1000 Ang^3
#
#
#
# Elastic Constant Matrix: (Units=GPa)
#
#
# Indices 1 2 3 4 5 6 
#
# 1 109.1996 -1.4209 36.0345 0.0000 0.0000 0.0000
# 2 -1.4209 75.8764 61.8158 0.0000 0.0000 0.0000
# 3 36.0345 61.8158 242.1570 0.0000 0.0000 0.0000
# 4 0.0000 0.0000 0.0000 5.1501 0.0000 0.0000
# 5 0.0000 0.0000 0.0000 0.0000 -9.9163 0.0000
# 6 0.0000 0.0000 0.0000 0.0000 0.0000 20.9744
#
#
#
# Elastic Compliance Matrix: (Units=1/GPa)
#
#
# Indices 1 2 3 4 5 6 
#
# 1 0.009808 0.001733 -0.001902 0.000000 0.000000 0.000000
# 2 0.001733 0.016946 -0.004584 0.000000 0.000000 0.000000
# 3 -0.001902 -0.004584 0.005583 0.000000 0.000000 0.000000
# 4 0.000000 0.000000 0.000000 0.194170 0.000000 0.000000
# 5 0.000000 0.000000 0.000000 0.000000 -0.100844 0.000000
# 6 0.000000 0.000000 0.000000 0.000000 0.000000 0.047677
#
#
# Mechanical properties :
#
#
# Convention : Reuss Voigt Hill
#
# Bulk Modulus (GPa) = 43.79930 68.89909 56.34920
# Shear Modulus (GPa) = 26.25297 25.29522 25.77410
#
# Velocity S-wave (km/s) = 3.37973 3.31751 3.34877
# Velocity P-wave (km/s) = 5.85552 6.68224 6.28249
#
# Compressibility (1/GPa) = 0.02283141
#
# Stress axis : x y z
#
# Youngs Moduli (GPa) = 101.96094 59.01056 179.12601
#
# Poissons Ratio (x) = -0.10227 0.34067
# Poissons Ratio (y) = -0.17671 0.82107
# Poissons Ratio (z) = 0.19391 0.27049
#
# Static dielectric constant tensor:
#      x y z
#    x 1.814450 0.000000 0.000000 
#    y 0.000000 1.830020 0.000000 
#    z 0.000000 0.000000 2.126840 
# 
# From -- ./inp_files/11395.got.cif
#   From: 2010.05.17/outbox.cif.g08.bks.cpg/sg57_6_cif.got.tgz:11395.got - 2010.06.03 13:58:18.
