data_PCOD9440602
_publ_section_title
;
Structure prediction by ZEFSAII (Michael W. Deem and Ramdas Pophale) SiO2 
 PCOD9440602
Probable space group: P B C M
;
_chemical_formula_sum "Si O2"
_cell_formula_units_Z 48
_cell_length_a 9.000000
_cell_length_b 30.000000
_cell_length_c 9.000000
_cell_angle_alpha 90.000000
_cell_angle_beta 90.000000
_cell_angle_gamma 90.000000
_cell_volume 2430.000000
_symmetry_space_group_name_H-M "P B C M"
_symmetry_group_IT_number 57
_symmetry_cell_setting 'orthorhombic'
loop_
_space_group_symop_operation_xyz
x,y,z
-x,-y,1/2+z
x,1/2-y,-z
-x,1/2+y,1/2-z
-x,-y,-z
x,y,1/2-z
-x,1/2+y,z
x,1/2-y,1/2+z
loop_
_atom_site_type_symbol
_atom_site_label
_atom_site_fract_x
_atom_site_fract_y
_atom_site_fract_z
Si Si1 0.754058 0.796455 0.427421
Si Si2 0.432219 0.705341 0.073974
Si Si3 0.878602 0.973611 0.912396
Si Si4 0.262081 0.885020 0.576246
Si Si5 0.915921 0.621595 0.427736
Si Si6 0.405292 0.964871 0.411545
O O1 0.806794 0.750000 0.500000
O O2 0.749667 0.792921 0.250000
O O3 0.588748 0.803788 0.493426
O O4 0.853932 0.837151 0.481756
O O5 0.458739 0.711672 0.250000
O O6 0.321765 0.664550 0.053717
O O7 0.370711 0.750000 0.000000
O O8 0.943253 0.963608 0.750000
O O9 0.833744 0.924740 0.968564
O O10 0.746489 0.007770 0.898957
O O11 0.000000 0.000000 0.000000
O O12 0.274633 0.895992 0.750000
O O13 0.365535 0.919093 0.489666
O O14 0.088811 0.887262 0.536597
O O15 0.899786 0.630915 0.250000
O O16 0.471246 0.956480 0.250000
O O17 0.500000 0.000000 0.500000
#
# Coordination Sequence:
#
# PCOD9440602 Si02
#       6
#     8   8   8   8   8   8
#     4  11  23  40  62  89 118 153 195 240 291 347
#     4  10  21  39  62  87 116 151 192 237 292 350
#     4  10  21  38  61  85 117 156 196 239 290 344
#     4  10  22  40  62  87 118 156 194 240 297 348
#     4  10  21  39  61  87 119 156 193 240 295 349
#     4  11  24  39  58  88 120 157 200 244 292 347
#
# _framework density 19.753086
#
# number of rings (size 3 to 8) (size 9 to 14) (size 15 to 20)
#    0.000    1.667    1.667    3.500    2.333    4.000 
#    0.000    1.667    0.000    0.000    0.000    0.000 
#    0.000    0.000    0.000    0.000    0.000    0.000 
#
# Total GULP energy -267689.776604 kJ/mol
# GULP energy per Si atom -5576.870346 kJ/mol
# Density = 1.970813 g / cm^3
# Si number density = 19.753086 Si / 1000 Ang^3
#
#
#
# Elastic Constant Matrix: (Units=GPa)
#
#
# Indices 1 2 3 4 5 6 
#
# 1 0.5911 -9.4250 19.8481 0.0000 0.0000 0.0000
# 2 -9.4250 65.3092 47.9690 0.0000 0.0000 0.0000
# 3 19.8481 47.9690 77.0136 0.0000 0.0000 0.0000
# 4 0.0000 0.0000 0.0000 35.8954 0.0000 0.0000
# 5 0.0000 0.0000 0.0000 0.0000 13.2882 0.0000
# 6 0.0000 0.0000 0.0000 0.0000 0.0000 22.4712
#
#
#
# Elastic Compliance Matrix: (Units=1/GPa)
#
#
# Indices 1 2 3 4 5 6 
#
# 1 -0.055797 -0.034311 0.035751 0.000000 0.000000 0.000000
# 2 -0.034311 0.007125 0.004405 0.000000 0.000000 0.000000
# 3 0.035751 0.004405 0.001027 0.000000 0.000000 0.000000
# 4 0.000000 0.000000 0.000000 0.027859 0.000000 0.000000
# 5 0.000000 0.000000 0.000000 0.000000 0.075255 0.000000
# 6 0.000000 0.000000 0.000000 0.000000 0.000000 0.044501
#
#
# Mechanical properties :
#
#
# Convention : Reuss Voigt Hill
#
# Bulk Modulus (GPa) = -27.81257 28.85536 0.52139
# Shear Modulus (GPa) = 65.53547 19.96573 42.75060
#
# Velocity S-wave (km/s) = 5.76623 3.18270 4.65720
# Velocity P-wave (km/s) = 5.49744 5.30527 5.40221
#
# Compressibility (1/GPa) = -0.03595497
#
# Stress axis : x y z
#
# Youngs Moduli (GPa) = -17.92213 140.35721 973.70685
#
# Poissons Ratio (x) = 4.81585 -34.81140
# Poissons Ratio (y) = -0.61493 -4.28927
# Poissons Ratio (z) = 0.64074 -0.61829
#
# Static dielectric constant tensor:
#      x y z
#    x 1.678990 0.000000 0.000000 
#    y 0.000000 1.712380 0.000000 
#    z 0.000000 0.000000 1.873290 
# 
# From -- ./inp_files/2069.got.cif
#   From: 2010.05.17/outbox.ucp.g08.bks.cvg/sg57_2_cif.got.tgz:2069.got - 2010.06.11 16:39:23.
