data_PCOD9440062
_publ_section_title
;
Structure prediction by ZEFSAII (Michael W. Deem and Ramdas Pophale) SiO2 
 PCOD9440062
Probable space group: P B C M
;
_chemical_formula_sum "Si O2"
_cell_formula_units_Z 60
_cell_length_a 9.321967
_cell_length_b 11.736019
_cell_length_c 22.869329
_cell_angle_alpha 90.000000
_cell_angle_beta 90.000000
_cell_angle_gamma 90.000000
_cell_volume 2501.968211
_symmetry_space_group_name_H-M "P B C M"
_symmetry_group_IT_number 57
_symmetry_cell_setting 'orthorhombic'
loop_
_space_group_symop_operation_xyz
x,y,z
-x,-y,1/2+z
x,1/2-y,-z
-x,1/2+y,1/2-z
-x,-y,-z
x,y,1/2-z
-x,1/2+y,z
x,1/2-y,1/2+z
loop_
_atom_site_type_symbol
_atom_site_label
_atom_site_fract_x
_atom_site_fract_y
_atom_site_fract_z
Si Si1 0.501497 0.285435 0.062271
Si Si2 0.600228 0.620974 0.346007
Si Si3 0.721444 0.987730 0.033159
Si Si4 0.263227 0.578253 0.904144
Si Si5 0.972886 0.671254 0.552805
Si Si6 0.723904 0.059952 0.339121
Si Si7 0.922608 0.204275 0.250000
Si Si8 0.826237 0.796874 0.332846
O O1 0.428104 0.175894 0.090212
O O2 0.392255 0.390145 0.052059
O O3 0.622893 0.322590 0.107680
O O4 0.561268 0.250000 0.000000
O O5 0.708113 0.516589 0.356062
O O6 0.445100 0.578558 0.324158
O O7 0.689723 0.720339 0.315118
O O8 0.733655 0.069641 0.089680
O O9 0.874333 0.927053 0.026107
O O10 0.690129 0.038372 0.969675
O O11 0.103149 0.619496 0.910991
O O12 0.023750 0.750000 0.500000
O O13 0.868074 0.730114 0.599631
O O14 0.780610 0.929732 0.328031
O O15 0.822883 0.143517 0.301611
O O16 0.032135 0.261231 0.201144
#
# Coordination Sequence:
#
# PCOD9440062 Si02
#       8
#     8   8   8   8   8   8   4   8
#     4  12  21  38  63 104 153 201 244 295 361 453
#     4  12  23  44  76 106 151 201 246 301 393 443
#     4  11  21  42  64 101 157 195 244 309 361 448
#     4  12  24  36  66 111 150 204 246 298 373 459
#     4  11  24  41  66 106 156 198 242 311 369 453
#     4  11  26  50  76 109 146 193 258 318 370 458
#     4  12  30  52  84  98 142 198 244 320 392 436
#     4  11  27  51  74 113 154 189 255 320 374 460
#
# _framework density 23.981120000000001
#
# number of rings (size 3 to 8) (size 9 to 14) (size 15 to 20)
#    0.000    0.533    5.333    3.600    7.467    0.533 
#    0.000    0.000    0.000    0.000    0.000    0.000 
#    0.000    0.000    0.000    0.000    0.000    0.000 
#
# Total GULP energy -334468.707787 kJ/mol
# GULP energy per Si atom -5574.478463 kJ/mol
# Density = 2.392654 g / cm^3
# Si number density = 23.981120 Si / 1000 Ang^3
#
#
#
# Elastic Constant Matrix: (Units=GPa)
#
#
# Indices 1 2 3 4 5 6 
#
# 1 170.6534 67.8613 10.6429 0.0000 0.0000 0.0000
# 2 67.8613 68.7448 22.3954 0.0000 0.0000 0.0000
# 3 10.6429 22.3954 90.2954 0.0000 0.0000 0.0000
# 4 0.0000 0.0000 0.0000 7.1384 0.0000 0.0000
# 5 0.0000 0.0000 0.0000 0.0000 9.2693 0.0000
# 6 0.0000 0.0000 0.0000 0.0000 0.0000 50.6270
#
#
#
# Elastic Compliance Matrix: (Units=1/GPa)
#
#
# Indices 1 2 3 4 5 6 
#
# 1 0.009796 -0.010111 0.001353 0.000000 0.000000 0.000000
# 2 -0.010111 0.026261 -0.005322 0.000000 0.000000 0.000000
# 3 0.001353 -0.005322 0.012235 0.000000 0.000000 0.000000
# 4 0.000000 0.000000 0.000000 0.140087 0.000000 0.000000
# 5 0.000000 0.000000 0.000000 0.000000 0.107883 0.000000
# 6 0.000000 0.000000 0.000000 0.000000 0.000000 0.019752
#
#
# Mechanical properties :
#
#
# Convention : Reuss Voigt Hill
#
# Bulk Modulus (GPa) = 49.66857 59.05477 54.36167
# Shear Modulus (GPa) = 14.24967 28.65988 21.45477
#
# Velocity S-wave (km/s) = 2.44027 3.46077 2.99432
# Velocity P-wave (km/s) = 5.35690 6.37560 5.88832
#
# Compressibility (1/GPa) = 0.02013346
#
# Stress axis : x y z
#
# Youngs Moduli (GPa) = 102.08071 38.07877 81.73160
#
# Poissons Ratio (x) = 0.38502 -0.11059
# Poissons Ratio (y) = 1.03215 0.43495
# Poissons Ratio (z) = -0.13813 0.20264
#
# Static dielectric constant tensor:
#      x y z
#    x 1.897380 0.000000 0.000000 
#    y 0.000000 1.972710 0.000000 
#    z 0.000000 0.000000 1.910610 
# 
# From -- ./inp_files/28409.got.cif
#   From: 2010.05.17/outbox.cif.g08.bks.cpg/sg57_15_cif.got.tgz:28409.got - 2010.06.03 13:58:18.
