data_PCOD9440126
_publ_section_title
;
Structure prediction by ZEFSAII (Michael W. Deem and Ramdas Pophale) SiO2 
 PCOD9440126
Probable space group: P B C M
;
_chemical_formula_sum "Si O2"
_cell_formula_units_Z 40
_cell_length_a 7.106302
_cell_length_b 8.025784
_cell_length_c 30.719679
_cell_angle_alpha 90.000000
_cell_angle_beta 90.000000
_cell_angle_gamma 90.000000
_cell_volume 1752.055263
_symmetry_space_group_name_H-M "P B C M"
_symmetry_group_IT_number 57
_symmetry_cell_setting 'orthorhombic'
loop_
_space_group_symop_operation_xyz
x,y,z
-x,-y,1/2+z
x,1/2-y,-z
-x,1/2+y,1/2-z
-x,-y,-z
x,y,1/2-z
-x,1/2+y,z
x,1/2-y,1/2+z
loop_
_atom_site_type_symbol
_atom_site_label
_atom_site_fract_x
_atom_site_fract_y
_atom_site_fract_z
Si Si1 0.405971 0.338382 0.250000
Si Si2 0.205658 0.797544 0.750000
Si Si3 0.357266 0.651353 0.404251
Si Si4 0.394799 0.123000 0.967331
Si Si5 0.706617 0.835365 0.839230
Si Si6 0.932811 0.177431 0.658826
O O1 0.631806 0.343749 0.250000
O O2 0.298620 0.516505 0.250000
O O3 0.362552 0.231644 0.292940
O O4 0.090020 0.764876 0.793828
O O5 0.450045 0.778855 0.438843
O O6 0.293027 0.493532 0.432617
O O7 0.529746 0.622830 0.370063
O O8 0.189266 0.727043 0.376840
O O9 0.289485 0.250000 0.000000
O O10 0.500000 0.000000 0.000000
O O11 0.848915 0.688806 0.853883
O O12 0.837620 0.997613 0.837571
#
# Coordination Sequence:
#
# PCOD9440126 Si02
#       6
#     4   4   8   8   8   8
#     4  12  25  42  65  93 137 181 224 268 323 374
#     4  12  25  42  65  93 137 181 224 270 319 380
#     4  11  22  41  70  97 132 170 219 269 326 389
#     4   9  20  40  70 100 124 169 213 264 338 403
#     4  12  26  42  66  98 136 179 223 271 322 384
#     4  12  26  42  66  98 136 178 225 269 323 382
#
# _framework density 22.830331999999999
#
# number of rings (size 3 to 8) (size 9 to 14) (size 15 to 20)
#    0.000    0.800    4.000    3.600    5.600    0.000 
#    0.000    0.000    0.000   24.000    0.000    0.000 
#    0.000    0.000    0.000    0.000    0.000    0.000 
#
# Total GULP energy -223668.826999 kJ/mol
# GULP energy per Si atom -5591.720675 kJ/mol
# Density = 2.277837 g / cm^3
# Si number density = 22.830332 Si / 1000 Ang^3
#
#
#
# Elastic Constant Matrix: (Units=GPa)
#
#
# Indices 1 2 3 4 5 6 
#
# 1 53.1311 -23.9324 12.3688 0.0000 0.0000 0.0000
# 2 -23.9324 71.6420 40.8882 0.0000 0.0000 0.0000
# 3 12.3688 40.8882 142.9657 0.0000 0.0000 0.0000
# 4 0.0000 0.0000 0.0000 39.4680 0.0000 0.0000
# 5 0.0000 0.0000 0.0000 0.0000 13.4033 0.0000
# 6 0.0000 0.0000 0.0000 0.0000 0.0000 29.4611
#
#
#
# Elastic Compliance Matrix: (Units=1/GPa)
#
#
# Indices 1 2 3 4 5 6 
#
# 1 0.025333 0.011609 -0.005512 0.000000 0.000000 0.000000
# 2 0.011609 0.022000 -0.007296 0.000000 0.000000 0.000000
# 3 -0.005512 -0.007296 0.009558 0.000000 0.000000 0.000000
# 4 0.000000 0.000000 0.000000 0.025337 0.000000 0.000000
# 5 0.000000 0.000000 0.000000 0.000000 0.074608 0.000000
# 6 0.000000 0.000000 0.000000 0.000000 0.000000 0.033943
#
#
# Mechanical properties :
#
#
# Convention : Reuss Voigt Hill
#
# Bulk Modulus (GPa) = 18.35104 36.26531 27.30818
# Shear Modulus (GPa) = 23.65807 32.36077 28.00942
#
# Velocity S-wave (km/s) = 3.22259 3.76898 3.50644
# Velocity P-wave (km/s) = 4.67998 5.90419 5.32737
#
# Compressibility (1/GPa) = 0.05449282
#
# Stress axis : x y z
#
# Youngs Moduli (GPa) = 39.47350 45.45354 104.62085
#
# Poissons Ratio (x) = -0.52765 0.57665
# Poissons Ratio (y) = -0.45823 0.76336
# Poissons Ratio (z) = 0.21757 0.33165
#
# Static dielectric constant tensor:
#      x y z
#    x 1.801580 0.000000 0.000000 
#    y 0.000000 1.963100 0.000000 
#    z 0.000000 0.000000 1.854220 
# 
# From -- ./inp_files/29387.got.cif
#   From: 2010.05.17/outbox.cif.g08.bks.cpg/sg57_15_cif.got.tgz:29387.got - 2010.06.03 13:58:18.
