data_PCOD9440545
_publ_section_title
;
Structure prediction by ZEFSAII (Michael W. Deem and Ramdas Pophale) SiO2 
 PCOD9440545
Probable space group: P B C M
;
_chemical_formula_sum "Si O2"
_cell_formula_units_Z 64
_cell_length_a 15.000000
_cell_length_b 24.000000
_cell_length_c 9.000000
_cell_angle_alpha 90.000000
_cell_angle_beta 90.000000
_cell_angle_gamma 90.000000
_cell_volume 3240.000000
_symmetry_space_group_name_H-M "P B C M"
_symmetry_group_IT_number 57
_symmetry_cell_setting 'orthorhombic'
loop_
_space_group_symop_operation_xyz
x,y,z
-x,-y,1/2+z
x,1/2-y,-z
-x,1/2+y,1/2-z
-x,-y,-z
x,y,1/2-z
-x,1/2+y,z
x,1/2-y,1/2+z
loop_
_atom_site_type_symbol
_atom_site_label
_atom_site_fract_x
_atom_site_fract_y
_atom_site_fract_z
Si Si1 0.408587 0.519523 0.576639
Si Si2 0.781123 0.505496 0.570846
Si Si3 0.279213 0.806575 0.575376
Si Si4 0.363728 0.310269 0.072387
Si Si5 0.183741 0.369209 0.069319
Si Si6 0.004829 0.309423 0.071763
Si Si7 0.152923 0.895267 0.072322
Si Si8 0.441186 0.849356 0.079379
O O1 0.500000 0.500000 0.500000
O O2 0.405801 0.502334 0.750000
O O3 0.319718 0.499594 0.492157
O O4 0.412289 0.586576 0.572619
O O5 0.778514 0.500803 0.750000
O O6 0.819992 0.565889 0.528544
O O7 0.839032 0.455612 0.501634
O O8 0.246105 0.750000 0.500000
O O9 0.263708 0.806045 0.750000
O O10 0.230996 0.858019 0.497222
O O11 0.382687 0.814247 0.534602
O O12 0.355638 0.303839 0.250000
O O13 0.277000 0.343201 0.018419
O O14 0.454722 0.343557 0.045299
O O15 0.369328 0.250000 0.000000
O O16 0.182797 0.368170 0.250000
O O17 0.101113 0.331614 0.019648
O O18 0.005964 0.302008 0.250000
O O19 0.935109 0.358979 0.040298
O O20 0.982445 0.250000 0.000000
O O21 0.163454 0.900180 0.250000
O O22 0.425546 0.829552 0.250000
#
# Coordination Sequence:
#
# PCOD9440545 Si02
#       8
#     8   8   8   8   8   8   8   8
#     4  11  22  37  59  85 121 164 210 258 306 362
#     4  11  22  39  63  90 121 161 208 252 306 373
#     4  12  24  38  59  85 117 158 200 246 301 363
#     4  10  20  36  58  84 117 157 199 247 303 360
#     4   9  20  40  63  88 121 160 200 249 311 371
#     4  10  22  41  66  93 123 160 203 252 309 370
#     4  11  23  40  61  89 125 160 200 252 307 365
#     4  10  21  37  56  82 118 159 200 248 302 360
#
# _framework density 19.753086
#
# number of rings (size 3 to 8) (size 9 to 14) (size 15 to 20)
#    0.000    1.500    1.250    4.125    0.000    6.500 
#    0.000    3.750    0.000    0.000    0.000    0.000 
#    0.000    0.000    0.000    0.000    0.000    0.000 
#
# Total GULP energy -357636.074528 kJ/mol
# GULP energy per Si atom -5588.063665 kJ/mol
# Density = 1.970813 g / cm^3
# Si number density = 19.753086 Si / 1000 Ang^3
#
#
#
# Elastic Constant Matrix: (Units=GPa)
#
#
# Indices 1 2 3 4 5 6 
#
# 1 82.4388 10.9600 24.3845 0.0000 0.0000 0.0000
# 2 10.9600 45.7307 20.5033 0.0000 0.0000 0.0000
# 3 24.3845 20.5033 57.2877 0.0000 0.0000 0.0000
# 4 0.0000 0.0000 0.0000 31.3408 0.0000 0.0000
# 5 0.0000 0.0000 0.0000 0.0000 11.1491 0.0000
# 6 0.0000 0.0000 0.0000 0.0000 0.0000 186.7253
#
#
#
# Elastic Compliance Matrix: (Units=1/GPa)
#
#
# Indices 1 2 3 4 5 6 
#
# 1 0.013902 -0.000809 -0.005628 0.000000 0.000000 0.000000
# 2 -0.000809 0.026094 -0.008995 0.000000 0.000000 0.000000
# 3 -0.005628 -0.008995 0.023071 0.000000 0.000000 0.000000
# 4 0.000000 0.000000 0.000000 0.031907 0.000000 0.000000
# 5 0.000000 0.000000 0.000000 0.000000 0.089693 0.000000
# 6 0.000000 0.000000 0.000000 0.000000 0.000000 0.005355
#
#
# Mechanical properties :
#
#
# Convention : Reuss Voigt Hill
#
# Bulk Modulus (GPa) = 31.05225 33.01696 32.03460
# Shear Modulus (GPa) = 21.58705 54.48368 38.03537
#
# Velocity S-wave (km/s) = 3.30941 5.25759 4.39286
# Velocity P-wave (km/s) = 5.50974 7.32171 6.47938
#
# Compressibility (1/GPa) = 0.03220378
#
# Stress axis : x y z
#
# Youngs Moduli (GPa) = 71.92967 38.32335 43.34515
#
# Poissons Ratio (x) = 0.03098 0.24396
# Poissons Ratio (y) = 0.05816 0.38988
# Poissons Ratio (z) = 0.40484 0.34471
#
# Static dielectric constant tensor:
#      x y z
#    x 1.721920 0.000000 0.000000 
#    y 0.000000 1.685960 0.000000 
#    z 0.000000 0.000000 1.663010 
# 
# From -- ./inp_files/5738.got.cif
#   From: 2010.05.17/outbox.ucp.g08.bks.cvg/sg57_3_cif.got.tgz:5738.got - 2010.06.11 16:39:23.
