data_PCOD9440589
_publ_section_title
;
Structure prediction by ZEFSAII (Michael W. Deem and Ramdas Pophale) SiO2 
 PCOD9440589
Probable space group: P B C M
;
_chemical_formula_sum "Si O2"
_cell_formula_units_Z 64
_cell_length_a 12.000000
_cell_length_b 30.000000
_cell_length_c 9.000000
_cell_angle_alpha 90.000000
_cell_angle_beta 90.000000
_cell_angle_gamma 90.000000
_cell_volume 3240.000000
_symmetry_space_group_name_H-M "P B C M"
_symmetry_group_IT_number 57
_symmetry_cell_setting 'orthorhombic'
loop_
_space_group_symop_operation_xyz
x,y,z
-x,-y,1/2+z
x,1/2-y,-z
-x,1/2+y,1/2-z
-x,-y,-z
x,y,1/2-z
-x,1/2+y,z
x,1/2-y,1/2+z
loop_
_atom_site_type_symbol
_atom_site_label
_atom_site_fract_x
_atom_site_fract_y
_atom_site_fract_z
Si Si1 0.496499 0.067415 0.074725
Si Si2 0.257020 0.061333 0.572820
Si Si3 0.268279 0.535730 0.429867
Si Si4 0.498071 0.655595 0.578988
Si Si5 0.269026 0.203618 0.575669
Si Si6 0.853912 0.124293 0.429220
Si Si7 0.722547 0.204409 0.922623
Si Si8 0.889237 0.862248 0.572765
O O1 0.476443 0.060166 0.250000
O O2 0.602799 0.039171 0.021273
O O3 0.384711 0.062340 0.980746
O O4 0.531239 0.118360 0.041275
O O5 0.252054 0.068504 0.750000
O O6 0.185520 0.097760 0.489221
O O7 0.216585 0.011718 0.533474
O O8 0.273785 0.538048 0.250000
O O9 0.197207 0.577485 0.482170
O O10 0.487407 0.638422 0.750000
O O11 0.623881 0.671706 0.557347
O O12 0.409797 0.695240 0.565218
O O13 0.296176 0.250000 0.500000
O O14 0.250013 0.209241 0.750000
O O15 0.162388 0.181803 0.499091
O O16 0.844939 0.125940 0.250000
O O17 0.784106 0.163768 0.499817
O O18 0.983037 0.129622 0.468213
O O19 0.751511 0.205625 0.750000
O O20 0.753334 0.250000 0.000000
O O21 0.879860 0.859895 0.750000
#
# Coordination Sequence:
#
# PCOD9440589 Si02
#       8
#     8   8   8   8   8   8   8   8
#     4  11  20  34  61  90 120 157 197 238 292 357
#     4  11  22  38  60  87 124 159 195 242 298 357
#     4   9  20  38  61  89 119 158 196 240 299 354
#     4  10  21  37  59  90 123 156 190 237 296 352
#     4  11  23  40  63  89 122 157 194 241 296 354
#     4  10  22  43  64  84 116 156 202 253 298 346
#     4  11  23  39  62  92 123 156 197 240 293 356
#     4  11  24  41  62  87 116 155 205 252 297 349
#
# _framework density 19.753086
#
# number of rings (size 3 to 8) (size 9 to 14) (size 15 to 20)
#    0.000    1.500    2.500    2.625    0.000    3.000 
#    0.000    3.125    0.000    0.000    0.000    0.000 
#    0.000    0.000    0.000    0.000    0.000    0.000 
#
# Total GULP energy -357394.773847 kJ/mol
# GULP energy per Si atom -5584.293341 kJ/mol
# Density = 1.970813 g / cm^3
# Si number density = 19.753086 Si / 1000 Ang^3
#
#
#
# Elastic Constant Matrix: (Units=GPa)
#
#
# Indices 1 2 3 4 5 6 
#
# 1 74.1373 3.7312 31.6508 0.0000 0.0000 0.0000
# 2 3.7312 59.4795 11.9758 0.0000 0.0000 0.0000
# 3 31.6508 11.9758 23.9757 0.0000 0.0000 0.0000
# 4 0.0000 0.0000 0.0000 18.9169 0.0000 0.0000
# 5 0.0000 0.0000 0.0000 0.0000 12.5628 0.0000
# 6 0.0000 0.0000 0.0000 0.0000 0.0000 -3.8400
#
#
#
# Elastic Compliance Matrix: (Units=1/GPa)
#
#
# Indices 1 2 3 4 5 6 
#
# 1 0.033752 0.007620 -0.048363 0.000000 0.000000 0.000000
# 2 0.007620 0.020413 -0.020256 0.000000 0.000000 0.000000
# 3 -0.048363 -0.020256 0.115672 0.000000 0.000000 0.000000
# 4 0.000000 0.000000 0.000000 0.052863 0.000000 0.000000
# 5 0.000000 0.000000 0.000000 0.000000 0.079600 0.000000
# 6 0.000000 0.000000 0.000000 0.000000 0.000000 -0.260417
#
#
# Mechanical properties :
#
#
# Convention : Reuss Voigt Hill
#
# Bulk Modulus (GPa) = 20.90331 28.03422 24.46876
# Shear Modulus (GPa) = 27.80456 12.87692 20.34074
#
# Velocity S-wave (km/s) = 3.75588 2.55599 3.21245
# Velocity P-wave (km/s) = 5.42348 4.78894 5.11605
#
# Compressibility (1/GPa) = 0.04783932
#
# Stress axis : x y z
#
# Youngs Moduli (GPa) = 29.62766 48.98872 8.64515
#
# Poissons Ratio (x) = -0.37331 0.41811
# Poissons Ratio (y) = -0.22577 0.17511
# Poissons Ratio (z) = 1.43289 0.99231
#
# Static dielectric constant tensor:
#      x y z
#    x 1.673360 0.000000 0.000000 
#    y 0.000000 1.789510 0.000000 
#    z 0.000000 0.000000 1.667090 
# 
# From -- ./inp_files/3779.got.cif
#   From: 2010.05.17/outbox.ucp.g08.bks.cvg/sg57_2_cif.got.tgz:3779.got - 2010.06.11 16:39:23.
