data_PCOD9440021
_publ_section_title
;
Structure prediction by ZEFSAII (Michael W. Deem and Ramdas Pophale) SiO2 
 PCOD9440021
Probable space group: P B C M
;
_chemical_formula_sum "Si O2"
_cell_formula_units_Z 48
_cell_length_a 32.264777
_cell_length_b 9.587196
_cell_length_c 8.546047
_cell_angle_alpha 90.000000
_cell_angle_beta 90.000000
_cell_angle_gamma 90.000000
_cell_volume 2643.537959
_symmetry_space_group_name_H-M "P B C M"
_symmetry_group_IT_number 57
_symmetry_cell_setting 'orthorhombic'
loop_
_space_group_symop_operation_xyz
x,y,z
-x,-y,1/2+z
x,1/2-y,-z
-x,1/2+y,1/2-z
-x,-y,-z
x,y,1/2-z
-x,1/2+y,z
x,1/2-y,1/2+z
loop_
_atom_site_type_symbol
_atom_site_label
_atom_site_fract_x
_atom_site_fract_y
_atom_site_fract_z
Si Si1 0.884678 0.593684 0.561203
Si Si2 0.962038 0.092590 0.061773
Si Si3 0.375739 0.591014 0.062246
Si Si4 0.208767 0.405641 0.439131
Si Si5 0.284986 0.907345 0.561077
Si Si6 0.537622 0.408447 0.063732
O O1 0.893162 0.750000 0.500000
O O2 0.885399 0.599430 0.750000
O O3 0.919645 0.484751 0.510686
O O4 0.837942 0.552824 0.511881
O O5 0.963250 0.095107 0.250000
O O6 0.964350 0.250000 0.000000
O O7 0.000000 0.000000 0.000000
O O8 0.379234 0.591721 0.250000
O O9 0.330468 0.532266 0.017421
O O10 0.374638 0.750000 0.000000
O O11 0.417914 0.530686 0.991679
O O12 0.215571 0.250000 0.500000
O O13 0.209485 0.404873 0.250000
O O14 0.245779 0.504322 0.495002
O O15 0.282100 0.750000 0.500000
O O16 0.284044 0.903219 0.750000
O O17 0.536758 0.403817 0.250000
O O18 0.534394 0.250000 0.000000
O O19 0.500000 0.500000 0.000000
#
# Coordination Sequence:
#
# PCOD9440021 Si02
#       6
#     8   8   8   8   8   8
#     4   9  19  35  55  76 102 135 173 212 255 304
#     4  11  23  38  56  80 108 140 175 217 263 312
#     4   9  16  29  48  71  98 131 167 206 250 300
#     4   9  18  34  52  74 103 136 170 208 253 304
#     4   9  18  31  50  74 101 130 166 209 251 296
#     4  11  21  35  54  77 103 134 170 212 258 308
#
# _framework density 18.157485000000001
#
# number of rings (size 3 to 8) (size 9 to 14) (size 15 to 20)
#    0.000    2.333    0.000    4.000    0.000    4.667 
#    0.000    0.833    0.000    2.000    0.000    0.000 
#    0.000    0.000    0.000    0.000    0.000    0.000 
#
# Total GULP energy -267672.200389 kJ/mol
# GULP energy per Si atom -5576.504175 kJ/mol
# Density = 1.811616 g / cm^3
# Si number density = 18.157485 Si / 1000 Ang^3
#
#
#
# Elastic Constant Matrix: (Units=GPa)
#
#
# Indices 1 2 3 4 5 6 
#
# 1 211.7550 104.8693 48.3561 0.0000 0.0000 0.0000
# 2 104.8693 88.2456 25.6723 0.0000 0.0000 0.0000
# 3 48.3561 25.6723 56.3541 0.0000 0.0000 0.0000
# 4 0.0000 0.0000 0.0000 28.0933 0.0000 0.0000
# 5 0.0000 0.0000 0.0000 0.0000 23.1623 0.0000
# 6 0.0000 0.0000 0.0000 0.0000 0.0000 37.5245
#
#
#
# Elastic Compliance Matrix: (Units=1/GPa)
#
#
# Indices 1 2 3 4 5 6 
#
# 1 0.012405 -0.013424 -0.004529 0.000000 0.000000 0.000000
# 2 -0.013424 0.027590 -0.001050 0.000000 0.000000 0.000000
# 3 -0.004529 -0.001050 0.022109 0.000000 0.000000 0.000000
# 4 0.000000 0.000000 0.000000 0.035596 0.000000 0.000000
# 5 0.000000 0.000000 0.000000 0.000000 0.043174 0.000000
# 6 0.000000 0.000000 0.000000 0.000000 0.000000 0.026649
#
#
# Mechanical properties :
#
#
# Convention : Reuss Voigt Hill
#
# Bulk Modulus (GPa) = 41.49611 79.35001 60.42306
# Shear Modulus (GPa) = 23.41242 29.58647 26.49945
#
# Velocity S-wave (km/s) = 3.59473 4.04101 3.82438
# Velocity P-wave (km/s) = 6.33502 8.09746 7.26985
#
# Compressibility (1/GPa) = 0.02409864
#
# Stress axis : x y z
#
# Youngs Moduli (GPa) = 80.61434 36.24456 45.22967
#
# Poissons Ratio (x) = 0.48655 0.20484
# Poissons Ratio (y) = 1.08217 0.04749
# Poissons Ratio (z) = 0.36509 0.03806
#
# Static dielectric constant tensor:
#      x y z
#    x 1.673290 0.000000 0.000000 
#    y 0.000000 1.599370 0.000000 
#    z 0.000000 0.000000 1.618070 
# 
# From -- ./inp_files/9894.got.cif
#   From: 2010.05.17/outbox.cif.g08.bks.cpg/sg57_5_cif.got.tgz:9894.got - 2010.06.03 13:58:18.
