data_PCOD9440484
_publ_section_title
;
Structure prediction by ZEFSAII (Michael W. Deem and Ramdas Pophale) SiO2 
 PCOD9440484
Probable space group: P B C M
;
_chemical_formula_sum "Si O2"
_cell_formula_units_Z 48
_cell_length_a 9.000000
_cell_length_b 15.000000
_cell_length_c 18.000000
_cell_angle_alpha 90.000000
_cell_angle_beta 90.000000
_cell_angle_gamma 90.000000
_cell_volume 2430.000000
_symmetry_space_group_name_H-M "P B C M"
_symmetry_group_IT_number 57
_symmetry_cell_setting 'orthorhombic'
loop_
_space_group_symop_operation_xyz
x,y,z
-x,-y,1/2+z
x,1/2-y,-z
-x,1/2+y,1/2-z
-x,-y,-z
x,y,1/2-z
-x,1/2+y,z
x,1/2-y,1/2+z
loop_
_atom_site_type_symbol
_atom_site_label
_atom_site_fract_x
_atom_site_fract_y
_atom_site_fract_z
Si Si1 0.060592 0.516001 0.917066
Si Si2 0.404834 0.032733 0.836862
Si Si3 0.964758 0.224491 0.913634
Si Si4 0.288702 0.222416 0.839039
Si Si5 0.691014 0.921378 0.663958
Si Si6 0.172261 0.897415 0.838095
O O1 0.089218 0.621519 0.906125
O O2 0.196888 0.451061 0.899792
O O3 0.944894 0.475675 0.857551
O O4 0.000000 0.500000 0.000000
O O5 0.359033 0.035217 0.750000
O O6 0.369927 0.131751 0.866117
O O7 0.572196 0.000329 0.837742
O O8 0.318178 0.947140 0.869006
O O9 0.869598 0.303732 0.875835
O O10 0.127323 0.226637 0.876308
O O11 0.975815 0.250000 0.000000
O O12 0.271762 0.215147 0.750000
O O13 0.362682 0.319908 0.850832
O O14 0.751251 0.919511 0.750000
O O15 0.180222 0.881001 0.750000
#
# Coordination Sequence:
#
# PCOD9440484 Si02
#       6
#     8   8   8   8   8   8
#     4  12  23  39  63  89 123 161 207 258 310 366
#     4   9  20  37  60  89 125 161 202 260 314 364
#     4  12  23  37  62  89 127 163 209 258 315 366
#     4  10  19  35  61  87 118 162 208 253 312 373
#     4  10  21  38  61  91 123 160 208 257 306 371
#     4  11  22  38  62  93 122 157 207 258 307 368
#
# _framework density 19.753086
#
# number of rings (size 3 to 8) (size 9 to 14) (size 15 to 20)
#    0.000    1.333    5.000    1.000    0.000    3.333 
#    0.000    4.167    0.000    0.000    0.000    0.000 
#    0.000    0.000    0.000    0.000    0.000    0.000 
#
# Total GULP energy -267298.952166 kJ/mol
# GULP energy per Si atom -5568.728170 kJ/mol
# Density = 1.970813 g / cm^3
# Si number density = 19.753086 Si / 1000 Ang^3
#
#
#
# Elastic Constant Matrix: (Units=GPa)
#
#
# Indices 1 2 3 4 5 6 
#
# 1 29.8425 30.6091 21.9527 0.0000 0.0000 0.0000
# 2 30.6091 166.2326 54.3949 0.0000 0.0000 0.0000
# 3 21.9527 54.3949 54.8304 0.0000 0.0000 0.0000
# 4 0.0000 0.0000 0.0000 31.4483 0.0000 0.0000
# 5 0.0000 0.0000 0.0000 0.0000 -9.0076 0.0000
# 6 0.0000 0.0000 0.0000 0.0000 0.0000 28.3392
#
#
#
# Elastic Compliance Matrix: (Units=1/GPa)
#
#
# Indices 1 2 3 4 5 6 
#
# 1 0.049119 -0.003864 -0.015833 0.000000 0.000000 0.000000
# 2 -0.003864 0.009211 -0.007591 0.000000 0.000000 0.000000
# 3 -0.015833 -0.007591 0.032108 0.000000 0.000000 0.000000
# 4 0.000000 0.000000 0.000000 0.031798 0.000000 0.000000
# 5 0.000000 0.000000 0.000000 0.000000 -0.111018 0.000000
# 6 0.000000 0.000000 0.000000 0.000000 0.000000 0.035287
#
#
# Mechanical properties :
#
#
# Convention : Reuss Voigt Hill
#
# Bulk Modulus (GPa) = 27.88414 51.64656 39.76535
# Shear Modulus (GPa) = 44.23386 19.75257 31.99322
#
# Velocity S-wave (km/s) = 4.73730 3.16567 4.02886
# Velocity P-wave (km/s) = 6.63850 6.29005 6.46662
#
# Compressibility (1/GPa) = 0.03586269
#
# Stress axis : x y z
#
# Youngs Moduli (GPa) = 20.35861 108.56563 31.14487
#
# Poissons Ratio (x) = 0.41945 0.49313
# Poissons Ratio (y) = 0.07866 0.23642
# Poissons Ratio (z) = 0.32234 0.82412
#
# Static dielectric constant tensor:
#      x y z
#    x 1.865710 0.000000 0.000000 
#    y 0.000000 1.701430 0.000000 
#    z 0.000000 0.000000 1.698850 
# 
# From -- ./inp_files/20987.got.cif
#   From: 2010.05.17/outbox.ucp.g08.bks.cvg/sg57_11_cif.got.tgz:20987.got - 2010.06.11 16:39:23.
