data_PCOD9440555
_publ_section_title
;
Structure prediction by ZEFSAII (Michael W. Deem and Ramdas Pophale) SiO2 
 PCOD9440555
Probable space group: P B C M
;
_chemical_formula_sum "Si O2"
_cell_formula_units_Z 48
_cell_length_a 30.000000
_cell_length_b 9.000000
_cell_length_c 9.000000
_cell_angle_alpha 90.000000
_cell_angle_beta 90.000000
_cell_angle_gamma 90.000000
_cell_volume 2430.000000
_symmetry_space_group_name_H-M "P B C M"
_symmetry_group_IT_number 57
_symmetry_cell_setting 'orthorhombic'
loop_
_space_group_symop_operation_xyz
x,y,z
-x,-y,1/2+z
x,1/2-y,-z
-x,1/2+y,1/2-z
-x,-y,-z
x,y,1/2-z
-x,1/2+y,z
x,1/2-y,1/2+z
loop_
_atom_site_type_symbol
_atom_site_label
_atom_site_fract_x
_atom_site_fract_y
_atom_site_fract_z
Si Si1 0.036197 0.095093 0.919046
Si Si2 0.540106 0.086647 0.073043
Si Si3 0.624357 0.404242 0.080751
Si Si4 0.290208 0.393730 0.583596
Si Si5 0.137345 0.088005 0.577109
Si Si6 0.788425 0.407339 0.071750
O O1 0.023013 0.116843 0.750000
O O2 0.086276 0.035154 0.924069
O O3 0.038615 0.250000 0.000000
O O4 0.000000 0.000000 0.000000
O O5 0.537077 0.091625 0.250000
O O6 0.540089 0.250000 0.000000
O O7 0.586468 0.017024 0.016538
O O8 0.500000 0.000000 0.000000
O O9 0.608152 0.380421 0.250000
O O10 0.669479 0.493169 0.087244
O O11 0.633772 0.250000 0.000000
O O12 0.304969 0.250000 0.500000
O O13 0.277619 0.350053 0.750000
O O14 0.247759 0.474023 0.515876
O O15 0.141135 0.250000 0.500000
O O16 0.151489 0.099106 0.750000
O O17 0.165276 0.970589 0.484740
O O18 0.786126 0.396791 0.250000
O O19 0.778692 0.250000 0.000000
#
# Coordination Sequence:
#
# PCOD9440555 Si02
#       6
#     8   8   8   8   8   8
#     4  10  21  37  58  83 113 148 188 231 281 334
#     4  11  22  38  59  85 115 151 191 234 283 336
#     4  10  20  37  58  83 113 147 187 232 280 333
#     4  10  23  39  58  84 114 147 186 229 278 333
#     4  10  21  38  59  84 113 148 187 232 281 334
#     4  11  23  39  59  85 114 149 189 232 280 334
#
# _framework density 19.753086
#
# number of rings (size 3 to 8) (size 9 to 14) (size 15 to 20)
#    0.000    1.667    0.000    5.500    0.000    7.333 
#    0.000    1.667    0.000    0.000    0.000    0.000 
#    0.000    0.000    0.000    0.000    0.000    0.000 
#
# Total GULP energy -267669.884319 kJ/mol
# GULP energy per Si atom -5576.455923 kJ/mol
# Density = 1.970813 g / cm^3
# Si number density = 19.753086 Si / 1000 Ang^3
#
#
#
# Elastic Constant Matrix: (Units=GPa)
#
#
# Indices 1 2 3 4 5 6 
#
# 1 47.9344 16.3101 41.6621 0.0000 0.0000 0.0000
# 2 16.3101 21.4722 22.9083 0.0000 0.0000 0.0000
# 3 41.6621 22.9083 127.9531 0.0000 0.0000 0.0000
# 4 0.0000 0.0000 0.0000 27.7723 0.0000 0.0000
# 5 0.0000 0.0000 0.0000 0.0000 30.3149 0.0000
# 6 0.0000 0.0000 0.0000 0.0000 0.0000 28.4348
#
#
#
# Elastic Compliance Matrix: (Units=1/GPa)
#
#
# Indices 1 2 3 4 5 6 
#
# 1 0.033491 -0.017065 -0.007849 0.000000 0.000000 0.000000
# 2 -0.017065 0.066263 -0.006307 0.000000 0.000000 0.000000
# 3 -0.007849 -0.006307 0.011500 0.000000 0.000000 0.000000
# 4 0.000000 0.000000 0.000000 0.036007 0.000000 0.000000
# 5 0.000000 0.000000 0.000000 0.000000 0.032987 0.000000
# 6 0.000000 0.000000 0.000000 0.000000 0.000000 0.035168
#
#
# Mechanical properties :
#
#
# Convention : Reuss Voigt Hill
#
# Bulk Modulus (GPa) = 20.48701 39.90230 30.19466
# Shear Modulus (GPa) = 16.99930 25.06968 21.03449
#
# Velocity S-wave (km/s) = 2.93676 3.56638 3.26678
# Velocity P-wave (km/s) = 4.67905 6.09944 5.43584
#
# Compressibility (1/GPa) = 0.04881141
#
# Stress axis : x y z
#
# Youngs Moduli (GPa) = 29.85913 15.09133 86.95342
#
# Poissons Ratio (x) = 0.25753 0.68254
# Poissons Ratio (y) = 0.50954 0.54843
# Poissons Ratio (z) = 0.23438 0.09518
#
# Static dielectric constant tensor:
#      x y z
#    x 3.433520 0.000000 0.000000 
#    y 0.000000 1.642680 0.000000 
#    z 0.000000 0.000000 1.686560 
# 
# From -- ./inp_files/9962.got.cif
#   From: 2010.05.17/outbox.ucp.g08.bks.cvg/sg57_5_cif.got.tgz:9962.got - 2010.06.11 16:39:23.
