data_PCOD9440314
_publ_section_title
;
Structure prediction by ZEFSAII (Michael W. Deem and Ramdas Pophale) SiO2 
 PCOD9440314
Probable space group: P B C M
;
_chemical_formula_sum "Si O2"
_cell_formula_units_Z 28
_cell_length_a 6.644564
_cell_length_b 13.841917
_cell_length_c 14.182796
_cell_angle_alpha 90.000000
_cell_angle_beta 90.000000
_cell_angle_gamma 90.000000
_cell_volume 1304.441436
_symmetry_space_group_name_H-M "P B C M"
_symmetry_group_IT_number 57
_symmetry_cell_setting 'orthorhombic'
loop_
_space_group_symop_operation_xyz
x,y,z
-x,-y,1/2+z
x,1/2-y,-z
-x,1/2+y,1/2-z
-x,-y,-z
x,y,1/2-z
-x,1/2+y,z
x,1/2-y,1/2+z
loop_
_atom_site_type_symbol
_atom_site_label
_atom_site_fract_x
_atom_site_fract_y
_atom_site_fract_z
Si Si1 0.421332 0.803433 0.143376
Si Si2 0.740448 0.886208 0.019850
Si Si3 0.506111 0.480878 0.641421
Si Si4 0.900144 0.250000 0.000000
O O1 0.450145 0.772333 0.250000
O O2 0.627114 0.806342 0.084486
O O3 0.376131 0.919175 0.143424
O O4 0.246096 0.748930 0.089810
O O5 0.704800 0.982375 0.084473
O O6 0.959554 0.844534 0.003280
O O7 0.614952 0.908084 0.924910
O O8 0.542881 0.453751 0.750000
#
# Coordination Sequence:
#
# PCOD9440314 Si02
#       4
#     8   8   8   4
#     4   9  20  38  56  81 116 151 187 233 287 339
#     4   9  19  37  59  81 114 152 191 234 285 335
#     4   8  17  38  61  78 110 157 195 231 276 336
#     4  12  22  32  60  90 114 148 184 236 292 338
#
# _framework density 21.465126999999999
#
# number of rings (size 3 to 8) (size 9 to 14) (size 15 to 20)
#    1.714    1.143    0.000    0.857    0.000    4.571 
#    0.000    4.286    0.000    0.000    0.000    0.000 
#    0.000    0.000    0.000    0.000    0.000    0.000 
#
# Total GULP energy -155922.885323 kJ/mol
# GULP energy per Si atom -5568.674476 kJ/mol
# Density = 2.141627 g / cm^3
# Si number density = 21.465127 Si / 1000 Ang^3
#
#
#
# Elastic Constant Matrix: (Units=GPa)
#
#
# Indices 1 2 3 4 5 6 
#
# 1 81.9623 14.4282 39.1695 0.0000 0.0000 0.0000
# 2 14.4282 65.6363 25.1212 0.0000 0.0000 0.0000
# 3 39.1695 25.1212 184.7304 0.0000 0.0000 0.0000
# 4 0.0000 0.0000 0.0000 20.5330 0.0000 0.0000
# 5 0.0000 0.0000 0.0000 0.0000 -1.4510 0.0000
# 6 0.0000 0.0000 0.0000 0.0000 0.0000 33.2950
#
#
#
# Elastic Compliance Matrix: (Units=1/GPa)
#
#
# Indices 1 2 3 4 5 6 
#
# 1 0.013826 -0.002023 -0.002657 0.000000 0.000000 0.000000
# 2 -0.002023 0.016368 -0.001797 0.000000 0.000000 0.000000
# 3 -0.002657 -0.001797 0.006221 0.000000 0.000000 0.000000
# 4 0.000000 0.000000 0.000000 0.048702 0.000000 0.000000
# 5 0.000000 0.000000 0.000000 0.000000 -0.689170 0.000000
# 6 0.000000 0.000000 0.000000 0.000000 0.000000 0.030035
#
#
# Mechanical properties :
#
#
# Convention : Reuss Voigt Hill
#
# Bulk Modulus (GPa) = 42.62061 54.41854 48.51957
# Shear Modulus (GPa) = -9.03759 27.38274 9.17257
#
# Velocity S-wave (km/s) = -2.05414 3.57555 2.06943
# Velocity P-wave (km/s) = 3.77794 6.51561 5.32569
#
# Compressibility (1/GPa) = 0.02346283
#
# Stress axis : x y z
#
# Youngs Moduli (GPa) = 72.32554 61.09545 160.74668
#
# Poissons Ratio (x) = 0.12357 0.42705
# Poissons Ratio (y) = 0.14628 0.28886
# Poissons Ratio (z) = 0.19214 0.10979
#
# Static dielectric constant tensor:
#      x y z
#    x 1.725850 0.000000 0.000000 
#    y 0.000000 1.914600 0.000000 
#    z 0.000000 0.000000 1.780080 
# 
# From -- ./inp_files/14665.got.cif
#   From: 2010.05.17/outbox.cif.g08.bks.cpg/sg57_8_cif.got.tgz:14665.got - 2010.06.03 13:58:18.
