data_PCOD9440343
_publ_section_title
;
Structure prediction by ZEFSAII (Michael W. Deem and Ramdas Pophale) SiO2 
 PCOD9440343
Probable space group: P B C M
;
_chemical_formula_sum "Si O2"
_cell_formula_units_Z 32
_cell_length_a 4.813389
_cell_length_b 8.295842
_cell_length_c 32.497475
_cell_angle_alpha 90.000000
_cell_angle_beta 90.000000
_cell_angle_gamma 90.000000
_cell_volume 1297.660399
_symmetry_space_group_name_H-M "P B C M"
_symmetry_group_IT_number 57
_symmetry_cell_setting 'orthorhombic'
loop_
_space_group_symop_operation_xyz
x,y,z
-x,-y,1/2+z
x,1/2-y,-z
-x,1/2+y,1/2-z
-x,-y,-z
x,y,1/2-z
-x,1/2+y,z
x,1/2-y,1/2+z
loop_
_atom_site_type_symbol
_atom_site_label
_atom_site_fract_x
_atom_site_fract_y
_atom_site_fract_z
Si Si1 0.595037 0.484482 0.046793
Si Si2 0.412134 0.034992 0.702670
Si Si3 0.108157 0.720372 0.828527
Si Si4 0.113993 0.831727 0.921441
O O1 0.330551 0.519706 0.075795
O O2 0.733567 0.312880 0.055114
O O3 0.831798 0.614444 0.057202
O O4 0.500000 0.500000 0.000000
O O5 0.501347 0.046007 0.750000
O O6 0.677735 0.070369 0.674250
O O7 0.176426 0.167024 0.692482
O O8 0.265462 0.865007 0.694411
O O9 0.064276 0.775704 0.875087
#
# Coordination Sequence:
#
# PCOD9440343 Si02
#       4
#     8   8   8   8
#     4  12  26  45  71 102 138 179 227 286 344 407
#     4  12  24  42  66 100 136 176 224 278 337 402
#     4  12  25  44  70  99 136 182 227 281 340 406
#     4  12  25  47  70 101 136 179 230 281 341 409
#
# _framework density 24.659766999999999
#
# number of rings (size 3 to 8) (size 9 to 14) (size 15 to 20)
#    0.000    0.000    0.000   11.250    0.000    2.000 
#    0.000    0.000    0.000    0.000    0.000    0.000 
#    0.000    0.000    0.000    0.000    0.000    0.000 
#
# Total GULP energy -179815.937832 kJ/mol
# GULP energy per Si atom -5619.248057 kJ/mol
# Density = 2.460364 g / cm^3
# Si number density = 24.659767 Si / 1000 Ang^3
#
#
#
# Elastic Constant Matrix: (Units=GPa)
#
#
# Indices 1 2 3 4 5 6 
#
# 1 120.3929 19.5946 28.6118 0.0000 0.0000 0.0000
# 2 19.5946 73.8483 16.1865 0.0000 0.0000 0.0000
# 3 28.6118 16.1865 109.0631 0.0000 0.0000 0.0000
# 4 0.0000 0.0000 0.0000 43.6716 0.0000 0.0000
# 5 0.0000 0.0000 0.0000 0.0000 -121.7315 0.0000
# 6 0.0000 0.0000 0.0000 0.0000 0.0000 53.8022
#
#
#
# Elastic Compliance Matrix: (Units=1/GPa)
#
#
# Indices 1 2 3 4 5 6 
#
# 1 0.009125 -0.001960 -0.002103 0.000000 0.000000 0.000000
# 2 -0.001960 0.014418 -0.001626 0.000000 0.000000 0.000000
# 3 -0.002103 -0.001626 0.009962 0.000000 0.000000 0.000000
# 4 0.000000 0.000000 0.000000 0.022898 0.000000 0.000000
# 5 0.000000 0.000000 0.000000 0.000000 -0.008215 0.000000
# 6 0.000000 0.000000 0.000000 0.000000 0.000000 0.018587
#
#
# Mechanical properties :
#
#
# Convention : Reuss Voigt Hill
#
# Bulk Modulus (GPa) = 45.19329 48.00999 46.60164
# Shear Modulus (GPa) = 58.46061 11.07589 34.76825
#
# Velocity S-wave (km/s) = 4.87425 2.12161 3.75896
# Velocity P-wave (km/s) = 7.07420 5.05103 6.14643
#
# Compressibility (1/GPa) = 0.02212718
#
# Stress axis : x y z
#
# Youngs Moduli (GPa) = 109.58969 69.35923 100.38201
#
# Poissons Ratio (x) = 0.13596 0.21110
# Poissons Ratio (y) = 0.21482 0.16317
# Poissons Ratio (z) = 0.23046 0.11275
#
# Static dielectric constant tensor:
#      x y z
#    x 1.926020 0.000000 0.000000 
#    y 0.000000 2.031770 0.000000 
#    z 0.000000 0.000000 1.862110 
# 
# From -- ./inp_files/28975.got.cif
#   From: 2010.05.17/outbox.cif.g08.bks.cpg/sg57_15_cif.got.tgz:28975.got - 2010.06.03 13:58:18.
