data_PCOD9440507
_publ_section_title
;
Structure prediction by ZEFSAII (Michael W. Deem and Ramdas Pophale) SiO2 
 PCOD9440507
Probable space group: P B C M
;
_chemical_formula_sum "Si O2"
_cell_formula_units_Z 64
_cell_length_a 18.000000
_cell_length_b 21.000000
_cell_length_c 9.000000
_cell_angle_alpha 90.000000
_cell_angle_beta 90.000000
_cell_angle_gamma 90.000000
_cell_volume 3402.000000
_symmetry_space_group_name_H-M "P B C M"
_symmetry_group_IT_number 57
_symmetry_cell_setting 'orthorhombic'
loop_
_space_group_symop_operation_xyz
x,y,z
-x,-y,1/2+z
x,1/2-y,-z
-x,1/2+y,1/2-z
-x,-y,-z
x,y,1/2-z
-x,1/2+y,z
x,1/2-y,1/2+z
loop_
_atom_site_type_symbol
_atom_site_label
_atom_site_fract_x
_atom_site_fract_y
_atom_site_fract_z
Si Si1 0.081841 0.666318 0.919061
Si Si2 0.920127 0.688997 0.571806
Si Si3 0.496096 0.429903 0.927412
Si Si4 0.642675 0.418894 0.426959
Si Si5 0.756439 0.312138 0.070402
Si Si6 0.923653 0.015249 0.916288
Si Si7 0.665658 0.568280 0.426535
Si Si8 0.184155 0.428535 0.074730
O O1 0.081725 0.692432 0.750000
O O2 0.159668 0.683842 0.990567
O O3 0.081297 0.590654 0.907189
O O4 0.003758 0.683905 0.990838
O O5 0.882940 0.750000 0.500000
O O6 0.923248 0.694676 0.750000
O O7 0.875724 0.625595 0.539301
O O8 0.499532 0.436318 0.750000
O O9 0.414781 0.402968 0.965089
O O10 0.500000 0.500000 0.000000
O O11 0.568562 0.396243 0.990205
O O12 0.630124 0.415144 0.250000
O O13 0.711343 0.375007 0.467859
O O14 0.659427 0.492625 0.460244
O O15 0.758469 0.308231 0.250000
O O16 0.720224 0.250000 0.000000
O O17 0.927245 0.988371 0.750000
O O18 0.850113 0.989730 0.995229
O O19 0.000000 0.000000 0.000000
O O20 0.677602 0.574918 0.250000
O O21 0.736272 0.591957 0.514662
O O22 0.186908 0.438558 0.250000
#
# Coordination Sequence:
#
# PCOD9440507 Si02
#       8
#     8   8   8   8   8   8   8   8
#     4   9  18  35  54  71 101 136 168 213 262 303
#     4  10  21  37  53  71  96 130 174 217 256 301
#     4   9  17  30  51  78 107 135 165 202 249 306
#     4   9  18  33  52  76 107 140 173 208 259 314
#     4  10  20  34  52  73 101 140 178 217 260 306
#     4  11  20  34  54  76 105 137 170 213 265 317
#     4   9  18  33  53  79 106 135 169 207 260 319
#     4  11  22  35  51  77 108 136 171 214 260 308
#
# _framework density 18.812463000000001
#
# number of rings (size 3 to 8) (size 9 to 14) (size 15 to 20)
#    0.000    2.250    1.250    3.000    0.000    6.000 
#    0.000    2.500    0.000    0.750    0.000    0.000 
#    0.000    0.000    0.000    0.000    0.000    0.000 
#
# Total GULP energy -356442.227186 kJ/mol
# GULP energy per Si atom -5569.409800 kJ/mol
# Density = 1.876965 g / cm^3
# Si number density = 18.812463 Si / 1000 Ang^3
#
#
#
# Elastic Constant Matrix: (Units=GPa)
#
#
# Indices 1 2 3 4 5 6 
#
# 1 118.5710 16.1227 42.6614 0.0000 0.0000 0.0000
# 2 16.1227 36.9924 18.5716 0.0000 0.0000 0.0000
# 3 42.6614 18.5716 11.8386 0.0000 0.0000 0.0000
# 4 0.0000 0.0000 0.0000 18.9375 0.0000 0.0000
# 5 0.0000 0.0000 0.0000 0.0000 25.2981 0.0000
# 6 0.0000 0.0000 0.0000 0.0000 0.0000 -18.9873
#
#
#
# Elastic Compliance Matrix: (Units=1/GPa)
#
#
# Indices 1 2 3 4 5 6 
#
# 1 -0.002751 -0.017781 0.037805 0.000000 0.000000 0.000000
# 2 -0.017781 0.012307 0.044768 0.000000 0.000000 0.000000
# 3 0.037805 0.044768 -0.121992 0.000000 0.000000 0.000000
# 4 0.000000 0.000000 0.000000 0.052805 0.000000 0.000000
# 5 0.000000 0.000000 0.000000 0.000000 0.039529 0.000000
# 6 0.000000 0.000000 0.000000 0.000000 0.000000 -0.052667
#
#
# Mechanical properties :
#
#
# Convention : Reuss Voigt Hill
#
# Bulk Modulus (GPa) = 58.31409 35.79036 47.05222
# Shear Modulus (GPa) = -25.42777 11.05275 -7.18751
#
# Velocity S-wave (km/s) = -3.68046 2.42652 -1.95676
# Velocity P-wave (km/s) = 3.60608 5.18814 4.46769
#
# Compressibility (1/GPa) = 0.01714852
#
# Stress axis : x y z
#
# Youngs Moduli (GPa) = -363.56717 81.25458 -8.19728
#
# Poissons Ratio (x) = 1.44476 0.30990
# Poissons Ratio (y) = -6.46447 0.36697
# Poissons Ratio (z) = 13.74458 -3.63758
#
# Static dielectric constant tensor:
#      x y z
#    x 1.702430 0.000000 0.000000 
#    y 0.000000 1.643240 0.000000 
#    z 0.000000 0.000000 1.618140 
# 
# From -- ./inp_files/7120.got.cif
#   From: 2010.05.17/outbox.ucp.g08.bks.cvg/sg57_4_cif.got.tgz:7120.got - 2010.06.11 16:39:23.
