data_PCOD9440647
_publ_section_title
;
Structure prediction by ZEFSAII (Michael W. Deem and Ramdas Pophale) SiO2 
 PCOD9440647
Probable space group: P B C M
;
_chemical_formula_sum "Si O2"
_cell_formula_units_Z 64
_cell_length_a 12.000000
_cell_length_b 12.000000
_cell_length_c 24.000000
_cell_angle_alpha 90.000000
_cell_angle_beta 90.000000
_cell_angle_gamma 90.000000
_cell_volume 3456.000000
_symmetry_space_group_name_H-M "P B C M"
_symmetry_group_IT_number 57
_symmetry_cell_setting 'orthorhombic'
loop_
_space_group_symop_operation_xyz
x,y,z
-x,-y,1/2+z
x,1/2-y,-z
-x,1/2+y,1/2-z
-x,-y,-z
x,y,1/2-z
-x,1/2+y,z
x,1/2-y,1/2+z
loop_
_atom_site_type_symbol
_atom_site_label
_atom_site_fract_x
_atom_site_fract_y
_atom_site_fract_z
Si Si1 0.484245 0.127837 0.025159
Si Si2 0.668588 0.685162 0.315873
Si Si3 0.213836 0.782849 0.316568
Si Si4 0.774192 0.623011 0.495991
Si Si5 0.833566 0.983997 0.878645
Si Si6 0.579332 0.370327 0.648347
Si Si7 0.934619 0.439164 0.816578
Si Si8 0.736932 0.577973 0.629402
O O1 0.544123 0.132663 0.084053
O O2 0.519543 0.250000 0.000000
O O3 0.351113 0.136141 0.027002
O O4 0.500000 0.000000 0.000000
O O5 0.697374 0.694306 0.250000
O O6 0.740773 0.590906 0.347225
O O7 0.537786 0.651204 0.320430
O O8 0.698120 0.800914 0.348154
O O9 0.215306 0.814229 0.250000
O O10 0.189414 0.888172 0.357403
O O11 0.330977 0.723113 0.332940
O O12 0.122657 0.683158 0.323066
O O13 0.822907 0.750000 0.500000
O O14 0.829116 0.546406 0.445938
O O15 0.759534 0.580796 0.561300
O O16 0.952317 0.949275 0.851985
O O17 0.642391 0.489880 0.650396
O O18 0.953111 0.456620 0.750000
O O19 0.848484 0.531396 0.840754
#
# Coordination Sequence:
#
# PCOD9440647 Si02
#       8
#     8   8   8   8   8   8   8   8
#     4  11  22  37  63  92 131 183 222 270 327 409
#     4  12  25  39  65  98 129 172 223 273 335 407
#     4  10  24  44  65  96 135 171 219 287 346 409
#     4  11  22  42  63  97 137 172 224 277 330 401
#     4  12  25  42  70  99 130 173 230 283 335 399
#     4  11  24  40  64  95 135 173 220 268 347 396
#     4  10  24  47  70  95 131 178 223 275 341 403
#     4  11  24  45  68  95 132 183 219 270 338 407
#
# _framework density 18.518519000000001
#
# number of rings (size 3 to 8) (size 9 to 14) (size 15 to 20)
#    0.000    1.000    3.750    2.625    5.250    2.000 
#    0.000    1.875    0.000    0.000    0.000    0.000 
#    0.000    0.000    0.000    0.000    0.000    0.000 
#
# Total GULP energy -356738.895527 kJ/mol
# GULP energy per Si atom -5574.045243 kJ/mol
# Density = 1.847637 g / cm^3
# Si number density = 18.518519 Si / 1000 Ang^3
#
#
#
# Elastic Constant Matrix: (Units=GPa)
#
#
# Indices 1 2 3 4 5 6 
#
# 1 105.6543 30.5023 28.2287 0.0000 0.0000 0.0000
# 2 30.5023 129.1787 44.0894 0.0000 0.0000 0.0000
# 3 28.2287 44.0894 137.5041 0.0000 0.0000 0.0000
# 4 0.0000 0.0000 0.0000 38.9258 0.0000 0.0000
# 5 0.0000 0.0000 0.0000 0.0000 34.3520 0.0000
# 6 0.0000 0.0000 0.0000 0.0000 0.0000 23.2810
#
#
#
# Elastic Compliance Matrix: (Units=1/GPa)
#
#
# Indices 1 2 3 4 5 6 
#
# 1 0.010432 -0.001945 -0.001518 0.000000 0.000000 0.000000
# 2 -0.001945 0.009055 -0.002504 0.000000 0.000000 0.000000
# 3 -0.001518 -0.002504 0.008387 0.000000 0.000000 0.000000
# 4 0.000000 0.000000 0.000000 0.025690 0.000000 0.000000
# 5 0.000000 0.000000 0.000000 0.000000 0.029110 0.000000
# 6 0.000000 0.000000 0.000000 0.000000 0.000000 0.042953
#
#
# Mechanical properties :
#
#
# Convention : Reuss Voigt Hill
#
# Bulk Modulus (GPa) = 62.73616 64.21977 63.47797
# Shear Modulus (GPa) = 34.99549 37.27956 36.13753
#
# Velocity S-wave (km/s) = 4.35185 4.49162 4.42229
# Velocity P-wave (km/s) = 7.69432 7.85198 7.77355
#
# Compressibility (1/GPa) = 0.01593977
#
# Stress axis : x y z
#
# Youngs Moduli (GPa) = 95.85936 110.43390 119.23136
#
# Poissons Ratio (x) = 0.21481 0.18098
# Poissons Ratio (y) = 0.18646 0.29857
# Poissons Ratio (z) = 0.14551 0.27654
#
# Static dielectric constant tensor:
#      x y z
#    x 1.641290 0.000000 0.000000 
#    y 0.000000 1.677790 0.000000 
#    z 0.000000 0.000000 1.658770 
# 
# From -- ./inp_files/27279.got.cif
#   From: 2010.05.17/outbox.ucp.g08.bks.cvg/sg57_14_cif.got.tgz:27279.got - 2010.06.11 16:39:23.
