data_PCOD9440847
_publ_section_title
;
Structure prediction by ZEFSAII (Michael W. Deem and Ramdas Pophale) SiO2 
 PCOD9440847
Probable space group: P N N M
;
_chemical_formula_sum "Si O2"
_cell_formula_units_Z 48
_cell_length_a 14.425264
_cell_length_b 9.237140
_cell_length_c 20.303481
_cell_angle_alpha 90.000000
_cell_angle_beta 90.000000
_cell_angle_gamma 90.000000
_cell_volume 2705.401954
_symmetry_space_group_name_H-M "P N N M"
_symmetry_group_IT_number 58
_symmetry_cell_setting 'orthorhombic'
loop_
_space_group_symop_operation_xyz
x,y,z
-x,-y,z
1/2+x,1/2-y,1/2-z
1/2-x,1/2+y,1/2-z
-x,-y,-z
x,y,-z
1/2-x,1/2+y,1/2+z
1/2+x,1/2-y,1/2+z
loop_
_atom_site_type_symbol
_atom_site_label
_atom_site_fract_x
_atom_site_fract_y
_atom_site_fract_z
Si Si1 0.393190 0.187685 0.500000
Si Si2 0.648379 0.144302 0.353901
Si Si3 0.002511 0.334388 0.254548
Si Si4 0.280234 0.177296 0.625778
Si Si5 0.105771 0.335039 0.000000
Si Si6 0.094256 0.083672 0.333914
Si Si7 0.688087 0.670211 0.756288
O O1 0.336004 0.235298 0.563664
O O2 0.501229 0.226079 0.500000
O O3 0.394738 0.011207 0.500000
O O4 0.551124 0.174953 0.317417
O O5 0.650203 0.199871 0.428970
O O6 0.731261 0.203579 0.308529
O O7 0.664526 0.969920 0.353657
O O8 0.061947 0.232364 0.301693
O O9 0.000000 0.500000 0.274589
O O10 0.899489 0.274997 0.259334
O O11 0.175491 0.118574 0.614085
O O12 0.275811 0.297667 0.683004
O O13 0.145573 0.984897 0.278037
O O14 0.000000 0.000000 0.355220
#
# Coordination Sequence:
#
# PCOD9440847 Si02
#       7
#     4   8   8   8   4   8   8
#     4   9  18  28  51  79 109 140 175 218 272 322
#     4  10  19  31  51  80 110 138 177 218 266 319
#     4  11  19  31  53  80 105 134 178 219 266 320
#     4  10  17  32  50  79 110 141 180 217 269 322
#     4   9  18  30  46  77 113 137 170 222 266 323
#     4   9  20  33  47  76 112 138 174 228 270 312
#     4  10  19  31  52  77 108 139 175 223 268 312
#
# _framework density 17.742279
#
# number of rings (size 3 to 8) (size 9 to 14) (size 15 to 20)
#    0.000    2.167    3.333    1.000    2.333    0.000 
#    0.000    0.417    0.000    4.000    0.000    5.833 
#    0.000    0.000    0.000    0.000    0.000    0.000 
#
# Total GULP energy -267206.651699 kJ/mol
# GULP energy per Si atom -5566.805244 kJ/mol
# Density = 1.770190 g / cm^3
# Si number density = 17.742279 Si / 1000 Ang^3
#
#
#
# Elastic Constant Matrix: (Units=GPa)
#
#
# Indices 1 2 3 4 5 6 
#
# 1 117.3007 25.6597 65.3637 0.0000 0.0000 0.0000
# 2 25.6597 48.4918 14.9212 0.0000 0.0000 0.0000
# 3 65.3637 14.9212 110.5560 0.0000 0.0000 0.0000
# 4 0.0000 0.0000 0.0000 15.2769 0.0000 0.0000
# 5 0.0000 0.0000 0.0000 0.0000 22.4748 0.0000
# 6 0.0000 0.0000 0.0000 0.0000 0.0000 19.3779
#
#
#
# Elastic Compliance Matrix: (Units=1/GPa)
#
#
# Indices 1 2 3 4 5 6 
#
# 1 0.013782 -0.004993 -0.007475 0.000000 0.000000 0.000000
# 2 -0.004993 0.023324 -0.000196 0.000000 0.000000 0.000000
# 3 -0.007475 -0.000196 0.013491 0.000000 0.000000 0.000000
# 4 0.000000 0.000000 0.000000 0.065459 0.000000 0.000000
# 5 0.000000 0.000000 0.000000 0.000000 0.044494 0.000000
# 6 0.000000 0.000000 0.000000 0.000000 0.000000 0.051605
#
#
# Mechanical properties :
#
#
# Convention : Reuss Voigt Hill
#
# Bulk Modulus (GPa) = 39.57201 54.24864 46.91032
# Shear Modulus (GPa) = 20.33293 22.78618 21.55956
#
# Velocity S-wave (km/s) = 3.38896 3.58758 3.48968
# Velocity P-wave (km/s) = 6.13723 6.91399 6.53716
#
# Compressibility (1/GPa) = 0.02527039
#
# Stress axis : x y z
#
# Youngs Moduli (GPa) = 72.55590 42.87350 74.12421
#
# Poissons Ratio (x) = 0.21407 0.55406
# Poissons Ratio (y) = 0.36228 0.01452
# Poissons Ratio (z) = 0.54233 0.00840
#
# Static dielectric constant tensor:
#      x y z
#    x 1.653440 0.000000 0.000000 
#    y 0.000000 1.616380 0.000000 
#    z 0.000000 0.000000 1.611830 
# 
# From -- ./inp_files/25317.got.cif
#   From: 2010.05.17/outbox.cif.g08.bks.cpg/sg58_13_cif.got.tgz:25317.got - 2010.06.03 14:20:14.
