data_PCOD9440695
_publ_section_title
;
Structure prediction by ZEFSAII (Michael W. Deem and Ramdas Pophale) SiO2 
 PCOD9440695
Probable space group: P N N M
;
_chemical_formula_sum "Si O2"
_cell_formula_units_Z 48
_cell_length_a 13.316873
_cell_length_b 13.292083
_cell_length_c 11.224101
_cell_angle_alpha 90.000000
_cell_angle_beta 90.000000
_cell_angle_gamma 90.000000
_cell_volume 1986.766683
_symmetry_space_group_name_H-M "P N N M"
_symmetry_group_IT_number 58
_symmetry_cell_setting 'orthorhombic'
loop_
_space_group_symop_operation_xyz
x,y,z
-x,-y,z
1/2+x,1/2-y,1/2-z
1/2-x,1/2+y,1/2-z
-x,-y,-z
x,y,-z
1/2-x,1/2+y,1/2+z
1/2+x,1/2-y,1/2+z
loop_
_atom_site_type_symbol
_atom_site_label
_atom_site_fract_x
_atom_site_fract_y
_atom_site_fract_z
Si Si1 0.058849 0.318377 0.368807
Si Si2 0.719824 0.922378 0.771317
Si Si3 0.070872 0.093114 0.638578
Si Si4 0.716412 0.622877 0.624545
Si Si5 0.814194 0.203684 0.365593
Si Si6 0.604461 0.085500 0.366884
O O1 0.026534 0.357790 0.500000
O O2 0.022661 0.204254 0.354375
O O3 0.180982 0.312289 0.376404
O O4 0.039997 0.380925 0.248605
O O5 0.739501 0.010878 0.865743
O O6 0.652805 0.977847 0.669984
O O7 0.828665 0.903442 0.715059
O O8 0.680316 0.821677 0.833463
O O9 0.098550 0.077115 0.500000
O O10 0.000000 0.000000 0.671784
O O11 0.661456 0.638758 0.500000
O O12 0.656053 0.647028 0.743325
O O13 0.850787 0.180797 0.500000
O O14 0.697769 0.164028 0.371261
O O15 0.560771 0.086762 0.500000
#
# Coordination Sequence:
#
# PCOD9440695 Si02
#       6
#     8   8   8   8   8   8
#     4   8  14  27  41  57  81 111 144 181 219 256
#     4  10  16  27  42  63  89 121 151 187 224 270
#     4  10  18  27  42  64  92 127 160 187 220 269
#     4   9  17  27  43  63  84 116 151 187 229 269
#     4   9  16  26  41  60  85 114 143 182 226 265
#     4   9  17  26  41  62  82 113 149 187 226 265
#
# _framework density 24.159858
#
# number of rings (size 3 to 8) (size 9 to 14) (size 15 to 20)
#    0.000    3.167    3.333    1.000    0.000    2.000 
#    0.000    0.000    0.000    4.500    0.000    0.000 
#    0.000   21.333    0.000  158.667    0.000    6.000 
#
# Total GULP energy -267762.932435 kJ/mol
# GULP energy per Si atom -5578.394426 kJ/mol
# Density = 2.410487 g / cm^3
# Si number density = 24.159858 Si / 1000 Ang^3
#
#
#
# Elastic Constant Matrix: (Units=GPa)
#
#
# Indices 1 2 3 4 5 6 
#
# 1 42.5043 2.3015 34.1036 0.0000 0.0000 0.0000
# 2 2.3015 110.2752 47.0194 0.0000 0.0000 0.0000
# 3 34.1036 47.0194 247.7947 0.0000 0.0000 0.0000
# 4 0.0000 0.0000 0.0000 -18.6550 0.0000 0.0000
# 5 0.0000 0.0000 0.0000 0.0000 -2.7837 0.0000
# 6 0.0000 0.0000 0.0000 0.0000 0.0000 41.3110
#
#
#
# Elastic Compliance Matrix: (Units=1/GPa)
#
#
# Indices 1 2 3 4 5 6 
#
# 1 0.026568 0.001093 -0.003864 0.000000 0.000000 0.000000
# 2 0.001093 0.009911 -0.002031 0.000000 0.000000 0.000000
# 3 -0.003864 -0.002031 0.004953 0.000000 0.000000 0.000000
# 4 0.000000 0.000000 0.000000 -0.053605 0.000000 0.000000
# 5 0.000000 0.000000 0.000000 0.000000 -0.359232 0.000000
# 6 0.000000 0.000000 0.000000 0.000000 0.000000 0.024207
#
#
# Mechanical properties :
#
#
# Convention : Reuss Voigt Hill
#
# Bulk Modulus (GPa) = 31.41865 63.04701 47.23283
# Shear Modulus (GPa) = -15.29123 25.11777 4.91327
#
# Velocity S-wave (km/s) = -2.51852 3.22786 1.42761
# Velocity P-wave (km/s) = 2.13904 6.32807 4.72335
#
# Compressibility (1/GPa) = 0.03182823
#
# Stress axis : x y z
#
# Youngs Moduli (GPa) = 37.63913 100.89341 201.90617
#
# Poissons Ratio (x) = -0.11028 0.78015
# Poissons Ratio (y) = -0.04114 0.41010
# Poissons Ratio (z) = 0.14543 0.20493
#
# Static dielectric constant tensor:
#      x y z
#    x 2.003840 0.000000 0.000000 
#    y 0.000000 1.950160 0.000000 
#    z 0.000000 0.000000 1.928040 
# 
# From -- ./inp_files/16351.got.cif
#   From: 2010.05.17/outbox.cif.g08.bks.cpg/sg58_9_cif.got.tgz:16351.got - 2010.06.03 14:20:14.
