data_PCOD9440698
_publ_section_title
;
Structure prediction by ZEFSAII (Michael W. Deem and Ramdas Pophale) SiO2 
 PCOD9440698
Probable space group: P N N M
;
_chemical_formula_sum "Si O2"
_cell_formula_units_Z 64
_cell_length_a 14.640874
_cell_length_b 11.294085
_cell_length_c 19.020508
_cell_angle_alpha 90.000000
_cell_angle_beta 90.000000
_cell_angle_gamma 90.000000
_cell_volume 3145.141339
_symmetry_space_group_name_H-M "P N N M"
_symmetry_group_IT_number 58
_symmetry_cell_setting 'orthorhombic'
loop_
_space_group_symop_operation_xyz
x,y,z
-x,-y,z
1/2+x,1/2-y,1/2-z
1/2-x,1/2+y,1/2-z
-x,-y,-z
x,y,-z
1/2-x,1/2+y,1/2+z
1/2+x,1/2-y,1/2+z
loop_
_atom_site_type_symbol
_atom_site_label
_atom_site_fract_x
_atom_site_fract_y
_atom_site_fract_z
Si Si1 0.877823 0.297187 0.691177
Si Si2 0.238597 0.835207 0.420638
Si Si3 0.637024 0.052434 0.239789
Si Si4 0.030311 0.875977 0.121529
Si Si5 0.215500 0.798648 0.164594
Si Si6 0.719804 0.435206 0.847859
Si Si7 0.949274 0.624776 0.119828
Si Si8 0.465641 0.626481 0.782522
O O1 0.804724 0.260326 0.632165
O O2 0.896559 0.435789 0.699827
O O3 0.833067 0.247558 0.763498
O O4 0.972279 0.226714 0.682706
O O5 0.220611 0.800734 0.500000
O O6 0.347321 0.857555 0.410577
O O7 0.193625 0.962259 0.401431
O O8 0.714141 0.001229 0.293045
O O9 0.692535 0.134853 0.186561
O O10 0.567492 0.114763 0.294704
O O11 0.003991 0.742876 0.097010
O O12 0.982739 0.874835 0.198932
O O13 0.139393 0.880745 0.130063
O O14 0.000000 0.000000 0.086940
O O15 0.231160 0.679312 0.120191
O O16 0.639295 0.377958 0.802526
O O17 0.000000 0.500000 0.101426
O O18 0.500000 0.500000 0.809254
#
# Coordination Sequence:
#
# PCOD9440698 Si02
#       8
#     8   8   8   8   8   8   8   8
#     4  10  19  33  50  79 110 143 188 227 284 347
#     4  11  23  38  56  76 110 157 199 238 278 336
#     4  10  19  31  54  80 116 149 177 227 293 356
#     4  10  20  29  51  87 120 147 173 223 297 353
#     4  10  18  31  52  81 113 145 172 229 290 347
#     4  10  18  32  51  76 109 141 184 232 285 340
#     4  11  21  37  55  84 118 152 194 233 288 349
#     4  10  16  28  48  77 112 138 170 226 282 336
#
# _framework density 20.348846999999999
#
# number of rings (size 3 to 8) (size 9 to 14) (size 15 to 20)
#    0.000    1.750    3.750    5.250    3.500    0.250 
#    0.000    1.250    0.000    1.125    0.000    0.000 
#    0.000   13.500    0.000    0.000    0.000    0.000 
#
# Total GULP energy -356799.339376 kJ/mol
# GULP energy per Si atom -5574.989678 kJ/mol
# Density = 2.030253 g / cm^3
# Si number density = 20.348847 Si / 1000 Ang^3
#
#
#
# Elastic Constant Matrix: (Units=GPa)
#
#
# Indices 1 2 3 4 5 6 
#
# 1 42.6657 14.2628 0.2627 0.0000 0.0000 0.0000
# 2 14.2628 140.9442 6.1717 0.0000 0.0000 0.0000
# 3 0.2627 6.1717 30.2448 0.0000 0.0000 0.0000
# 4 0.0000 0.0000 0.0000 2.0821 0.0000 0.0000
# 5 0.0000 0.0000 0.0000 0.0000 5.1582 0.0000
# 6 0.0000 0.0000 0.0000 0.0000 0.0000 34.5512
#
#
#
# Elastic Compliance Matrix: (Units=1/GPa)
#
#
# Indices 1 2 3 4 5 6 
#
# 1 0.024261 -0.002468 0.000293 0.000000 0.000000 0.000000
# 2 -0.002468 0.007410 -0.001491 0.000000 0.000000 0.000000
# 3 0.000293 -0.001491 0.033365 0.000000 0.000000 0.000000
# 4 0.000000 0.000000 0.000000 0.480287 0.000000 0.000000
# 5 0.000000 0.000000 0.000000 0.000000 0.193865 0.000000
# 6 0.000000 0.000000 0.000000 0.000000 0.000000 0.028943
#
#
# Mechanical properties :
#
#
# Convention : Reuss Voigt Hill
#
# Bulk Modulus (GPa) = 17.32952 28.36102 22.84527
# Shear Modulus (GPa) = 6.29170 21.23547 13.76359
#
# Velocity S-wave (km/s) = 1.76029 3.23394 2.60356
# Velocity P-wave (km/s) = 3.55896 5.28320 4.50435
#
# Compressibility (1/GPa) = 0.05770500
#
# Stress axis : x y z
#
# Youngs Moduli (GPa) = 41.21806 134.95237 29.97135
#
# Poissons Ratio (x) = 0.33305 -0.00878
# Poissons Ratio (y) = 0.10172 0.04468
# Poissons Ratio (z) = -0.01207 0.20117
#
# Static dielectric constant tensor:
#      x y z
#    x 1.792320 0.000000 0.000000 
#    y 0.000000 1.801580 0.000000 
#    z 0.000000 0.000000 1.702020 
# 
# From -- ./inp_files/27025.got.cif
#   From: 2010.05.17/outbox.cif.g08.bks.cpg/sg58_14_cif.got.tgz:27025.got - 2010.06.03 14:20:14.
