data_PCOD9440011
_publ_section_title
;
Structure prediction by ZEFSAII (Michael W. Deem and Ramdas Pophale) SiO2 
 PCOD9440011
Probable space group: P B C M
;
_chemical_formula_sum "Si O2"
_cell_formula_units_Z 48
_cell_length_a 16.713283
_cell_length_b 18.716913
_cell_length_c 8.819688
_cell_angle_alpha 90.000000
_cell_angle_beta 90.000000
_cell_angle_gamma 90.000000
_cell_volume 2758.984183
_symmetry_space_group_name_H-M "P B C M"
_symmetry_group_IT_number 57
_symmetry_cell_setting 'orthorhombic'
loop_
_space_group_symop_operation_xyz
x,y,z
-x,-y,1/2+z
x,1/2-y,-z
-x,1/2+y,1/2-z
-x,-y,-z
x,y,1/2-z
-x,1/2+y,z
x,1/2-y,1/2+z
loop_
_atom_site_type_symbol
_atom_site_label
_atom_site_fract_x
_atom_site_fract_y
_atom_site_fract_z
Si Si1 0.653208 0.828158 0.069765
Si Si2 0.668134 0.100162 0.569359
Si Si3 0.165459 0.673239 0.567332
Si Si4 0.917539 0.472351 0.432819
Si Si5 0.516278 0.171278 0.069398
Si Si6 0.754158 0.549479 0.069339
O O1 0.646112 0.822726 0.250000
O O2 0.668569 0.750000 0.000000
O O3 0.568390 0.853161 0.999617
O O4 0.721009 0.883540 0.021003
O O5 0.654434 0.109273 0.750000
O O6 0.743822 0.149962 0.525968
O O7 0.589295 0.121502 0.479917
O O8 0.697290 0.019268 0.544021
O O9 0.145388 0.750000 0.500000
O O10 0.162910 0.676491 0.750000
O O11 0.107908 0.607925 0.519080
O O12 0.922106 0.471755 0.250000
O O13 0.843138 0.523787 0.473435
O O14 0.000000 0.500000 0.500000
O O15 0.510023 0.176250 0.250000
O O16 0.531499 0.250000 0.000000
O O17 0.753210 0.564478 0.250000
#
# Coordination Sequence:
#
# PCOD9440011 Si02
#       6
#     8   8   8   8   8   8
#     4  11  22  37  56  76 101 135 177 220 261 307
#     4   9  18  33  52  75 105 138 172 212 256 304
#     4   9  18  32  51  77 107 138 170 207 253 303
#     4   9  19  36  57  80 107 137 170 210 257 308
#     4  11  21  33  50  73 104 140 178 217 258 304
#     4   9  19  37  57  77 104 136 170 212 262 310
#
# _framework density 17.397707
#
# number of rings (size 3 to 8) (size 9 to 14) (size 15 to 20)
#    0.000    2.333    0.000    6.500    0.000    4.667 
#    0.000    4.167    0.000    2.000    0.000    0.000 
#    0.000    0.000    0.000    0.000    0.000    0.000 
#
# Total GULP energy -267904.282514 kJ/mol
# GULP energy per Si atom -5581.339219 kJ/mol
# Density = 1.735811 g / cm^3
# Si number density = 17.397707 Si / 1000 Ang^3
#
#
#
# Elastic Constant Matrix: (Units=GPa)
#
#
# Indices 1 2 3 4 5 6 
#
# 1 125.2079 86.2350 63.3982 0.0000 0.0000 0.0000
# 2 86.2350 95.9800 55.8639 0.0000 0.0000 0.0000
# 3 63.3982 55.8639 88.8384 0.0000 0.0000 0.0000
# 4 0.0000 0.0000 0.0000 29.4603 0.0000 0.0000
# 5 0.0000 0.0000 0.0000 0.0000 28.1867 0.0000
# 6 0.0000 0.0000 0.0000 0.0000 0.0000 19.0140
#
#
#
# Elastic Compliance Matrix: (Units=1/GPa)
#
#
# Indices 1 2 3 4 5 6 
#
# 1 0.022405 -0.017073 -0.005253 0.000000 0.000000 0.000000
# 2 -0.017073 0.029443 -0.006331 0.000000 0.000000 0.000000
# 3 -0.005253 -0.006331 0.018986 0.000000 0.000000 0.000000
# 4 0.000000 0.000000 0.000000 0.033944 0.000000 0.000000
# 5 0.000000 0.000000 0.000000 0.000000 0.035478 0.000000
# 6 0.000000 0.000000 0.000000 0.000000 0.000000 0.052593
#
#
# Mechanical properties :
#
#
# Convention : Reuss Voigt Hill
#
# Bulk Modulus (GPa) = 73.96059 80.11340 77.03700
# Shear Modulus (GPa) = 19.63325 22.30082 20.96704
#
# Velocity S-wave (km/s) = 3.36295 3.58414 3.47531
# Velocity P-wave (km/s) = 7.59495 7.95464 7.77688
#
# Compressibility (1/GPa) = 0.01352071
#
# Stress axis : x y z
#
# Youngs Moduli (GPa) = 44.63207 33.96402 52.66947
#
# Poissons Ratio (x) = 0.57986 0.27670
# Poissons Ratio (y) = 0.76200 0.33343
# Poissons Ratio (z) = 0.23447 0.21502
#
# Static dielectric constant tensor:
#      x y z
#    x 1.575070 0.000000 0.000000 
#    y 0.000000 1.583950 0.000000 
#    z 0.000000 0.000000 1.578370 
# 
# From -- ./inp_files/4676.got.cif
#   From: 2010.05.17/outbox.cif.g08.bks.cpg/sg57_3_cif.got.tgz:4676.got - 2010.06.03 13:58:18.
