data_PCOD9440630
_publ_section_title
;
Structure prediction by ZEFSAII (Michael W. Deem and Ramdas Pophale) SiO2 
 PCOD9440630
Probable space group: P B C M
;
_chemical_formula_sum "Si O2"
_cell_formula_units_Z 64
_cell_length_a 21.000000
_cell_length_b 9.000000
_cell_length_c 18.000000
_cell_angle_alpha 90.000000
_cell_angle_beta 90.000000
_cell_angle_gamma 90.000000
_cell_volume 3402.000000
_symmetry_space_group_name_H-M "P B C M"
_symmetry_group_IT_number 57
_symmetry_cell_setting 'orthorhombic'
loop_
_space_group_symop_operation_xyz
x,y,z
-x,-y,1/2+z
x,1/2-y,-z
-x,1/2+y,1/2-z
-x,-y,-z
x,y,1/2-z
-x,1/2+y,z
x,1/2-y,1/2+z
loop_
_atom_site_type_symbol
_atom_site_label
_atom_site_fract_x
_atom_site_fract_y
_atom_site_fract_z
Si Si1 0.333008 0.382435 0.556973
Si Si2 0.803560 0.898734 0.591897
Si Si3 0.685017 0.123446 0.055108
Si Si4 0.063234 0.436860 0.339748
Si Si5 0.067528 0.412437 0.838577
Si Si6 0.426341 0.878673 0.837580
Si Si7 0.438079 0.265274 0.161838
Si Si8 0.190177 0.055118 0.583183
O O1 0.312154 0.250000 0.500000
O O2 0.270347 0.443013 0.599573
O O3 0.352513 0.510825 0.500024
O O4 0.385841 0.317859 0.611513
O O5 0.863421 0.967646 0.634349
O O6 0.818910 0.925824 0.505193
O O7 0.801276 0.723480 0.612313
O O8 0.633995 0.175040 0.115315
O O9 0.745200 0.039247 0.091656
O O10 0.709825 0.250000 0.000000
O O11 0.068387 0.452072 0.250000
O O12 0.062296 0.261694 0.358401
O O13 0.126257 0.504210 0.378033
O O14 0.996290 0.506125 0.365252
O O15 0.067037 0.423935 0.750000
O O16 0.415692 0.853602 0.750000
O O17 0.491826 0.795705 0.857831
O O18 0.433743 0.056886 0.848586
O O19 0.427735 0.235198 0.250000
#
# Coordination Sequence:
#
# PCOD9440630 Si02
#       8
#     8   8   8   8   8   8   8   8
#     4  11  19  38  59  80 111 143 184 231 274 323
#     4   9  16  32  56  74 101 138 174 223 263 311
#     4  11  23  38  57  85 113 147 185 230 279 330
#     4   9  18  33  53  76 104 137 175 219 263 319
#     4   9  18  32  51  76 104 137 177 217 265 320
#     4  10  22  40  59  83 114 147 185 228 275 328
#     4  10  22  38  59  85 113 147 185 228 277 328
#     4   9  17  34  53  75 105 136 176 216 267 317
#
# _framework density 18.812463000000001
#
# number of rings (size 3 to 8) (size 9 to 14) (size 15 to 20)
#    0.000    2.250    3.750    0.000    1.750    2.500 
#    4.500    2.500    0.000    0.750    0.000    0.000 
#    0.000    0.000    0.000    0.000    0.000    0.000 
#
# Total GULP energy -356593.369856 kJ/mol
# GULP energy per Si atom -5571.771404 kJ/mol
# Density = 1.876965 g / cm^3
# Si number density = 18.812463 Si / 1000 Ang^3
#
#
#
# Elastic Constant Matrix: (Units=GPa)
#
#
# Indices 1 2 3 4 5 6 
#
# 1 142.6824 6.6986 45.1586 0.0000 0.0000 0.0000
# 2 6.6986 8.7279 8.8788 0.0000 0.0000 0.0000
# 3 45.1586 8.8788 20.6272 0.0000 0.0000 0.0000
# 4 0.0000 0.0000 0.0000 17.5962 0.0000 0.0000
# 5 0.0000 0.0000 0.0000 0.0000 -26.4639 0.0000
# 6 0.0000 0.0000 0.0000 0.0000 0.0000 30.7884
#
#
#
# Elastic Compliance Matrix: (Units=1/GPa)
#
#
# Indices 1 2 3 4 5 6 
#
# 1 0.093133 0.241837 -0.307990 0.000000 0.000000 0.000000
# 2 0.241837 0.831801 -0.887489 0.000000 0.000000 0.000000
# 3 -0.307990 -0.887489 1.104768 0.000000 0.000000 0.000000
# 4 0.000000 0.000000 0.000000 0.056830 0.000000 0.000000
# 5 0.000000 0.000000 0.000000 0.000000 -0.037787 0.000000
# 6 0.000000 0.000000 0.000000 0.000000 0.000000 0.032480
#
#
# Mechanical properties :
#
#
# Convention : Reuss Voigt Hill
#
# Bulk Modulus (GPa) = 8.16885 32.61216 20.39051
# Shear Modulus (GPa) = 1.24091 11.80425 6.52258
#
# Velocity S-wave (km/s) = 0.81305 2.50765 1.86405
# Velocity P-wave (km/s) = 2.28759 5.07518 3.93640
#
# Compressibility (1/GPa) = 0.12241619
#
# Stress axis : x y z
#
# Youngs Moduli (GPa) = 10.73734 1.20221 0.90517
#
# Poissons Ratio (x) = -0.29074 0.27878
# Poissons Ratio (y) = -2.59668 0.80333
# Poissons Ratio (z) = 3.30700 1.06695
#
# Static dielectric constant tensor:
#      x y z
#    x 1.662600 0.000000 0.000000 
#    y 0.000000 1.701590 0.000000 
#    z 0.000000 0.000000 1.642730 
# 
# From -- ./inp_files/23049.got.cif
#   From: 2010.05.17/outbox.ucp.g08.bks.cvg/sg57_12_cif.got.tgz:23049.got - 2010.06.11 16:39:23.
