data_PCOD9440946
_publ_section_title
;
Structure prediction by ZEFSAII (Michael W. Deem and Ramdas Pophale) SiO2 
 PCOD9440946
Probable space group: P N N M
;
_chemical_formula_sum "Si O2"
_cell_formula_units_Z 64
_cell_length_a 21.644861
_cell_length_b 9.723978
_cell_length_c 15.054007
_cell_angle_alpha 90.000000
_cell_angle_beta 90.000000
_cell_angle_gamma 90.000000
_cell_volume 3168.479360
_symmetry_space_group_name_H-M "P N N M"
_symmetry_group_IT_number 58
_symmetry_cell_setting 'orthorhombic'
loop_
_space_group_symop_operation_xyz
x,y,z
-x,-y,z
1/2+x,1/2-y,1/2-z
1/2-x,1/2+y,1/2-z
-x,-y,-z
x,y,-z
1/2-x,1/2+y,1/2+z
1/2+x,1/2-y,1/2+z
loop_
_atom_site_type_symbol
_atom_site_label
_atom_site_fract_x
_atom_site_fract_y
_atom_site_fract_z
Si Si1 0.118642 0.048663 0.891976
Si Si2 0.096618 0.739281 0.106606
Si Si3 0.341208 0.978655 0.601238
Si Si4 0.444835 0.900939 0.146338
Si Si5 0.956260 0.691573 0.152671
Si Si6 0.627163 0.843111 0.107551
Si Si7 0.735610 0.271652 0.608447
Si Si8 0.984210 0.149230 0.397247
O O1 0.068431 0.152649 0.852049
O O2 0.185912 0.110196 0.869069
O O3 0.108473 0.893310 0.861535
O O4 0.111864 0.054184 0.000000
O O5 0.142907 0.624266 0.144552
O O6 0.026587 0.691634 0.122479
O O7 0.105130 0.741883 0.000000
O O8 0.320640 0.004005 0.500000
O O9 0.406222 0.895942 0.598000
O O10 0.292760 0.872476 0.642413
O O11 0.452421 0.871399 0.249837
O O12 0.456893 0.751826 0.104564
O O13 0.500000 0.000000 0.112604
O O14 0.386390 0.997840 0.131162
O O15 0.694918 0.798548 0.137353
O O16 0.572769 0.739951 0.141792
O O17 0.625148 0.836651 0.000000
O O18 0.735594 0.265610 0.500000
O O19 0.967232 0.123562 0.500000
O O20 0.000000 0.000000 0.356943
#
# Coordination Sequence:
#
# PCOD9440946 Si02
#       8
#     8   8   8   8   8   8   8   8
#     4   9  18  31  48  73 104 136 172 212 246 284
#     4  10  18  28  45  72 104 137 171 206 247 290
#     4   9  17  29  47  71  99 129 164 205 240 279
#     4  10  20  32  49  73  98 125 161 203 246 302
#     4  11  19  29  46  69 100 137 171 203 243 293
#     4   9  17  33  57  76  94 126 163 202 257 317
#     4   8  15  30  51  72  93 124 163 199 241 293
#     4   9  18  33  52  75  99 118 146 199 259 308
#
# _framework density 20.198965000000001
#
# number of rings (size 3 to 8) (size 9 to 14) (size 15 to 20)
#    0.000    2.625    0.000    3.750    0.000    4.500 
#    0.000    1.250    0.000   21.000    0.000    0.000 
#    0.000    0.000    0.000    0.000    0.000    0.000 
#
# Total GULP energy -356753.791563 kJ/mol
# GULP energy per Si atom -5574.277993 kJ/mol
# Density = 2.015299 g / cm^3
# Si number density = 20.198965 Si / 1000 Ang^3
#
#
#
# Elastic Constant Matrix: (Units=GPa)
#
#
# Indices 1 2 3 4 5 6 
#
# 1 106.6517 66.4038 -1.4058 0.0000 0.0000 0.0000
# 2 66.4038 170.2037 5.8914 0.0000 0.0000 0.0000
# 3 -1.4058 5.8914 24.4149 0.0000 0.0000 0.0000
# 4 0.0000 0.0000 0.0000 17.9150 0.0000 0.0000
# 5 0.0000 0.0000 0.0000 0.0000 -12.5340 0.0000
# 6 0.0000 0.0000 0.0000 0.0000 0.0000 21.9814
#
#
#
# Elastic Compliance Matrix: (Units=1/GPa)
#
#
# Indices 1 2 3 4 5 6 
#
# 1 0.012472 -0.004932 0.001908 0.000000 0.000000 0.000000
# 2 -0.004932 0.007875 -0.002184 0.000000 0.000000 0.000000
# 3 0.001908 -0.002184 0.041596 0.000000 0.000000 0.000000
# 4 0.000000 0.000000 0.000000 0.055819 0.000000 0.000000
# 5 0.000000 0.000000 0.000000 0.000000 -0.079783 0.000000
# 6 0.000000 0.000000 0.000000 0.000000 0.000000 0.045493
#
#
# Mechanical properties :
#
#
# Convention : Reuss Voigt Hill
#
# Bulk Modulus (GPa) = 19.40736 49.22767 34.31752
# Shear Modulus (GPa) = 45.01928 20.83122 32.92525
#
# Velocity S-wave (km/s) = 4.72613 3.21487 4.04176
# Velocity P-wave (km/s) = 6.27779 6.18101 6.22959
#
# Compressibility (1/GPa) = 0.05152685
#
# Stress axis : x y z
#
# Youngs Moduli (GPa) = 80.17798 126.98237 24.04104
#
# Poissons Ratio (x) = 0.62628 -0.04588
# Poissons Ratio (y) = 0.39544 0.05251
# Poissons Ratio (z) = -0.15300 0.27736
#
# Static dielectric constant tensor:
#      x y z
#    x 1.710400 0.000000 0.000000 
#    y 0.000000 1.756480 0.000000 
#    z 0.000000 0.000000 1.750670 
# 
# From -- ./inp_files/27550.got.cif
#   From: 2010.05.17/outbox.cif.g08.bks.cpg/sg58_14_cif.got.tgz:27550.got - 2010.06.03 14:20:14.
