data_PCOD9440286
_publ_section_title
;
Structure prediction by ZEFSAII (Michael W. Deem and Ramdas Pophale) SiO2 
 PCOD9440286
Probable space group: P B C M
;
_chemical_formula_sum "Si O2"
_cell_formula_units_Z 32
_cell_length_a 4.648459
_cell_length_b 16.302344
_cell_length_c 16.861414
_cell_angle_alpha 90.000000
_cell_angle_beta 90.000000
_cell_angle_gamma 90.000000
_cell_volume 1277.771066
_symmetry_space_group_name_H-M "P B C M"
_symmetry_group_IT_number 57
_symmetry_cell_setting 'orthorhombic'
loop_
_space_group_symop_operation_xyz
x,y,z
-x,-y,1/2+z
x,1/2-y,-z
-x,1/2+y,1/2-z
-x,-y,-z
x,y,1/2-z
-x,1/2+y,z
x,1/2-y,1/2+z
loop_
_atom_site_type_symbol
_atom_site_label
_atom_site_fract_x
_atom_site_fract_y
_atom_site_fract_z
Si Si1 0.201184 0.977106 0.075030
Si Si2 0.926388 0.716791 0.339568
Si Si3 0.607983 0.296288 0.421851
Si Si4 0.269788 0.549455 0.158498
O O1 0.370543 0.892542 0.062767
O O2 0.958929 0.976786 0.143687
O O3 0.547815 0.960998 0.896739
O O4 0.000000 0.000000 0.000000
O O5 0.813873 0.710070 0.250000
O O6 0.686815 0.751596 0.398457
O O7 0.184393 0.780676 0.347821
O O8 0.084343 0.630992 0.359657
O O9 0.720284 0.250000 0.500000
O O10 0.361198 0.552190 0.250000
#
# Coordination Sequence:
#
# PCOD9440286 Si02
#       4
#     8   8   8   8
#     4  12  26  45  72 107 149 197 246 307 374 446
#     4  11  25  46  72 102 141 189 241 302 369 437
#     4  12  26  45  69 103 145 188 242 302 364 438
#     4  11  25  46  73 106 146 194 248 305 371 447
#
# _framework density 25.043607999999999
#
# number of rings (size 3 to 8) (size 9 to 14) (size 15 to 20)
#    0.000    0.500    0.000    7.500    0.000   14.000 
#    0.000    0.000    0.000    0.000    0.000    0.000 
#    0.000    0.000    0.000    0.000    0.000    0.000 
#
# Total GULP energy -179033.516788 kJ/mol
# GULP energy per Si atom -5594.797400 kJ/mol
# Density = 2.498661 g / cm^3
# Si number density = 25.043608 Si / 1000 Ang^3
#
#
#
# Elastic Constant Matrix: (Units=GPa)
#
#
# Indices 1 2 3 4 5 6 
#
# 1 144.6896 63.3539 60.8420 0.0000 0.0000 0.0000
# 2 63.3539 141.0716 75.0103 0.0000 0.0000 0.0000
# 3 60.8420 75.0103 131.1472 0.0000 0.0000 0.0000
# 4 0.0000 0.0000 0.0000 28.2630 0.0000 0.0000
# 5 0.0000 0.0000 0.0000 0.0000 40.5168 0.0000
# 6 0.0000 0.0000 0.0000 0.0000 0.0000 45.8561
#
#
#
# Elastic Compliance Matrix: (Units=1/GPa)
#
#
# Indices 1 2 3 4 5 6 
#
# 1 0.009246 -0.002689 -0.002751 0.000000 0.000000 0.000000
# 2 -0.002689 0.010969 -0.005026 0.000000 0.000000 0.000000
# 3 -0.002751 -0.005026 0.011776 0.000000 0.000000 0.000000
# 4 0.000000 0.000000 0.000000 0.035382 0.000000 0.000000
# 5 0.000000 0.000000 0.000000 0.000000 0.024681 0.000000
# 6 0.000000 0.000000 0.000000 0.000000 0.000000 0.021807
#
#
# Mechanical properties :
#
#
# Convention : Reuss Voigt Hill
#
# Bulk Modulus (GPa) = 90.43586 90.59119 90.51353
# Shear Modulus (GPa) = 36.10637 37.44065 36.77351
#
# Velocity S-wave (km/s) = 3.80114 3.87074 3.83610
# Velocity P-wave (km/s) = 7.44679 7.49858 7.47273
#
# Compressibility (1/GPa) = 0.01105756
#
# Stress axis : x y z
#
# Youngs Moduli (GPa) = 108.15773 91.16791 84.91882
#
# Poissons Ratio (x) = 0.24518 0.23362
# Poissons Ratio (y) = 0.29088 0.42680
# Poissons Ratio (z) = 0.29755 0.45821
#
# Static dielectric constant tensor:
#      x y z
#    x 1.990120 0.000000 0.000000 
#    y 0.000000 2.082270 0.000000 
#    z 0.000000 0.000000 2.022480 
# 
# From -- ./inp_files/14774.got.cif
#   From: 2010.05.17/outbox.cif.g08.bks.cpg/sg57_8_cif.got.tgz:14774.got - 2010.06.03 13:58:18.
