data_PCOD9440547
_publ_section_title
;
Structure prediction by ZEFSAII (Michael W. Deem and Ramdas Pophale) SiO2 
 PCOD9440547
Probable space group: P B C M
;
_chemical_formula_sum "Si O2"
_cell_formula_units_Z 56
_cell_length_a 12.000000
_cell_length_b 15.000000
_cell_length_c 15.000000
_cell_angle_alpha 90.000000
_cell_angle_beta 90.000000
_cell_angle_gamma 90.000000
_cell_volume 2700.000000
_symmetry_space_group_name_H-M "P B C M"
_symmetry_group_IT_number 57
_symmetry_cell_setting 'orthorhombic'
loop_
_space_group_symop_operation_xyz
x,y,z
-x,-y,1/2+z
x,1/2-y,-z
-x,1/2+y,1/2-z
-x,-y,-z
x,y,1/2-z
-x,1/2+y,z
x,1/2-y,1/2+z
loop_
_atom_site_type_symbol
_atom_site_label
_atom_site_fract_x
_atom_site_fract_y
_atom_site_fract_z
Si Si1 0.635158 0.983656 0.543134
Si Si2 0.012283 0.676918 0.358923
Si Si3 0.721092 0.960653 0.149325
Si Si4 0.260770 0.673615 0.350000
Si Si5 0.531331 0.157876 0.468017
Si Si6 0.869768 0.504876 0.358692
Si Si7 0.952778 0.634547 0.642626
O O1 0.649074 0.949406 0.440150
O O2 0.552656 0.909073 0.583912
O O3 0.751652 0.987065 0.593716
O O4 0.587055 0.084573 0.535372
O O5 0.019210 0.672219 0.250000
O O6 0.139041 0.691661 0.389206
O O7 0.949551 0.587396 0.385093
O O8 0.945737 0.764188 0.387502
O O9 0.686090 0.929428 0.250000
O O10 0.840387 0.918734 0.126424
O O11 0.735840 0.066461 0.156767
O O12 0.268652 0.712162 0.250000
O O13 0.366957 0.695714 0.408815
O O14 0.474803 0.250000 0.500000
O O15 0.857539 0.505094 0.250000
O O16 0.937445 0.417199 0.388335
O O17 0.963686 0.636841 0.750000
#
# Coordination Sequence:
#
# PCOD9440547 Si02
#       7
#     8   8   8   8   8   8   8
#     4  10  23  40  59  82 113 148 194 240 283 340
#     4   9  17  31  53  85 120 151 185 225 273 337
#     4   9  17  35  59  80 110 150 185 227 280 338
#     4   9  17  34  59  80 105 146 189 227 279 337
#     4  10  23  42  56  77 113 146 189 252 286 322
#     4  10  20  36  58  87 124 152 179 230 286 336
#     4   9  17  30  52  84 119 148 182 226 274 337
#
# _framework density 20.740741
#
# number of rings (size 3 to 8) (size 9 to 14) (size 15 to 20)
#    0.000    2.571    1.429    0.000    2.000    2.286 
#    0.000    2.857    0.000    0.000    0.000    0.000 
#    0.000    0.000    0.000    0.000    0.000    0.000 
#
# Total GULP energy -312017.349767 kJ/mol
# GULP energy per Si atom -5571.738389 kJ/mol
# Density = 2.069353 g / cm^3
# Si number density = 20.740741 Si / 1000 Ang^3
#
#
#
# Elastic Constant Matrix: (Units=GPa)
#
#
# Indices 1 2 3 4 5 6 
#
# 1 60.4997 10.9680 16.5746 0.0000 0.0000 0.0000
# 2 10.9680 73.3518 2.0749 0.0000 0.0000 0.0000
# 3 16.5746 2.0749 43.3924 0.0000 0.0000 0.0000
# 4 0.0000 0.0000 0.0000 7.9248 0.0000 0.0000
# 5 0.0000 0.0000 0.0000 0.0000 57.4003 0.0000
# 6 0.0000 0.0000 0.0000 0.0000 0.0000 13.9850
#
#
#
# Elastic Compliance Matrix: (Units=1/GPa)
#
#
# Indices 1 2 3 4 5 6 
#
# 1 0.018955 -0.002633 -0.007115 0.000000 0.000000 0.000000
# 2 -0.002633 0.014017 0.000335 0.000000 0.000000 0.000000
# 3 -0.007115 0.000335 0.025747 0.000000 0.000000 0.000000
# 4 0.000000 0.000000 0.000000 0.126186 0.000000 0.000000
# 5 0.000000 0.000000 0.000000 0.000000 0.017422 0.000000
# 6 0.000000 0.000000 0.000000 0.000000 0.000000 0.071505
#
#
# Mechanical properties :
#
#
# Convention : Reuss Voigt Hill
#
# Bulk Modulus (GPa) = 25.06554 26.27544 25.67049
# Shear Modulus (GPa) = 16.34227 25.70376 21.02302
#
# Velocity S-wave (km/s) = 2.81006 3.52417 3.18718
# Velocity P-wave (km/s) = 4.75815 5.40886 5.09390
#
# Compressibility (1/GPa) = 0.03989541
#
# Stress axis : x y z
#
# Youngs Moduli (GPa) = 52.75518 71.34110 38.83943
#
# Poissons Ratio (x) = 0.18785 0.27632
# Poissons Ratio (y) = 0.13891 -0.01303
# Poissons Ratio (z) = 0.37533 -0.02393
#
# Static dielectric constant tensor:
#      x y z
#    x 1.770890 0.000000 0.000000 
#    y 0.000000 1.733040 0.000000 
#    z 0.000000 0.000000 1.833100 
# 
# From -- ./inp_files/17736.got.cif
#   From: 2010.05.17/outbox.ucp.g08.bks.cvg/sg57_9_cif.got.tgz:17736.got - 2010.06.11 16:39:23.
