data_PCOD9440814
_publ_section_title
;
Structure prediction by ZEFSAII (Michael W. Deem and Ramdas Pophale) SiO2 
 PCOD9440814
Probable space group: P N N M
;
_chemical_formula_sum "Si O2"
_cell_formula_units_Z 48
_cell_length_a 17.864052
_cell_length_b 5.156001
_cell_length_c 30.267375
_cell_angle_alpha 90.000000
_cell_angle_beta 90.000000
_cell_angle_gamma 90.000000
_cell_volume 2787.839227
_symmetry_space_group_name_H-M "P N N M"
_symmetry_group_IT_number 58
_symmetry_cell_setting 'orthorhombic'
loop_
_space_group_symop_operation_xyz
x,y,z
-x,-y,z
1/2+x,1/2-y,1/2-z
1/2-x,1/2+y,1/2-z
-x,-y,-z
x,y,-z
1/2-x,1/2+y,1/2+z
1/2+x,1/2-y,1/2+z
loop_
_atom_site_type_symbol
_atom_site_label
_atom_site_fract_x
_atom_site_fract_y
_atom_site_fract_z
Si Si1 0.954607 0.751612 0.757873
Si Si2 0.284229 0.799818 0.228902
Si Si3 0.094022 0.198574 0.143431
Si Si4 0.083950 0.290152 0.951623
Si Si5 0.313475 0.289969 0.452673
Si Si6 0.698532 0.802270 0.359031
O O1 0.870806 0.743719 0.739527
O O2 0.950245 0.761378 0.811447
O O3 0.000000 0.500000 0.744607
O O4 0.000000 0.000000 0.742561
O O5 0.238632 0.591727 0.258381
O O6 0.257860 0.741463 0.179330
O O7 0.049693 0.241690 0.097041
O O8 0.159199 0.417714 0.143929
O O9 0.133481 0.917127 0.145208
O O10 0.119549 0.576744 0.951214
O O11 0.149810 0.074669 0.951607
O O12 0.045505 0.257442 0.000000
O O13 0.275083 0.255219 0.500000
O O14 0.268937 0.238605 0.408071
#
# Coordination Sequence:
#
# PCOD9440814 Si02
#       6
#     8   8   8   8   8   8
#     4  12  24  36  50  72 102 131 166 208 254 294
#     4  12  21  36  55  74  98 131 170 210 243 294
#     4  10  18  31  49  68  94 126 163 202 241 286
#     4   8  14  24  41  64  88 118 154 195 240 278
#     4   8  14  23  39  66  96 116 142 193 248 283
#     4  10  17  30  50  72  92 124 165 200 238 289
#
# _framework density 17.217635000000001
#
# number of rings (size 3 to 8) (size 9 to 14) (size 15 to 20)
#    0.000    2.000    3.333    2.000    0.000    0.000 
#    0.000    0.000    0.000    1.000    0.000    0.000 
#    0.000    1.333    0.000    0.000    0.000    1.667 
#
# Total GULP energy -267779.687438 kJ/mol
# GULP energy per Si atom -5578.743488 kJ/mol
# Density = 1.717845 g / cm^3
# Si number density = 17.217635 Si / 1000 Ang^3
#
#
#
# Elastic Constant Matrix: (Units=GPa)
#
#
# Indices 1 2 3 4 5 6 
#
# 1 66.6392 20.6644 28.6736 0.0000 0.0000 0.0000
# 2 20.6644 75.8886 8.8192 0.0000 0.0000 0.0000
# 3 28.6736 8.8192 116.0695 0.0000 0.0000 0.0000
# 4 0.0000 0.0000 0.0000 23.8148 0.0000 0.0000
# 5 0.0000 0.0000 0.0000 0.0000 2.3420 0.0000
# 6 0.0000 0.0000 0.0000 0.0000 0.0000 20.0149
#
#
#
# Elastic Compliance Matrix: (Units=1/GPa)
#
#
# Indices 1 2 3 4 5 6 
#
# 1 0.018178 -0.004467 -0.004151 0.000000 0.000000 0.000000
# 2 -0.004467 0.014393 0.000010 0.000000 0.000000 0.000000
# 3 -0.004151 0.000010 0.009640 0.000000 0.000000 0.000000
# 4 0.000000 0.000000 0.000000 0.041991 0.000000 0.000000
# 5 0.000000 0.000000 0.000000 0.000000 0.426982 0.000000
# 6 0.000000 0.000000 0.000000 0.000000 0.000000 0.049963
#
#
# Mechanical properties :
#
#
# Convention : Reuss Voigt Hill
#
# Bulk Modulus (GPa) = 40.01041 41.65686 40.83363
# Shear Modulus (GPa) = 8.52234 22.59702 15.55968
#
# Velocity S-wave (km/s) = 2.22722 3.62668 3.00943
# Velocity P-wave (km/s) = 5.46832 6.46405 5.98692
#
# Compressibility (1/GPa) = 0.02499350
#
# Stress axis : x y z
#
# Youngs Moduli (GPa) = 55.01267 69.48060 103.73177
#
# Poissons Ratio (x) = 0.31039 0.43060
# Poissons Ratio (y) = 0.24576 -0.00104
# Poissons Ratio (z) = 0.22836 -0.00070
#
# Static dielectric constant tensor:
#      x y z
#    x 1.527030 0.000000 0.000000 
#    y 0.000000 1.610640 0.000000 
#    z 0.000000 0.000000 1.662420 
# 
# From -- ./inp_files/33692.got.cif
#   From: 2010.05.17/outbox.cif.g08.bks.cpg/sg58_17_cif.got.tgz:33692.got - 2010.06.03 14:20:14.
