data_PCOD9440425
_publ_section_title
;
Structure prediction by ZEFSAII (Michael W. Deem and Ramdas Pophale) SiO2 
 PCOD9440425
Probable space group: P B C M
;
_chemical_formula_sum "Si O2"
_cell_formula_units_Z 64
_cell_length_a 24.000000
_cell_length_b 15.000000
_cell_length_c 9.000000
_cell_angle_alpha 90.000000
_cell_angle_beta 90.000000
_cell_angle_gamma 90.000000
_cell_volume 3240.000000
_symmetry_space_group_name_H-M "P B C M"
_symmetry_group_IT_number 57
_symmetry_cell_setting 'orthorhombic'
loop_
_space_group_symop_operation_xyz
x,y,z
-x,-y,1/2+z
x,1/2-y,-z
-x,1/2+y,1/2-z
-x,-y,-z
x,y,1/2-z
-x,1/2+y,z
x,1/2-y,1/2+z
loop_
_atom_site_type_symbol
_atom_site_label
_atom_site_fract_x
_atom_site_fract_y
_atom_site_fract_z
Si Si1 0.014640 0.905888 0.428121
Si Si2 0.105719 0.160551 0.926572
Si Si3 0.316017 0.462419 0.929119
Si Si4 0.862295 0.342680 0.428148
Si Si5 0.428227 0.410349 0.080659
Si Si6 0.349030 0.662746 0.925330
Si Si7 0.809453 0.527011 0.428570
Si Si8 0.538280 0.379615 0.581349
O O1 0.018029 0.916173 0.250000
O O2 0.959909 0.848249 0.462517
O O3 0.074483 0.868495 0.478134
O O4 0.000000 0.000000 0.500000
O O5 0.111365 0.162311 0.750000
O O6 0.127869 0.250000 0.000000
O O7 0.141277 0.080451 0.993608
O O8 0.322174 0.454158 0.750000
O O9 0.323283 0.567359 0.967347
O O10 0.252405 0.439825 0.970391
O O11 0.366883 0.411100 0.007651
O O12 0.845898 0.250000 0.500000
O O13 0.863751 0.333471 0.250000
O O14 0.820578 0.423359 0.463923
O O15 0.426748 0.377152 0.250000
O O16 0.448216 0.514128 0.086429
O O17 0.476733 0.365106 0.983728
O O18 0.345218 0.671633 0.750000
O O19 0.323411 0.750000 0.000000
O O20 0.413377 0.656972 0.976272
O O21 0.814617 0.536208 0.250000
O O22 0.543259 0.345765 0.750000
#
# Coordination Sequence:
#
# PCOD9440425 Si02
#       8
#     8   8   8   8   8   8   8   8
#     4  10  20  35  57  85 115 148 185 229 284 341
#     4  11  23  38  60  88 114 146 187 234 289 346
#     4   9  19  34  52  73 100 140 183 224 271 323
#     4  10  21  36  55  81 114 152 189 230 281 337
#     4   9  16  27  46  72  98 125 161 209 260 311
#     4  10  19  31  47  71 104 140 180 222 268 323
#     4  10  21  39  59  80 112 151 194 242 287 333
#     4   9  16  27  45  69  97 128 163 205 255 311
#
# _framework density 19.753086
#
# number of rings (size 3 to 8) (size 9 to 14) (size 15 to 20)
#    0.000    2.250    1.250    1.875    0.000    6.000 
#    0.000    0.000    0.000    0.750    0.000    1.750 
#    0.000    0.000    0.000    0.000    0.000    0.000 
#
# Total GULP energy -357119.643218 kJ/mol
# GULP energy per Si atom -5579.994425 kJ/mol
# Density = 1.970813 g / cm^3
# Si number density = 19.753086 Si / 1000 Ang^3
#
#
#
# Elastic Constant Matrix: (Units=GPa)
#
#
# Indices 1 2 3 4 5 6 
#
# 1 93.4878 -10.6850 21.1736 0.0000 0.0000 0.0000
# 2 -10.6850 46.9918 10.0660 0.0000 0.0000 0.0000
# 3 21.1736 10.0660 17.0244 0.0000 0.0000 0.0000
# 4 0.0000 0.0000 0.0000 25.4867 0.0000 0.0000
# 5 0.0000 0.0000 0.0000 0.0000 21.8633 0.0000
# 6 0.0000 0.0000 0.0000 0.0000 0.0000 0.5005
#
#
#
# Elastic Compliance Matrix: (Units=1/GPa)
#
#
# Indices 1 2 3 4 5 6 
#
# 1 0.018507 0.010464 -0.029204 0.000000 0.000000 0.000000
# 2 0.010464 0.030283 -0.030919 0.000000 0.000000 0.000000
# 3 -0.029204 -0.030919 0.113343 0.000000 0.000000 0.000000
# 4 0.000000 0.000000 0.000000 0.039236 0.000000 0.000000
# 5 0.000000 0.000000 0.000000 0.000000 0.045739 0.000000
# 6 0.000000 0.000000 0.000000 0.000000 0.000000 1.998071
#
#
# Mechanical properties :
#
#
# Convention : Reuss Voigt Hill
#
# Bulk Modulus (GPa) = 15.92033 22.06814 18.99423
# Shear Modulus (GPa) = 2.11378 18.70007 10.40692
#
# Velocity S-wave (km/s) = 1.03558 3.08017 2.29781
# Velocity P-wave (km/s) = 3.08335 4.88326 4.08370
#
# Compressibility (1/GPa) = 0.06281279
#
# Stress axis : x y z
#
# Youngs Moduli (GPa) = 54.03399 33.02205 8.82279
#
# Poissons Ratio (x) = -0.34554 0.25766
# Poissons Ratio (y) = -0.56541 0.27280
# Poissons Ratio (z) = 1.57803 1.02102
#
# Static dielectric constant tensor:
#      x y z
#    x 1.695740 0.000000 0.000000 
#    y 0.000000 1.694510 0.000000 
#    z 0.000000 0.000000 1.664850 
# 
# From -- ./inp_files/9294.got.cif
#   From: 2010.05.17/outbox.ucp.g08.bks.cvg/sg57_5_cif.got.tgz:9294.got - 2010.06.11 16:39:23.
