data_PCOD9440482
_publ_section_title
;
Structure prediction by ZEFSAII (Michael W. Deem and Ramdas Pophale) SiO2 
 PCOD9440482
Probable space group: P B C M
;
_chemical_formula_sum "Si O2"
_cell_formula_units_Z 48
_cell_length_a 9.000000
_cell_length_b 15.000000
_cell_length_c 18.000000
_cell_angle_alpha 90.000000
_cell_angle_beta 90.000000
_cell_angle_gamma 90.000000
_cell_volume 2430.000000
_symmetry_space_group_name_H-M "P B C M"
_symmetry_group_IT_number 57
_symmetry_cell_setting 'orthorhombic'
loop_
_space_group_symop_operation_xyz
x,y,z
-x,-y,1/2+z
x,1/2-y,-z
-x,1/2+y,1/2-z
-x,-y,-z
x,y,1/2-z
-x,1/2+y,z
x,1/2-y,1/2+z
loop_
_atom_site_type_symbol
_atom_site_label
_atom_site_fract_x
_atom_site_fract_y
_atom_site_fract_z
Si Si1 0.054230 0.894477 0.086776
Si Si2 0.408627 0.092349 0.837332
Si Si3 0.173056 0.226785 0.837864
Si Si4 0.304326 0.702918 0.836753
Si Si5 0.713388 0.402814 0.660960
Si Si6 0.964368 0.899436 0.916008
O O1 0.187752 0.826170 0.100931
O O2 0.940124 0.855279 0.147286
O O3 0.984935 0.886875 0.004541
O O4 0.093751 0.999042 0.097485
O O5 0.367431 0.090345 0.750000
O O6 0.320631 0.178309 0.867905
O O7 0.576499 0.124110 0.840687
O O8 0.370180 0.993112 0.865672
O O9 0.181390 0.247923 0.750000
O O10 0.125542 0.316672 0.880705
O O11 0.247493 0.703605 0.750000
O O12 0.358362 0.804582 0.850638
O O13 0.733026 0.410259 0.750000
O O14 0.872857 0.398982 0.621591
#
# Coordination Sequence:
#
# PCOD9440482 Si02
#       6
#     8   8   8   8   8   8
#     4  11  23  38  59  85 121 157 196 248 292 350
#     4   9  20  37  58  88 124 152 193 254 302 348
#     4  11  21  36  62  89 114 152 198 244 296 352
#     4  10  21  37  60  88 116 157 203 245 297 358
#     4  10  19  35  60  85 115 155 197 243 299 352
#     4  11  23  37  59  86 122 159 200 242 296 350
#
# _framework density 19.753086
#
# number of rings (size 3 to 8) (size 9 to 14) (size 15 to 20)
#    0.000    1.667    3.333    1.500    0.000    3.333 
#    0.000    4.167    7.333    0.000    0.000    0.000 
#    0.000    0.000    0.000    0.000    0.000    0.000 
#
# Total GULP energy -267274.608781 kJ/mol
# GULP energy per Si atom -5568.221016 kJ/mol
# Density = 1.970813 g / cm^3
# Si number density = 19.753086 Si / 1000 Ang^3
#
#
#
# Elastic Constant Matrix: (Units=GPa)
#
#
# Indices 1 2 3 4 5 6 
#
# 1 16.4323 14.5099 6.3138 0.0000 0.0000 0.0000
# 2 14.5099 142.6735 37.8465 0.0000 0.0000 0.0000
# 3 6.3138 37.8465 38.5001 0.0000 0.0000 0.0000
# 4 0.0000 0.0000 0.0000 26.1725 0.0000 0.0000
# 5 0.0000 0.0000 0.0000 0.0000 4.0269 0.0000
# 6 0.0000 0.0000 0.0000 0.0000 0.0000 30.3467
#
#
#
# Elastic Compliance Matrix: (Units=1/GPa)
#
#
# Indices 1 2 3 4 5 6 
#
# 1 0.067828 -0.005340 -0.005874 0.000000 0.000000 0.000000
# 2 -0.005340 0.009902 -0.008858 0.000000 0.000000 0.000000
# 3 -0.005874 -0.008858 0.035645 0.000000 0.000000 0.000000
# 4 0.000000 0.000000 0.000000 0.038208 0.000000 0.000000
# 5 0.000000 0.000000 0.000000 0.000000 0.248332 0.000000
# 6 0.000000 0.000000 0.000000 0.000000 0.000000 0.032952
#
#
# Mechanical properties :
#
#
# Convention : Reuss Voigt Hill
#
# Bulk Modulus (GPa) = 13.65553 34.99404 24.32479
# Shear Modulus (GPa) = 10.05185 21.37160 15.71173
#
# Velocity S-wave (km/s) = 2.25827 3.29285 2.82335
# Velocity P-wave (km/s) = 3.70511 5.67550 4.79266
#
# Compressibility (1/GPa) = 0.07323042
#
# Stress axis : x y z
#
# Youngs Moduli (GPa) = 14.74322 100.99163 28.05449
#
# Poissons Ratio (x) = 0.53928 0.16480
# Poissons Ratio (y) = 0.07873 0.24851
# Poissons Ratio (z) = 0.08660 0.89458
#
# Static dielectric constant tensor:
#      x y z
#    x 1.852000 0.000000 0.000000 
#    y 0.000000 1.702470 0.000000 
#    z 0.000000 0.000000 1.691580 
# 
# From -- ./inp_files/20980.got.cif
#   From: 2010.05.17/outbox.ucp.g08.bks.cvg/sg57_11_cif.got.tgz:20980.got - 2010.06.11 16:39:23.
