data_PCOD9440025
_publ_section_title
;
Structure prediction by ZEFSAII (Michael W. Deem and Ramdas Pophale) SiO2 
 PCOD9440025
Probable space group: P B C M
;
_chemical_formula_sum "Si O2"
_cell_formula_units_Z 48
_cell_length_a 10.289483
_cell_length_b 30.434725
_cell_length_c 9.212137
_cell_angle_alpha 90.000000
_cell_angle_beta 90.000000
_cell_angle_gamma 90.000000
_cell_volume 2884.850580
_symmetry_space_group_name_H-M "P B C M"
_symmetry_group_IT_number 57
_symmetry_cell_setting 'orthorhombic'
loop_
_space_group_symop_operation_xyz
x,y,z
-x,-y,1/2+z
x,1/2-y,-z
-x,1/2+y,1/2-z
-x,-y,-z
x,y,1/2-z
-x,1/2+y,z
x,1/2-y,1/2+z
loop_
_atom_site_type_symbol
_atom_site_label
_atom_site_fract_x
_atom_site_fract_y
_atom_site_fract_z
Si Si1 0.123296 0.977342 0.424220
Si Si2 0.711796 0.794045 0.917555
Si Si3 0.024175 0.881113 0.420985
Si Si4 0.971481 0.206479 0.416617
Si Si5 0.626942 0.980152 0.074791
Si Si6 0.718410 0.882987 0.422588
O O1 0.124642 0.985667 0.250000
O O2 0.105232 0.925143 0.445692
O O3 0.250011 0.995896 0.502628
O O4 0.000000 0.000000 0.500000
O O5 0.672393 0.793009 0.750000
O O6 0.870172 0.793640 0.922153
O O7 0.668124 0.750000 0.000000
O O8 0.672694 0.839600 0.993594
O O9 0.027736 0.870530 0.250000
O O10 0.069743 0.838852 0.509233
O O11 0.871950 0.890248 0.456990
O O12 0.927454 0.250000 0.500000
O O13 0.932020 0.208199 0.250000
O O14 0.626232 0.985723 0.250000
O O15 0.643352 0.927982 0.045095
O O16 0.500000 0.000000 0.000000
O O17 0.710365 0.874759 0.250000
#
# Coordination Sequence:
#
# PCOD9440025 Si02
#       6
#     8   8   8   8   8   8
#     4  11  21  35  55  79 106 139 177 220 264 312
#     4   9  16  25  40  65  95 128 165 204 252 304
#     4   9  17  30  47  70  99 132 169 211 258 306
#     4   9  16  25  39  63  95 131 165 203 252 305
#     4  11  23  39  55  77 106 142 181 223 270 318
#     4   9  17  31  48  68  99 134 169 210 258 306
#
# _framework density 16.638642999999998
#
# number of rings (size 3 to 8) (size 9 to 14) (size 15 to 20)
#    0.000    2.333    1.667    2.000    0.000    6.667 
#    0.000    0.000    0.000    0.000    0.000    1.167 
#    0.000    0.000    0.000    0.000    0.000    0.000 
#
# Total GULP energy -267626.285366 kJ/mol
# GULP energy per Si atom -5575.547612 kJ/mol
# Density = 1.660077 g / cm^3
# Si number density = 16.638643 Si / 1000 Ang^3
#
#
#
# Elastic Constant Matrix: (Units=GPa)
#
#
# Indices 1 2 3 4 5 6 
#
# 1 68.0132 50.0040 45.9099 0.0000 0.0000 0.0000
# 2 50.0040 173.3045 113.7143 0.0000 0.0000 0.0000
# 3 45.9099 113.7143 116.0391 0.0000 0.0000 0.0000
# 4 0.0000 0.0000 0.0000 38.7902 0.0000 0.0000
# 5 0.0000 0.0000 0.0000 0.0000 18.6232 0.0000
# 6 0.0000 0.0000 0.0000 0.0000 0.0000 11.8169
#
#
#
# Elastic Compliance Matrix: (Units=1/GPa)
#
#
# Indices 1 2 3 4 5 6 
#
# 1 0.020225 -0.001639 -0.006396 0.000000 0.000000 0.000000
# 2 -0.001639 0.016296 -0.015321 0.000000 0.000000 0.000000
# 3 -0.006396 -0.015321 0.026162 0.000000 0.000000 0.000000
# 4 0.000000 0.000000 0.000000 0.025780 0.000000 0.000000
# 5 0.000000 0.000000 0.000000 0.000000 0.053697 0.000000
# 6 0.000000 0.000000 0.000000 0.000000 0.000000 0.084625
#
#
# Mechanical properties :
#
#
# Convention : Reuss Voigt Hill
#
# Bulk Modulus (GPa) = 62.60992 86.29035 74.45013
# Shear Modulus (GPa) = 17.93267 23.69463 20.81365
#
# Velocity S-wave (km/s) = 3.28651 3.77778 3.54068
# Velocity P-wave (km/s) = 7.21889 8.42632 7.84587
#
# Compressibility (1/GPa) = 0.01597191
#
# Stress axis : x y z
#
# Youngs Moduli (GPa) = 49.44305 61.36425 38.22284
#
# Poissons Ratio (x) = 0.10058 0.24446
# Poissons Ratio (y) = 0.08104 0.58562
# Poissons Ratio (z) = 0.31622 0.94017
#
# Static dielectric constant tensor:
#      x y z
#    x 1.540230 0.000000 0.000000 
#    y 0.000000 1.558080 0.000000 
#    z 0.000000 0.000000 1.555150 
# 
# From -- ./inp_files/2110.got.cif
#   From: 2010.05.17/outbox.cif.g08.bks.cpg/sg57_2_cif.got.tgz:2110.got - 2010.06.03 13:58:18.
