data_PCOD9440703
_publ_section_title
;
Structure prediction by ZEFSAII (Michael W. Deem and Ramdas Pophale) SiO2 
 PCOD9440703
Probable space group: P N N M
;
_chemical_formula_sum "Si O2"
_cell_formula_units_Z 32
_cell_length_a 15.877117
_cell_length_b 13.868524
_cell_length_c 5.490111
_cell_angle_alpha 90.000000
_cell_angle_beta 90.000000
_cell_angle_gamma 90.000000
_cell_volume 1208.879499
_symmetry_space_group_name_H-M "P N N M"
_symmetry_group_IT_number 58
_symmetry_cell_setting 'orthorhombic'
loop_
_space_group_symop_operation_xyz
x,y,z
-x,-y,z
1/2+x,1/2-y,1/2-z
1/2-x,1/2+y,1/2-z
-x,-y,-z
x,y,-z
1/2-x,1/2+y,1/2+z
1/2+x,1/2-y,1/2+z
loop_
_atom_site_type_symbol
_atom_site_label
_atom_site_fract_x
_atom_site_fract_y
_atom_site_fract_z
Si Si1 0.225067 0.381592 0.000000
Si Si2 0.679557 0.925244 0.000000
Si Si3 0.906514 0.838361 0.500000
Si Si4 0.556165 0.108110 0.000000
Si Si5 0.028303 0.346081 0.000000
Si Si6 0.211408 0.613036 0.000000
Si Si7 0.311497 0.417408 0.500000
Si Si8 0.502295 0.370351 0.500000
O O1 0.132003 0.333870 0.000000
O O2 0.276164 0.367179 0.748078
O O3 0.205593 0.496172 0.000000
O O4 0.625285 0.024182 0.000000
O O5 0.671921 0.861717 0.758759
O O6 0.772993 0.974178 0.000000
O O7 0.916954 0.721387 0.500000
O O8 0.948416 0.881862 0.744394
O O9 0.808036 0.858005 0.500000
O O10 0.508020 0.100448 0.747741
O O11 0.984797 0.244036 0.000000
O O12 0.411999 0.420821 0.500000
#
# Coordination Sequence:
#
# PCOD9440703 Si02
#       8
#     4   4   4   4   4   4   4   4
#     4  10  17  30  48  64  88 120 166 192 224 265
#     4  10  17  30  48  64  88 120 166 192 224 265
#     4  10  21  32  45  65 101 125 154 192 239 274
#     4  10  16  30  48  67  83 123 153 195 237 270
#     4  10  16  30  48  67  83 123 153 195 237 270
#     4  10  18  30  46  68  88 124 162 199 214 271
#     4  10  18  30  46  68  88 124 162 199 214 271
#     4  10  21  32  45  65 101 125 154 192 239 274
#
# _framework density 26.470796
#
# number of rings (size 3 to 8) (size 9 to 14) (size 15 to 20)
#    0.000    2.000    5.000    1.500    0.000    0.000 
#    0.000   15.000    0.000    0.000    0.000    0.000 
#    0.000    1.000    0.000   13.000    0.000    0.000 
#
# Total GULP energy -179097.598434 kJ/mol
# GULP energy per Si atom -5596.799951 kJ/mol
# Density = 2.641055 g / cm^3
# Si number density = 26.470796 Si / 1000 Ang^3
#
#
#
# Elastic Constant Matrix: (Units=GPa)
#
#
# Indices 1 2 3 4 5 6 
#
# 1 157.5580 8.5931 70.7911 0.0000 0.0000 0.0000
# 2 8.5931 90.0260 17.9875 0.0000 0.0000 0.0000
# 3 70.7911 17.9875 313.7830 0.0000 0.0000 0.0000
# 4 0.0000 0.0000 0.0000 38.7257 0.0000 0.0000
# 5 0.0000 0.0000 0.0000 0.0000 195.0512 0.0000
# 6 0.0000 0.0000 0.0000 0.0000 0.0000 33.3999
#
#
#
# Elastic Compliance Matrix: (Units=1/GPa)
#
#
# Indices 1 2 3 4 5 6 
#
# 1 0.007074 -0.000360 -0.001575 0.000000 0.000000 0.000000
# 2 -0.000360 0.011255 -0.000564 0.000000 0.000000 0.000000
# 3 -0.001575 -0.000564 0.003575 0.000000 0.000000 0.000000
# 4 0.000000 0.000000 0.000000 0.025823 0.000000 0.000000
# 5 0.000000 0.000000 0.000000 0.000000 0.005127 0.000000
# 6 0.000000 0.000000 0.000000 0.000000 0.000000 0.029940
#
#
# Mechanical properties :
#
#
# Convention : Reuss Voigt Hill
#
# Bulk Modulus (GPa) = 59.15567 84.01229 71.58398
# Shear Modulus (GPa) = 53.51719 84.36838 68.94279
#
# Velocity S-wave (km/s) = 4.50126 5.65168 5.10895
# Velocity P-wave (km/s) = 7.02931 8.62527 7.86786
#
# Compressibility (1/GPa) = 0.01690455
#
# Stress axis : x y z
#
# Youngs Moduli (GPa) = 141.35603 88.84966 279.74814
#
# Poissons Ratio (x) = 0.03203 0.44070
# Poissons Ratio (y) = 0.05096 0.15774
# Poissons Ratio (z) = 0.22268 0.05010
#
# Static dielectric constant tensor:
#      x y z
#    x 2.048590 0.000000 0.000000 
#    y 0.000000 2.028390 0.000000 
#    z 0.000000 0.000000 2.198200 
# 
# From -- ./inp_files/758.got.cif
#   From: 2010.05.17/outbox.cif.g08.bks.cpg/sg58_1_cif.got.tgz:758.got - 2010.06.03 14:20:14.
