data_PCOD9440880
_publ_section_title
;
Structure prediction by ZEFSAII (Michael W. Deem and Ramdas Pophale) SiO2 
 PCOD9440880
Probable space group: P N N M
;
_chemical_formula_sum "Si O2"
_cell_formula_units_Z 52
_cell_length_a 11.805681
_cell_length_b 27.874303
_cell_length_c 8.074390
_cell_angle_alpha 90.000000
_cell_angle_beta 90.000000
_cell_angle_gamma 90.000000
_cell_volume 2657.080933
_symmetry_space_group_name_H-M "P N N M"
_symmetry_group_IT_number 58
_symmetry_cell_setting 'orthorhombic'
loop_
_space_group_symop_operation_xyz
x,y,z
-x,-y,z
1/2+x,1/2-y,1/2-z
1/2-x,1/2+y,1/2-z
-x,-y,-z
x,y,-z
1/2-x,1/2+y,1/2+z
1/2+x,1/2-y,1/2+z
loop_
_atom_site_type_symbol
_atom_site_label
_atom_site_fract_x
_atom_site_fract_y
_atom_site_fract_z
Si Si1 0.526206 0.825041 0.312715
Si Si2 0.738613 0.334050 0.320458
Si Si3 0.473124 0.721763 0.189689
Si Si4 0.302320 0.572697 0.500000
Si Si5 0.943956 0.076933 0.000000
Si Si6 0.799629 0.526976 0.500000
Si Si7 0.627224 0.090369 0.696026
Si Si8 0.370422 0.361488 0.809066
O O1 0.484397 0.821064 0.500000
O O2 0.661558 0.825835 0.306369
O O3 0.483474 0.777682 0.222901
O O4 0.476688 0.875565 0.251554
O O5 0.787225 0.318798 0.500000
O O6 0.625169 0.304495 0.291048
O O7 0.712027 0.390404 0.346243
O O8 0.591605 0.693496 0.218474
O O9 0.442204 0.713974 0.000000
O O10 0.431552 0.554329 0.500000
O O11 0.212118 0.530277 0.500000
O O12 0.933455 0.108760 0.166518
O O13 0.830985 0.045224 0.000000
O O14 0.854922 0.548735 0.667722
O O15 0.616979 0.075543 0.500000
O O16 0.738837 0.124596 0.706596
O O17 0.402684 0.373859 0.000000
#
# Coordination Sequence:
#
# PCOD9440880 Si02
#       8
#     8   8   8   4   4   4   8   8
#     4  11  24  39  59  85 121 166 206 257 303 368
#     4  10  22  40  59  83 125 157 202 252 302 369
#     4  11  22  36  59  87 120 160 206 241 309 377
#     4  10  21  39  64  89 125 164 206 260 324 356
#     4  10  17  36  60  90 128 150 200 250 312 367
#     4  10  21  37  70  93 117 166 210 264 323 378
#     4   9  21  40  59  86 124 154 206 261 308 367
#     4   9  18  34  56  84 116 160 189 243 301 363
#
# _framework density 19.570349
#
# number of rings (size 3 to 8) (size 9 to 14) (size 15 to 20)
#    0.462    1.538    1.538    1.615    5.385    0.000 
#    0.000    3.846    0.000    5.538    0.000    0.000 
#    0.000    0.000    0.000    0.000    0.000    0.000 
#
# Total GULP energy -289650.437613 kJ/mol
# GULP energy per Si atom -5570.200723 kJ/mol
# Density = 1.952581 g / cm^3
# Si number density = 19.570349 Si / 1000 Ang^3
#
#
#
# Elastic Constant Matrix: (Units=GPa)
#
#
# Indices 1 2 3 4 5 6 
#
# 1 38.4615 4.9440 1.1276 0.0000 0.0000 0.0000
# 2 4.9440 57.2465 14.5689 0.0000 0.0000 0.0000
# 3 1.1276 14.5689 63.7589 0.0000 0.0000 0.0000
# 4 0.0000 0.0000 0.0000 6.8917 0.0000 0.0000
# 5 0.0000 0.0000 0.0000 0.0000 23.2517 0.0000
# 6 0.0000 0.0000 0.0000 0.0000 0.0000 13.3582
#
#
#
# Elastic Compliance Matrix: (Units=1/GPa)
#
#
# Indices 1 2 3 4 5 6 
#
# 1 0.026292 -0.002285 0.000057 0.000000 0.000000 0.000000
# 2 -0.002285 0.018745 -0.004243 0.000000 0.000000 0.000000
# 3 0.000057 -0.004243 0.016653 0.000000 0.000000 0.000000
# 4 0.000000 0.000000 0.000000 0.145103 0.000000 0.000000
# 5 0.000000 0.000000 0.000000 0.000000 0.043008 0.000000
# 6 0.000000 0.000000 0.000000 0.000000 0.000000 0.074860
#
#
# Mechanical properties :
#
#
# Convention : Reuss Voigt Hill
#
# Bulk Modulus (GPa) = 20.51357 22.30533 21.40945
# Shear Modulus (GPa) = 14.13018 17.95540 16.04279
#
# Velocity S-wave (km/s) = 2.68996 3.03228 2.86623
# Velocity P-wave (km/s) = 4.48916 4.86640 4.68158
#
# Compressibility (1/GPa) = 0.04874821
#
# Stress axis : x y z
#
# Youngs Moduli (GPa) = 38.03426 53.34615 60.05078
#
# Poissons Ratio (x) = 0.12191 -0.00344
# Poissons Ratio (y) = 0.08692 0.25479
# Poissons Ratio (z) = -0.00218 0.22634
#
# Static dielectric constant tensor:
#      x y z
#    x 1.679410 0.000000 0.000000 
#    y 0.000000 1.691780 0.000000 
#    z 0.000000 0.000000 1.706070 
# 
# From -- ./inp_files/4413.got.cif
#   From: 2010.05.17/outbox.cif.g08.bks.cpg/sg58_3_cif.got.tgz:4413.got - 2010.06.03 14:20:14.
