data_PCOD9440182
_publ_section_title
;
Structure prediction by ZEFSAII (Michael W. Deem and Ramdas Pophale) SiO2 
 PCOD9440182
Probable space group: P B C M
;
_chemical_formula_sum "Si O2"
_cell_formula_units_Z 64
_cell_length_a 17.987149
_cell_length_b 11.925066
_cell_length_c 15.002567
_cell_angle_alpha 90.000000
_cell_angle_beta 90.000000
_cell_angle_gamma 90.000000
_cell_volume 3218.019701
_symmetry_space_group_name_H-M "P B C M"
_symmetry_group_IT_number 57
_symmetry_cell_setting 'orthorhombic'
loop_
_space_group_symop_operation_xyz
x,y,z
-x,-y,1/2+z
x,1/2-y,-z
-x,1/2+y,1/2-z
-x,-y,-z
x,y,1/2-z
-x,1/2+y,z
x,1/2-y,1/2+z
loop_
_atom_site_type_symbol
_atom_site_label
_atom_site_fract_x
_atom_site_fract_y
_atom_site_fract_z
Si Si1 0.836070 0.896719 0.350796
Si Si2 0.222239 0.772457 0.105307
Si Si3 0.193306 0.031467 0.354981
Si Si4 0.608495 0.255456 0.146752
Si Si5 0.072661 0.305371 0.594221
Si Si6 0.084766 0.882539 0.852475
Si Si7 0.296045 0.123705 0.993883
Si Si8 0.422486 0.564140 0.006479
O O1 0.812049 0.927543 0.250000
O O2 0.887154 0.786697 0.344633
O O3 0.765718 0.881441 0.415364
O O4 0.887779 0.997329 0.387643
O O5 0.302023 0.745334 0.146538
O O6 0.156217 0.696559 0.141769
O O7 0.202929 0.901215 0.123417
O O8 0.228748 0.750000 0.000000
O O9 0.203325 0.049545 0.250000
O O10 0.113665 0.078398 0.385490
O O11 0.252736 0.098082 0.414310
O O12 0.583111 0.263109 0.250000
O O13 0.590950 0.363057 0.083813
O O14 0.578444 0.149626 0.090221
O O15 0.090482 0.250000 0.500000
O O16 0.985336 0.325469 0.601413
O O17 0.061784 0.898982 0.750000
O O18 0.327136 0.250000 0.000000
O O19 0.357175 0.027341 0.982150
O O20 0.500000 0.500000 0.000000
#
# Coordination Sequence:
#
# PCOD9440182 Si02
#       8
#     8   8   8   8   8   8   8   8
#     4  11  23  43  65  90 132 177 229 285 338 403
#     4  12  23  42  69 100 129 174 230 286 333 399
#     4  12  23  41  67  95 134 178 225 278 335 399
#     4  11  23  46  75 104 140 182 231 284 337 402
#     4  12  25  42  61  90 132 180 228 286 348 404
#     4  11  25  39  60  92 128 174 228 286 349 403
#     4  12  24  43  69 100 134 176 230 274 341 411
#     4  11  26  46  74 106 144 181 221 279 344 415
#
# _framework density 19.888007999999999
#
# number of rings (size 3 to 8) (size 9 to 14) (size 15 to 20)
#    0.000    0.500    5.000    4.125    3.500    2.500 
#    0.000    0.000    0.000    0.000    0.000    0.000 
#    0.000    0.000    0.000    0.000    0.000    0.000 
#
# Total GULP energy -357761.212525 kJ/mol
# GULP energy per Si atom -5590.018946 kJ/mol
# Density = 1.984274 g / cm^3
# Si number density = 19.888008 Si / 1000 Ang^3
#
#
#
# Elastic Constant Matrix: (Units=GPa)
#
#
# Indices 1 2 3 4 5 6 
#
# 1 113.9939 50.9060 29.2618 0.0000 0.0000 0.0000
# 2 50.9060 123.0130 39.4825 0.0000 0.0000 0.0000
# 3 29.2618 39.4825 143.2651 0.0000 0.0000 0.0000
# 4 0.0000 0.0000 0.0000 10.1220 0.0000 0.0000
# 5 0.0000 0.0000 0.0000 0.0000 59.6183 0.0000
# 6 0.0000 0.0000 0.0000 0.0000 0.0000 33.0480
#
#
#
# Elastic Compliance Matrix: (Units=1/GPa)
#
#
# Indices 1 2 3 4 5 6 
#
# 1 0.010911 -0.004169 -0.001080 0.000000 0.000000 0.000000
# 2 -0.004169 0.010511 -0.002045 0.000000 0.000000 0.000000
# 3 -0.001080 -0.002045 0.007764 0.000000 0.000000 0.000000
# 4 0.000000 0.000000 0.000000 0.098795 0.000000 0.000000
# 5 0.000000 0.000000 0.000000 0.000000 0.016773 0.000000
# 6 0.000000 0.000000 0.000000 0.000000 0.000000 0.030259
#
#
# Mechanical properties :
#
#
# Convention : Reuss Voigt Hill
#
# Bulk Modulus (GPa) = 68.49876 68.84141 68.67009
# Shear Modulus (GPa) = 25.71128 37.93244 31.82186
#
# Velocity S-wave (km/s) = 3.59946 4.37200 4.00441
# Velocity P-wave (km/s) = 7.19665 7.75729 7.48223
#
# Compressibility (1/GPa) = 0.01459880
#
# Stress axis : x y z
#
# Youngs Moduli (GPa) = 91.64890 95.14012 128.79557
#
# Poissons Ratio (x) = 0.39662 0.13906
# Poissons Ratio (y) = 0.38207 0.26341
# Poissons Ratio (z) = 0.09896 0.19458
#
# Static dielectric constant tensor:
#      x y z
#    x 1.671120 0.000000 0.000000 
#    y 0.000000 1.718510 0.000000 
#    z 0.000000 0.000000 1.760300 
# 
# From -- ./inp_files/19099.got.cif
#   From: 2010.05.17/outbox.cif.g08.bks.cpg/sg57_10_cif.got.tgz:19099.got - 2010.06.03 13:58:18.
