data_PCOD9440103
_publ_section_title
;
Structure prediction by ZEFSAII (Michael W. Deem and Ramdas Pophale) SiO2 
 PCOD9440103
Probable space group: P B C M
;
_chemical_formula_sum "Si O2"
_cell_formula_units_Z 48
_cell_length_a 8.931923
_cell_length_b 7.893544
_cell_length_c 31.361372
_cell_angle_alpha 90.000000
_cell_angle_beta 90.000000
_cell_angle_gamma 90.000000
_cell_volume 2211.118705
_symmetry_space_group_name_H-M "P B C M"
_symmetry_group_IT_number 57
_symmetry_cell_setting 'orthorhombic'
loop_
_space_group_symop_operation_xyz
x,y,z
-x,-y,1/2+z
x,1/2-y,-z
-x,1/2+y,1/2-z
-x,-y,-z
x,y,1/2-z
-x,1/2+y,z
x,1/2-y,1/2+z
loop_
_atom_site_type_symbol
_atom_site_label
_atom_site_fract_x
_atom_site_fract_y
_atom_site_fract_z
Si Si1 0.589243 0.334149 0.546379
Si Si2 0.766805 0.192881 0.875132
Si Si3 0.732096 0.792457 0.453064
Si Si4 0.575479 0.079351 0.798540
Si Si5 0.079529 0.324987 0.875458
Si Si6 0.266766 0.288014 0.201736
O O1 0.611688 0.250000 0.500000
O O2 0.667572 0.228575 0.583599
O O3 0.659386 0.520942 0.546849
O O4 0.410736 0.330984 0.554516
O O5 0.663646 0.186798 0.833444
O O6 0.901275 0.326697 0.873983
O O7 0.849579 0.011526 0.876839
O O8 0.792819 0.750000 0.500000
O O9 0.855699 0.768022 0.417154
O O10 0.590270 0.145490 0.750000
O O11 0.398992 0.080613 0.808668
O O12 0.645849 0.892416 0.799088
O O13 0.140207 0.228899 0.833496
O O14 0.211211 0.317112 0.250000
#
# Coordination Sequence:
#
# PCOD9440103 Si02
#       6
#     8   8   8   8   8   8
#     4  11  22  39  62  87 114 146 187 232 280 332
#     4  11  23  38  56  82 116 152 190 232 282 336
#     4  11  22  39  62  87 114 146 187 232 280 332
#     4   9  19  36  58  83 111 145 187 233 279 330
#     4  11  23  38  56  82 116 152 190 232 282 336
#     4   9  19  36  58  83 111 145 187 233 279 330
#
# _framework density 21.708469999999998
#
# number of rings (size 3 to 8) (size 9 to 14) (size 15 to 20)
#    0.000    1.667    0.000    6.000    0.000    6.667 
#    0.000    3.333    0.000    0.000    0.000    0.000 
#    0.000    0.000    0.000    0.000    0.000    0.000 
#
# Total GULP energy -268577.472156 kJ/mol
# GULP energy per Si atom -5595.364003 kJ/mol
# Density = 2.165906 g / cm^3
# Si number density = 21.708470 Si / 1000 Ang^3
#
#
#
# Elastic Constant Matrix: (Units=GPa)
#
#
# Indices 1 2 3 4 5 6 
#
# 1 39.3734 -12.7369 41.3034 0.0000 0.0000 0.0000
# 2 -12.7369 69.3680 12.4484 0.0000 0.0000 0.0000
# 3 41.3034 12.4484 69.7488 0.0000 0.0000 0.0000
# 4 0.0000 0.0000 0.0000 19.7172 0.0000 0.0000
# 5 0.0000 0.0000 0.0000 0.0000 -9.1677 0.0000
# 6 0.0000 0.0000 0.0000 0.0000 0.0000 31.8263
#
#
#
# Elastic Compliance Matrix: (Units=1/GPa)
#
#
# Indices 1 2 3 4 5 6 
#
# 1 0.112452 0.033676 -0.072601 0.000000 0.000000 0.000000
# 2 0.033676 0.024978 -0.024400 0.000000 0.000000 0.000000
# 3 -0.072601 -0.024400 0.061684 0.000000 0.000000 0.000000
# 4 0.000000 0.000000 0.000000 0.050717 0.000000 0.000000
# 5 0.000000 0.000000 0.000000 0.000000 -0.109078 0.000000
# 6 0.000000 0.000000 0.000000 0.000000 0.000000 0.031421
#
#
# Mechanical properties :
#
#
# Convention : Reuss Voigt Hill
#
# Bulk Modulus (GPa) = 13.79995 28.94666 21.37331
# Shear Modulus (GPa) = 15.48091 17.64016 16.56054
#
# Velocity S-wave (km/s) = 2.67334 2.85370 2.76499
# Velocity P-wave (km/s) = 3.98745 4.92152 4.47890
#
# Compressibility (1/GPa) = 0.07246401
#
# Stress axis : x y z
#
# Youngs Moduli (GPa) = 8.89271 40.03514 16.21153
#
# Poissons Ratio (x) = -1.34824 1.17698
# Poissons Ratio (y) = -0.29947 0.39556
# Poissons Ratio (z) = 0.64562 0.97687
#
# Static dielectric constant tensor:
#      x y z
#    x 1.739080 0.000000 0.000000 
#    y 0.000000 1.843520 0.000000 
#    z 0.000000 0.000000 1.758930 
# 
# From -- ./inp_files/2037.got.cif
#   From: 2010.05.17/outbox.cif.g08.bks.cpg/sg57_2_cif.got.tgz:2037.got - 2010.06.03 13:58:18.
