data_PCOD9440860
_publ_section_title
;
Structure prediction by ZEFSAII (Michael W. Deem and Ramdas Pophale) SiO2 
 PCOD9440860
Probable space group: P N N M
;
_chemical_formula_sum "Si O2"
_cell_formula_units_Z 52
_cell_length_a 18.568011
_cell_length_b 15.326343
_cell_length_c 8.504901
_cell_angle_alpha 90.000000
_cell_angle_beta 90.000000
_cell_angle_gamma 90.000000
_cell_volume 2420.322221
_symmetry_space_group_name_H-M "P N N M"
_symmetry_group_IT_number 58
_symmetry_cell_setting 'orthorhombic'
loop_
_space_group_symop_operation_xyz
x,y,z
-x,-y,z
1/2+x,1/2-y,1/2-z
1/2-x,1/2+y,1/2-z
-x,-y,-z
x,y,-z
1/2-x,1/2+y,1/2+z
1/2+x,1/2-y,1/2+z
loop_
_atom_site_type_symbol
_atom_site_label
_atom_site_fract_x
_atom_site_fract_y
_atom_site_fract_z
Si Si1 0.963339 0.636898 0.811014
Si Si2 0.500000 0.500000 0.760735
Si Si3 0.012069 0.814990 0.687611
Si Si4 0.755403 0.354697 0.314088
Si Si5 0.612082 0.966073 0.311358
Si Si6 0.819214 0.179953 0.689639
Si Si7 0.335781 0.508188 0.174918
O O1 0.965609 0.730716 0.730528
O O2 0.903186 0.566130 0.762295
O O3 0.039795 0.589357 0.776713
O O4 0.958591 0.647899 0.000000
O O5 0.496184 0.600566 0.703237
O O6 0.578830 0.505093 0.837127
O O7 0.002296 0.836464 0.500000
O O8 0.096924 0.794342 0.712508
O O9 0.756909 0.346539 0.500000
O O10 0.820062 0.418575 0.262691
O O11 0.770168 0.258040 0.248085
O O12 0.683907 0.404230 0.263312
O O13 0.619856 0.966406 0.500000
O O14 0.810040 0.172464 0.500000
O O15 0.807378 0.081841 0.751090
O O16 0.305197 0.517012 0.000000
#
# Coordination Sequence:
#
# PCOD9440860 Si02
#       7
#     8   4   8   8   8   8   8
#     4   9  18  32  52  81 115 150 188 229 275 331
#     4  10  21  40  65  86 109 144 201 244 283 352
#     4  10  17  32  58  84 108 145 187 234 283 331
#     4  11  21  36  57  86 115 145 188 238 283 335
#     4   9  18  34  54  79 114 153 187 221 273 344
#     4   8  17  34  56  78 107 146 185 221 279 343
#     4  10  20  39  63  83 108 153 193 232 285 344
#
# _framework density 21.484743000000002
#
# number of rings (size 3 to 8) (size 9 to 14) (size 15 to 20)
#    0.000    2.462    1.538    3.692    0.000    0.615 
#    2.769    7.692    0.000    0.000    0.000    0.000 
#    0.000    0.000    0.000    0.000    0.000    0.000 
#
# Total GULP energy -289617.908626 kJ/mol
# GULP energy per Si atom -5569.575166 kJ/mol
# Density = 2.143584 g / cm^3
# Si number density = 21.484743 Si / 1000 Ang^3
#
#
#
# Elastic Constant Matrix: (Units=GPa)
#
#
# Indices 1 2 3 4 5 6 
#
# 1 43.5956 24.8130 5.1541 0.0000 0.0000 0.0000
# 2 24.8130 170.3899 21.6856 0.0000 0.0000 0.0000
# 3 5.1541 21.6856 15.7160 0.0000 0.0000 0.0000
# 4 0.0000 0.0000 0.0000 -12.6879 0.0000 0.0000
# 5 0.0000 0.0000 0.0000 0.0000 15.2452 0.0000
# 6 0.0000 0.0000 0.0000 0.0000 0.0000 29.9112
#
#
#
# Elastic Compliance Matrix: (Units=1/GPa)
#
#
# Indices 1 2 3 4 5 6 
#
# 1 0.025205 -0.003176 -0.003883 0.000000 0.000000 0.000000
# 2 -0.003176 0.007519 -0.009334 0.000000 0.000000 0.000000
# 3 -0.003883 -0.009334 0.077782 0.000000 0.000000 0.000000
# 4 0.000000 0.000000 0.000000 -0.078815 0.000000 0.000000
# 5 0.000000 0.000000 0.000000 0.000000 0.065595 0.000000
# 6 0.000000 0.000000 0.000000 0.000000 0.000000 0.033432
#
#
# Mechanical properties :
#
#
# Convention : Reuss Voigt Hill
#
# Bulk Modulus (GPa) = 12.86674 37.00076 24.93375
# Shear Modulus (GPa) = 26.39752 18.36362 22.38057
#
# Velocity S-wave (km/s) = 3.50903 2.92675 3.23103
# Velocity P-wave (km/s) = 4.73493 5.35541 5.05470
#
# Compressibility (1/GPa) = 0.07771978
#
# Stress axis : x y z
#
# Youngs Moduli (GPa) = 39.67470 132.98996 12.85640
#
# Poissons Ratio (x) = 0.42241 0.04992
# Poissons Ratio (y) = 0.12602 0.12000
# Poissons Ratio (z) = 0.15407 1.24132
#
# Static dielectric constant tensor:
#      x y z
#    x 1.795020 0.000000 0.000000 
#    y 0.000000 1.844210 0.000000 
#    z 0.000000 0.000000 1.760130 
# 
# From -- ./inp_files/6139.got.cif
#   From: 2010.05.17/outbox.cif.g08.bks.cpg/sg58_4_cif.got.tgz:6139.got - 2010.06.03 14:20:14.
