data_PCOD9440436
_publ_section_title
;
Structure prediction by ZEFSAII (Michael W. Deem and Ramdas Pophale) SiO2 
 PCOD9440436
Probable space group: P B C M
;
_chemical_formula_sum "Si O2"
_cell_formula_units_Z 64
_cell_length_a 21.000000
_cell_length_b 18.000000
_cell_length_c 9.000000
_cell_angle_alpha 90.000000
_cell_angle_beta 90.000000
_cell_angle_gamma 90.000000
_cell_volume 3402.000000
_symmetry_space_group_name_H-M "P B C M"
_symmetry_group_IT_number 57
_symmetry_cell_setting 'orthorhombic'
loop_
_space_group_symop_operation_xyz
x,y,z
-x,-y,1/2+z
x,1/2-y,-z
-x,1/2+y,1/2-z
-x,-y,-z
x,y,1/2-z
-x,1/2+y,z
x,1/2-y,1/2+z
loop_
_atom_site_type_symbol
_atom_site_label
_atom_site_fract_x
_atom_site_fract_y
_atom_site_fract_z
Si Si1 0.377256 0.667720 0.928747
Si Si2 0.261180 0.585737 0.079267
Si Si3 0.652435 0.669078 0.569422
Si Si4 0.155748 0.824323 0.075103
Si Si5 0.959550 0.108152 0.076657
Si Si6 0.914776 0.562969 0.573216
Si Si7 0.483503 0.168309 0.927969
Si Si8 0.227853 0.415979 0.077793
O O1 0.516911 0.677382 0.750000
O O2 0.447587 0.635304 0.965329
O O3 0.372868 0.750000 0.000000
O O4 0.322656 0.618240 0.999929
O O5 0.257258 0.612238 0.250000
O O6 0.258007 0.497532 0.080410
O O7 0.199657 0.611523 0.989381
O O8 0.648729 0.750000 0.500000
O O9 0.655849 0.670997 0.750000
O O10 0.584089 0.631446 0.531120
O O11 0.717264 0.633929 0.508964
O O12 0.159184 0.819759 0.250000
O O13 0.181214 0.750000 0.000000
O O14 0.084558 0.838844 0.019772
O O15 0.955837 0.127677 0.250000
O O16 0.930898 0.024711 0.059010
O O17 0.031111 0.105391 0.017280
O O18 0.919686 0.579002 0.750000
O O19 0.843714 0.580305 0.517190
O O20 0.629909 0.172736 0.750000
O O21 0.484225 0.250000 0.000000
O O22 0.219423 0.392780 0.250000
#
# Coordination Sequence:
#
# PCOD9440436 Si02
#       8
#     8   8   8   8   8   8   8   8
#     4  10  19  32  49  74 104 139 178 221 265 311
#     4  11  21  36  53  75 105 141 182 222 261 316
#     4   9  17  33  56  80 103 134 172 216 267 318
#     4  12  24  38  56  79 109 145 180 222 271 319
#     4  10  19  34  55  80 106 135 178 221 260 310
#     4   9  17  33  55  78 104 138 177 217 258 310
#     4   8  15  28  49  73 100 132 173 216 259 312
#     4   9  18  34  56  78 105 141 179 216 262 319
#
# _framework density 18.812463000000001
#
# number of rings (size 3 to 8) (size 9 to 14) (size 15 to 20)
#    0.000    2.250    1.250    2.625    0.000    1.000 
#    0.000    3.125    0.000    1.500    0.000    0.000 
#    0.000    0.000    0.000    0.000    0.000    0.000 
#
# Total GULP energy -356452.102192 kJ/mol
# GULP energy per Si atom -5569.564097 kJ/mol
# Density = 1.876965 g / cm^3
# Si number density = 18.812463 Si / 1000 Ang^3
#
#
#
# Elastic Constant Matrix: (Units=GPa)
#
#
# Indices 1 2 3 4 5 6 
#
# 1 176.7594 25.4528 39.2324 0.0000 0.0000 0.0000
# 2 25.4528 12.3702 13.8999 0.0000 0.0000 0.0000
# 3 39.2324 13.8999 69.1623 0.0000 0.0000 0.0000
# 4 0.0000 0.0000 0.0000 11.6291 0.0000 0.0000
# 5 0.0000 0.0000 0.0000 0.0000 24.5123 0.0000
# 6 0.0000 0.0000 0.0000 0.0000 0.0000 20.6474
#
#
#
# Elastic Compliance Matrix: (Units=1/GPa)
#
#
# Indices 1 2 3 4 5 6 
#
# 1 0.008178 -0.015003 -0.001624 0.000000 0.000000 0.000000
# 2 -0.015003 0.131942 -0.018007 0.000000 0.000000 0.000000
# 3 -0.001624 -0.018007 0.018999 0.000000 0.000000 0.000000
# 4 0.000000 0.000000 0.000000 0.085991 0.000000 0.000000
# 5 0.000000 0.000000 0.000000 0.000000 0.040796 0.000000
# 6 0.000000 0.000000 0.000000 0.000000 0.000000 0.048432
#
#
# Mechanical properties :
#
#
# Convention : Reuss Voigt Hill
#
# Bulk Modulus (GPa) = 11.12937 46.16245 28.64591
# Shear Modulus (GPa) = 11.53255 23.33822 17.43538
#
# Velocity S-wave (km/s) = 2.47862 3.52600 3.04764
# Velocity P-wave (km/s) = 3.75769 6.41626 5.25778
#
# Compressibility (1/GPa) = 0.08985233
#
# Stress axis : x y z
#
# Youngs Moduli (GPa) = 122.27664 7.57909 52.63478
#
# Poissons Ratio (x) = 0.11371 0.08548
# Poissons Ratio (y) = 1.83447 0.94778
# Poissons Ratio (z) = 0.19857 0.13648
#
# Static dielectric constant tensor:
#      x y z
#    x 1.707990 0.000000 0.000000 
#    y 0.000000 1.727580 0.000000 
#    z 0.000000 0.000000 1.617910 
# 
# From -- ./inp_files/8556.got.cif
#   From: 2010.05.17/outbox.ucp.g08.bks.cvg/sg57_5_cif.got.tgz:8556.got - 2010.06.11 16:39:23.
