data_PCOD9440043
_publ_section_title
;
Structure prediction by ZEFSAII (Michael W. Deem and Ramdas Pophale) SiO2 
 PCOD9440043
Probable space group: P B C M
;
_chemical_formula_sum "Si O2"
_cell_formula_units_Z 64
_cell_length_a 18.358672
_cell_length_b 9.900085
_cell_length_c 20.815078
_cell_angle_alpha 90.000000
_cell_angle_beta 90.000000
_cell_angle_gamma 90.000000
_cell_volume 3783.190659
_symmetry_space_group_name_H-M "P B C M"
_symmetry_group_IT_number 57
_symmetry_cell_setting 'orthorhombic'
loop_
_space_group_symop_operation_xyz
x,y,z
-x,-y,1/2+z
x,1/2-y,-z
-x,1/2+y,1/2-z
-x,-y,-z
x,y,1/2-z
-x,1/2+y,z
x,1/2-y,1/2+z
loop_
_atom_site_type_symbol
_atom_site_label
_atom_site_fract_x
_atom_site_fract_y
_atom_site_fract_z
Si Si1 0.656222 0.982871 0.613586
Si Si2 0.343779 0.482873 0.386413
Si Si3 0.243384 0.592146 0.000000
Si Si4 0.581501 0.250001 0.328111
Si Si5 0.914566 0.523595 0.500000
Si Si6 0.735967 0.749999 0.680055
Si Si7 0.548657 0.750001 0.071635
Si Si8 0.149888 0.250001 0.569352
O O1 0.688818 0.883177 0.667109
O O2 0.597585 0.885550 0.578278
O O3 0.718529 0.025159 0.562381
O O4 0.622694 0.115619 0.646417
O O5 0.281472 0.525159 0.437618
O O6 0.377305 0.615622 0.353581
O O7 0.311183 0.383177 0.332891
O O8 0.402417 0.385555 0.421722
O O9 0.261751 0.750000 0.000000
O O10 0.155122 0.576069 0.000001
O O11 0.573996 0.250002 0.250000
O O12 0.506242 0.250000 0.368374
O O13 0.898993 0.618460 0.438222
O O14 0.898994 0.618463 0.561778
O O15 0.000000 0.500000 0.500000
O O16 0.767763 0.749998 0.750000
O O17 0.797862 0.749999 0.627380
O O18 0.514007 0.750000 0.000000
O O19 0.192788 0.250000 0.500000
#
# Coordination Sequence:
#
# PCOD9440043 Si02
#       8
#     8   8   8   8   8   8   8   8
#     4  11  23  40  61  88 117 154 204 252 298 350
#     4  11  23  40  61  88 117 154 204 252 298 350
#     4  12  21  35  63  95 117 153 197 248 296 355
#     4  12  27  43  56  85 127 156 197 253 311 366
#     4   9  19  34  58  92 125 147 184 240 299 343
#     4  11  21  37  62  88 115 160 204 240 289 349
#     4  11  25  39  66  84 114 155 205 253 303 353
#     4   8  17  33  56  83 118 151 192 238 285 332
#
# _framework density 16.916937000000001
#
# number of rings (size 3 to 8) (size 9 to 14) (size 15 to 20)
#    0.750    0.500    5.000    1.500    3.500    5.000 
#    0.000    0.000    0.000    0.750    0.000    0.000 
#    0.000    0.000    0.000    0.000    0.000    0.000 
#
# Total GULP energy -356291.156712 kJ/mol
# GULP energy per Si atom -5567.049324 kJ/mol
# Density = 1.687843 g / cm^3
# Si number density = 16.916937 Si / 1000 Ang^3
#
#
#
# Elastic Constant Matrix: (Units=GPa)
#
#
# Indices 1 2 3 4 5 6 
#
# 1 103.1578 46.3968 50.1178 0.0000 0.0000 0.0000
# 2 46.3968 124.4291 36.3454 0.0000 0.0000 0.0000
# 3 50.1178 36.3454 124.5766 0.0000 0.0000 0.0000
# 4 0.0000 0.0000 0.0000 -0.0182 0.0000 0.0000
# 5 0.0000 0.0000 0.0000 0.0000 -28.9828 0.0000
# 6 0.0000 0.0000 0.0000 0.0000 0.0000 1.6806
#
#
#
# Elastic Compliance Matrix: (Units=1/GPa)
#
#
# Indices 1 2 3 4 5 6 
#
# 1 0.013491 -0.003766 -0.004329 0.000000 0.000000 0.000000
# 2 -0.003766 0.009837 -0.001355 0.000000 0.000000 0.000000
# 3 -0.004329 -0.001355 0.010164 0.000000 0.000000 0.000000
# 4 0.000000 0.000000 0.000000-55.066552 0.000000 0.000000
# 5 0.000000 0.000000 0.000000 0.000000 -0.034503 0.000000
# 6 0.000000 0.000000 0.000000 0.000000 0.000000 0.595015
#
#
# Mechanical properties :
#
#
# Convention : Reuss Voigt Hill
#
# Bulk Modulus (GPa) = 68.52870 68.65373 68.59122
# Shear Modulus (GPa) = -0.09183 9.15617 4.53217
#
# Velocity S-wave (km/s) = -0.23324 2.32899 1.63856
# Velocity P-wave (km/s) = 6.36587 6.92121 6.64934
#
# Compressibility (1/GPa) = 0.01459243
#
# Stress axis : x y z
#
# Youngs Moduli (GPa) = 74.12506 101.66022 98.38756
#
# Poissons Ratio (x) = 0.38285 0.42588
# Poissons Ratio (y) = 0.27915 0.13329
# Poissons Ratio (z) = 0.32086 0.13773
#
# Static dielectric constant tensor:
#      x y z
#    x 1.594480 0.000000 0.000000 
#    y 0.000000 1.615190 0.000000 
#    z 0.000000 0.000000 1.555870 
# 
# From -- ./inp_files/25641.got.cif
#   From: 2010.05.17/outbox.cif.g08.bks.cpg/sg57_13_cif.got.tgz:25641.got - 2010.06.03 13:58:18.
