data_PCOD9440961
_publ_section_title
;
Structure prediction by ZEFSAII (Michael W. Deem and Ramdas Pophale) SiO2 
 PCOD9440961
Probable space group: P N N M
;
_chemical_formula_sum "Si O2"
_cell_formula_units_Z 56
_cell_length_a 19.775435
_cell_length_b 18.651229
_cell_length_c 7.717608
_cell_angle_alpha 90.000000
_cell_angle_beta 90.000000
_cell_angle_gamma 90.000000
_cell_volume 2846.532951
_symmetry_space_group_name_H-M "P N N M"
_symmetry_group_IT_number 58
_symmetry_cell_setting 'orthorhombic'
loop_
_space_group_symop_operation_xyz
x,y,z
-x,-y,z
1/2+x,1/2-y,1/2-z
1/2-x,1/2+y,1/2-z
-x,-y,-z
x,y,-z
1/2-x,1/2+y,1/2+z
1/2+x,1/2-y,1/2+z
loop_
_atom_site_type_symbol
_atom_site_label
_atom_site_fract_x
_atom_site_fract_y
_atom_site_fract_z
Si Si1 0.215242 0.491426 0.800090
Si Si2 0.929606 0.532444 0.291052
Si Si3 0.352595 0.545107 0.291063
Si Si4 0.889177 0.691058 0.709189
Si Si5 0.393757 0.384426 0.287183
Si Si6 0.041226 0.162456 0.792420
Si Si7 0.754566 0.164894 0.196833
O O1 0.138130 0.510839 0.758762
O O2 0.274363 0.548101 0.764701
O O3 0.233677 0.419672 0.693221
O O4 0.219161 0.470365 0.000000
O O5 0.932466 0.533826 0.500000
O O6 0.917335 0.614211 0.230051
O O7 0.000000 0.500000 0.226853
O O8 0.353351 0.546210 0.500000
O O9 0.380974 0.467083 0.236158
O O10 0.401513 0.607629 0.226109
O O11 0.884462 0.686993 0.500000
O O12 0.936162 0.757072 0.755243
O O13 0.812019 0.701051 0.776453
O O14 0.392051 0.383125 0.500000
O O15 0.466447 0.357029 0.228019
O O16 0.329559 0.337499 0.225315
O O17 0.038777 0.153089 0.000000
O O18 0.761227 0.191723 0.000000
#
# Coordination Sequence:
#
# PCOD9440961 Si02
#       7
#     8   8   8   8   8   8   8
#     4  10  18  28  47  75 100 119 150 200 247 281
#     4   9  18  35  57  74  92 126 168 203 240 294
#     4   9  17  31  49  68  95 132 169 198 232 290
#     4   9  18  32  49  70  96 126 157 193 243 297
#     4   8  14  28  51  73  89 116 166 212 235 267
#     4  10  19  30  48  73  99 128 161 202 247 289
#     4   8  15  31  52  67  86 123 164 195 231 290
#
# _framework density 19.673055000000002
#
# number of rings (size 3 to 8) (size 9 to 14) (size 15 to 20)
#    0.000    3.000    0.000    3.429    0.000    4.857 
#    0.000    4.286    0.000    7.714    0.000    0.000 
#    0.000    0.000    0.000    0.000    0.000    0.000 
#
# Total GULP energy -312018.737574 kJ/mol
# GULP energy per Si atom -5571.763171 kJ/mol
# Density = 1.962828 g / cm^3
# Si number density = 19.673055 Si / 1000 Ang^3
#
#
#
# Elastic Constant Matrix: (Units=GPa)
#
#
# Indices 1 2 3 4 5 6 
#
# 1 224.3278 75.5018 8.8987 0.0000 0.0000 0.0000
# 2 75.5018 59.5584 4.4033 0.0000 0.0000 0.0000
# 3 8.8987 4.4033 40.8112 0.0000 0.0000 0.0000
# 4 0.0000 0.0000 0.0000 13.6172 0.0000 0.0000
# 5 0.0000 0.0000 0.0000 0.0000 8.2838 0.0000
# 6 0.0000 0.0000 0.0000 0.0000 0.0000 17.0803
#
#
#
# Elastic Compliance Matrix: (Units=1/GPa)
#
#
# Indices 1 2 3 4 5 6 
#
# 1 0.007792 -0.009830 -0.000638 0.000000 0.000000 0.000000
# 2 -0.009830 0.029327 -0.001021 0.000000 0.000000 0.000000
# 3 -0.000638 -0.001021 0.024752 0.000000 0.000000 0.000000
# 4 0.000000 0.000000 0.000000 0.073437 0.000000 0.000000
# 5 0.000000 0.000000 0.000000 0.000000 0.120718 0.000000
# 6 0.000000 0.000000 0.000000 0.000000 0.000000 0.058547
#
#
# Mechanical properties :
#
#
# Convention : Reuss Voigt Hill
#
# Bulk Modulus (GPa) = 25.71171 55.81167 40.76169
# Shear Modulus (GPa) = 14.26469 23.52248 18.89358
#
# Velocity S-wave (km/s) = 2.69567 3.46160 3.10236
# Velocity P-wave (km/s) = 4.77354 6.66394 5.79632
#
# Compressibility (1/GPa) = 0.03889278
#
# Stress axis : x y z
#
# Youngs Moduli (GPa) = 128.34285 34.09780 40.40010
#
# Poissons Ratio (x) = 0.33519 0.02579
# Poissons Ratio (y) = 1.26164 0.04124
# Poissons Ratio (z) = 0.08192 0.03481
#
# Static dielectric constant tensor:
#      x y z
#    x 1.739420 0.000000 0.000000 
#    y 0.000000 1.652010 0.000000 
#    z 0.000000 0.000000 1.740570 
# 
# From -- ./inp_files/8107.got.cif
#   From: 2010.05.17/outbox.cif.g08.bks.cpg/sg58_5_cif.got.tgz:8107.got - 2010.06.03 14:20:14.
