data_PCOD9440478
_publ_section_title
;
Structure prediction by ZEFSAII (Michael W. Deem and Ramdas Pophale) SiO2 
 PCOD9440478
Probable space group: P B C M
;
_chemical_formula_sum "Si O2"
_cell_formula_units_Z 64
_cell_length_a 12.000000
_cell_length_b 15.000000
_cell_length_c 18.000000
_cell_angle_alpha 90.000000
_cell_angle_beta 90.000000
_cell_angle_gamma 90.000000
_cell_volume 3240.000000
_symmetry_space_group_name_H-M "P B C M"
_symmetry_group_IT_number 57
_symmetry_cell_setting 'orthorhombic'
loop_
_space_group_symop_operation_xyz
x,y,z
-x,-y,1/2+z
x,1/2-y,-z
-x,1/2+y,1/2-z
-x,-y,-z
x,y,1/2-z
-x,1/2+y,z
x,1/2-y,1/2+z
loop_
_atom_site_type_symbol
_atom_site_label
_atom_site_fract_x
_atom_site_fract_y
_atom_site_fract_z
Si Si1 0.934214 0.375123 0.058363
Si Si2 0.131295 0.714501 0.336716
Si Si3 0.814288 0.003134 0.839059
Si Si4 0.425263 0.147380 0.507719
Si Si5 0.131024 0.310640 0.664618
Si Si6 0.224359 0.563165 0.427415
Si Si7 0.816224 0.863520 0.074762
Si Si8 0.609263 0.467484 0.062567
O O1 0.875906 0.291102 0.099666
O O2 0.919447 0.449102 0.122670
O O3 0.062257 0.360384 0.036584
O O4 0.870764 0.408513 0.986240
O O5 0.152476 0.742645 0.250000
O O6 0.216554 0.638632 0.364482
O O7 0.003055 0.680721 0.337902
O O8 0.818489 0.009111 0.750000
O O9 0.702318 0.044174 0.874380
O O10 0.817316 0.901050 0.866176
O O11 0.463498 0.250000 0.500000
O O12 0.295282 0.152143 0.528629
O O13 0.504672 0.098509 0.568091
O O14 0.427542 0.071492 0.442880
O O15 0.163926 0.308170 0.750000
O O16 0.171567 0.218821 0.630158
O O17 0.199136 0.464628 0.396304
O O18 0.330436 0.555441 0.483030
#
# Coordination Sequence:
#
# PCOD9440478 Si02
#       8
#     8   8   8   8   8   8   8   8
#     4  10  20  33  51  81 113 142 182 226 269 326
#     4  10  20  33  50  77 114 150 181 215 267 333
#     4  10  19  35  58  79 108 148 185 225 274 333
#     4  10  20  36  57  77 105 140 176 230 284 322
#     4   9  19  33  51  79 113 147 179 217 271 331
#     4  10  20  34  54  79 110 144 178 226 278 326
#     4  10  20  33  53  80 108 140 182 225 271 326
#     4   9  21  37  54  81 106 136 188 231 273 329
#
# _framework density 19.753086
#
# number of rings (size 3 to 8) (size 9 to 14) (size 15 to 20)
#    0.000    2.250    0.000    2.625    0.000    7.000 
#    0.000    0.625    0.000    5.250    0.000    3.500 
#    0.000    0.000    0.000    0.000    0.000    0.000 
#
# Total GULP energy -356591.438351 kJ/mol
# GULP energy per Si atom -5571.741224 kJ/mol
# Density = 1.970813 g / cm^3
# Si number density = 19.753086 Si / 1000 Ang^3
#
#
#
# Elastic Constant Matrix: (Units=GPa)
#
#
# Indices 1 2 3 4 5 6 
#
# 1 65.1930 27.7851 15.9985 0.0000 0.0000 0.0000
# 2 27.7851 130.3212 20.8931 0.0000 0.0000 0.0000
# 3 15.9985 20.8931 54.0672 0.0000 0.0000 0.0000
# 4 0.0000 0.0000 0.0000 23.1820 0.0000 0.0000
# 5 0.0000 0.0000 0.0000 0.0000 15.4941 0.0000
# 6 0.0000 0.0000 0.0000 0.0000 0.0000 25.4995
#
#
#
# Elastic Compliance Matrix: (Units=1/GPa)
#
#
# Indices 1 2 3 4 5 6 
#
# 1 0.017655 -0.003120 -0.004018 0.000000 0.000000 0.000000
# 2 -0.003120 0.008731 -0.002451 0.000000 0.000000 0.000000
# 3 -0.004018 -0.002451 0.020632 0.000000 0.000000 0.000000
# 4 0.000000 0.000000 0.000000 0.043137 0.000000 0.000000
# 5 0.000000 0.000000 0.000000 0.000000 0.064541 0.000000
# 6 0.000000 0.000000 0.000000 0.000000 0.000000 0.039216
#
#
# Mechanical properties :
#
#
# Convention : Reuss Voigt Hill
#
# Bulk Modulus (GPa) = 35.92021 42.10389 39.01205
# Shear Modulus (GPa) = 22.48503 25.16212 23.82357
#
# Velocity S-wave (km/s) = 3.37754 3.57295 3.47662
# Velocity P-wave (km/s) = 5.78225 6.19537 5.99237
#
# Compressibility (1/GPa) = 0.02783948
#
# Stress axis : x y z
#
# Youngs Moduli (GPa) = 56.64148 114.52856 48.46918
#
# Poissons Ratio (x) = 0.35731 0.19477
# Poissons Ratio (y) = 0.17671 0.11879
# Poissons Ratio (z) = 0.22761 0.28070
#
# Static dielectric constant tensor:
#      x y z
#    x 1.711730 0.000000 0.000000 
#    y 0.000000 1.774950 0.000000 
#    z 0.000000 0.000000 1.692880 
# 
# From -- ./inp_files/22029.got.cif
#   From: 2010.05.17/outbox.ucp.g08.bks.cvg/sg57_12_cif.got.tgz:22029.got - 2010.06.11 16:39:23.
