data_PCOD9440120
_publ_section_title
;
Structure prediction by ZEFSAII (Michael W. Deem and Ramdas Pophale) SiO2 
 PCOD9440120
Probable space group: P B C M
;
_chemical_formula_sum "Si O2"
_cell_formula_units_Z 40
_cell_length_a 24.298982
_cell_length_b 8.673023
_cell_length_c 9.074401
_cell_angle_alpha 90.000000
_cell_angle_beta 90.000000
_cell_angle_gamma 90.000000
_cell_volume 1912.390353
_symmetry_space_group_name_H-M "P B C M"
_symmetry_group_IT_number 57
_symmetry_cell_setting 'orthorhombic'
loop_
_space_group_symop_operation_xyz
x,y,z
-x,-y,1/2+z
x,1/2-y,-z
-x,1/2+y,1/2-z
-x,-y,-z
x,y,1/2-z
-x,1/2+y,z
x,1/2-y,1/2+z
loop_
_atom_site_type_symbol
_atom_site_label
_atom_site_fract_x
_atom_site_fract_y
_atom_site_fract_z
Si Si1 0.553274 0.420611 0.570079
Si Si2 0.876571 0.432295 0.974697
Si Si3 0.077809 0.415787 0.750000
Si Si4 0.039204 0.062002 0.750000
Si Si5 0.334654 0.579357 0.928732
Si Si6 0.234805 0.407150 0.418061
O O1 0.552513 0.250000 0.500000
O O2 0.500000 0.500000 0.500000
O O3 0.553210 0.420010 0.750000
O O4 0.609872 0.489282 0.503052
O O5 0.884358 0.539816 0.114971
O O6 0.876654 0.250000 0.000000
O O7 0.930628 0.477998 0.883923
O O8 0.818471 0.483160 0.909108
O O9 0.055331 0.241956 0.750000
O O10 0.025180 0.529746 0.750000
O O11 0.338678 0.587010 0.750000
O O12 0.328685 0.750000 0.000000
O O13 0.282296 0.484741 0.984421
O O14 0.219178 0.250000 0.500000
O O15 0.253845 0.378665 0.250000
#
# Coordination Sequence:
#
# PCOD9440120 Si02
#       6
#     8   8   4   4   8   8
#     4  11  22  40  65  97 136 180 230 285 345 409
#     4  12  26  44  69  98 133 175 225 276 341 412
#     4  12  26  42  74  94 140 172 225 274 343 404
#     4  12  24  48  64 104 130 180 219 282 333 412
#     4  11  23  42  68  98 134 178 228 280 341 407
#     4  12  26  45  68  97 134 173 224 282 347 413
#
# _framework density 20.916231
#
# number of rings (size 3 to 8) (size 9 to 14) (size 15 to 20)
#    0.000    0.400    1.000   10.200    2.800    0.800 
#    0.000    4.000    0.000    0.000    0.000    0.000 
#    0.000    0.000    0.000    0.000    0.000    0.000 
#
# Total GULP energy -223528.043468 kJ/mol
# GULP energy per Si atom -5588.201087 kJ/mol
# Density = 2.086862 g / cm^3
# Si number density = 20.916231 Si / 1000 Ang^3
#
#
#
# Elastic Constant Matrix: (Units=GPa)
#
#
# Indices 1 2 3 4 5 6 
#
# 1 124.8837 33.8420 46.5115 0.0000 0.0000 0.0000
# 2 33.8420 120.3534 28.0932 0.0000 0.0000 0.0000
# 3 46.5115 28.0932 195.5626 0.0000 0.0000 0.0000
# 4 0.0000 0.0000 0.0000 10.7569 0.0000 0.0000
# 5 0.0000 0.0000 0.0000 0.0000 40.9715 0.0000
# 6 0.0000 0.0000 0.0000 0.0000 0.0000 36.9488
#
#
#
# Elastic Compliance Matrix: (Units=1/GPa)
#
#
# Indices 1 2 3 4 5 6 
#
# 1 0.009304 -0.002173 -0.001901 0.000000 0.000000 0.000000
# 2 -0.002173 0.009104 -0.000791 0.000000 0.000000 0.000000
# 3 -0.001901 -0.000791 0.005679 0.000000 0.000000 0.000000
# 4 0.000000 0.000000 0.000000 0.092964 0.000000 0.000000
# 5 0.000000 0.000000 0.000000 0.000000 0.024407 0.000000
# 6 0.000000 0.000000 0.000000 0.000000 0.000000 0.027065
#
#
# Mechanical properties :
#
#
# Convention : Reuss Voigt Hill
#
# Bulk Modulus (GPa) = 69.64375 73.07702 71.36038
# Shear Modulus (GPa) = 27.31671 39.89230 33.60450
#
# Velocity S-wave (km/s) = 3.61779 4.37194 4.01262
# Velocity P-wave (km/s) = 7.12881 7.77810 7.46053
#
# Compressibility (1/GPa) = 0.01435879
#
# Stress axis : x y z
#
# Youngs Moduli (GPa) = 107.47966 109.83663 176.08217
#
# Poissons Ratio (x) = 0.23862 0.33469
# Poissons Ratio (y) = 0.23350 0.13931
# Poissons Ratio (z) = 0.20429 0.08690
#
# Static dielectric constant tensor:
#      x y z
#    x 1.736150 0.000000 0.000000 
#    y 0.000000 1.756180 0.000000 
#    z 0.000000 0.000000 1.738940 
# 
# From -- ./inp_files/9652.got.cif
#   From: 2010.05.17/outbox.cif.g08.bks.cpg/sg57_5_cif.got.tgz:9652.got - 2010.06.03 13:58:18.
