data_PCOD9440479
_publ_section_title
;
Structure prediction by ZEFSAII (Michael W. Deem and Ramdas Pophale) SiO2 
 PCOD9440479
Probable space group: P B C M
;
_chemical_formula_sum "Si O2"
_cell_formula_units_Z 64
_cell_length_a 12.000000
_cell_length_b 30.000000
_cell_length_c 9.000000
_cell_angle_alpha 90.000000
_cell_angle_beta 90.000000
_cell_angle_gamma 90.000000
_cell_volume 3240.000000
_symmetry_space_group_name_H-M "P B C M"
_symmetry_group_IT_number 57
_symmetry_cell_setting 'orthorhombic'
loop_
_space_group_symop_operation_xyz
x,y,z
-x,-y,1/2+z
x,1/2-y,-z
-x,1/2+y,1/2-z
-x,-y,-z
x,y,1/2-z
-x,1/2+y,z
x,1/2-y,1/2+z
loop_
_atom_site_type_symbol
_atom_site_label
_atom_site_fract_x
_atom_site_fract_y
_atom_site_fract_z
Si Si1 0.280718 0.461091 0.921154
Si Si2 0.037162 0.082745 0.075362
Si Si3 0.055033 0.177730 0.927662
Si Si4 0.427481 0.381711 0.569229
Si Si5 0.184467 0.959376 0.583657
Si Si6 0.713765 0.704699 0.428365
Si Si7 0.680822 0.131796 0.081121
Si Si8 0.187889 0.793005 0.424471
O O1 0.310243 0.468568 0.750000
O O2 0.158380 0.438894 0.927227
O O3 0.367485 0.426091 0.987911
O O4 0.264688 0.507538 0.999418
O O5 0.012484 0.094058 0.250000
O O6 0.938896 0.050132 0.021628
O O7 0.041241 0.126562 0.976360
O O8 0.069087 0.181874 0.750000
O O9 0.939670 0.200431 0.975181
O O10 0.161614 0.196994 0.011572
O O11 0.420305 0.383417 0.750000
O O12 0.359133 0.337906 0.525289
O O13 0.556102 0.378569 0.530718
O O14 0.168903 0.977248 0.750000
O O15 0.245528 0.912285 0.588054
O O16 0.669543 0.750000 0.500000
O O17 0.715114 0.707651 0.250000
O O18 0.675513 0.150404 0.250000
O O19 0.741578 0.165024 0.972602
O O20 0.238232 0.750000 0.500000
O O21 0.185856 0.787721 0.250000
#
# Coordination Sequence:
#
# PCOD9440479 Si02
#       8
#     8   8   8   8   8   8   8   8
#     4  10  20  36  58  83 116 155 192 233 289 348
#     4  10  19  35  58  84 115 155 191 232 294 349
#     4  11  22  36  59  90 119 150 189 234 288 347
#     4   9  20  39  61  84 113 154 197 241 290 339
#     4  10  21  35  56  87 118 151 192 237 289 343
#     4  11  22  39  61  86 119 152 191 235 287 346
#     4  10  21  40  63  84 114 154 197 243 289 338
#     4  11  24  40  60  88 119 151 190 235 288 345
#
# _framework density 19.753086
#
# number of rings (size 3 to 8) (size 9 to 14) (size 15 to 20)
#    0.000    1.750    2.500    1.875    0.000    5.000 
#    0.000    3.125    0.000    0.000    0.000    0.000 
#    0.000    0.000    0.000    0.000    0.000    0.000 
#
# Total GULP energy -357153.091893 kJ/mol
# GULP energy per Si atom -5580.517061 kJ/mol
# Density = 1.970813 g / cm^3
# Si number density = 19.753086 Si / 1000 Ang^3
#
#
#
# Elastic Constant Matrix: (Units=GPa)
#
#
# Indices 1 2 3 4 5 6 
#
# 1 56.1543 -17.2055 5.3122 0.0000 0.0000 0.0000
# 2 -17.2055 48.2594 11.7163 0.0000 0.0000 0.0000
# 3 5.3122 11.7163 10.0957 0.0000 0.0000 0.0000
# 4 0.0000 0.0000 0.0000 27.0804 0.0000 0.0000
# 5 0.0000 0.0000 0.0000 0.0000 7.7242 0.0000
# 6 0.0000 0.0000 0.0000 0.0000 0.0000 -17.9749
#
#
#
# Elastic Compliance Matrix: (Units=1/GPa)
#
#
# Indices 1 2 3 4 5 6 
#
# 1 0.026594 0.017931 -0.034803 0.000000 0.000000 0.000000
# 2 0.017931 0.040939 -0.056947 0.000000 0.000000 0.000000
# 3 -0.034803 -0.056947 0.183453 0.000000 0.000000 0.000000
# 4 0.000000 0.000000 0.000000 0.036927 0.000000 0.000000
# 5 0.000000 0.000000 0.000000 0.000000 0.129463 0.000000
# 6 0.000000 0.000000 0.000000 0.000000 0.000000 -0.055633
#
#
# Mechanical properties :
#
#
# Convention : Reuss Voigt Hill
#
# Bulk Modulus (GPa) = 9.67585 12.68394 11.17990
# Shear Modulus (GPa) = 9.19402 11.01170 10.10286
#
# Velocity S-wave (km/s) = 2.15976 2.36364 2.26400
# Velocity P-wave (km/s) = 3.33594 3.72615 3.53643
#
# Compressibility (1/GPa) = 0.10335005
#
# Stress axis : x y z
#
# Youngs Moduli (GPa) = 37.60185 24.42630 5.45098
#
# Poissons Ratio (x) = -0.43799 0.18971
# Poissons Ratio (y) = -0.67424 0.31041
# Poissons Ratio (z) = 1.30866 1.39099
#
# Static dielectric constant tensor:
#      x y z
#    x 1.678100 0.000000 0.000000 
#    y 0.000000 1.747900 0.000000 
#    z 0.000000 0.000000 1.700440 
# 
# From -- ./inp_files/3845.got.cif
#   From: 2010.05.17/outbox.ucp.g08.bks.cvg/sg57_2_cif.got.tgz:3845.got - 2010.06.11 16:39:23.
