data_PCOD9440917
_publ_section_title
;
Structure prediction by ZEFSAII (Michael W. Deem and Ramdas Pophale) SiO2 
 PCOD9440917
Probable space group: P N N M
;
_chemical_formula_sum "Si O2"
_cell_formula_units_Z 52
_cell_length_a 10.775263
_cell_length_b 9.199442
_cell_length_c 25.673827
_cell_angle_alpha 90.000000
_cell_angle_beta 90.000000
_cell_angle_gamma 90.000000
_cell_volume 2544.954225
_symmetry_space_group_name_H-M "P N N M"
_symmetry_group_IT_number 58
_symmetry_cell_setting 'orthorhombic'
loop_
_space_group_symop_operation_xyz
x,y,z
-x,-y,z
1/2+x,1/2-y,1/2-z
1/2-x,1/2+y,1/2-z
-x,-y,-z
x,y,-z
1/2-x,1/2+y,1/2+z
1/2+x,1/2-y,1/2+z
loop_
_atom_site_type_symbol
_atom_site_label
_atom_site_fract_x
_atom_site_fract_y
_atom_site_fract_z
Si Si1 0.222765 0.337235 0.500000
Si Si2 0.364524 0.173052 0.777120
Si Si3 0.500000 0.163551 0.383936
Si Si4 0.277235 0.162765 0.000000
Si Si5 0.756577 0.325623 0.386480
Si Si6 0.743423 0.174377 0.886480
Si Si7 0.000000 0.748671 0.000000
Si Si8 0.364524 0.826948 0.777120
O O1 0.170003 0.500000 0.500000
O O2 0.195396 0.271398 0.556899
O O3 0.373554 0.339833 0.500000
O O4 0.349630 0.197028 0.839043
O O5 0.500000 0.224063 0.758979
O O6 0.250000 0.250000 0.750000
O O7 0.356502 0.000000 0.768346
O O8 0.626413 0.249380 0.371719
O O9 0.373587 0.249380 0.371719
O O10 0.500000 0.159012 0.447035
O O11 0.500000 0.000000 0.362550
O O12 0.304604 0.228602 0.056899
O O13 0.126446 0.160167 0.000000
O O14 0.735160 0.500000 0.391730
O O15 0.650370 0.197028 0.839043
#
# Coordination Sequence:
#
# PCOD9440917 Si02
#       8
#     4   8   8   4   8   8   4   8
#     4   8  13  25  48  76 105 143 183 221 271 335
#     4  10  23  42  62  85 114 148 190 239 287 339
#     4  10  18  27  46  77 112 147 186 228 271 323
#     4   8  13  25  48  76 105 143 183 221 271 335
#     4   9  18  33  53  78 111 147 185 228 279 336
#     4   9  18  33  53  78 111 147 185 228 279 336
#     4   8  14  24  38  66 109 150 183 222 267 312
#     4  10  23  42  62  85 114 148 190 239 287 339
#
# _framework density 20.432589
#
# number of rings (size 3 to 8) (size 9 to 14) (size 15 to 20)
#    0.000    2.769    0.000    0.923    2.154    5.538 
#    0.000    0.769    0.000    4.615    0.000    0.000 
#    0.000    9.846    0.000    0.000    0.000    0.000 
#
# Total GULP energy -289819.121844 kJ/mol
# GULP energy per Si atom -5573.444651 kJ/mol
# Density = 2.038608 g / cm^3
# Si number density = 20.432589 Si / 1000 Ang^3
#
#
#
# Elastic Constant Matrix: (Units=GPa)
#
#
# Indices 1 2 3 4 5 6 
#
# 1 115.8728 33.0743 45.5802 0.0000 0.0000 0.0000
# 2 33.0743 40.6921 20.3561 0.0000 0.0000 0.0000
# 3 45.5802 20.3561 97.0083 0.0000 0.0000 0.0000
# 4 0.0000 0.0000 0.0000 15.1656 0.0000 0.0000
# 5 0.0000 0.0000 0.0000 0.0000 25.2238 0.0000
# 6 0.0000 0.0000 0.0000 0.0000 0.0000 17.5720
#
#
#
# Elastic Compliance Matrix: (Units=1/GPa)
#
#
# Indices 1 2 3 4 5 6 
#
# 1 0.012613 -0.008142 -0.004218 0.000000 0.000000 0.000000
# 2 -0.008142 0.032713 -0.003039 0.000000 0.000000 0.000000
# 3 -0.004218 -0.003039 0.012928 0.000000 0.000000 0.000000
# 4 0.000000 0.000000 0.000000 0.065938 0.000000 0.000000
# 5 0.000000 0.000000 0.000000 0.000000 0.039645 0.000000
# 6 0.000000 0.000000 0.000000 0.000000 0.000000 0.056909
#
#
# Mechanical properties :
#
#
# Convention : Reuss Voigt Hill
#
# Bulk Modulus (GPa) = 36.42139 50.17716 43.29928
# Shear Modulus (GPa) = 19.17942 21.89648 20.53795
#
# Velocity S-wave (km/s) = 3.06709 3.27715 3.17386
# Velocity P-wave (km/s) = 5.51422 6.23942 5.88799
#
# Compressibility (1/GPa) = 0.02745639
#
# Stress axis : x y z
#
# Youngs Moduli (GPa) = 79.28070 30.56908 77.35199
#
# Poissons Ratio (x) = 0.24890 0.32627
# Poissons Ratio (y) = 0.64551 0.23506
# Poissons Ratio (z) = 0.33441 0.09289
#
# Static dielectric constant tensor:
#      x y z
#    x 1.708880 0.000000 0.000000 
#    y 0.000000 1.708190 0.000000 
#    z 0.000000 0.000000 1.814920 
# 
# From -- ./inp_files/33548.got.cif
#   From: 2010.05.17/outbox.cif.g08.bks.cpg/sg58_17_cif.got.tgz:33548.got - 2010.06.03 14:20:14.
