data_PCOD9440460
_publ_section_title
;
Structure prediction by ZEFSAII (Michael W. Deem and Ramdas Pophale) SiO2 
 PCOD9440460
Probable space group: P B C M
;
_chemical_formula_sum "Si O2"
_cell_formula_units_Z 64
_cell_length_a 24.000000
_cell_length_b 9.000000
_cell_length_c 15.000000
_cell_angle_alpha 90.000000
_cell_angle_beta 90.000000
_cell_angle_gamma 90.000000
_cell_volume 3240.000000
_symmetry_space_group_name_H-M "P B C M"
_symmetry_group_IT_number 57
_symmetry_cell_setting 'orthorhombic'
loop_
_space_group_symop_operation_xyz
x,y,z
-x,-y,1/2+z
x,1/2-y,-z
-x,1/2+y,1/2-z
-x,-y,-z
x,y,1/2-z
-x,1/2+y,z
x,1/2-y,1/2+z
loop_
_atom_site_type_symbol
_atom_site_label
_atom_site_fract_x
_atom_site_fract_y
_atom_site_fract_z
Si Si1 0.675753 0.607997 0.460803
Si Si2 0.436265 0.097890 0.140108
Si Si3 0.246944 0.895604 0.145617
Si Si4 0.923291 0.005914 0.144912
Si Si5 0.335335 0.842647 0.911226
Si Si6 0.037988 0.650735 0.646029
Si Si7 0.451326 0.739960 0.647016
Si Si8 0.137421 0.577369 0.974998
O O1 0.706631 0.750000 0.500000
O O2 0.617442 0.654121 0.414226
O O3 0.707357 0.515655 0.384783
O O4 0.671442 0.504723 0.548412
O O5 0.428902 0.106713 0.250000
O O6 0.493953 0.176944 0.112294
O O7 0.441441 0.925272 0.111554
O O8 0.232759 0.902216 0.250000
O O9 0.279661 0.737511 0.127980
O O10 0.193653 0.935614 0.083776
O O11 0.906274 0.989655 0.250000
O O12 0.948906 0.173467 0.135849
O O13 0.875230 0.994557 0.069139
O O14 0.974356 0.893715 0.125762
O O15 0.392522 0.826231 0.857087
O O16 0.347403 0.750000 0.000000
O O17 0.047003 0.613403 0.750000
O O18 0.082290 0.561773 0.586114
O O19 0.464991 0.716378 0.750000
O O20 0.139763 0.750000 0.000000
#
# Coordination Sequence:
#
# PCOD9440460 Si02
#       8
#     8   8   8   8   8   8   8   8
#     4  11  24  40  58  85 119 154 189 244 310 377
#     4  10  21  37  57  81 117 156 191 236 296 368
#     4  11  22  42  67  84 110 156 207 262 313 361
#     4   9  18  32  53  83 123 160 194 241 296 353
#     4  10  20  37  59  84 110 146 194 245 299 359
#     4   9  17  31  51  81 117 155 196 237 290 348
#     4  10  20  35  55  84 115 150 193 237 291 362
#     4  10  19  33  57  87 113 149 204 256 295 351
#
# _framework density 19.753086
#
# number of rings (size 3 to 8) (size 9 to 14) (size 15 to 20)
#    0.000    2.000    2.500    2.625    1.750    1.500 
#    0.000    3.125    0.000    3.000    0.000    0.000 
#    0.000    0.000    0.000    0.000    0.000    0.000 
#
# Total GULP energy -356472.034195 kJ/mol
# GULP energy per Si atom -5569.875534 kJ/mol
# Density = 1.970813 g / cm^3
# Si number density = 19.753086 Si / 1000 Ang^3
#
#
#
# Elastic Constant Matrix: (Units=GPa)
#
#
# Indices 1 2 3 4 5 6 
#
# 1 99.1660 -1.8534 51.3105 0.0000 0.0000 0.0000
# 2 -1.8534 38.5068 16.5751 0.0000 0.0000 0.0000
# 3 51.3105 16.5751 93.5719 0.0000 0.0000 0.0000
# 4 0.0000 0.0000 0.0000 16.8381 0.0000 0.0000
# 5 0.0000 0.0000 0.0000 0.0000 42.2843 0.0000
# 6 0.0000 0.0000 0.0000 0.0000 0.0000 20.6362
#
#
#
# Elastic Compliance Matrix: (Units=1/GPa)
#
#
# Indices 1 2 3 4 5 6 
#
# 1 0.014779 0.004546 -0.008909 0.000000 0.000000 0.000000
# 2 0.004546 0.029512 -0.007721 0.000000 0.000000 0.000000
# 3 -0.008909 -0.007721 0.016940 0.000000 0.000000 0.000000
# 4 0.000000 0.000000 0.000000 0.059389 0.000000 0.000000
# 5 0.000000 0.000000 0.000000 0.000000 0.023649 0.000000
# 6 0.000000 0.000000 0.000000 0.000000 0.000000 0.048459
#
#
# Mechanical properties :
#
#
# Convention : Reuss Voigt Hill
#
# Bulk Modulus (GPa) = 26.98088 40.36769 33.67428
# Shear Modulus (GPa) = 21.81029 26.96589 24.38809
#
# Velocity S-wave (km/s) = 3.32647 3.69880 3.51757
# Velocity P-wave (km/s) = 5.33316 6.22270 5.79502
#
# Compressibility (1/GPa) = 0.03706329
#
# Stress axis : x y z
#
# Youngs Moduli (GPa) = 67.66355 33.88499 59.03148
#
# Poissons Ratio (x) = -0.15405 0.52594
# Poissons Ratio (y) = -0.30762 0.45576
# Poissons Ratio (z) = 0.60285 0.26161
#
# Static dielectric constant tensor:
#      x y z
#    x 1.735390 0.000000 0.000000 
#    y 0.000000 1.777220 0.000000 
#    z 0.000000 0.000000 1.716360 
# 
# From -- ./inp_files/19475.got.cif
#   From: 2010.05.17/outbox.ucp.g08.bks.cvg/sg57_10_cif.got.tgz:19475.got - 2010.06.11 16:39:23.
