data_PCOD9440290
_publ_section_title
;
Structure prediction by ZEFSAII (Michael W. Deem and Ramdas Pophale) SiO2 
 PCOD9440290
Probable space group: P B C M
;
_chemical_formula_sum "Si O2"
_cell_formula_units_Z 40
_cell_length_a 4.981425
_cell_length_b 21.631513
_cell_length_c 14.385694
_cell_angle_alpha 90.000000
_cell_angle_beta 90.000000
_cell_angle_gamma 90.000000
_cell_volume 1550.141385
_symmetry_space_group_name_H-M "P B C M"
_symmetry_group_IT_number 57
_symmetry_cell_setting 'orthorhombic'
loop_
_space_group_symop_operation_xyz
x,y,z
-x,-y,1/2+z
x,1/2-y,-z
-x,1/2+y,1/2-z
-x,-y,-z
x,y,1/2-z
-x,1/2+y,z
x,1/2-y,1/2+z
loop_
_atom_site_type_symbol
_atom_site_label
_atom_site_fract_x
_atom_site_fract_y
_atom_site_fract_z
Si Si1 0.726007 0.594220 0.142704
Si Si2 0.568495 0.221529 0.397658
Si Si3 0.450110 0.461715 0.358644
Si Si4 0.950628 0.092212 0.960952
Si Si5 0.059708 0.290331 0.152106
O O1 0.815994 0.601240 0.250000
O O2 0.546998 0.653261 0.113613
O O3 0.546981 0.532319 0.137944
O O4 0.963800 0.586866 0.067790
O O5 0.564456 0.250000 0.500000
O O6 0.865442 0.231765 0.359399
O O7 0.360585 0.266874 0.347203
O O8 0.461983 0.441958 0.250000
O O9 0.157632 0.449315 0.400758
O O10 0.655759 0.424970 0.425607
O O11 0.007598 0.162394 0.930162
O O12 0.994801 0.322027 0.250000
#
# Coordination Sequence:
#
# PCOD9440290 Si02
#       5
#     8   8   8   8   8
#     4  11  26  48  75 108 149 198 245 299 363 436
#     4  12  26  48  71 104 147 186 244 299 366 433
#     4  11  25  46  75 110 149 194 244 298 366 433
#     4  12  25  47  74 110 151 189 244 303 360 434
#     4  12  25  44  74 105 142 190 239 300 364 428
#
# _framework density 25.804099000000001
#
# number of rings (size 3 to 8) (size 9 to 14) (size 15 to 20)
#    0.000    0.400    2.000    6.600    0.000    1.600 
#    0.000    7.000    0.000    0.000    0.000    0.000 
#    0.000    0.000    0.000    0.000    0.000    0.000 
#
# Total GULP energy -224575.801343 kJ/mol
# GULP energy per Si atom -5614.395034 kJ/mol
# Density = 2.574537 g / cm^3
# Si number density = 25.804099 Si / 1000 Ang^3
#
#
#
# Elastic Constant Matrix: (Units=GPa)
#
#
# Indices 1 2 3 4 5 6 
#
# 1 76.4721 1.2015 38.9669 0.0000 0.0000 0.0000
# 2 1.2015 111.9485 30.0579 0.0000 0.0000 0.0000
# 3 38.9669 30.0579 211.6461 0.0000 0.0000 0.0000
# 4 0.0000 0.0000 0.0000 81.8303 0.0000 0.0000
# 5 0.0000 0.0000 0.0000 0.0000 18.7235 0.0000
# 6 0.0000 0.0000 0.0000 0.0000 0.0000 42.6283
#
#
#
# Elastic Compliance Matrix: (Units=1/GPa)
#
#
# Indices 1 2 3 4 5 6 
#
# 1 0.014467 0.000582 -0.002746 0.000000 0.000000 0.000000
# 2 0.000582 0.009310 -0.001429 0.000000 0.000000 0.000000
# 3 -0.002746 -0.001429 0.005433 0.000000 0.000000 0.000000
# 4 0.000000 0.000000 0.000000 0.012220 0.000000 0.000000
# 5 0.000000 0.000000 0.000000 0.000000 0.053409 0.000000
# 6 0.000000 0.000000 0.000000 0.000000 0.000000 0.023459
#
#
# Mechanical properties :
#
#
# Convention : Reuss Voigt Hill
#
# Bulk Modulus (GPa) = 45.40604 60.05772 52.73188
# Shear Modulus (GPa) = 37.64309 50.62578 44.13443
#
# Velocity S-wave (km/s) = 3.82357 4.43417 4.14014
# Velocity P-wave (km/s) = 6.09324 7.03853 6.58287
#
# Compressibility (1/GPa) = 0.02202350
#
# Stress axis : x y z
#
# Youngs Moduli (GPa) = 69.12347 107.40883 184.04391
#
# Poissons Ratio (x) = -0.06252 0.50542
# Poissons Ratio (y) = -0.04024 0.26307
# Poissons Ratio (z) = 0.18983 0.15353
#
# Static dielectric constant tensor:
#      x y z
#    x 1.963080 0.000000 0.000000 
#    y 0.000000 1.996710 0.000000 
#    z 0.000000 0.000000 2.369410 
# 
# From -- ./inp_files/14942.got.cif
#   From: 2010.05.17/outbox.cif.g08.bks.cpg/sg57_8_cif.got.tgz:14942.got - 2010.06.03 13:58:18.
