data_PCOD9440531
_publ_section_title
;
Structure prediction by ZEFSAII (Michael W. Deem and Ramdas Pophale) SiO2 
 PCOD9440531
Probable space group: P B C M
;
_chemical_formula_sum "Si O2"
_cell_formula_units_Z 64
_cell_length_a 24.000000
_cell_length_b 15.000000
_cell_length_c 9.000000
_cell_angle_alpha 90.000000
_cell_angle_beta 90.000000
_cell_angle_gamma 90.000000
_cell_volume 3240.000000
_symmetry_space_group_name_H-M "P B C M"
_symmetry_group_IT_number 57
_symmetry_cell_setting 'orthorhombic'
loop_
_space_group_symop_operation_xyz
x,y,z
-x,-y,1/2+z
x,1/2-y,-z
-x,1/2+y,1/2-z
-x,-y,-z
x,y,1/2-z
-x,1/2+y,z
x,1/2-y,1/2+z
loop_
_atom_site_type_symbol
_atom_site_label
_atom_site_fract_x
_atom_site_fract_y
_atom_site_fract_z
Si Si1 0.396337 0.162010 0.572983
Si Si2 0.691030 0.981516 0.430385
Si Si3 0.813552 0.973703 0.427010
Si Si4 0.986024 0.094368 0.428302
Si Si5 0.865342 0.339752 0.574115
Si Si6 0.105416 0.338093 0.925549
Si Si7 0.368258 0.842191 0.571585
Si Si8 0.483555 0.905993 0.428513
O O1 0.373167 0.250000 0.500000
O O2 0.391243 0.166229 0.750000
O O3 0.461505 0.151990 0.540118
O O4 0.360203 0.078884 0.518824
O O5 0.692357 0.978237 0.250000
O O6 0.675810 0.081880 0.469562
O O7 0.751625 0.950551 0.480521
O O8 0.818268 0.956493 0.250000
O O9 0.861470 0.920958 0.509668
O O10 0.824661 0.077837 0.450761
O O11 0.981983 0.083336 0.250000
O O12 0.040056 0.153167 0.461683
O O13 0.927394 0.133802 0.481801
O O14 0.000000 0.000000 0.500000
O O15 0.845786 0.250000 0.500000
O O16 0.870088 0.325917 0.750000
O O17 0.111198 0.334381 0.750000
O O18 0.128953 0.250000 0.000000
O O19 0.351389 0.750000 0.500000
O O20 0.372828 0.836975 0.750000
O O21 0.428344 0.868972 0.504972
O O22 0.476397 0.912585 0.250000
O O23 0.500000 0.000000 0.500000
#
# Coordination Sequence:
#
# PCOD9440531 Si02
#       8
#     8   8   8   8   8   8   8   8
#     4  10  21  38  58  84 114 148 187 231 285 341
#     4   9  20  40  61  81 113 155 194 239 291 338
#     4  10  21  40  63  83 112 154 199 244 290 339
#     4  10  20  35  57  86 116 149 188 233 288 344
#     4  10  21  36  57  86 115 149 189 232 286 343
#     4  11  23  38  59  87 119 153 190 238 291 347
#     4  11  22  39  60  87 121 155 194 239 290 351
#     4  11  21  36  60  88 118 153 191 237 293 349
#
# _framework density 19.753086
#
# number of rings (size 3 to 8) (size 9 to 14) (size 15 to 20)
#    0.000    1.750    2.500    1.875    0.000    4.500 
#    0.000    3.125    0.000    0.000    0.000    0.000 
#    0.000    0.000    0.000    0.000    0.000    0.000 
#
# Total GULP energy -357118.966154 kJ/mol
# GULP energy per Si atom -5579.983846 kJ/mol
# Density = 1.970813 g / cm^3
# Si number density = 19.753086 Si / 1000 Ang^3
#
#
#
# Elastic Constant Matrix: (Units=GPa)
#
#
# Indices 1 2 3 4 5 6 
#
# 1 48.3477 -14.5760 23.8110 0.0000 0.0000 0.0000
# 2 -14.5760 80.3020 35.0437 0.0000 0.0000 0.0000
# 3 23.8110 35.0437 1.8955 0.0000 0.0000 0.0000
# 4 0.0000 0.0000 0.0000 32.3088 0.0000 0.0000
# 5 0.0000 0.0000 0.0000 0.0000 -18.7566 0.0000
# 6 0.0000 0.0000 0.0000 0.0000 0.0000 -28.4889
#
#
#
# Elastic Compliance Matrix: (Units=1/GPa)
#
#
# Indices 1 2 3 4 5 6 
#
# 1 0.008799 -0.007050 0.019816 0.000000 0.000000 0.000000
# 2 -0.007050 0.003887 0.016695 0.000000 0.000000 0.000000
# 3 0.019816 0.016695 -0.030015 0.000000 0.000000 0.000000
# 4 0.000000 0.000000 0.000000 0.030951 0.000000 0.000000
# 5 0.000000 0.000000 0.000000 0.000000 -0.053315 0.000000
# 6 0.000000 0.000000 0.000000 0.000000 0.000000 -0.035101
#
#
# Mechanical properties :
#
#
# Convention : Reuss Voigt Hill
#
# Bulk Modulus (GPa) = 24.04288 24.34475 24.19382
# Shear Modulus (GPa) = -41.71886 2.76374 -19.47756
#
# Velocity S-wave (km/s) = -4.60065 1.18414 -3.14355
# Velocity P-wave (km/s) = 4.00290 3.77106 0.94931
#
# Compressibility (1/GPa) = 0.04159235
#
# Stress axis : x y z
#
# Youngs Moduli (GPa) = 113.65087 257.23850 -33.31681
#
# Poissons Ratio (x) = 1.81362 0.66019
# Poissons Ratio (y) = 0.80128 0.55623
# Poissons Ratio (z) = -2.25205 -4.29467
#
# Static dielectric constant tensor:
#      x y z
#    x 1.806520 0.000000 0.000000 
#    y 0.000000 1.668350 0.000000 
#    z 0.000000 0.000000 1.665910 
# 
# From -- ./inp_files/9469.got.cif
#   From: 2010.05.17/outbox.ucp.g08.bks.cvg/sg57_5_cif.got.tgz:9469.got - 2010.06.11 16:39:23.
