data_PCOD9440594
_publ_section_title
;
Structure prediction by ZEFSAII (Michael W. Deem and Ramdas Pophale) SiO2 
 PCOD9440594
Probable space group: P B C M
;
_chemical_formula_sum "Si O2"
_cell_formula_units_Z 48
_cell_length_a 15.000000
_cell_length_b 18.000000
_cell_length_c 9.000000
_cell_angle_alpha 90.000000
_cell_angle_beta 90.000000
_cell_angle_gamma 90.000000
_cell_volume 2430.000000
_symmetry_space_group_name_H-M "P B C M"
_symmetry_group_IT_number 57
_symmetry_cell_setting 'orthorhombic'
loop_
_space_group_symop_operation_xyz
x,y,z
-x,-y,1/2+z
x,1/2-y,-z
-x,1/2+y,1/2-z
-x,-y,-z
x,y,1/2-z
-x,1/2+y,z
x,1/2-y,1/2+z
loop_
_atom_site_type_symbol
_atom_site_label
_atom_site_fract_x
_atom_site_fract_y
_atom_site_fract_z
Si Si1 0.775984 0.465856 0.911810
Si Si2 0.340872 0.112179 0.586441
Si Si3 0.503504 0.420036 0.923623
Si Si4 0.337951 0.676995 0.417429
Si Si5 0.150210 0.323214 0.080751
Si Si6 0.082154 0.466772 0.582029
O O1 0.821268 0.480257 0.750000
O O2 0.699609 0.528630 0.918784
O O3 0.737753 0.384467 0.910458
O O4 0.837086 0.477456 0.052534
O O5 0.382844 0.121226 0.750000
O O6 0.410202 0.119409 0.455675
O O7 0.256926 0.166057 0.575477
O O8 0.521021 0.431077 0.750000
O O9 0.579208 0.366747 0.988112
O O10 0.500000 0.500000 0.000000
O O11 0.310689 0.750000 0.500000
O O12 0.364392 0.697651 0.250000
O O13 0.122277 0.323504 0.250000
O O14 0.121848 0.250000 0.000000
O O15 0.111287 0.392536 0.997209
O O16 0.063189 0.452818 0.750000
O O17 0.000000 0.500000 0.500000
#
# Coordination Sequence:
#
# PCOD9440594 Si02
#       6
#     8   8   8   8   8   8
#     4   9  18  37  58  78 110 145 181 229 283 335
#     4   9  18  34  55  79 109 145 185 230 280 332
#     4  11  21  34  53  78 109 148 194 239 283 333
#     4  10  22  38  54  77 111 148 188 235 286 331
#     4  10  21  38  59  85 120 154 187 233 288 339
#     4  11  22  38  62  91 117 147 190 231 279 341
#
# _framework density 19.753086
#
# number of rings (size 3 to 8) (size 9 to 14) (size 15 to 20)
#    0.000    2.000    1.667    3.500    0.000    6.000 
#    0.000    4.167    0.000    2.000    0.000    0.000 
#    0.000    0.000    0.000    0.000    0.000    0.000 
#
# Total GULP energy -267304.163908 kJ/mol
# GULP energy per Si atom -5568.836748 kJ/mol
# Density = 1.970813 g / cm^3
# Si number density = 19.753086 Si / 1000 Ang^3
#
#
#
# Elastic Constant Matrix: (Units=GPa)
#
#
# Indices 1 2 3 4 5 6 
#
# 1 36.1339 17.7539 35.2749 0.0000 0.0000 0.0000
# 2 17.7539 43.3191 36.8281 0.0000 0.0000 0.0000
# 3 35.2749 36.8281 89.9801 0.0000 0.0000 0.0000
# 4 0.0000 0.0000 0.0000 15.6838 0.0000 0.0000
# 5 0.0000 0.0000 0.0000 0.0000 25.6585 0.0000
# 6 0.0000 0.0000 0.0000 0.0000 0.0000 80.3640
#
#
#
# Elastic Compliance Matrix: (Units=1/GPa)
#
#
# Indices 1 2 3 4 5 6 
#
# 1 0.045629 -0.005357 -0.015695 0.000000 0.000000 0.000000
# 2 -0.005357 0.036033 -0.012648 0.000000 0.000000 0.000000
# 3 -0.015695 -0.012648 0.022443 0.000000 0.000000 0.000000
# 4 0.000000 0.000000 0.000000 0.063760 0.000000 0.000000
# 5 0.000000 0.000000 0.000000 0.000000 0.038973 0.000000
# 6 0.000000 0.000000 0.000000 0.000000 0.000000 0.012443
#
#
# Mechanical properties :
#
#
# Convention : Reuss Voigt Hill
#
# Bulk Modulus (GPa) = 27.24452 38.79411 33.01931
# Shear Modulus (GPa) = 16.72704 29.64634 23.18669
#
# Velocity S-wave (km/s) = 2.91315 3.87828 3.42983
# Velocity P-wave (km/s) = 5.01376 6.30372 5.69538
#
# Compressibility (1/GPa) = 0.03670464
#
# Stress axis : x y z
#
# Youngs Moduli (GPa) = 21.91574 27.75270 44.55687
#
# Poissons Ratio (x) = 0.14867 0.69934
# Poissons Ratio (y) = 0.11741 0.56354
# Poissons Ratio (z) = 0.34398 0.35101
#
# Static dielectric constant tensor:
#      x y z
#    x 1.591810 0.000000 0.000000 
#    y 0.000000 1.671030 0.000000 
#    z 0.000000 0.000000 1.710690 
# 
# From -- ./inp_files/4621.got.cif
#   From: 2010.05.17/outbox.ucp.g08.bks.cvg/sg57_3_cif.got.tgz:4621.got - 2010.06.11 16:39:23.
