data_PCOD9440216
_publ_section_title
;
Structure prediction by ZEFSAII (Michael W. Deem and Ramdas Pophale) SiO2 
 PCOD9440216
Probable space group: P B C M
;
_chemical_formula_sum "Si O2"
_cell_formula_units_Z 32
_cell_length_a 20.974721
_cell_length_b 9.092205
_cell_length_c 8.614029
_cell_angle_alpha 90.000000
_cell_angle_beta 90.000000
_cell_angle_gamma 90.000000
_cell_volume 1642.751004
_symmetry_space_group_name_H-M "P B C M"
_symmetry_group_IT_number 57
_symmetry_cell_setting 'orthorhombic'
loop_
_space_group_symop_operation_xyz
x,y,z
-x,-y,1/2+z
x,1/2-y,-z
-x,1/2+y,1/2-z
-x,-y,-z
x,y,1/2-z
-x,1/2+y,z
x,1/2-y,1/2+z
loop_
_atom_site_type_symbol
_atom_site_label
_atom_site_fract_x
_atom_site_fract_y
_atom_site_fract_z
Si Si1 0.938692 0.914960 0.064132
Si Si2 0.561846 0.084300 0.063786
Si Si3 0.314581 0.415596 0.564012
Si Si4 0.808629 0.084488 0.436847
O O1 0.942506 0.909953 0.250000
O O2 0.874227 0.001783 0.021301
O O3 0.936726 0.750000 0.000000
O O4 0.000000 0.000000 0.000000
O O5 0.560861 0.085688 0.250000
O O6 0.561943 0.250000 0.000000
O O7 0.500000 0.000000 0.000000
O O8 0.624609 0.001032 0.003923
O O9 0.314217 0.250000 0.500000
O O10 0.317867 0.414035 0.750000
O O11 0.250921 0.498142 0.508608
O O12 0.809830 0.250000 0.500000
O O13 0.802729 0.086099 0.250000
#
# Coordination Sequence:
#
# PCOD9440216 Si02
#       4
#     8   8   8   8
#     4  11  24  41  64  92 126 164 208 257 312 371
#     4  12  25  44  67  95 129 167 210 258 311 370
#     4  12  25  43  66  94 127 166 209 258 312 371
#     4  11  24  42  64  93 126 165 208 257 311 370
#
# _framework density 19.479517999999999
#
# number of rings (size 3 to 8) (size 9 to 14) (size 15 to 20)
#    0.000    0.500    0.000    9.000    0.000    8.000 
#    0.000    0.000    0.000    0.000    0.000    0.000 
#    0.000    0.000    0.000    0.000    0.000    0.000 
#
# Total GULP energy -179280.347264 kJ/mol
# GULP energy per Si atom -5602.510852 kJ/mol
# Density = 1.943518 g / cm^3
# Si number density = 19.479518 Si / 1000 Ang^3
#
#
#
# Elastic Constant Matrix: (Units=GPa)
#
#
# Indices 1 2 3 4 5 6 
#
# 1 236.5285 144.2067 107.1114 0.0000 0.0000 0.0000
# 2 144.2067 246.8422 97.1548 0.0000 0.0000 0.0000
# 3 107.1114 97.1548 169.5033 0.0000 0.0000 0.0000
# 4 0.0000 0.0000 0.0000 44.0108 0.0000 0.0000
# 5 0.0000 0.0000 0.0000 0.0000 36.3346 0.0000
# 6 0.0000 0.0000 0.0000 0.0000 0.0000 45.7134
#
#
#
# Elastic Compliance Matrix: (Units=1/GPa)
#
#
# Indices 1 2 3 4 5 6 
#
# 1 0.007521 -0.003258 -0.002885 0.000000 0.000000 0.000000
# 2 -0.003258 0.006643 -0.001749 0.000000 0.000000 0.000000
# 3 -0.002885 -0.001749 0.008725 0.000000 0.000000 0.000000
# 4 0.000000 0.000000 0.000000 0.022722 0.000000 0.000000
# 5 0.000000 0.000000 0.000000 0.000000 0.027522 0.000000
# 6 0.000000 0.000000 0.000000 0.000000 0.000000 0.021875
#
#
# Mechanical properties :
#
#
# Convention : Reuss Voigt Hill
#
# Bulk Modulus (GPa) = 140.74631 149.97998 145.36314
# Shear Modulus (GPa) = 44.18552 45.50518 44.84535
#
# Velocity S-wave (km/s) = 4.76784 4.83852 4.80331
# Velocity P-wave (km/s) = 10.13509 10.41037 10.27365
#
# Compressibility (1/GPa) = 0.00710498
#
# Stress axis : x y z
#
# Youngs Moduli (GPa) = 132.96662 150.53790 114.61451
#
# Poissons Ratio (x) = 0.49047 0.33066
# Poissons Ratio (y) = 0.43322 0.20042
# Poissons Ratio (z) = 0.38360 0.26324
#
# Static dielectric constant tensor:
#      x y z
#    x 1.644800 0.000000 0.000000 
#    y 0.000000 1.631220 0.000000 
#    z 0.000000 0.000000 1.653080 
# 
# From -- ./inp_files/7546.got.cif
#   From: 2010.05.17/outbox.cif.g08.bks.cpg/sg57_4_cif.got.tgz:7546.got - 2010.06.03 13:58:18.
