data_PCOD9440027
_publ_section_title
;
Structure prediction by ZEFSAII (Michael W. Deem and Ramdas Pophale) SiO2 
 PCOD9440027
Probable space group: P B C M
;
_chemical_formula_sum "Si O2"
_cell_formula_units_Z 40
_cell_length_a 13.244778
_cell_length_b 20.451641
_cell_length_c 8.539927
_cell_angle_alpha 90.000000
_cell_angle_beta 90.000000
_cell_angle_gamma 90.000000
_cell_volume 2313.273604
_symmetry_space_group_name_H-M "P B C M"
_symmetry_group_IT_number 57
_symmetry_cell_setting 'orthorhombic'
loop_
_space_group_symop_operation_xyz
x,y,z
-x,-y,1/2+z
x,1/2-y,-z
-x,1/2+y,1/2-z
-x,-y,-z
x,y,1/2-z
-x,1/2+y,z
x,1/2-y,1/2+z
loop_
_atom_site_type_symbol
_atom_site_label
_atom_site_fract_x
_atom_site_fract_y
_atom_site_fract_z
Si Si1 0.887571 0.677515 0.938070
Si Si2 0.041006 0.569335 0.061620
Si Si3 0.731905 0.449749 0.561573
Si Si4 0.476698 0.572935 0.562478
Si Si5 0.307450 0.100297 0.559720
O O1 0.887939 0.677694 0.750000
O O2 0.778494 0.649956 0.993634
O O3 0.904911 0.750000 0.000000
O O4 0.971828 0.627020 0.996710
O O5 0.036990 0.568782 0.250000
O O6 0.158418 0.575725 0.013437
O O7 0.000000 0.500000 0.000000
O O8 0.726999 0.449538 0.750000
O O9 0.634491 0.411127 0.499362
O O10 0.721912 0.526119 0.511273
O O11 0.500000 0.500000 0.500000
O O12 0.473980 0.571617 0.750000
O O13 0.576425 0.613176 0.512268
O O14 0.305705 0.100420 0.750000
#
# Coordination Sequence:
#
# PCOD9440027 Si02
#       5
#     8   8   8   8   8
#     4  11  22  38  55  77 108 144 182 224 274 330
#     4  11  21  35  55  80 109 143 183 229 276 325
#     4   9  17  31  49  74 106 137 169 215 267 315
#     4   9  16  27  45  72 102 133 167 208 260 311
#     4   8  15  30  49  70 103 137 166 211 264 312
#
# _framework density 17.291512999999998
#
# number of rings (size 3 to 8) (size 9 to 14) (size 15 to 20)
#    0.000    2.400    2.000    3.000    0.000    1.600 
#    0.000    3.000    0.000    1.200    0.000    5.600 
#    0.000    0.000    0.000    0.000    0.000    0.000 
#
# Total GULP energy -222896.916013 kJ/mol
# GULP energy per Si atom -5572.422900 kJ/mol
# Density = 1.725216 g / cm^3
# Si number density = 17.291513 Si / 1000 Ang^3
#
#
#
# Elastic Constant Matrix: (Units=GPa)
#
#
# Indices 1 2 3 4 5 6 
#
# 1 204.2888 74.1626 42.2101 0.0000 0.0000 0.0000
# 2 74.1626 92.3467 22.2744 0.0000 0.0000 0.0000
# 3 42.2101 22.2744 37.5713 0.0000 0.0000 0.0000
# 4 0.0000 0.0000 0.0000 18.9458 0.0000 0.0000
# 5 0.0000 0.0000 0.0000 0.0000 29.0989 0.0000
# 6 0.0000 0.0000 0.0000 0.0000 0.0000 18.9587
#
#
#
# Elastic Compliance Matrix: (Units=1/GPa)
#
#
# Indices 1 2 3 4 5 6 
#
# 1 0.007914 -0.004914 -0.005978 0.000000 0.000000 0.000000
# 2 -0.004914 0.015687 -0.003779 0.000000 0.000000 0.000000
# 3 -0.005978 -0.003779 0.035573 0.000000 0.000000 0.000000
# 4 0.000000 0.000000 0.000000 0.052782 0.000000 0.000000
# 5 0.000000 0.000000 0.000000 0.000000 0.034366 0.000000
# 6 0.000000 0.000000 0.000000 0.000000 0.000000 0.052746
#
#
# Mechanical properties :
#
#
# Convention : Reuss Voigt Hill
#
# Bulk Modulus (GPa) = 33.52219 67.94456 50.73338
# Shear Modulus (GPa) = 20.97727 26.43800 23.70763
#
# Velocity S-wave (km/s) = 3.48681 3.91443 3.70679
# Velocity P-wave (km/s) = 5.96985 7.73364 6.90827
#
# Compressibility (1/GPa) = 0.02983098
#
# Stress axis : x y z
#
# Youngs Moduli (GPa) = 126.35781 63.74880 28.11137
#
# Poissons Ratio (x) = 0.31325 0.16805
# Poissons Ratio (y) = 0.62089 0.10625
# Poissons Ratio (z) = 0.75537 0.24094
#
# Static dielectric constant tensor:
#      x y z
#    x 1.641330 0.000000 0.000000 
#    y 0.000000 1.547390 0.000000 
#    z 0.000000 0.000000 1.592060 
# 
# From -- ./inp_files/2890.got.cif
#   From: 2010.05.17/outbox.cif.g08.bks.cpg/sg57_2_cif.got.tgz:2890.got - 2010.06.03 13:58:18.
