data_PCOD9440592
_publ_section_title
;
Structure prediction by ZEFSAII (Michael W. Deem and Ramdas Pophale) SiO2 
 PCOD9440592
Probable space group: P B C M
;
_chemical_formula_sum "Si O2"
_cell_formula_units_Z 64
_cell_length_a 24.000000
_cell_length_b 15.000000
_cell_length_c 9.000000
_cell_angle_alpha 90.000000
_cell_angle_beta 90.000000
_cell_angle_gamma 90.000000
_cell_volume 3240.000000
_symmetry_space_group_name_H-M "P B C M"
_symmetry_group_IT_number 57
_symmetry_cell_setting 'orthorhombic'
loop_
_space_group_symop_operation_xyz
x,y,z
-x,-y,1/2+z
x,1/2-y,-z
-x,1/2+y,1/2-z
-x,-y,-z
x,y,1/2-z
-x,1/2+y,z
x,1/2-y,1/2+z
loop_
_atom_site_type_symbol
_atom_site_label
_atom_site_fract_x
_atom_site_fract_y
_atom_site_fract_z
Si Si1 0.127260 0.838256 0.426660
Si Si2 0.941617 0.490701 0.579486
Si Si3 0.559688 0.500815 0.928249
Si Si4 0.249889 0.891627 0.078506
Si Si5 0.358678 0.159360 0.573078
Si Si6 0.868124 0.833554 0.080497
Si Si7 0.637079 0.340521 0.926180
Si Si8 0.756003 0.894782 0.921474
O O1 0.103672 0.750000 0.500000
O O2 0.124261 0.834577 0.250000
O O3 0.095145 0.922010 0.488620
O O4 0.191907 0.849131 0.469613
O O5 0.948007 0.461392 0.750000
O O6 0.909152 0.583586 0.578583
O O7 0.000000 0.500000 0.500000
O O8 0.554567 0.498823 0.750000
O O9 0.596904 0.585031 0.968999
O O10 0.595832 0.417037 0.977458
O O11 0.500000 0.500000 0.000000
O O12 0.261535 0.866287 0.250000
O O13 0.242440 0.998010 0.073367
O O14 0.300750 0.862964 0.977827
O O15 0.377396 0.250000 0.500000
O O16 0.355389 0.165324 0.750000
O O17 0.298081 0.136063 0.509875
O O18 0.854137 0.811720 0.250000
O O19 0.895234 0.750000 0.000000
O O20 0.811775 0.857487 0.994047
O O21 0.635763 0.334767 0.750000
O O22 0.619091 0.250000 0.000000
O O23 0.751619 0.866687 0.750000
#
# Coordination Sequence:
#
# PCOD9440592 Si02
#       8
#     8   8   8   8   8   8   8   8
#     4  11  23  41  64  94 128 163 206 253 306 369
#     4  11  25  44  66  91 122 164 210 260 311 363
#     4  10  24  43  63  86 118 158 204 253 304 357
#     4  10  21  37  62  94 125 162 201 245 304 364
#     4  11  23  41  62  91 124 160 202 249 302 362
#     4  11  24  41  64  93 125 163 204 250 307 365
#     4  11  23  40  62  91 124 160 201 248 302 362
#     4  11  21  37  63  94 126 162 200 246 303 364
#
# _framework density 19.753086
#
# number of rings (size 3 to 8) (size 9 to 14) (size 15 to 20)
#    0.000    1.250    2.500    3.000    0.000    7.000 
#    0.000    3.750    0.000    0.000    0.000    0.000 
#    0.000    0.000    0.000    0.000    0.000    0.000 
#
# Total GULP energy -357668.227840 kJ/mol
# GULP energy per Si atom -5588.566060 kJ/mol
# Density = 1.970813 g / cm^3
# Si number density = 19.753086 Si / 1000 Ang^3
#
#
#
# Elastic Constant Matrix: (Units=GPa)
#
#
# Indices 1 2 3 4 5 6 
#
# 1 111.0826 53.6846 66.1903 0.0000 0.0000 0.0000
# 2 53.6846 113.9327 47.5862 0.0000 0.0000 0.0000
# 3 66.1903 47.5862 38.5104 0.0000 0.0000 0.0000
# 4 0.0000 0.0000 0.0000 29.2291 0.0000 0.0000
# 5 0.0000 0.0000 0.0000 0.0000 26.9365 0.0000
# 6 0.0000 0.0000 0.0000 0.0000 0.0000 44.6913
#
#
#
# Elastic Compliance Matrix: (Units=1/GPa)
#
#
# Indices 1 2 3 4 5 6 
#
# 1 -0.058788 -0.029969 0.138074 0.000000 0.000000 0.000000
# 2 -0.029969 0.002861 0.047974 0.000000 0.000000 0.000000
# 3 0.138074 0.047974 -0.270629 0.000000 0.000000 0.000000
# 4 0.000000 0.000000 0.000000 0.034213 0.000000 0.000000
# 5 0.000000 0.000000 0.000000 0.000000 0.037124 0.000000
# 6 0.000000 0.000000 0.000000 0.000000 0.000000 0.022376
#
#
# Mechanical properties :
#
#
# Convention : Reuss Voigt Hill
#
# Bulk Modulus (GPa) = -69.45323 66.49422 -1.47951
# Shear Modulus (GPa) = -9.09422 26.57567 8.74073
#
# Velocity S-wave (km/s) = -2.14801 3.67194 2.10585
# Velocity P-wave (km/s) = 6.43342 7.19120 2.27204
#
# Compressibility (1/GPa) = -0.01439818
#
# Stress axis : x y z
#
# Youngs Moduli (GPa) = -17.01036 349.52236 -3.69509
#
# Poissons Ratio (x) = 10.47470 0.51020
# Poissons Ratio (y) = -0.50978 0.17727
# Poissons Ratio (z) = 2.34868 -16.76788
#
# Static dielectric constant tensor:
#      x y z
#    x 1.654610 0.000000 0.000000 
#    y 0.000000 1.739300 0.000000 
#    z 0.000000 0.000000 1.666900 
# 
# From -- ./inp_files/9465.got.cif
#   From: 2010.05.17/outbox.ucp.g08.bks.cvg/sg57_5_cif.got.tgz:9465.got - 2010.06.11 16:39:23.
