data_PCOD9440782
_publ_section_title
;
Structure prediction by ZEFSAII (Michael W. Deem and Ramdas Pophale) SiO2 
 PCOD9440782
Probable space group: P N N M
;
_chemical_formula_sum "Si O2"
_cell_formula_units_Z 42
_cell_length_a 17.754503
_cell_length_b 7.511424
_cell_length_c 11.223469
_cell_angle_alpha 90.000000
_cell_angle_beta 90.000000
_cell_angle_gamma 90.000000
_cell_volume 1496.779783
_symmetry_space_group_name_H-M "P N N M"
_symmetry_group_IT_number 58
_symmetry_cell_setting 'orthorhombic'
loop_
_space_group_symop_operation_xyz
x,y,z
-x,-y,z
1/2+x,1/2-y,1/2-z
1/2-x,1/2+y,1/2-z
-x,-y,-z
x,y,-z
1/2-x,1/2+y,1/2+z
1/2+x,1/2-y,1/2+z
loop_
_atom_site_type_symbol
_atom_site_label
_atom_site_fract_x
_atom_site_fract_y
_atom_site_fract_z
Si Si1 0.725072 0.372422 0.755178
Si Si2 0.382939 0.138940 0.500000
Si Si3 0.623048 0.837027 0.000000
Si Si4 0.433106 0.611855 0.743359
Si Si5 0.267953 0.813684 0.500000
Si Si6 0.000000 0.000000 0.000000
Si Si7 0.399311 0.027762 0.245046
Si Si8 0.743419 0.163514 0.000000
O O1 0.647971 0.483583 0.762189
O O2 0.715818 0.279874 0.626318
O O3 0.577506 0.178242 0.770250
O O4 0.808480 0.451614 0.751912
O O5 0.320217 0.985358 0.500000
O O6 0.424435 0.112363 0.373080
O O7 0.335979 0.325103 0.500000
O O8 0.579954 0.868919 0.123393
O O9 0.677160 0.664807 0.000000
O O10 0.688542 0.993477 0.000000
O O11 0.500000 0.500000 0.805156
O O12 0.453622 0.602709 0.605041
O O13 0.274978 0.738480 0.876983
#
# Coordination Sequence:
#
# PCOD9440782 Si02
#       8
#     8   4   4   8   4   2   8   4
#     4  10  19  31  49  72 108 143 183 222 273 337
#     4  10  17  28  48  69 103 138 179 231 264 323
#     4  10  18  29  45  70 106 137 175 225 287 318
#     4  10  18  31  50  78 110 139 182 225 289 324
#     4  10  17  28  48  69 103 138 179 231 264 323
#     4   8  20  28  56  78 112 146 174 234 288 340
#     4  10  19  31  49  72 108 143 183 222 273 337
#     4  10  18  29  45  70 106 137 175 225 287 318
#
# _framework density 28.060241000000001
#
# number of rings (size 3 to 8) (size 9 to 14) (size 15 to 20)
#    0.571    1.524    3.810    1.143    0.000    0.000 
#    0.000    1.905    0.000    0.000    0.000    1.333 
#    0.000   16.762    0.000    0.000    0.000    0.000 
#
# Total GULP energy -234237.117374 kJ/mol
# GULP energy per Si atom -5577.074223 kJ/mol
# Density = 2.799637 g / cm^3
# Si number density = 28.060241 Si / 1000 Ang^3
#
#
#
# Elastic Constant Matrix: (Units=GPa)
#
#
# Indices 1 2 3 4 5 6 
#
# 1 137.7201 59.0045 30.7210 0.0000 0.0000 0.0000
# 2 59.0045 86.3340 56.2291 0.0000 0.0000 0.0000
# 3 30.7210 56.2291 248.0482 0.0000 0.0000 0.0000
# 4 0.0000 0.0000 0.0000 32.6958 0.0000 0.0000
# 5 0.0000 0.0000 0.0000 0.0000 19.1118 0.0000
# 6 0.0000 0.0000 0.0000 0.0000 0.0000 43.0064
#
#
#
# Elastic Compliance Matrix: (Units=1/GPa)
#
#
# Indices 1 2 3 4 5 6 
#
# 1 0.010297 -0.007282 0.000375 0.000000 0.000000 0.000000
# 2 -0.007282 0.018739 -0.003346 0.000000 0.000000 0.000000
# 3 0.000375 -0.003346 0.004743 0.000000 0.000000 0.000000
# 4 0.000000 0.000000 0.000000 0.030585 0.000000 0.000000
# 5 0.000000 0.000000 0.000000 0.000000 0.052324 0.000000
# 6 0.000000 0.000000 0.000000 0.000000 0.000000 0.023252
#
#
# Mechanical properties :
#
#
# Convention : Reuss Voigt Hill
#
# Bulk Modulus (GPa) = 75.33269 84.89017 80.11143
# Shear Modulus (GPa) = 30.32671 40.70599 35.51635
#
# Velocity S-wave (km/s) = 3.29108 3.81289 3.56155
# Velocity P-wave (km/s) = 6.43013 7.05001 6.74720
#
# Compressibility (1/GPa) = 0.01327445
#
# Stress axis : x y z
#
# Youngs Moduli (GPa) = 97.11278 53.36430 210.81623
#
# Poissons Ratio (x) = 0.38861 -0.07915
# Poissons Ratio (y) = 0.70719 0.70539
# Poissons Ratio (z) = -0.03646 0.17856
#
# Static dielectric constant tensor:
#      x y z
#    x 2.329090 0.000000 0.000000 
#    y 0.000000 2.445990 0.000000 
#    z 0.000000 0.000000 2.119620 
# 
# From -- ./inp_files/14476.got.cif
#   From: 2010.05.17/outbox.cif.g08.bks.cpg/sg58_8_cif.got.tgz:14476.got - 2010.06.03 14:20:14.
