data_PCOD9440838
_publ_section_title
;
Structure prediction by ZEFSAII (Michael W. Deem and Ramdas Pophale) SiO2 
 PCOD9440838
Probable space group: P N N M
;
_chemical_formula_sum "Si O2"
_cell_formula_units_Z 64
_cell_length_a 23.610874
_cell_length_b 8.186954
_cell_length_c 18.576884
_cell_angle_alpha 90.000000
_cell_angle_beta 90.000000
_cell_angle_gamma 90.000000
_cell_volume 3590.932843
_symmetry_space_group_name_H-M "P N N M"
_symmetry_group_IT_number 58
_symmetry_cell_setting 'orthorhombic'
loop_
_space_group_symop_operation_xyz
x,y,z
-x,-y,z
1/2+x,1/2-y,1/2-z
1/2-x,1/2+y,1/2-z
-x,-y,-z
x,y,-z
1/2-x,1/2+y,1/2+z
1/2+x,1/2-y,1/2+z
loop_
_atom_site_type_symbol
_atom_site_label
_atom_site_fract_x
_atom_site_fract_y
_atom_site_fract_z
Si Si1 0.374713 0.106279 0.706115
Si Si2 0.819428 0.865890 0.192704
Si Si3 0.289317 0.560252 0.916488
Si Si4 0.259910 0.294173 0.297296
Si Si5 0.170607 0.380436 0.917584
Si Si6 0.031125 0.845709 0.228208
Si Si7 0.549494 0.112694 0.808148
Si Si8 0.602192 0.442423 0.174446
O O1 0.314984 0.189197 0.724817
O O2 0.417803 0.254333 0.689787
O O3 0.363923 0.997424 0.635986
O O4 0.402930 0.000731 0.770627
O O5 0.784906 0.722224 0.233223
O O6 0.836287 0.799034 0.115661
O O7 0.869694 0.905861 0.247514
O O8 0.780097 0.023724 0.189394
O O9 0.267851 0.711069 0.867384
O O10 0.237077 0.433140 0.913989
O O11 0.347360 0.503045 0.878168
O O12 0.298823 0.601717 0.000000
O O13 0.152985 0.394530 0.000000
O O14 0.984962 0.708169 0.245699
O O15 0.056867 0.919306 0.303739
O O16 0.000000 0.000000 0.193021
O O17 0.576487 0.267269 0.850252
O O18 0.500000 0.000000 0.843212
#
# Coordination Sequence:
#
# PCOD9440838 Si02
#       8
#     8   8   8   8   8   8   8   8
#     4  10  17  32  52  76 102 138 166 211 271 301
#     4  11  19  32  49  80 101 135 173 214 260 306
#     4   9  20  35  50  76 111 145 171 203 254 318
#     4  10  20  29  53  77 108 131 173 217 250 315
#     4  10  21  35  51  74 110 142 171 204 253 320
#     4   9  18  30  50  80 102 125 170 229 262 292
#     4   9  18  30  50  77 103 125 169 228 264 296
#     4  10  17  31  54  78 102 136 171 218 259 305
#
# _framework density 17.822666999999999
#
# number of rings (size 3 to 8) (size 9 to 14) (size 15 to 20)
#    0.000    2.250    2.500    2.250    1.750    0.500 
#    0.000    0.000    0.000    7.500    0.000    0.000 
#    0.000    0.000    0.000    0.000    0.000    0.000 
#
# Total GULP energy -356451.119621 kJ/mol
# GULP energy per Si atom -5569.548744 kJ/mol
# Density = 1.778210 g / cm^3
# Si number density = 17.822667 Si / 1000 Ang^3
#
#
#
# Elastic Constant Matrix: (Units=GPa)
#
#
# Indices 1 2 3 4 5 6 
#
# 1 68.1120 7.7858 20.7184 0.0000 0.0000 0.0000
# 2 7.7858 70.2135 7.6921 0.0000 0.0000 0.0000
# 3 20.7184 7.6921 52.1753 0.0000 0.0000 0.0000
# 4 0.0000 0.0000 0.0000 12.4303 0.0000 0.0000
# 5 0.0000 0.0000 0.0000 0.0000 11.6996 0.0000
# 6 0.0000 0.0000 0.0000 0.0000 0.0000 34.3683
#
#
#
# Elastic Compliance Matrix: (Units=1/GPa)
#
#
# Indices 1 2 3 4 5 6 
#
# 1 0.016790 -0.001150 -0.006497 0.000000 0.000000 0.000000
# 2 -0.001150 0.014555 -0.001689 0.000000 0.000000 0.000000
# 3 -0.006497 -0.001689 0.021995 0.000000 0.000000 0.000000
# 4 0.000000 0.000000 0.000000 0.080449 0.000000 0.000000
# 5 0.000000 0.000000 0.000000 0.000000 0.085473 0.000000
# 6 0.000000 0.000000 0.000000 0.000000 0.000000 0.029097
#
#
# Mechanical properties :
#
#
# Convention : Reuss Voigt Hill
#
# Bulk Modulus (GPa) = 28.84624 29.21037 29.02831
# Shear Modulus (GPa) = 17.94772 21.98659 19.96716
#
# Velocity S-wave (km/s) = 3.17680 3.51612 3.35076
# Velocity P-wave (km/s) = 5.44760 5.73665 5.59399
#
# Compressibility (1/GPa) = 0.03466656
#
# Stress axis : x y z
#
# Youngs Moduli (GPa) = 59.56086 68.70562 45.46432
#
# Poissons Ratio (x) = 0.07901 0.29540
# Poissons Ratio (y) = 0.06849 0.07680
# Poissons Ratio (z) = 0.38699 0.11606
#
# Static dielectric constant tensor:
#      x y z
#    x 1.669930 0.000000 0.000000 
#    y 0.000000 1.670270 0.000000 
#    z 0.000000 0.000000 1.567170 
# 
# From -- ./inp_files/27675.got.cif
#   From: 2010.05.17/outbox.cif.g08.bks.cpg/sg58_14_cif.got.tgz:27675.got - 2010.06.03 14:20:14.
