data_PCOD9440013
_publ_section_title
;
Structure prediction by ZEFSAII (Michael W. Deem and Ramdas Pophale) SiO2 
 PCOD9440013
Probable space group: P B C M
;
_chemical_formula_sum "Si O2"
_cell_formula_units_Z 64
_cell_length_a 23.311113
_cell_length_b 17.857971
_cell_length_c 8.977351
_cell_angle_alpha 90.000000
_cell_angle_beta 90.000000
_cell_angle_gamma 90.000000
_cell_volume 3737.174086
_symmetry_space_group_name_H-M "P B C M"
_symmetry_group_IT_number 57
_symmetry_cell_setting 'orthorhombic'
loop_
_space_group_symop_operation_xyz
x,y,z
-x,-y,1/2+z
x,1/2-y,-z
-x,1/2+y,1/2-z
-x,-y,-z
x,y,1/2-z
-x,1/2+y,z
x,1/2-y,1/2+z
loop_
_atom_site_type_symbol
_atom_site_label
_atom_site_fract_x
_atom_site_fract_y
_atom_site_fract_z
Si Si1 0.045687 0.172560 0.927559
Si Si2 0.916886 0.129165 0.926338
Si Si3 0.116542 0.041572 0.425301
Si Si4 0.439951 0.169945 0.428675
Si Si5 0.239020 0.979527 0.071231
Si Si6 0.798691 0.326790 0.572841
Si Si7 0.460717 0.935246 0.928440
Si Si8 0.633718 0.524355 0.071362
O O1 0.047336 0.177552 0.750000
O O2 0.979351 0.157566 0.971523
O O3 0.064967 0.250000 0.000000
O O4 0.084489 0.104406 0.982551
O O5 0.907333 0.145380 0.750000
O O6 0.913398 0.039363 0.943630
O O7 0.864792 0.162882 0.020122
O O8 0.114365 0.060820 0.250000
O O9 0.182893 0.028024 0.468546
O O10 0.427972 0.250000 0.500000
O O11 0.435997 0.176187 0.250000
O O12 0.504390 0.140337 0.465263
O O13 0.396425 0.102759 0.474626
O O14 0.235538 0.966376 0.250000
O O15 0.298987 0.019561 0.038272
O O16 0.233421 0.899918 0.990075
O O17 0.776963 0.250000 0.500000
O O18 0.795384 0.323462 0.750000
O O19 0.459728 0.942352 0.750000
O O20 0.500000 0.000000 0.000000
O O21 0.398931 0.954597 0.995223
O O22 0.625828 0.518351 0.250000
#
# Coordination Sequence:
#
# PCOD9440013 Si02
#       8
#     8   8   8   8   8   8   8   8
#     4  11  22  34  50  73 101 132 168 210 257 310
#     4   9  19  35  54  76 100 128 163 205 258 316
#     4   9  18  34  54  74  99 131 166 207 256 308
#     4   9  18  31  49  76 106 135 167 205 249 293
#     4   9  19  37  57  75 101 137 173 210 255 305
#     4  11  21  33  52  77 104 132 166 209 256 307
#     4   9  17  30  49  74 102 131 166 204 244 292
#     4   9  18  34  55  77 102 134 171 210 254 301
#
# _framework density 17.125239000000001
#
# number of rings (size 3 to 8) (size 9 to 14) (size 15 to 20)
#    0.000    2.500    0.000    4.125    0.000    7.000 
#    0.000    1.250    0.000    3.000    0.000    0.000 
#    0.000    0.000    0.000    0.000    0.000    0.000 
#
# Total GULP energy -356857.994601 kJ/mol
# GULP energy per Si atom -5575.906166 kJ/mol
# Density = 1.708626 g / cm^3
# Si number density = 17.125239 Si / 1000 Ang^3
#
#
#
# Elastic Constant Matrix: (Units=GPa)
#
#
# Indices 1 2 3 4 5 6 
#
# 1 73.6548 45.1228 25.7055 0.0000 0.0000 0.0000
# 2 45.1228 91.4083 37.1150 0.0000 0.0000 0.0000
# 3 25.7055 37.1150 38.3040 0.0000 0.0000 0.0000
# 4 0.0000 0.0000 0.0000 28.3756 0.0000 0.0000
# 5 0.0000 0.0000 0.0000 0.0000 23.3263 0.0000
# 6 0.0000 0.0000 0.0000 0.0000 0.0000 13.7124
#
#
#
# Elastic Compliance Matrix: (Units=1/GPa)
#
#
# Indices 1 2 3 4 5 6 
#
# 1 0.020394 -0.007436 -0.006481 0.000000 0.000000 0.000000
# 2 -0.007436 0.020747 -0.015113 0.000000 0.000000 0.000000
# 3 -0.006481 -0.015113 0.045100 0.000000 0.000000 0.000000
# 4 0.000000 0.000000 0.000000 0.035242 0.000000 0.000000
# 5 0.000000 0.000000 0.000000 0.000000 0.042870 0.000000
# 6 0.000000 0.000000 0.000000 0.000000 0.000000 0.072927
#
#
# Mechanical properties :
#
#
# Convention : Reuss Voigt Hill
#
# Bulk Modulus (GPa) = 35.48446 46.58375 41.03410
# Shear Modulus (GPa) = 16.40780 19.44447 17.92614
#
# Velocity S-wave (km/s) = 3.09869 3.37327 3.23889
# Velocity P-wave (km/s) = 5.79379 6.51404 6.16445
#
# Compressibility (1/GPa) = 0.02818135
#
# Stress axis : x y z
#
# Youngs Moduli (GPa) = 49.03373 48.20023 22.17279
#
# Poissons Ratio (x) = 0.35840 0.14371
# Poissons Ratio (y) = 0.36460 0.33509
# Poissons Ratio (z) = 0.31781 0.72844
#
# Static dielectric constant tensor:
#      x y z
#    x 1.600430 0.000000 0.000000 
#    y 0.000000 1.567780 0.000000 
#    z 0.000000 0.000000 1.557490 
# 
# From -- ./inp_files/8553.got.cif
#   From: 2010.05.17/outbox.cif.g08.bks.cpg/sg57_5_cif.got.tgz:8553.got - 2010.06.03 13:58:18.
