data_PCOD9440491
_publ_section_title
;
Structure prediction by ZEFSAII (Michael W. Deem and Ramdas Pophale) SiO2 
 PCOD9440491
Probable space group: P B C M
;
_chemical_formula_sum "Si O2"
_cell_formula_units_Z 56
_cell_length_a 15.000000
_cell_length_b 12.000000
_cell_length_c 15.000000
_cell_angle_alpha 90.000000
_cell_angle_beta 90.000000
_cell_angle_gamma 90.000000
_cell_volume 2700.000000
_symmetry_space_group_name_H-M "P B C M"
_symmetry_group_IT_number 57
_symmetry_cell_setting 'orthorhombic'
loop_
_space_group_symop_operation_xyz
x,y,z
-x,-y,1/2+z
x,1/2-y,-z
-x,1/2+y,1/2-z
-x,-y,-z
x,y,1/2-z
-x,1/2+y,z
x,1/2-y,1/2+z
loop_
_atom_site_type_symbol
_atom_site_label
_atom_site_fract_x
_atom_site_fract_y
_atom_site_fract_z
Si Si1 0.666574 0.391972 0.358947
Si Si2 0.331219 0.635268 0.358934
Si Si3 0.206558 0.056730 0.646606
Si Si4 0.056921 0.117995 0.997598
Si Si5 0.330129 0.245827 0.394355
Si Si6 0.475315 0.076384 0.357126
Si Si7 0.810619 0.560396 0.350103
O O1 0.663975 0.393558 0.250000
O O2 0.665278 0.264063 0.387396
O O3 0.586039 0.473305 0.389475
O O4 0.759581 0.450738 0.384530
O O5 0.331133 0.634467 0.250000
O O6 0.245094 0.562790 0.384847
O O7 0.423365 0.578205 0.389640
O O8 0.177868 0.050779 0.750000
O O9 0.127905 0.103884 0.584161
O O10 0.293425 0.137775 0.641954
O O11 0.022125 0.250000 0.000000
O O12 0.113701 0.105831 0.087275
O O13 0.000000 0.000000 0.000000
O O14 0.315637 0.250000 0.500000
O O15 0.427972 0.195419 0.377559
O O16 0.266603 0.153138 0.350878
O O17 0.477755 0.067401 0.250000
O O18 0.842452 0.540958 0.250000
#
# Coordination Sequence:
#
# PCOD9440491 Si02
#       7
#     8   8   8   8   8   8   8
#     4   8  16  31  52  82 118 158 211 260 304 365
#     4   9  19  33  54  88 128 168 216 266 315 373
#     4  11  22  40  66  92 125 172 213 258 323 388
#     4  12  27  47  69 100 130 159 206 271 329 402
#     4  11  19  35  61  89 122 161 209 263 302 368
#     4   9  18  31  53  85 121 170 217 260 309 363
#     4  10  19  39  68  89 115 163 206 247 314 384
#
# _framework density 20.740741
#
# number of rings (size 3 to 8) (size 9 to 14) (size 15 to 20)
#    0.000    2.000    2.857    2.143    2.000    1.714 
#    0.000    2.143    0.000    0.000    0.000    0.000 
#    0.000    0.000    0.000    0.000    0.000    0.000 
#
# Total GULP energy -312302.977169 kJ/mol
# GULP energy per Si atom -5576.838878 kJ/mol
# Density = 2.069353 g / cm^3
# Si number density = 20.740741 Si / 1000 Ang^3
#
#
#
# Elastic Constant Matrix: (Units=GPa)
#
#
# Indices 1 2 3 4 5 6 
#
# 1 46.5881 31.0490 13.0583 0.0000 0.0000 0.0000
# 2 31.0490 143.0667 7.6337 0.0000 0.0000 0.0000
# 3 13.0583 7.6337 83.8263 0.0000 0.0000 0.0000
# 4 0.0000 0.0000 0.0000 10.8456 0.0000 0.0000
# 5 0.0000 0.0000 0.0000 0.0000 11.6545 0.0000
# 6 0.0000 0.0000 0.0000 0.0000 0.0000 27.0820
#
#
#
# Elastic Compliance Matrix: (Units=1/GPa)
#
#
# Indices 1 2 3 4 5 6 
#
# 1 0.026116 -0.005477 -0.003569 0.000000 0.000000 0.000000
# 2 -0.005477 0.008173 0.000109 0.000000 0.000000 0.000000
# 3 -0.003569 0.000109 0.012476 0.000000 0.000000 0.000000
# 4 0.000000 0.000000 0.000000 0.092203 0.000000 0.000000
# 5 0.000000 0.000000 0.000000 0.000000 0.085804 0.000000
# 6 0.000000 0.000000 0.000000 0.000000 0.000000 0.036925
#
#
# Mechanical properties :
#
#
# Convention : Reuss Voigt Hill
#
# Bulk Modulus (GPa) = 34.61606 41.88478 38.25042
# Shear Modulus (GPa) = 17.28907 24.69911 20.99409
#
# Velocity S-wave (km/s) = 2.89031 3.45461 3.18498
# Velocity P-wave (km/s) = 5.27870 6.01255 5.65754
#
# Compressibility (1/GPa) = 0.02888832
#
# Stress axis : x y z
#
# Youngs Moduli (GPa) = 38.29132 122.35964 80.15676
#
# Poissons Ratio (x) = 0.67020 0.28612
# Poissons Ratio (y) = 0.20973 -0.00874
# Poissons Ratio (z) = 0.13668 -0.01334
#
# Static dielectric constant tensor:
#      x y z
#    x 1.749980 0.000000 0.000000 
#    y 0.000000 1.785640 0.000000 
#    z 0.000000 0.000000 1.770630 
# 
# From -- ./inp_files/18550.got.cif
#   From: 2010.05.17/outbox.ucp.g08.bks.cvg/sg57_10_cif.got.tgz:18550.got - 2010.06.11 16:39:23.
