data_PCOD9440998
_publ_section_title
;
Structure prediction by ZEFSAII (Michael W. Deem and Ramdas Pophale) SiO2 
 PCOD9440998
Probable space group: P N N M
;
_chemical_formula_sum "Si O2"
_cell_formula_units_Z 64
_cell_length_a 23.835254
_cell_length_b 19.747177
_cell_length_c 7.815277
_cell_angle_alpha 90.000000
_cell_angle_beta 90.000000
_cell_angle_gamma 90.000000
_cell_volume 3678.486603
_symmetry_space_group_name_H-M "P N N M"
_symmetry_group_IT_number 58
_symmetry_cell_setting 'orthorhombic'
loop_
_space_group_symop_operation_xyz
x,y,z
-x,-y,z
1/2+x,1/2-y,1/2-z
1/2-x,1/2+y,1/2-z
-x,-y,-z
x,y,-z
1/2-x,1/2+y,1/2+z
1/2+x,1/2-y,1/2+z
loop_
_atom_site_type_symbol
_atom_site_label
_atom_site_fract_x
_atom_site_fract_y
_atom_site_fract_z
Si Si1 0.064062 0.119592 0.801394
Si Si2 0.753168 0.513094 0.790755
Si Si3 0.278827 0.133722 0.291075
Si Si4 0.164070 0.206105 0.699875
Si Si5 0.876398 0.017143 0.300619
Si Si6 0.224458 0.338538 0.203422
Si Si7 0.840213 0.235063 0.207713
Si Si8 0.558395 0.648277 0.698711
O O1 0.108031 0.180918 0.789272
O O2 0.092329 0.054294 0.716033
O O3 0.003599 0.139359 0.725933
O O4 0.055860 0.100777 0.000000
O O5 0.782875 0.443805 0.734756
O O6 0.687686 0.510753 0.738642
O O7 0.779062 0.584298 0.733706
O O8 0.753521 0.513244 0.000000
O O9 0.278709 0.134288 0.500000
O O10 0.218219 0.163531 0.237193
O O11 0.324882 0.188725 0.236228
O O12 0.157235 0.190348 0.500000
O O13 0.181641 0.284077 0.719973
O O14 0.874079 0.036548 0.500000
O O15 0.910169 0.076277 0.207805
O O16 0.287339 0.311446 0.240485
O O17 0.216390 0.337941 0.000000
O O18 0.897949 0.202871 0.272985
O O19 0.841413 0.234300 0.000000
O O20 0.550182 0.667366 0.500000
#
# Coordination Sequence:
#
# PCOD9440998 Si02
#       8
#     8   8   8   8   8   8   8   8
#     4  11  22  34  47  66  95 129 163 204 245 283
#     4   9  16  27  45  70  96 122 150 190 235 278
#     4   8  14  27  47  67  88 114 150 192 235 276
#     4  10  19  33  50  68  92 123 160 198 235 284
#     4  11  20  32  47  67  96 130 168 200 230 279
#     4  10  18  29  47  70  96 122 151 191 241 285
#     4   9  17  30  48  67  89 124 162 199 237 280
#     4  10  21  34  46  66  97 129 165 204 244 282
#
# _framework density 17.39846
#
# number of rings (size 3 to 8) (size 9 to 14) (size 15 to 20)
#    0.000    2.250    2.500    2.625    0.000    2.500 
#    0.000    0.000    0.000    0.000    0.000    0.875 
#    0.000    7.000    0.000    0.000    0.000    0.000 
#
# Total GULP energy -356956.752929 kJ/mol
# GULP energy per Si atom -5577.449265 kJ/mol
# Density = 1.735886 g / cm^3
# Si number density = 17.398460 Si / 1000 Ang^3
#
#
#
# Elastic Constant Matrix: (Units=GPa)
#
#
# Indices 1 2 3 4 5 6 
#
# 1 55.6661 33.1205 -8.9878 0.0000 0.0000 0.0000
# 2 33.1205 126.6173 -12.8701 0.0000 0.0000 0.0000
# 3 -8.9878 -12.8701 24.5606 0.0000 0.0000 0.0000
# 4 0.0000 0.0000 0.0000 18.2479 0.0000 0.0000
# 5 0.0000 0.0000 0.0000 0.0000 10.9303 0.0000
# 6 0.0000 0.0000 0.0000 0.0000 0.0000 15.5720
#
#
#
# Elastic Compliance Matrix: (Units=1/GPa)
#
#
# Indices 1 2 3 4 5 6 
#
# 1 0.021909 -0.005193 0.005296 0.000000 0.000000 0.000000
# 2 -0.005193 0.009573 0.003116 0.000000 0.000000 0.000000
# 3 0.005296 0.003116 0.044287 0.000000 0.000000 0.000000
# 4 0.000000 0.000000 0.000000 0.054801 0.000000 0.000000
# 5 0.000000 0.000000 0.000000 0.000000 0.091489 0.000000
# 6 0.000000 0.000000 0.000000 0.000000 0.000000 0.064218
#
#
# Mechanical properties :
#
#
# Convention : Reuss Voigt Hill
#
# Bulk Modulus (GPa) = 12.16418 25.48547 18.82483
# Shear Modulus (GPa) = 16.27400 21.98880 19.13140
#
# Velocity S-wave (km/s) = 3.06170 3.55890 3.31962
# Velocity P-wave (km/s) = 4.41649 5.61851 5.05337
#
# Compressibility (1/GPa) = 0.08220856
#
# Stress axis : x y z
#
# Youngs Moduli (GPa) = 45.64347 104.46237 22.58010
#
# Poissons Ratio (x) = 0.54243 -0.11960
# Poissons Ratio (y) = 0.23701 -0.07036
# Poissons Ratio (z) = -0.24175 -0.32551
#
# Static dielectric constant tensor:
#      x y z
#    x 1.583430 0.000000 0.000000 
#    y 0.000000 1.605410 0.000000 
#    z 0.000000 0.000000 1.626760 
# 
# From -- ./inp_files/9395.got.cif
#   From: 2010.05.17/outbox.cif.g08.bks.cpg/sg58_5_cif.got.tgz:9395.got - 2010.06.03 14:20:14.
