data_PCOD9440031
_publ_section_title
;
Structure prediction by ZEFSAII (Michael W. Deem and Ramdas Pophale) SiO2 
 PCOD9440031
Probable space group: P B C M
;
_chemical_formula_sum "Si O2"
_cell_formula_units_Z 32
_cell_length_a 10.413718
_cell_length_b 19.645498
_cell_length_c 8.664799
_cell_angle_alpha 90.000000
_cell_angle_beta 90.000000
_cell_angle_gamma 90.000000
_cell_volume 1772.667768
_symmetry_space_group_name_H-M "P B C M"
_symmetry_group_IT_number 57
_symmetry_cell_setting 'orthorhombic'
loop_
_space_group_symop_operation_xyz
x,y,z
-x,-y,1/2+z
x,1/2-y,-z
-x,1/2+y,1/2-z
-x,-y,-z
x,y,1/2-z
-x,1/2+y,z
x,1/2-y,1/2+z
loop_
_atom_site_type_symbol
_atom_site_label
_atom_site_fract_x
_atom_site_fract_y
_atom_site_fract_z
Si Si1 0.229584 0.323847 0.565338
Si Si2 0.619432 0.457459 0.565395
Si Si3 0.878423 0.540185 0.565113
Si Si4 0.516896 0.176746 0.934338
O O1 0.190087 0.250000 0.500000
O O2 0.235113 0.321412 0.750000
O O3 0.140847 0.385421 0.508588
O O4 0.373443 0.336849 0.499976
O O5 0.500000 0.500000 0.500000
O O6 0.607876 0.452482 0.750000
O O7 0.750522 0.496635 0.528554
O O8 0.608795 0.383043 0.491656
O O9 0.887257 0.546759 0.750000
O O10 0.000000 0.500000 0.500000
O O11 0.509803 0.178381 0.750000
O O12 0.556269 0.250000 0.000000
#
# Coordination Sequence:
#
# PCOD9440031 Si02
#       4
#     8   8   8   8
#     4  11  21  36  60  87 119 155 198 246 297 354
#     4  11  22  37  60  88 119 154 196 243 295 353
#     4  11  24  41  61  88 122 159 202 246 298 356
#     4  11  21  35  57  87 121 155 197 247 300 354
#
# _framework density 18.051888000000002
#
# number of rings (size 3 to 8) (size 9 to 14) (size 15 to 20)
#    0.000    1.000    2.500    7.500    0.000    3.000 
#    0.000    1.250    0.000    6.000    0.000    0.000 
#    0.000    0.000    0.000    0.000    0.000    0.000 
#
# Total GULP energy -178939.291837 kJ/mol
# GULP energy per Si atom -5591.852870 kJ/mol
# Density = 1.801080 g / cm^3
# Si number density = 18.051888 Si / 1000 Ang^3
#
#
#
# Elastic Constant Matrix: (Units=GPa)
#
#
# Indices 1 2 3 4 5 6 
#
# 1 96.0591 70.1050 69.8862 0.0000 0.0000 0.0000
# 2 70.1050 173.2281 80.6077 0.0000 0.0000 0.0000
# 3 69.8862 80.6077 141.7115 0.0000 0.0000 0.0000
# 4 0.0000 0.0000 0.0000 37.7131 0.0000 0.0000
# 5 0.0000 0.0000 0.0000 0.0000 25.9426 0.0000
# 6 0.0000 0.0000 0.0000 0.0000 0.0000 30.4972
#
#
#
# Elastic Compliance Matrix: (Units=1/GPa)
#
#
# Indices 1 2 3 4 5 6 
#
# 1 0.018395 -0.004383 -0.006578 0.000000 0.000000 0.000000
# 2 -0.004383 0.008895 -0.002898 0.000000 0.000000 0.000000
# 3 -0.006578 -0.002898 0.011949 0.000000 0.000000 0.000000
# 4 0.000000 0.000000 0.000000 0.026516 0.000000 0.000000
# 5 0.000000 0.000000 0.000000 0.000000 0.038547 0.000000
# 6 0.000000 0.000000 0.000000 0.000000 0.000000 0.032790
#
#
# Mechanical properties :
#
#
# Convention : Reuss Voigt Hill
#
# Bulk Modulus (GPa) = 86.80534 94.68850 90.74692
# Shear Modulus (GPa) = 29.64679 31.52390 30.58534
#
# Velocity S-wave (km/s) = 4.05694 4.18340 4.12066
# Velocity P-wave (km/s) = 8.37472 8.71217 8.54511
#
# Compressibility (1/GPa) = 0.01152003
#
# Stress axis : x y z
#
# Youngs Moduli (GPa) = 54.36134 112.41986 83.68720
#
# Poissons Ratio (x) = 0.49279 0.55054
# Poissons Ratio (y) = 0.23829 0.24253
# Poissons Ratio (z) = 0.35762 0.32579
#
# Static dielectric constant tensor:
#      x y z
#    x 1.588310 0.000000 0.000000 
#    y 0.000000 1.602430 0.000000 
#    z 0.000000 0.000000 1.599790 
# 
# From -- ./inp_files/1258.got.cif
#   From: 2010.05.17/outbox.cif.g08.bks.cpg/sg57_1_cif.got.tgz:1258.got - 2010.06.03 13:58:18.
