data_PCOD9440009
_publ_section_title
;
Structure prediction by ZEFSAII (Michael W. Deem and Ramdas Pophale) SiO2 
 PCOD9440009
Probable space group: P B C M
;
_chemical_formula_sum "Si O2"
_cell_formula_units_Z 64
_cell_length_a 23.661789
_cell_length_b 17.652862
_cell_length_c 9.143814
_cell_angle_alpha 90.000000
_cell_angle_beta 90.000000
_cell_angle_gamma 90.000000
_cell_volume 3819.355526
_symmetry_space_group_name_H-M "P B C M"
_symmetry_group_IT_number 57
_symmetry_cell_setting 'orthorhombic'
loop_
_space_group_symop_operation_xyz
x,y,z
-x,-y,1/2+z
x,1/2-y,-z
-x,1/2+y,1/2-z
-x,-y,-z
x,y,1/2-z
-x,1/2+y,z
x,1/2-y,1/2+z
loop_
_atom_site_type_symbol
_atom_site_label
_atom_site_fract_x
_atom_site_fract_y
_atom_site_fract_z
Si Si1 0.035223 0.932439 0.424953
Si Si2 0.261506 0.030497 0.576433
Si Si3 0.066143 0.329937 0.424925
Si Si4 0.372406 0.555299 0.420705
Si Si5 0.315147 0.173581 0.423634
Si Si6 0.577179 0.611765 0.578193
Si Si7 0.547356 0.169018 0.576197
Si Si8 0.870201 0.513968 0.575911
O O1 0.035937 0.941289 0.250000
O O2 0.998264 0.857621 0.457726
O O3 0.096742 0.947651 0.491350
O O4 0.000000 0.000000 0.500000
O O5 0.268728 0.048607 0.750000
O O6 0.279141 0.103059 0.482692
O O7 0.196618 0.010263 0.551612
O O8 0.307490 0.965399 0.544011
O O9 0.079221 0.250000 0.500000
O O10 0.071470 0.321245 0.250000
O O11 0.105644 0.402268 0.467027
O O12 0.375943 0.577072 0.250000
O O13 0.406501 0.476268 0.438521
O O14 0.401632 0.617876 0.518618
O O15 0.294591 0.250000 0.500000
O O16 0.313292 0.179348 0.250000
O O17 0.378980 0.157931 0.479544
O O18 0.586449 0.631300 0.750000
O O19 0.512591 0.628921 0.540720
O O20 0.548179 0.250000 0.500000
O O21 0.550279 0.177417 0.750000
O O22 0.881578 0.506728 0.750000
#
# Coordination Sequence:
#
# PCOD9440009 Si02
#       8
#     8   8   8   8   8   8   8   8
#     4   9  17  30  48  71  98 129 166 202 237 280
#     4   9  19  36  54  72  98 131 167 206 248 296
#     4   9  18  30  46  72 104 133 160 194 236 282
#     4   9  18  34  54  74  99 130 163 202 249 300
#     4  11  21  32  48  70  99 134 169 205 246 293
#     4   9  19  35  53  74  99 128 162 201 249 304
#     4  11  22  34  51  75 101 128 161 204 254 306
#     4   9  18  33  52  74  99 129 165 204 246 291
#
# _framework density 16.756753
#
# number of rings (size 3 to 8) (size 9 to 14) (size 15 to 20)
#    0.000    2.500    0.000    4.125    0.000    7.500 
#    0.000    1.250    0.000    0.750    0.000    1.750 
#    0.000    0.000    0.000    0.000    0.000    0.000 
#
# Total GULP energy -356814.196870 kJ/mol
# GULP energy per Si atom -5575.221826 kJ/mol
# Density = 1.671861 g / cm^3
# Si number density = 16.756753 Si / 1000 Ang^3
#
#
#
# Elastic Constant Matrix: (Units=GPa)
#
#
# Indices 1 2 3 4 5 6 
#
# 1 112.6754 37.8745 47.4312 0.0000 0.0000 0.0000
# 2 37.8745 36.3568 22.9387 0.0000 0.0000 0.0000
# 3 47.4312 22.9387 49.9876 0.0000 0.0000 0.0000
# 4 0.0000 0.0000 0.0000 27.5723 0.0000 0.0000
# 5 0.0000 0.0000 0.0000 0.0000 24.4176 0.0000
# 6 0.0000 0.0000 0.0000 0.0000 0.0000 8.0762
#
#
#
# Elastic Compliance Matrix: (Units=1/GPa)
#
#
# Indices 1 2 3 4 5 6 
#
# 1 0.017354 -0.010823 -0.011500 0.000000 0.000000 0.000000
# 2 -0.010823 0.045463 -0.010593 0.000000 0.000000 0.000000
# 3 -0.011500 -0.010593 0.035778 0.000000 0.000000 0.000000
# 4 0.000000 0.000000 0.000000 0.036268 0.000000 0.000000
# 5 0.000000 0.000000 0.000000 0.000000 0.040954 0.000000
# 6 0.000000 0.000000 0.000000 0.000000 0.000000 0.123821
#
#
# Mechanical properties :
#
#
# Convention : Reuss Voigt Hill
#
# Bulk Modulus (GPa) = 30.52216 46.16764 38.34490
# Shear Modulus (GPa) = 13.28404 18.06491 15.67448
#
# Velocity S-wave (km/s) = 2.81865 3.28696 3.06177
# Velocity P-wave (km/s) = 5.37098 6.48205 5.95249
#
# Compressibility (1/GPa) = 0.03276308
#
# Stress axis : x y z
#
# Youngs Moduli (GPa) = 57.62376 21.99581 27.95004
#
# Poissons Ratio (x) = 0.23805 0.32143
# Poissons Ratio (y) = 0.62364 0.29609
# Poissons Ratio (z) = 0.66268 0.23301
#
# Static dielectric constant tensor:
#      x y z
#    x 1.592870 0.000000 0.000000 
#    y 0.000000 1.547300 0.000000 
#    z 0.000000 0.000000 1.567230 
# 
# From -- ./inp_files/9537.got.cif
#   From: 2010.05.17/outbox.cif.g08.bks.cpg/sg57_5_cif.got.tgz:9537.got - 2010.06.03 13:58:18.
