data_PCOD9440868
_publ_section_title
;
Structure prediction by ZEFSAII (Michael W. Deem and Ramdas Pophale) SiO2 
 PCOD9440868
Probable space group: P N N M
;
_chemical_formula_sum "Si O2"
_cell_formula_units_Z 52
_cell_length_a 8.567636
_cell_length_b 11.582116
_cell_length_c 21.149555
_cell_angle_alpha 90.000000
_cell_angle_beta 90.000000
_cell_angle_gamma 90.000000
_cell_volume 2098.698979
_symmetry_space_group_name_H-M "P N N M"
_symmetry_group_IT_number 58
_symmetry_cell_setting 'orthorhombic'
loop_
_space_group_symop_operation_xyz
x,y,z
-x,-y,z
1/2+x,1/2-y,1/2-z
1/2-x,1/2+y,1/2-z
-x,-y,-z
x,y,-z
1/2-x,1/2+y,1/2+z
1/2+x,1/2-y,1/2+z
loop_
_atom_site_type_symbol
_atom_site_label
_atom_site_fract_x
_atom_site_fract_y
_atom_site_fract_z
Si Si1 0.423613 0.149983 0.635600
Si Si2 0.235913 0.775475 0.388094
Si Si3 0.042482 0.844311 0.500000
Si Si4 0.170045 0.367745 0.500000
Si Si5 0.196144 0.624906 0.000000
Si Si6 0.306407 0.369892 0.691610
Si Si7 0.959217 0.303523 0.731116
Si Si8 0.673099 0.467464 0.589350
O O1 0.610817 0.159967 0.636549
O O2 0.374733 0.093058 0.568845
O O3 0.342620 0.276636 0.635821
O O4 0.388455 0.119544 0.710212
O O5 0.138121 0.853886 0.435578
O O6 0.302685 0.665091 0.424573
O O7 0.133002 0.714837 0.333822
O O8 0.984716 0.708623 0.500000
O O9 0.878228 0.910300 0.500000
O O10 0.298408 0.265141 0.500000
O O11 0.195420 0.453520 0.557987
O O12 0.134266 0.342745 0.717068
O O13 0.438455 0.326377 0.740119
O O14 0.320363 0.495860 0.663016
O O15 0.500000 0.500000 0.568157
#
# Coordination Sequence:
#
# PCOD9440868 Si02
#       8
#     8   8   4   4   4   8   8   8
#     4  10  18  33  51  71  92 142 168 215 253 304
#     4  12  21  33  50  74 102 136 183 210 254 304
#     4  10  24  32  45  74 103 144 176 217 249 290
#     4  10  18  32  42  65 107 142 166 202 241 288
#     4  10  17  34  49  67 104 131 174 210 254 295
#     4  10  19  34  50  71  98 130 180 208 259 297
#     4  10  19  35  52  70  95 138 174 216 262 302
#     4  12  21  31  50  74 103 142 178 211 250 301
#
# _framework density 24.777253999999999
#
# number of rings (size 3 to 8) (size 9 to 14) (size 15 to 20)
#    1.385    0.000    4.615    3.000    0.000    3.077 
#    0.000    0.000    0.000    0.000    0.000    0.000 
#    0.000    3.692    0.000    9.769    0.000    0.308 
#
# Total GULP energy -289727.908205 kJ/mol
# GULP energy per Si atom -5571.690542 kJ/mol
# Density = 2.472086 g / cm^3
# Si number density = 24.777254 Si / 1000 Ang^3
#
#
#
# Elastic Constant Matrix: (Units=GPa)
#
#
# Indices 1 2 3 4 5 6 
#
# 1 119.5584 1.8063 71.0479 0.0000 0.0000 0.0000
# 2 1.8063 49.7294 3.8752 0.0000 0.0000 0.0000
# 3 71.0479 3.8752 162.0551 0.0000 0.0000 0.0000
# 4 0.0000 0.0000 0.0000 13.3019 0.0000 0.0000
# 5 0.0000 0.0000 0.0000 0.0000 49.4244 0.0000
# 6 0.0000 0.0000 0.0000 0.0000 0.0000 26.9282
#
#
#
# Elastic Compliance Matrix: (Units=1/GPa)
#
#
# Indices 1 2 3 4 5 6 
#
# 1 0.011311 -0.000024 -0.004958 0.000000 0.000000 0.000000
# 2 -0.000024 0.020146 -0.000471 0.000000 0.000000 0.000000
# 3 -0.004958 -0.000471 0.008356 0.000000 0.000000 0.000000
# 4 0.000000 0.000000 0.000000 0.075177 0.000000 0.000000
# 5 0.000000 0.000000 0.000000 0.000000 0.020233 0.000000
# 6 0.000000 0.000000 0.000000 0.000000 0.000000 0.037136
#
#
# Mechanical properties :
#
#
# Convention : Reuss Voigt Hill
#
# Bulk Modulus (GPa) = 34.59541 53.86686 44.23113
# Shear Modulus (GPa) = 25.91990 34.90514 30.41252
#
# Velocity S-wave (km/s) = 3.23788 3.75741 3.50728
# Velocity P-wave (km/s) = 5.28880 6.37274 5.85590
#
# Compressibility (1/GPa) = 0.02890557
#
# Stress axis : x y z
#
# Youngs Moduli (GPa) = 88.40953 49.63657 119.67681
#
# Poissons Ratio (x) = 0.00121 0.59340
# Poissons Ratio (y) = 0.00216 0.05637
# Poissons Ratio (z) = 0.43837 0.02338
#
# Static dielectric constant tensor:
#      x y z
#    x 1.935940 0.000000 0.000000 
#    y 0.000000 1.988160 0.000000 
#    z 0.000000 0.000000 2.094230 
# 
# From -- ./inp_files/28916.got.cif
#   From: 2010.05.17/outbox.cif.g08.bks.cpg/sg58_15_cif.got.tgz:28916.got - 2010.06.03 14:20:14.
