data_PCOD9440582
_publ_section_title
;
Structure prediction by ZEFSAII (Michael W. Deem and Ramdas Pophale) SiO2 
 PCOD9440582
Probable space group: P B C M
;
_chemical_formula_sum "Si O2"
_cell_formula_units_Z 48
_cell_length_a 15.000000
_cell_length_b 18.000000
_cell_length_c 9.000000
_cell_angle_alpha 90.000000
_cell_angle_beta 90.000000
_cell_angle_gamma 90.000000
_cell_volume 2430.000000
_symmetry_space_group_name_H-M "P B C M"
_symmetry_group_IT_number 57
_symmetry_cell_setting 'orthorhombic'
loop_
_space_group_symop_operation_xyz
x,y,z
-x,-y,1/2+z
x,1/2-y,-z
-x,1/2+y,1/2-z
-x,-y,-z
x,y,1/2-z
-x,1/2+y,z
x,1/2-y,1/2+z
loop_
_atom_site_type_symbol
_atom_site_label
_atom_site_fract_x
_atom_site_fract_y
_atom_site_fract_z
Si Si1 0.127931 0.921884 0.072046
Si Si2 0.022177 0.170857 0.424578
Si Si3 0.528550 0.077146 0.927720
Si Si4 0.355915 0.329609 0.426093
Si Si5 0.799404 0.583194 0.074180
Si Si6 0.696869 0.169945 0.571746
O O1 0.113536 0.923609 0.250000
O O2 0.206160 0.863180 0.038758
O O3 0.161647 0.003476 0.027046
O O4 0.040248 0.892744 0.992392
O O5 0.005601 0.250000 0.500000
O O6 0.004586 0.177178 0.250000
O O7 0.123629 0.144463 0.445653
O O8 0.532098 0.066217 0.750000
O O9 0.454148 0.139327 0.959704
O O10 0.623089 0.110080 0.977818
O O11 0.500000 0.000000 0.000000
O O12 0.340498 0.250000 0.500000
O O13 0.346097 0.322210 0.250000
O O14 0.286463 0.389876 0.486864
O O15 0.778256 0.577591 0.250000
O O16 0.683310 0.250000 0.500000
O O17 0.688759 0.177061 0.750000
#
# Coordination Sequence:
#
# PCOD9440582 Si02
#       6
#     8   8   8   8   8   8
#     4  10  21  38  60  85 114 149 188 233 286 339
#     4  11  23  38  58  84 114 150 191 235 285 340
#     4  10  22  39  59  85 115 149 189 232 281 336
#     4  11  23  38  59  87 117 152 194 238 285 338
#     4  10  22  40  61  85 115 152 190 234 289 341
#     4  10  21  37  57  82 113 148 186 228 276 332
#
# _framework density 19.753086
#
# number of rings (size 3 to 8) (size 9 to 14) (size 15 to 20)
#    0.000    1.667    0.000    4.000    0.000    8.667 
#    0.000    0.000    0.000    0.000    0.000    0.000 
#    0.000    0.000    0.000    0.000    0.000    0.000 
#
# Total GULP energy -268332.512588 kJ/mol
# GULP energy per Si atom -5590.260679 kJ/mol
# Density = 1.970813 g / cm^3
# Si number density = 19.753086 Si / 1000 Ang^3
#
#
#
# Elastic Constant Matrix: (Units=GPa)
#
#
# Indices 1 2 3 4 5 6 
#
# 1 34.7147 -21.6163 34.3617 0.0000 0.0000 0.0000
# 2 -21.6163 65.1954 7.7547 0.0000 0.0000 0.0000
# 3 34.3617 7.7547 9.4038 0.0000 0.0000 0.0000
# 4 0.0000 0.0000 0.0000 35.5009 0.0000 0.0000
# 5 0.0000 0.0000 0.0000 0.0000 20.9992 0.0000
# 6 0.0000 0.0000 0.0000 0.0000 0.0000 17.4848
#
#
#
# Elastic Compliance Matrix: (Units=1/GPa)
#
#
# Indices 1 2 3 4 5 6 
#
# 1 -0.007503 -0.006374 0.032673 0.000000 0.000000 0.000000
# 2 -0.006374 0.011592 0.013732 0.000000 0.000000 0.000000
# 3 0.032673 0.013732 -0.024370 0.000000 0.000000 0.000000
# 4 0.000000 0.000000 0.000000 0.028168 0.000000 0.000000
# 5 0.000000 0.000000 0.000000 0.000000 0.047621 0.000000
# 6 0.000000 0.000000 0.000000 0.000000 0.000000 0.057192
#
#
# Mechanical properties :
#
#
# Convention : Reuss Voigt Hill
#
# Bulk Modulus (GPa) = 16.72819 16.70157 16.71488
# Shear Modulus (GPa) = 95.11792 20.71792 57.91792
#
# Velocity S-wave (km/s) = 6.94680 3.24210 5.42076
# Velocity P-wave (km/s) = 8.53411 4.74220 6.90360
#
# Compressibility (1/GPa) = 0.05977932
#
# Stress axis : x y z
#
# Youngs Moduli (GPa) = -133.27862 86.26771 -41.03422
#
# Poissons Ratio (x) = 0.54987 1.34069
# Poissons Ratio (y) = -0.84951 0.56347
# Poissons Ratio (z) = 4.35455 -1.18460
#
# Static dielectric constant tensor:
#      x y z
#    x 1.684810 0.000000 0.000000 
#    y 0.000000 1.659480 0.000000 
#    z 0.000000 0.000000 1.664460 
# 
# From -- ./inp_files/4616.got.cif
#   From: 2010.05.17/outbox.ucp.g08.bks.cvg/sg57_3_cif.got.tgz:4616.got - 2010.06.11 16:39:23.
