data_PCOD9440444
_publ_section_title
;
Structure prediction by ZEFSAII (Michael W. Deem and Ramdas Pophale) SiO2 
 PCOD9440444
Probable space group: P B C M
;
_chemical_formula_sum "Si O2"
_cell_formula_units_Z 64
_cell_length_a 15.000000
_cell_length_b 30.000000
_cell_length_c 9.000000
_cell_angle_alpha 90.000000
_cell_angle_beta 90.000000
_cell_angle_gamma 90.000000
_cell_volume 4050.000000
_symmetry_space_group_name_H-M "P B C M"
_symmetry_group_IT_number 57
_symmetry_cell_setting 'orthorhombic'
loop_
_space_group_symop_operation_xyz
x,y,z
-x,-y,1/2+z
x,1/2-y,-z
-x,1/2+y,1/2-z
-x,-y,-z
x,y,1/2-z
-x,1/2+y,z
x,1/2-y,1/2+z
loop_
_atom_site_type_symbol
_atom_site_label
_atom_site_fract_x
_atom_site_fract_y
_atom_site_fract_z
Si Si1 0.825777 0.959271 0.427833
Si Si2 0.780080 0.296493 0.927150
Si Si3 0.619653 0.533938 0.575247
Si Si4 0.450080 0.567151 0.077186
Si Si5 0.702757 0.383370 0.073969
Si Si6 0.141904 0.559736 0.071165
Si Si7 0.991277 0.295931 0.927311
Si Si8 0.042171 0.108664 0.071278
O O1 0.832295 0.954982 0.250000
O O2 0.721722 0.959218 0.467497
O O3 0.879766 0.920421 0.504558
O O4 0.864908 0.007781 0.467603
O O5 0.769137 0.295936 0.750000
O O6 0.885830 0.302528 0.958589
O O7 0.753090 0.250000 0.000000
O O8 0.727582 0.336769 0.999589
O O9 0.608503 0.544704 0.750000
O O10 0.594365 0.481848 0.559364
O O11 0.550731 0.561622 0.477630
O O12 0.444294 0.579269 0.250000
O O13 0.393852 0.600546 0.977652
O O14 0.709760 0.381036 0.250000
O O15 0.774349 0.418453 0.009487
O O16 0.155919 0.563283 0.250000
O O17 0.052317 0.586003 0.031876
O O18 0.999937 0.292447 0.750000
O O19 0.040975 0.340210 0.979648
O O20 0.020624 0.250000 0.000000
O O21 0.047090 0.108304 0.250000
#
# Coordination Sequence:
#
# PCOD9440444 Si02
#       8
#     8   8   8   8   8   8   8   8
#     4  10  20  33  50  70  99 136 171 209 252 294
#     4  10  19  34  52  72 101 132 166 206 254 300
#     4   9  18  33  50  71  98 127 164 208 251 295
#     4  10  19  33  52  71  97 130 163 204 251 296
#     4  12  22  31  49  76 102 133 173 207 246 302
#     4  10  19  35  49  65 100 140 172 208 249 288
#     4   9  18  32  50  70  95 127 162 206 252 293
#     4  10  20  33  49  70  99 134 170 208 251 296
#
# _framework density 15.802469
#
# number of rings (size 3 to 8) (size 9 to 14) (size 15 to 20)
#    0.000    2.000    2.500    2.250    0.000    3.000 
#    0.000    0.000    0.000    0.000    0.000    0.875 
#    0.000    4.000    0.000    0.000    0.000    0.000 
#
# Total GULP energy -357093.206126 kJ/mol
# GULP energy per Si atom -5579.581346 kJ/mol
# Density = 1.576650 g / cm^3
# Si number density = 15.802469 Si / 1000 Ang^3
#
#
#
# Elastic Constant Matrix: (Units=GPa)
#
#
# Indices 1 2 3 4 5 6 
#
# 1 49.6132 51.7928 24.2127 0.0000 0.0000 0.0000
# 2 51.7928 117.1595 42.0191 0.0000 0.0000 0.0000
# 3 24.2127 42.0191 31.9372 0.0000 0.0000 0.0000
# 4 0.0000 0.0000 0.0000 25.2442 0.0000 0.0000
# 5 0.0000 0.0000 0.0000 0.0000 22.9232 0.0000
# 6 0.0000 0.0000 0.0000 0.0000 0.0000 7.9225
#
#
#
# Elastic Compliance Matrix: (Units=1/GPa)
#
#
# Indices 1 2 3 4 5 6 
#
# 1 0.040269 -0.012975 -0.013459 0.000000 0.000000 0.000000
# 2 -0.012975 0.020342 -0.016927 0.000000 0.000000 0.000000
# 3 -0.013459 -0.016927 0.063785 0.000000 0.000000 0.000000
# 4 0.000000 0.000000 0.000000 0.039613 0.000000 0.000000
# 5 0.000000 0.000000 0.000000 0.000000 0.043624 0.000000
# 6 0.000000 0.000000 0.000000 0.000000 0.000000 0.126223
#
#
# Mechanical properties :
#
#
# Convention : Reuss Voigt Hill
#
# Bulk Modulus (GPa) = 26.54241 48.30656 37.42448
# Shear Modulus (GPa) = 11.54376 16.59701 14.07038
#
# Velocity S-wave (km/s) = 2.70571 3.24432 2.98718
# Velocity P-wave (km/s) = 5.15694 6.68352 5.96923
#
# Compressibility (1/GPa) = 0.03767556
#
# Stress axis : x y z
#
# Youngs Moduli (GPa) = 24.83305 49.15957 15.67763
#
# Poissons Ratio (x) = 0.63784 0.21100
# Poissons Ratio (y) = 0.32220 0.26537
# Poissons Ratio (z) = 0.33422 0.83211
#
# Static dielectric constant tensor:
#      x y z
#    x 1.505190 0.000000 0.000000 
#    y 0.000000 1.545140 0.000000 
#    z 0.000000 0.000000 1.526190 
# 
# From -- ./inp_files/6084.got.cif
#   From: 2010.05.17/outbox.ucp.g08.bks.cvg/sg57_4_cif.got.tgz:6084.got - 2010.06.11 16:39:23.
