data_PCOD9440285
_publ_section_title
;
Structure prediction by ZEFSAII (Michael W. Deem and Ramdas Pophale) SiO2 
 PCOD9440285
Probable space group: P B C M
;
_chemical_formula_sum "Si O2"
_cell_formula_units_Z 56
_cell_length_a 6.973317
_cell_length_b 13.634722
_cell_length_c 23.357766
_cell_angle_alpha 90.000000
_cell_angle_beta 90.000000
_cell_angle_gamma 90.000000
_cell_volume 2220.838609
_symmetry_space_group_name_H-M "P B C M"
_symmetry_group_IT_number 57
_symmetry_cell_setting 'orthorhombic'
loop_
_space_group_symop_operation_xyz
x,y,z
-x,-y,1/2+z
x,1/2-y,-z
-x,1/2+y,1/2-z
-x,-y,-z
x,y,1/2-z
-x,1/2+y,z
x,1/2-y,1/2+z
loop_
_atom_site_type_symbol
_atom_site_label
_atom_site_fract_x
_atom_site_fract_y
_atom_site_fract_z
Si Si1 0.485963 0.556047 0.561415
Si Si2 0.126989 0.623830 0.147686
Si Si3 0.006850 0.046758 0.562650
Si Si4 0.739348 0.697479 0.937150
Si Si5 0.243036 0.284707 0.689141
Si Si6 0.490340 0.525806 0.310477
Si Si7 0.235219 0.794696 0.062441
O O1 0.500000 0.500000 0.500000
O O2 0.237708 0.578566 0.563734
O O3 0.482887 0.521817 0.627857
O O4 0.740700 0.574208 0.562188
O O5 0.275853 0.566145 0.186189
O O6 0.234954 0.704455 0.108099
O O7 0.018162 0.542193 0.108921
O O8 0.976064 0.682409 0.185042
O O9 0.000000 0.000000 0.500000
O O10 0.718657 0.737746 0.872289
O O11 0.485330 0.679623 0.942203
O O12 0.989022 0.672703 0.928703
O O13 0.757512 0.750000 0.000000
O O14 0.275174 0.230561 0.750000
O O15 0.370619 0.381487 0.690624
O O16 0.522771 0.470763 0.250000
O O17 0.212944 0.750000 0.000000
#
# Coordination Sequence:
#
# PCOD9440285 Si02
#       7
#     8   8   8   8   8   8   8
#     4  12  24  43  68 104 139 180 237 300 355 428
#     4  12  23  45  72 102 142 192 243 289 361 432
#     4  12  22  39  65 101 139 180 230 290 352 415
#     4  12  23  42  66  98 135 176 227 291 354 416
#     4  11  25  46  70 101 140 185 236 294 358 427
#     4  11  25  47  71 101 143 189 237 297 365 432
#     4  12  23  40  67 104 144 185 237 292 361 432
#
# _framework density 25.215696999999999
#
# number of rings (size 3 to 8) (size 9 to 14) (size 15 to 20)
#    0.000    0.286    4.286    6.429    0.000    0.571 
#    0.000    1.429    0.000    0.000    0.000    0.000 
#    0.000    0.000    0.000    0.000    0.000    0.000 
#
# Total GULP energy -312200.601606 kJ/mol
# GULP energy per Si atom -5575.010743 kJ/mol
# Density = 2.515831 g / cm^3
# Si number density = 25.215697 Si / 1000 Ang^3
#
#
#
# Elastic Constant Matrix: (Units=GPa)
#
#
# Indices 1 2 3 4 5 6 
#
# 1 188.0415 42.9504 59.9607 0.0000 0.0000 0.0000
# 2 42.9504 97.6452 96.0173 0.0000 0.0000 0.0000
# 3 59.9607 96.0173 289.5506 0.0000 0.0000 0.0000
# 4 0.0000 0.0000 0.0000 -430.6134 0.0000 0.0000
# 5 0.0000 0.0000 0.0000 0.0000 49.1071 0.0000
# 6 0.0000 0.0000 0.0000 0.0000 0.0000 91.0651
#
#
#
# Elastic Compliance Matrix: (Units=1/GPa)
#
#
# Indices 1 2 3 4 5 6 
#
# 1 0.005969 -0.002092 -0.000542 0.000000 0.000000 0.000000
# 2 -0.002092 0.015930 -0.004849 0.000000 0.000000 0.000000
# 3 -0.000542 -0.004849 0.005174 0.000000 0.000000 0.000000
# 4 0.000000 0.000000 0.000000 -0.002322 0.000000 0.000000
# 5 0.000000 0.000000 0.000000 0.000000 0.020364 0.000000
# 6 0.000000 0.000000 0.000000 0.000000 0.000000 0.010981
#
#
# Mechanical properties :
#
#
# Convention : Reuss Voigt Hill
#
# Bulk Modulus (GPa) = 82.60913 108.12156 95.36535
# Shear Modulus (GPa) = 66.58021 -33.00098 16.78962
#
# Velocity S-wave (km/s) = 5.14408 -3.62159 2.58319
# Velocity P-wave (km/s) = 8.25314 5.04816 6.84098
#
# Compressibility (1/GPa) = 0.01210520
#
# Stress axis : x y z
#
# Youngs Moduli (GPa) = 167.53900 62.77544 193.27646
#
# Poissons Ratio (x) = 0.13134 0.10480
# Poissons Ratio (y) = 0.35053 0.93723
# Poissons Ratio (z) = 0.09084 0.30441
#
# Static dielectric constant tensor:
#      x y z
#    x 2.543200 0.000000 0.000000 
#    y 0.000000 2.288890 0.000000 
#    z 0.000000 0.000000 1.852400 
# 
# From -- ./inp_files/26405.got.cif
#   From: 2010.05.17/outbox.cif.g08.bks.cpg/sg57_14_cif.got.tgz:26405.got - 2010.06.03 13:58:18.
