data_PCOD9440414
_publ_section_title
;
Structure prediction by ZEFSAII (Michael W. Deem and Ramdas Pophale) SiO2 
 PCOD9440414
Probable space group: P B C M
;
_chemical_formula_sum "Si O2"
_cell_formula_units_Z 64
_cell_length_a 18.000000
_cell_length_b 24.000000
_cell_length_c 9.000000
_cell_angle_alpha 90.000000
_cell_angle_beta 90.000000
_cell_angle_gamma 90.000000
_cell_volume 3888.000000
_symmetry_space_group_name_H-M "P B C M"
_symmetry_group_IT_number 57
_symmetry_cell_setting 'orthorhombic'
loop_
_space_group_symop_operation_xyz
x,y,z
-x,-y,1/2+z
x,1/2-y,-z
-x,1/2+y,1/2-z
-x,-y,-z
x,y,1/2-z
-x,1/2+y,z
x,1/2-y,1/2+z
loop_
_atom_site_type_symbol
_atom_site_label
_atom_site_fract_x
_atom_site_fract_y
_atom_site_fract_z
Si Si1 0.259868 0.017015 0.581577
Si Si2 0.107856 0.007399 0.422962
Si Si3 0.402274 0.049263 0.078873
Si Si4 0.200224 0.806285 0.426617
Si Si5 0.691333 0.111948 0.418531
Si Si6 0.547554 0.081321 0.578702
Si Si7 0.961667 0.304790 0.574997
Si Si8 0.003151 0.588718 0.578350
O O1 0.239321 0.033265 0.750000
O O2 0.191483 0.017802 0.469580
O O3 0.327919 0.052191 0.517341
O O4 0.286593 0.952930 0.587136
O O5 0.093348 0.021133 0.250000
O O6 0.057674 0.043376 0.533683
O O7 0.081592 0.943409 0.441889
O O8 0.390932 0.065188 0.250000
O O9 0.427060 0.983908 0.078992
O O10 0.468766 0.082429 0.002198
O O11 0.231844 0.750000 0.500000
O O12 0.193778 0.801538 0.250000
O O13 0.251856 0.856559 0.475711
O O14 0.118897 0.812407 0.498781
O O15 0.695146 0.133859 0.250000
O O16 0.609398 0.114257 0.487002
O O17 0.543759 0.098973 0.750000
O O18 0.995208 0.250000 0.500000
O O19 0.953569 0.297840 0.750000
O O20 0.005098 0.359832 0.530675
O O21 0.997362 0.605726 0.750000
#
# Coordination Sequence:
#
# PCOD9440414 Si02
#       8
#     8   8   8   8   8   8   8   8
#     4  10  19  29  43  63  88 118 151 186 223 266
#     4  10  20  32  47  67  92 123 156 190 230 277
#     4   9  16  26  40  58  83 113 144 179 215 253
#     4  11  21  33  47  64  87 115 148 186 227 266
#     4  10  19  30  44  63  87 117 152 186 222 265
#     4   9  16  26  40  59  83 112 145 178 214 254
#     4  11  21  34  51  70  92 119 153 191 232 275
#     4  10  20  34  50  68  92 121 154 191 231 276
#
# _framework density 16.460905
#
# number of rings (size 3 to 8) (size 9 to 14) (size 15 to 20)
#    0.000    2.000    0.000    6.000    0.000    8.000 
#    0.000    0.000    0.000    0.000    0.000    0.000 
#    0.000    1.000    0.000   10.000    0.000    6.500 
#
# Total GULP energy -356803.343935 kJ/mol
# GULP energy per Si atom -5575.052249 kJ/mol
# Density = 1.642344 g / cm^3
# Si number density = 16.460905 Si / 1000 Ang^3
#
#
#
# Elastic Constant Matrix: (Units=GPa)
#
#
# Indices 1 2 3 4 5 6 
#
# 1 28.1721 1.1147 1.3551 0.0000 0.0000 0.0000
# 2 1.1147 29.7648 16.0096 0.0000 0.0000 0.0000
# 3 1.3551 16.0096 109.6128 0.0000 0.0000 0.0000
# 4 0.0000 0.0000 0.0000 19.7381 0.0000 0.0000
# 5 0.0000 0.0000 0.0000 0.0000 18.5557 0.0000
# 6 0.0000 0.0000 0.0000 0.0000 0.0000 7.6068
#
#
#
# Elastic Compliance Matrix: (Units=1/GPa)
#
#
# Indices 1 2 3 4 5 6 
#
# 1 0.035556 -0.001189 -0.000266 0.000000 0.000000 0.000000
# 2 -0.001189 0.036501 -0.005316 0.000000 0.000000 0.000000
# 3 -0.000266 -0.005316 0.009903 0.000000 0.000000 0.000000
# 4 0.000000 0.000000 0.000000 0.050663 0.000000 0.000000
# 5 0.000000 0.000000 0.000000 0.000000 0.053892 0.000000
# 6 0.000000 0.000000 0.000000 0.000000 0.000000 0.131462
#
#
# Mechanical properties :
#
#
# Convention : Reuss Voigt Hill
#
# Bulk Modulus (GPa) = 14.61612 22.72318 18.66965
# Shear Modulus (GPa) = 14.11137 19.11813 16.61475
#
# Velocity S-wave (km/s) = 2.93109 3.41167 3.18047
# Velocity P-wave (km/s) = 4.51150 5.41790 4.98534
#
# Compressibility (1/GPa) = 0.06841760
#
# Stress axis : x y z
#
# Youngs Moduli (GPa) = 28.12466 27.39665 100.98147
#
# Poissons Ratio (x) = 0.03256 0.02686
# Poissons Ratio (y) = 0.03343 0.53686
# Poissons Ratio (z) = 0.00748 0.14565
#
# Static dielectric constant tensor:
#      x y z
#    x 1.555660 0.000000 0.000000 
#    y 0.000000 1.588250 0.000000 
#    z 0.000000 0.000000 1.551590 
# 
# From -- ./inp_files/7391.got.cif
#   From: 2010.05.17/outbox.ucp.g08.bks.cvg/sg57_4_cif.got.tgz:7391.got - 2010.06.11 16:39:23.
