data_PCOD9440708
_publ_section_title
;
Structure prediction by ZEFSAII (Michael W. Deem and Ramdas Pophale) SiO2 
 PCOD9440708
Probable space group: P N N M
;
_chemical_formula_sum "Si O2"
_cell_formula_units_Z 64
_cell_length_a 24.051082
_cell_length_b 8.068867
_cell_length_c 21.656888
_cell_angle_alpha 90.000000
_cell_angle_beta 90.000000
_cell_angle_gamma 90.000000
_cell_volume 4202.843577
_symmetry_space_group_name_H-M "P N N M"
_symmetry_group_IT_number 58
_symmetry_cell_setting 'orthorhombic'
loop_
_space_group_symop_operation_xyz
x,y,z
-x,-y,z
1/2+x,1/2-y,1/2-z
1/2-x,1/2+y,1/2-z
-x,-y,-z
x,y,-z
1/2-x,1/2+y,1/2+z
1/2+x,1/2-y,1/2+z
loop_
_atom_site_type_symbol
_atom_site_label
_atom_site_fract_x
_atom_site_fract_y
_atom_site_fract_z
Si Si1 0.244893 0.411446 0.573326
Si Si2 0.651276 0.741752 0.761505
Si Si3 0.376879 0.822757 0.123772
Si Si4 0.519005 0.311805 0.068041
Si Si5 0.828308 0.860882 0.736072
Si Si6 0.282154 0.112095 0.348078
Si Si7 0.048457 0.610863 0.670183
Si Si8 0.259844 0.745563 0.350357
O O1 0.250193 0.418058 0.500000
O O2 0.181697 0.364394 0.592814
O O3 0.280590 0.262116 0.603360
O O4 0.259464 0.588854 0.604063
O O5 0.651299 0.545242 0.748807
O O6 0.669629 0.849661 0.702023
O O7 0.591206 0.795191 0.785904
O O8 0.700126 0.761457 0.813919
O O9 0.415814 0.701508 0.084429
O O10 0.368229 0.745591 0.192140
O O11 0.412243 0.988639 0.131242
O O12 0.500000 0.500000 0.066321
O O13 0.483999 0.225037 0.121748
O O14 0.509466 0.236763 0.000000
O O15 0.773032 0.874759 0.694241
O O16 0.807133 0.777193 0.798257
O O17 0.274177 0.928376 0.376521
O O18 0.000000 0.500000 0.701419
#
# Coordination Sequence:
#
# PCOD9440708 Si02
#       8
#     8   8   8   8   8   8   8   8
#     4  11  21  33  47  70 102 132 164 197 241 299
#     4  10  16  31  48  69  95 119 160 205 250 293
#     4  10  19  33  48  68  91 129 165 210 250 286
#     4  10  21  35  47  62  91 133 178 214 248 287
#     4   9  17  28  52  72  91 116 161 204 251 300
#     4   9  19  30  49  71  96 125 159 199 246 300
#     4  10  20  30  46  67  91 123 167 205 249 279
#     4  10  18  31  48  72  93 125 160 202 249 290
#
# _framework density 15.227785000000001
#
# number of rings (size 3 to 8) (size 9 to 14) (size 15 to 20)
#    0.000    2.125    2.500    1.875    3.500    3.250 
#    0.000    0.000    0.000    0.000    0.000    0.000 
#    0.000    0.500    0.000   11.375    0.000    3.250 
#
# Total GULP energy -356346.320676 kJ/mol
# GULP energy per Si atom -5567.911261 kJ/mol
# Density = 1.519313 g / cm^3
# Si number density = 15.227785 Si / 1000 Ang^3
#
#
#
# Elastic Constant Matrix: (Units=GPa)
#
#
# Indices 1 2 3 4 5 6 
#
# 1 58.0861 22.9448 34.0030 0.0000 0.0000 0.0000
# 2 22.9448 93.6126 44.1669 0.0000 0.0000 0.0000
# 3 34.0030 44.1669 68.6245 0.0000 0.0000 0.0000
# 4 0.0000 0.0000 0.0000 10.3269 0.0000 0.0000
# 5 0.0000 0.0000 0.0000 0.0000 14.5916 0.0000
# 6 0.0000 0.0000 0.0000 0.0000 0.0000 18.7907
#
#
#
# Elastic Compliance Matrix: (Units=1/GPa)
#
#
# Indices 1 2 3 4 5 6 
#
# 1 0.024260 -0.000395 -0.011767 0.000000 0.000000 0.000000
# 2 -0.000395 0.015347 -0.009682 0.000000 0.000000 0.000000
# 3 -0.011767 -0.009682 0.026634 0.000000 0.000000 0.000000
# 4 0.000000 0.000000 0.000000 0.096835 0.000000 0.000000
# 5 0.000000 0.000000 0.000000 0.000000 0.068533 0.000000
# 6 0.000000 0.000000 0.000000 0.000000 0.000000 0.053218
#
#
# Mechanical properties :
#
#
# Convention : Reuss Voigt Hill
#
# Bulk Modulus (GPa) = 44.33754 46.95029 45.64392
# Shear Modulus (GPa) = 14.87963 16.68905 15.78434
#
# Velocity S-wave (km/s) = 3.12931 3.31412 3.22304
# Velocity P-wave (km/s) = 6.49894 6.74859 6.62494
#
# Compressibility (1/GPa) = 0.02255425
#
# Stress axis : x y z
#
# Youngs Moduli (GPa) = 41.22052 65.15942 37.54662
#
# Poissons Ratio (x) = 0.02571 0.44180
# Poissons Ratio (y) = 0.01627 0.36352
# Poissons Ratio (z) = 0.48502 0.63086
#
# Static dielectric constant tensor:
#      x y z
#    x 1.504510 0.000000 0.000000 
#    y 0.000000 1.557080 0.000000 
#    z 0.000000 0.000000 1.500090 
# 
# From -- ./inp_files/27686.got.cif
#   From: 2010.05.17/outbox.cif.g08.bks.cpg/sg58_14_cif.got.tgz:27686.got - 2010.06.03 14:20:14.
