data_PCOD9440169
_publ_section_title
;
Structure prediction by ZEFSAII (Michael W. Deem and Ramdas Pophale) SiO2 
 PCOD9440169
Probable space group: P B C M
;
_chemical_formula_sum "Si O2"
_cell_formula_units_Z 40
_cell_length_a 12.485854
_cell_length_b 18.180960
_cell_length_c 8.499645
_cell_angle_alpha 90.000000
_cell_angle_beta 90.000000
_cell_angle_gamma 90.000000
_cell_volume 1929.460316
_symmetry_space_group_name_H-M "P B C M"
_symmetry_group_IT_number 57
_symmetry_cell_setting 'orthorhombic'
loop_
_space_group_symop_operation_xyz
x,y,z
-x,-y,1/2+z
x,1/2-y,-z
-x,1/2+y,1/2-z
-x,-y,-z
x,y,1/2-z
-x,1/2+y,z
x,1/2-y,1/2+z
loop_
_atom_site_type_symbol
_atom_site_label
_atom_site_fract_x
_atom_site_fract_y
_atom_site_fract_z
Si Si1 0.785922 0.595313 0.564692
Si Si2 0.340959 0.668039 0.437383
Si Si3 0.463275 0.419929 0.060660
Si Si4 0.842337 0.438451 0.434857
Si Si5 0.982911 0.669860 0.065496
O O1 0.794973 0.611365 0.750000
O O2 0.660803 0.594078 0.520820
O O3 0.830940 0.513944 0.529441
O O4 0.859281 0.651861 0.469968
O O5 0.323525 0.750000 0.500000
O O6 0.326123 0.665084 0.250000
O O7 0.458602 0.639643 0.483785
O O8 0.257678 0.612914 0.519243
O O9 0.473863 0.418221 0.250000
O O10 0.500000 0.500000 0.000000
O O11 0.841653 0.455170 0.250000
O O12 0.946942 0.392234 0.480144
O O13 0.005212 0.666834 0.250000
O O14 0.011214 0.750000 0.000000
#
# Coordination Sequence:
#
# PCOD9440169 Si02
#       5
#     8   8   8   8   8
#     4  11  24  43  68  98 131 171 219 267 322 387
#     4  12  25  42  65  96 133 172 219 271 328 390
#     4  11  23  41  67  96 131 171 216 266 321 384
#     4  12  24  42  68  97 131 170 217 269 327 389
#     4  12  26  45  67  94 131 172 217 269 328 389
#
# _framework density 20.731183999999999
#
# number of rings (size 3 to 8) (size 9 to 14) (size 15 to 20)
#    0.000    0.400    2.000    7.800    0.000    3.200 
#    0.000    0.000    0.000    0.000    0.000    0.000 
#    0.000    0.000    0.000    0.000    0.000    0.000 
#
# Total GULP energy -224095.843615 kJ/mol
# GULP energy per Si atom -5602.396090 kJ/mol
# Density = 2.068400 g / cm^3
# Si number density = 20.731184 Si / 1000 Ang^3
#
#
#
# Elastic Constant Matrix: (Units=GPa)
#
#
# Indices 1 2 3 4 5 6 
#
# 1 85.2250 -7.9263 4.3039 0.0000 0.0000 0.0000
# 2 -7.9263 41.3479 -21.8365 0.0000 0.0000 0.0000
# 3 4.3039 -21.8365 53.8792 0.0000 0.0000 0.0000
# 4 0.0000 0.0000 0.0000 37.7550 0.0000 0.0000
# 5 0.0000 0.0000 0.0000 0.0000 4.6995 0.0000
# 6 0.0000 0.0000 0.0000 0.0000 0.0000 26.1618
#
#
#
# Elastic Compliance Matrix: (Units=1/GPa)
#
#
# Indices 1 2 3 4 5 6 
#
# 1 0.011947 0.002273 -0.000033 0.000000 0.000000 0.000000
# 2 0.002273 0.031204 0.012465 0.000000 0.000000 0.000000
# 3 -0.000033 0.012465 0.023615 0.000000 0.000000 0.000000
# 4 0.000000 0.000000 0.000000 0.026487 0.000000 0.000000
# 5 0.000000 0.000000 0.000000 0.000000 0.212790 0.000000
# 6 0.000000 0.000000 0.000000 0.000000 0.000000 0.038224
#
#
# Mechanical properties :
#
#
# Convention : Reuss Voigt Hill
#
# Bulk Modulus (GPa) = 10.39792 14.39269 12.39531
# Shear Modulus (GPa) = 14.41278 27.45066 20.93172
#
# Velocity S-wave (km/s) = 2.63957 3.64280 3.18098
# Velocity P-wave (km/s) = 3.78368 4.96497 4.41402
#
# Compressibility (1/GPa) = 0.09617306
#
# Stress axis : x y z
#
# Youngs Moduli (GPa) = 83.70520 32.04766 42.34685
#
# Poissons Ratio (x) = -0.07283 0.00141
# Poissons Ratio (y) = -0.19023 -0.52785
# Poissons Ratio (z) = 0.00278 -0.39947
#
# Static dielectric constant tensor:
#      x y z
#    x 1.757790 0.000000 0.000000 
#    y 0.000000 1.699100 0.000000 
#    z 0.000000 0.000000 1.686870 
# 
# From -- ./inp_files/2648.got.cif
#   From: 2010.05.17/outbox.cif.g08.bks.cpg/sg57_2_cif.got.tgz:2648.got - 2010.06.03 13:58:18.
