data_PCOD9440612
_publ_section_title
;
Structure prediction by ZEFSAII (Michael W. Deem and Ramdas Pophale) SiO2 
 PCOD9440612
Probable space group: P B C M
;
_chemical_formula_sum "Si O2"
_cell_formula_units_Z 48
_cell_length_a 18.000000
_cell_length_b 15.000000
_cell_length_c 9.000000
_cell_angle_alpha 90.000000
_cell_angle_beta 90.000000
_cell_angle_gamma 90.000000
_cell_volume 2430.000000
_symmetry_space_group_name_H-M "P B C M"
_symmetry_group_IT_number 57
_symmetry_cell_setting 'orthorhombic'
loop_
_space_group_symop_operation_xyz
x,y,z
-x,-y,1/2+z
x,1/2-y,-z
-x,1/2+y,1/2-z
-x,-y,-z
x,y,1/2-z
-x,1/2+y,z
x,1/2-y,1/2+z
loop_
_atom_site_type_symbol
_atom_site_label
_atom_site_fract_x
_atom_site_fract_y
_atom_site_fract_z
Si Si1 0.500980 0.847419 0.073726
Si Si2 0.389516 0.487332 0.576306
Si Si3 0.851842 0.167586 0.079555
Si Si4 0.764075 0.984138 0.081674
Si Si5 0.853021 0.664299 0.075124
Si Si6 0.001477 0.901844 0.072382
O O1 0.519306 0.837056 0.250000
O O2 0.433094 0.918404 0.066251
O O3 0.488579 0.750000 0.000000
O O4 0.562844 0.903330 0.982887
O O5 0.370479 0.473781 0.750000
O O6 0.319571 0.492772 0.469425
O O7 0.871869 0.188293 0.250000
O O8 0.802413 0.079966 0.079502
O O9 0.812612 0.250000 0.000000
O O10 0.924795 0.146110 0.984284
O O11 0.771779 0.948095 0.250000
O O12 0.805218 0.921550 0.964769
O O13 0.863647 0.675178 0.250000
O O14 0.816017 0.750000 0.000000
O O15 0.930724 0.649322 0.991445
O O16 0.998566 0.908347 0.250000
O O17 0.000000 0.000000 0.000000
#
# Coordination Sequence:
#
# PCOD9440612 Si02
#       6
#     8   8   8   8   8   8
#     4  10  21  39  65  95 126 161 202 247 296 353
#     4  10  22  40  63  92 126 162 202 248 299 357
#     4  11  24  41  62  88 121 160 206 256 309 365
#     4  11  24  42  63  89 125 163 204 252 304 364
#     4  12  25  42  64  89 121 160 205 257 311 369
#     4  12  23  39  63  89 119 157 205 257 312 368
#
# _framework density 19.753086
#
# number of rings (size 3 to 8) (size 9 to 14) (size 15 to 20)
#    0.000    1.000    1.667    5.500    0.000    5.333 
#    0.000    6.667    0.000    0.000    0.000    0.000 
#    0.000    0.000    0.000    0.000    0.000    0.000 
#
# Total GULP energy -268204.671871 kJ/mol
# GULP energy per Si atom -5587.597331 kJ/mol
# Density = 1.970813 g / cm^3
# Si number density = 19.753086 Si / 1000 Ang^3
#
#
#
# Elastic Constant Matrix: (Units=GPa)
#
#
# Indices 1 2 3 4 5 6 
#
# 1 45.3853 5.6519 16.1251 0.0000 0.0000 0.0000
# 2 5.6519 123.5191 52.0264 0.0000 0.0000 0.0000
# 3 16.1251 52.0264 170.3974 0.0000 0.0000 0.0000
# 4 0.0000 0.0000 0.0000 38.8992 0.0000 0.0000
# 5 0.0000 0.0000 0.0000 0.0000 27.3189 0.0000
# 6 0.0000 0.0000 0.0000 0.0000 0.0000 14.2138
#
#
#
# Elastic Compliance Matrix: (Units=1/GPa)
#
#
# Indices 1 2 3 4 5 6 
#
# 1 0.022803 -0.000154 -0.002111 0.000000 0.000000 0.000000
# 2 -0.000154 0.009292 -0.002822 0.000000 0.000000 0.000000
# 3 -0.002111 -0.002822 0.006930 0.000000 0.000000 0.000000
# 4 0.000000 0.000000 0.000000 0.025707 0.000000 0.000000
# 5 0.000000 0.000000 0.000000 0.000000 0.036605 0.000000
# 6 0.000000 0.000000 0.000000 0.000000 0.000000 0.070354
#
#
# Mechanical properties :
#
#
# Convention : Reuss Voigt Hill
#
# Bulk Modulus (GPa) = 34.66250 54.10097 44.38173
# Shear Modulus (GPa) = 26.11206 33.78629 29.94917
#
# Velocity S-wave (km/s) = 3.63977 4.14022 3.89804
# Velocity P-wave (km/s) = 5.93716 7.09248 6.54038
#
# Compressibility (1/GPa) = 0.02884962
#
# Stress axis : x y z
#
# Youngs Moduli (GPa) = 43.85446 107.62215 144.29761
#
# Poissons Ratio (x) = 0.01661 0.30458
# Poissons Ratio (y) = 0.00677 0.40726
# Poissons Ratio (z) = 0.09257 0.30375
#
# Static dielectric constant tensor:
#      x y z
#    x 1.711240 0.000000 0.000000 
#    y 0.000000 1.571740 0.000000 
#    z 0.000000 0.000000 1.678120 
# 
# From -- ./inp_files/6574.got.cif
#   From: 2010.05.17/outbox.ucp.g08.bks.cvg/sg57_4_cif.got.tgz:6574.got - 2010.06.11 16:39:23.
