data_PCOD9440614
_publ_section_title
;
Structure prediction by ZEFSAII (Michael W. Deem and Ramdas Pophale) SiO2 
 PCOD9440614
Probable space group: P B C M
;
_chemical_formula_sum "Si O2"
_cell_formula_units_Z 48
_cell_length_a 18.000000
_cell_length_b 15.000000
_cell_length_c 9.000000
_cell_angle_alpha 90.000000
_cell_angle_beta 90.000000
_cell_angle_gamma 90.000000
_cell_volume 2430.000000
_symmetry_space_group_name_H-M "P B C M"
_symmetry_group_IT_number 57
_symmetry_cell_setting 'orthorhombic'
loop_
_space_group_symop_operation_xyz
x,y,z
-x,-y,1/2+z
x,1/2-y,-z
-x,1/2+y,1/2-z
-x,-y,-z
x,y,1/2-z
-x,1/2+y,z
x,1/2-y,1/2+z
loop_
_atom_site_type_symbol
_atom_site_label
_atom_site_fract_x
_atom_site_fract_y
_atom_site_fract_z
Si Si1 0.531068 0.150004 0.072244
Si Si2 0.139882 0.340851 0.922618
Si Si3 0.023475 0.907583 0.576511
Si Si4 0.609817 0.519834 0.073825
Si Si5 0.825980 0.342840 0.427840
Si Si6 0.761088 0.513841 0.573186
O O1 0.546837 0.156937 0.250000
O O2 0.452444 0.097079 0.055992
O O3 0.532228 0.250000 0.000000
O O4 0.584535 0.076242 0.993927
O O5 0.162915 0.346226 0.750000
O O6 0.050696 0.348406 0.926070
O O7 0.163941 0.250000 0.000000
O O8 0.174314 0.421814 0.014447
O O9 0.044771 0.920903 0.750000
O O10 0.091166 0.865240 0.486677
O O11 0.000000 0.000000 0.500000
O O12 0.623404 0.509349 0.250000
O O13 0.682794 0.549248 0.985818
O O14 0.803135 0.250000 0.500000
O O15 0.824833 0.340400 0.250000
O O16 0.774603 0.420073 0.492834
O O17 0.762740 0.505479 0.750000
#
# Coordination Sequence:
#
# PCOD9440614 Si02
#       6
#     8   8   8   8   8   8
#     4  10  21  39  66  97 127 162 203 246 296 354
#     4  11  24  41  62  89 121 161 207 257 311 368
#     4  11  22  38  63  90 120 159 206 258 313 369
#     4  10  22  41  64  92 128 164 203 250 299 357
#     4  12  25  42  63  89 122 160 208 260 314 373
#     4  12  25  42  64  90 125 164 206 254 309 370
#
# _framework density 19.753086
#
# number of rings (size 3 to 8) (size 9 to 14) (size 15 to 20)
#    0.000    1.000    1.667    5.500    0.000    6.667 
#    0.000    5.000    0.000    0.000    0.000    0.000 
#    0.000    0.000    0.000    0.000    0.000    0.000 
#
# Total GULP energy -268337.024255 kJ/mol
# GULP energy per Si atom -5590.354672 kJ/mol
# Density = 1.970813 g / cm^3
# Si number density = 19.753086 Si / 1000 Ang^3
#
#
#
# Elastic Constant Matrix: (Units=GPa)
#
#
# Indices 1 2 3 4 5 6 
#
# 1 46.6957 -23.2346 22.7284 0.0000 0.0000 0.0000
# 2 -23.2346 85.8848 28.9044 0.0000 0.0000 0.0000
# 3 22.7284 28.9044 183.8987 0.0000 0.0000 0.0000
# 4 0.0000 0.0000 0.0000 37.6302 0.0000 0.0000
# 5 0.0000 0.0000 0.0000 0.0000 33.5009 0.0000
# 6 0.0000 0.0000 0.0000 0.0000 0.0000 -3.2242
#
#
#
# Elastic Compliance Matrix: (Units=1/GPa)
#
#
# Indices 1 2 3 4 5 6 
#
# 1 0.028529 0.009402 -0.005004 0.000000 0.000000 0.000000
# 2 0.009402 0.015392 -0.003581 0.000000 0.000000 0.000000
# 3 -0.005004 -0.003581 0.006619 0.000000 0.000000 0.000000
# 4 0.000000 0.000000 0.000000 0.026574 0.000000 0.000000
# 5 0.000000 0.000000 0.000000 0.000000 0.029850 0.000000
# 6 0.000000 0.000000 0.000000 0.000000 0.000000 -0.310159
#
#
# Mechanical properties :
#
#
# Convention : Reuss Voigt Hill
#
# Bulk Modulus (GPa) = 19.16652 41.47505 30.32079
# Shear Modulus (GPa) = -26.67572 32.78678 3.05553
#
# Velocity S-wave (km/s) = -3.67884 4.07852 1.24508
# Velocity P-wave (km/s) = 2.88463 6.57430 4.17734
#
# Compressibility (1/GPa) = 0.05217430
#
# Stress axis : x y z
#
# Youngs Moduli (GPa) = 35.05213 64.96739 151.07814
#
# Poissons Ratio (x) = -0.61082 0.75595
# Poissons Ratio (y) = -0.32956 0.54106
# Poissons Ratio (z) = 0.17539 0.23267
#
# Static dielectric constant tensor:
#      x y z
#    x 1.717730 0.000000 0.000000 
#    y 0.000000 1.796760 0.000000 
#    z 0.000000 0.000000 1.655020 
# 
# From -- ./inp_files/6513.got.cif
#   From: 2010.05.17/outbox.ucp.g08.bks.cvg/sg57_4_cif.got.tgz:6513.got - 2010.06.11 16:39:23.
