data_PCOD9440035
_publ_section_title
;
Structure prediction by ZEFSAII (Michael W. Deem and Ramdas Pophale) SiO2 
 PCOD9440035
Probable space group: P B C M
;
_chemical_formula_sum "Si O2"
_cell_formula_units_Z 64
_cell_length_a 9.914344
_cell_length_b 20.289658
_cell_length_c 16.948183
_cell_angle_alpha 90.000000
_cell_angle_beta 90.000000
_cell_angle_gamma 90.000000
_cell_volume 3409.273596
_symmetry_space_group_name_H-M "P B C M"
_symmetry_group_IT_number 57
_symmetry_cell_setting 'orthorhombic'
loop_
_space_group_symop_operation_xyz
x,y,z
-x,-y,1/2+z
x,1/2-y,-z
-x,1/2+y,1/2-z
-x,-y,-z
x,y,1/2-z
-x,1/2+y,z
x,1/2-y,1/2+z
loop_
_atom_site_type_symbol
_atom_site_label
_atom_site_fract_x
_atom_site_fract_y
_atom_site_fract_z
Si Si1 0.892641 0.096362 0.906108
Si Si2 0.344589 0.194008 0.446774
Si Si3 0.596030 0.162098 0.156115
Si Si4 0.175378 0.756031 0.095482
Si Si5 0.779601 0.446726 0.579135
Si Si6 0.924539 0.954242 0.869726
Si Si7 0.188160 0.084536 0.538138
Si Si8 0.898993 0.695625 0.161642
O O1 0.836597 0.167178 0.880838
O O2 0.055608 0.105995 0.913600
O O3 0.875671 0.029271 0.853813
O O4 0.826080 0.081777 0.993087
O O5 0.410289 0.250000 0.500000
O O6 0.450938 0.167414 0.384460
O O7 0.286058 0.140363 0.507211
O O8 0.214825 0.220262 0.398549
O O9 0.586294 0.158030 0.250000
O O10 0.691297 0.223150 0.131068
O O11 0.671820 0.099642 0.118986
O O12 0.045289 0.715314 0.127539
O O13 0.174890 0.750000 0.000000
O O14 0.733614 0.522358 0.573056
O O15 0.914176 0.451313 0.632283
O O16 0.879286 0.884279 0.834361
O O17 0.882700 0.945382 0.960448
O O18 0.885098 0.722015 0.250000
#
# Coordination Sequence:
#
# PCOD9440035 Si02
#       8
#     8   8   8   8   8   8   8   8
#     4   9  16  30  57  89 118 140 187 245 284 329
#     4  11  23  39  59  84 112 153 206 245 289 347
#     4  12  25  38  54  82 120 158 192 242 308 359
#     4  12  20  34  59  90 115 153 200 244 283 347
#     4   9  16  32  57  83 116 141 184 239 290 336
#     4   8  15  30  53  85 115 144 175 229 288 340
#     4   8  16  32  57  89 108 137 184 243 283 329
#     4  11  21  36  58  85 118 156 195 243 296 350
#
# _framework density 18.772327000000001
#
# number of rings (size 3 to 8) (size 9 to 14) (size 15 to 20)
#    0.000    2.000    2.500    5.250    0.000    0.500 
#    0.000    1.250    0.000    6.000    0.000    0.000 
#    0.000    0.000    0.000    0.000    0.000    0.000 
#
# Total GULP energy -356473.170521 kJ/mol
# GULP energy per Si atom -5569.893289 kJ/mol
# Density = 1.872960 g / cm^3
# Si number density = 18.772327 Si / 1000 Ang^3
#
#
#
# Elastic Constant Matrix: (Units=GPa)
#
#
# Indices 1 2 3 4 5 6 
#
# 1 53.6721 20.9974 7.6338 0.0000 0.0000 0.0000
# 2 20.9974 70.7399 21.4701 0.0000 0.0000 0.0000
# 3 7.6338 21.4701 59.0443 0.0000 0.0000 0.0000
# 4 0.0000 0.0000 0.0000 4.0285 0.0000 0.0000
# 5 0.0000 0.0000 0.0000 0.0000 -7.5432 0.0000
# 6 0.0000 0.0000 0.0000 0.0000 0.0000 13.3558
#
#
#
# Elastic Compliance Matrix: (Units=1/GPa)
#
#
# Indices 1 2 3 4 5 6 
#
# 1 0.021093 -0.006107 -0.000506 0.000000 0.000000 0.000000
# 2 -0.006107 0.017658 -0.005631 0.000000 0.000000 0.000000
# 3 -0.000506 -0.005631 0.019050 0.000000 0.000000 0.000000
# 4 0.000000 0.000000 0.000000 0.248228 0.000000 0.000000
# 5 0.000000 0.000000 0.000000 0.000000 -0.132570 0.000000
# 6 0.000000 0.000000 0.000000 0.000000 0.000000 0.074874
#
#
# Mechanical properties :
#
#
# Convention : Reuss Voigt Hill
#
# Bulk Modulus (GPa) = 30.02028 31.51767 30.76897
# Shear Modulus (GPa) = 17.61019 10.85858 14.23438
#
# Velocity S-wave (km/s) = 3.06615 2.40768 2.75665
# Velocity P-wave (km/s) = 5.34430 4.95531 5.15348
#
# Compressibility (1/GPa) = 0.03331082
#
# Stress axis : x y z
#
# Youngs Moduli (GPa) = 47.40930 56.63068 52.49446
#
# Poissons Ratio (x) = 0.34586 0.02658
# Poissons Ratio (y) = 0.28954 0.29562
# Poissons Ratio (z) = 0.02400 0.31891
#
# Static dielectric constant tensor:
#      x y z
#    x 1.630690 0.000000 0.000000 
#    y 0.000000 1.715980 0.000000 
#    z 0.000000 0.000000 1.655250 
# 
# From -- ./inp_files/21422.got.cif
#   From: 2010.05.17/outbox.cif.g08.bks.cpg/sg57_11_cif.got.tgz:21422.got - 2010.06.03 13:58:18.
