data_PCOD9440916
_publ_section_title
;
Structure prediction by ZEFSAII (Michael W. Deem and Ramdas Pophale) SiO2 
 PCOD9440916
Probable space group: P N N M
;
_chemical_formula_sum "Si O2"
_cell_formula_units_Z 64
_cell_length_a 12.263771
_cell_length_b 16.711540
_cell_length_c 17.618720
_cell_angle_alpha 90.000000
_cell_angle_beta 90.000000
_cell_angle_gamma 90.000000
_cell_volume 3610.894992
_symmetry_space_group_name_H-M "P N N M"
_symmetry_group_IT_number 58
_symmetry_cell_setting 'orthorhombic'
loop_
_space_group_symop_operation_xyz
x,y,z
-x,-y,z
1/2+x,1/2-y,1/2-z
1/2-x,1/2+y,1/2-z
-x,-y,-z
x,y,-z
1/2-x,1/2+y,1/2+z
1/2+x,1/2-y,1/2+z
loop_
_atom_site_type_symbol
_atom_site_label
_atom_site_fract_x
_atom_site_fract_y
_atom_site_fract_z
Si Si1 0.820067 0.993934 0.589179
Si Si2 0.911816 0.092100 0.729316
Si Si3 0.592558 0.061976 0.650123
Si Si4 0.862346 0.806044 0.912978
Si Si5 0.355172 0.564962 0.700413
Si Si6 0.056022 0.693113 0.916235
Si Si7 0.767375 0.842979 0.674918
Si Si8 0.784159 0.700807 0.224577
O O1 0.842824 0.005437 0.500000
O O2 0.826798 0.900445 0.613845
O O3 0.891389 0.048494 0.647507
O O4 0.694948 0.019457 0.609150
O O5 0.839954 0.171142 0.731740
O O6 0.036860 0.098029 0.754682
O O7 0.862475 0.029217 0.790465
O O8 0.530790 0.121539 0.592555
O O9 0.642771 0.121334 0.713641
O O10 0.500000 0.000000 0.676131
O O11 0.854559 0.895699 0.881395
O O12 0.797585 0.750651 0.853517
O O13 0.986253 0.773666 0.906699
O O14 0.828442 0.796953 0.000000
O O15 0.257975 0.599427 0.751496
O O16 0.150257 0.679954 0.856771
O O17 0.104706 0.691219 0.000000
O O18 0.817077 0.760531 0.707655
#
# Coordination Sequence:
#
# PCOD9440916 Si02
#       8
#     8   8   8   8   8   8   8   8
#     4  10  19  30  48  73 101 132 161 194 239 289
#     4   9  18  33  49  66  97 133 167 199 236 277
#     4  10  18  29  46  72 102 124 155 197 246 296
#     4   9  18  32  51  74  98 126 156 200 252 294
#     4   9  18  33  49  67  95 132 171 200 229 282
#     4  10  18  27  45  73 103 130 153 190 244 293
#     4  10  18  29  44  66  98 133 162 192 235 282
#     4   9  19  31  47  70  97 127 158 198 242 296
#
# _framework density 17.724136999999999
#
# number of rings (size 3 to 8) (size 9 to 14) (size 15 to 20)
#    0.000    2.500    1.250    1.500    0.000    3.500 
#    0.000    6.875    0.000    1.500    0.000    0.000 
#    0.000    2.000    0.000   51.125    0.000    0.000 
#
# Total GULP energy -356313.606413 kJ/mol
# GULP energy per Si atom -5567.400100 kJ/mol
# Density = 1.768380 g / cm^3
# Si number density = 17.724137 Si / 1000 Ang^3
#
#
#
# Elastic Constant Matrix: (Units=GPa)
#
#
# Indices 1 2 3 4 5 6 
#
# 1 35.8709 4.2286 23.2610 0.0000 0.0000 0.0000
# 2 4.2286 65.9742 35.7529 0.0000 0.0000 0.0000
# 3 23.2610 35.7529 66.4162 0.0000 0.0000 0.0000
# 4 0.0000 0.0000 0.0000 17.3603 0.0000 0.0000
# 5 0.0000 0.0000 0.0000 0.0000 10.6190 0.0000
# 6 0.0000 0.0000 0.0000 0.0000 0.0000 18.2386
#
#
#
# Elastic Compliance Matrix: (Units=1/GPa)
#
#
# Indices 1 2 3 4 5 6 
#
# 1 0.038092 0.006760 -0.016980 0.000000 0.000000 0.000000
# 2 0.006760 0.022600 -0.014534 0.000000 0.000000 0.000000
# 3 -0.016980 -0.014534 0.028827 0.000000 0.000000 0.000000
# 4 0.000000 0.000000 0.000000 0.057603 0.000000 0.000000
# 5 0.000000 0.000000 0.000000 0.000000 0.094171 0.000000
# 6 0.000000 0.000000 0.000000 0.000000 0.000000 0.054829
#
#
# Mechanical properties :
#
#
# Convention : Reuss Voigt Hill
#
# Bulk Modulus (GPa) = 24.99228 32.74959 28.87093
# Shear Modulus (GPa) = 13.92888 16.24484 15.08686
#
# Velocity S-wave (km/s) = 2.80638 3.03072 2.92071
# Velocity P-wave (km/s) = 4.96310 5.54658 5.26293
#
# Compressibility (1/GPa) = 0.04001236
#
# Stress axis : x y z
#
# Youngs Moduli (GPa) = 26.25236 44.24716 34.68931
#
# Poissons Ratio (x) = -0.29913 0.58903
# Poissons Ratio (y) = -0.17748 0.50417
# Poissons Ratio (z) = 0.44577 0.64308
#
# Static dielectric constant tensor:
#      x y z
#    x 1.637900 0.000000 0.000000 
#    y 0.000000 1.659510 0.000000 
#    z 0.000000 0.000000 1.603330 
# 
# From -- ./inp_files/26466.got.cif
#   From: 2010.05.17/outbox.cif.g08.bks.cpg/sg58_14_cif.got.tgz:26466.got - 2010.06.03 14:20:14.
