data_PCOD9440020
_publ_section_title
;
Structure prediction by ZEFSAII (Michael W. Deem and Ramdas Pophale) SiO2 
 PCOD9440020
Probable space group: P B C M
;
_chemical_formula_sum "Si O2"
_cell_formula_units_Z 64
_cell_length_a 12.917545
_cell_length_b 35.173031
_cell_length_c 8.720445
_cell_angle_alpha 90.000000
_cell_angle_beta 90.000000
_cell_angle_gamma 90.000000
_cell_volume 3962.127303
_symmetry_space_group_name_H-M "P B C M"
_symmetry_group_IT_number 57
_symmetry_cell_setting 'orthorhombic'
loop_
_space_group_symop_operation_xyz
x,y,z
-x,-y,1/2+z
x,1/2-y,-z
-x,1/2+y,1/2-z
-x,-y,-z
x,y,1/2-z
-x,1/2+y,z
x,1/2-y,1/2+z
loop_
_atom_site_type_symbol
_atom_site_label
_atom_site_fract_x
_atom_site_fract_y
_atom_site_fract_z
Si Si1 0.119652 0.920337 0.933881
Si Si2 0.883892 0.498758 0.433164
Si Si3 0.614091 0.708657 0.067160
Si Si4 0.387499 0.708332 0.933460
Si Si5 0.203403 0.159739 0.567547
Si Si6 0.199384 0.661859 0.434514
Si Si7 0.996137 0.207622 0.933986
Si Si8 0.124359 0.417397 0.565416
O O1 0.121877 0.924059 0.750000
O O2 0.179003 0.882044 0.977788
O O3 0.998071 0.915429 0.976762
O O4 0.161873 0.959452 0.004702
O O5 0.889622 0.497184 0.250000
O O6 0.837327 0.539981 0.474439
O O7 0.000000 0.500000 0.500000
O O8 0.605830 0.711310 0.250000
O O9 0.644053 0.750000 0.000000
O O10 0.501881 0.699323 0.996560
O O11 0.699978 0.678547 0.017550
O O12 0.388976 0.710060 0.750000
O O13 0.360042 0.750000 0.000000
O O14 0.302786 0.678802 0.992633
O O15 0.219308 0.161895 0.750000
O O16 0.183312 0.116651 0.515805
O O17 0.099820 0.183829 0.529837
O O18 0.204155 0.664342 0.250000
O O19 0.102147 0.686369 0.493582
O O20 0.984409 0.209069 0.750000
O O21 0.004197 0.250000 0.000000
O O22 0.130692 0.412758 0.750000
#
# Coordination Sequence:
#
# PCOD9440020 Si02
#       8
#     8   8   8   8   8   8   8   8
#     4   9  18  31  48  71 101 136 171 208 251 299
#     4   9  17  28  45  68  98 134 171 207 249 298
#     4  11  22  38  58  77 100 131 170 216 261 304
#     4  11  22  38  57  77 101 130 171 217 260 304
#     4  11  22  34  51  76 103 135 172 211 255 303
#     4  11  21  35  53  74 103 136 171 211 256 303
#     4  11  23  35  48  70 100 136 173 206 251 304
#     4   9  17  31  47  70 101 137 171 207 252 298
#
# _framework density 16.152940000000001
#
# number of rings (size 3 to 8) (size 9 to 14) (size 15 to 20)
#    0.000    1.750    1.250    6.000    0.000    6.000 
#    0.000    0.000    0.000    0.000    0.000    0.875 
#    0.000    0.000    0.000    0.000    0.000    0.000 
#
# Total GULP energy -357260.100689 kJ/mol
# GULP energy per Si atom -5582.189073 kJ/mol
# Density = 1.611617 g / cm^3
# Si number density = 16.152940 Si / 1000 Ang^3
#
#
#
# Elastic Constant Matrix: (Units=GPa)
#
#
# Indices 1 2 3 4 5 6 
#
# 1 62.6352 66.2950 40.0459 0.0000 0.0000 0.0000
# 2 66.2950 160.6878 61.1158 0.0000 0.0000 0.0000
# 3 40.0459 61.1158 82.4170 0.0000 0.0000 0.0000
# 4 0.0000 0.0000 0.0000 30.7076 0.0000 0.0000
# 5 0.0000 0.0000 0.0000 0.0000 18.0154 0.0000
# 6 0.0000 0.0000 0.0000 0.0000 0.0000 14.3251
#
#
#
# Elastic Compliance Matrix: (Units=1/GPa)
#
#
# Indices 1 2 3 4 5 6 
#
# 1 0.031679 -0.010050 -0.007940 0.000000 0.000000 0.000000
# 2 -0.010050 0.011856 -0.003909 0.000000 0.000000 0.000000
# 3 -0.007940 -0.003909 0.018890 0.000000 0.000000 0.000000
# 4 0.000000 0.000000 0.000000 0.032565 0.000000 0.000000
# 5 0.000000 0.000000 0.000000 0.000000 0.055508 0.000000
# 6 0.000000 0.000000 0.000000 0.000000 0.000000 0.069808
#
#
# Mechanical properties :
#
#
# Convention : Reuss Voigt Hill
#
# Bulk Modulus (GPa) = 53.68365 71.18372 62.43368
# Shear Modulus (GPa) = 18.49705 21.82850 20.16277
#
# Velocity S-wave (km/s) = 3.38763 3.68008 3.53688
# Velocity P-wave (km/s) = 6.97195 7.88806 7.44412
#
# Compressibility (1/GPa) = 0.01862765
#
# Stress axis : x y z
#
# Youngs Moduli (GPa) = 31.56637 84.34434 52.93799
#
# Poissons Ratio (x) = 0.84765 0.42035
# Poissons Ratio (y) = 0.31724 0.20692
# Poissons Ratio (z) = 0.25065 0.32967
#
# Static dielectric constant tensor:
#      x y z
#    x 1.523770 0.000000 0.000000 
#    y 0.000000 1.556820 0.000000 
#    z 0.000000 0.000000 1.540840 
# 
# From -- ./inp_files/3862.got.cif
#   From: 2010.05.17/outbox.cif.g08.bks.cpg/sg57_2_cif.got.tgz:3862.got - 2010.06.03 13:58:18.
