data_PCOD9440458
_publ_section_title
;
Structure prediction by ZEFSAII (Michael W. Deem and Ramdas Pophale) SiO2 
 PCOD9440458
Probable space group: P B C M
;
_chemical_formula_sum "Si O2"
_cell_formula_units_Z 48
_cell_length_a 21.000000
_cell_length_b 15.000000
_cell_length_c 9.000000
_cell_angle_alpha 90.000000
_cell_angle_beta 90.000000
_cell_angle_gamma 90.000000
_cell_volume 2835.000000
_symmetry_space_group_name_H-M "P B C M"
_symmetry_group_IT_number 57
_symmetry_cell_setting 'orthorhombic'
loop_
_space_group_symop_operation_xyz
x,y,z
-x,-y,1/2+z
x,1/2-y,-z
-x,1/2+y,1/2-z
-x,-y,-z
x,y,1/2-z
-x,1/2+y,z
x,1/2-y,1/2+z
loop_
_atom_site_type_symbol
_atom_site_label
_atom_site_fract_x
_atom_site_fract_y
_atom_site_fract_z
Si Si1 0.889602 0.348761 0.430547
Si Si2 0.724642 0.648131 0.430636
Si Si3 0.410063 0.454921 0.928298
Si Si4 0.158696 0.030741 0.569194
Si Si5 0.038539 0.345188 0.072444
Si Si6 0.530457 0.148159 0.929983
O O1 0.875239 0.250000 0.500000
O O2 0.882597 0.346244 0.250000
O O3 0.849055 0.430893 0.500089
O O4 0.964846 0.366918 0.466575
O O5 0.722208 0.750000 0.500000
O O6 0.731827 0.655417 0.250000
O O7 0.659185 0.590671 0.459179
O O8 0.783382 0.590165 0.500318
O O9 0.420463 0.448157 0.750000
O O10 0.421251 0.562166 0.963939
O O11 0.463724 0.394470 0.010560
O O12 0.165102 0.026067 0.750000
O O13 0.092302 0.082551 0.532973
O O14 0.040298 0.335049 0.250000
O O15 0.054246 0.250000 0.000000
O O16 0.529467 0.158324 0.750000
O O17 0.540721 0.250000 0.000000
#
# Coordination Sequence:
#
# PCOD9440458 Si02
#       6
#     8   8   8   8   8   8
#     4  10  20  36  56  78 104 137 176 222 274 325
#     4  11  23  39  57  79 109 144 181 221 266 318
#     4   9  20  37  56  80 111 147 185 223 265 315
#     4  11  22  36  54  79 108 141 181 222 267 320
#     4   9  19  33  52  78 107 137 173 219 270 323
#     4  10  19  33  56  85 114 143 178 222 269 316
#
# _framework density 16.931217
#
# number of rings (size 3 to 8) (size 9 to 14) (size 15 to 20)
#    0.000    2.000    0.000    3.500    0.000    6.667 
#    0.000    0.833    0.000    2.000    0.000    0.000 
#    0.000    0.000    0.000    0.000    0.000    0.000 
#
# Total GULP energy -267494.867892 kJ/mol
# GULP energy per Si atom -5572.809748 kJ/mol
# Density = 1.689268 g / cm^3
# Si number density = 16.931217 Si / 1000 Ang^3
#
#
#
# Elastic Constant Matrix: (Units=GPa)
#
#
# Indices 1 2 3 4 5 6 
#
# 1 96.4194 72.0465 40.6525 0.0000 0.0000 0.0000
# 2 72.0465 191.3178 61.5401 0.0000 0.0000 0.0000
# 3 40.6525 61.5401 87.2821 0.0000 0.0000 0.0000
# 4 0.0000 0.0000 0.0000 43.6478 0.0000 0.0000
# 5 0.0000 0.0000 0.0000 0.0000 28.0059 0.0000
# 6 0.0000 0.0000 0.0000 0.0000 0.0000 38.8587
#
#
#
# Elastic Compliance Matrix: (Units=1/GPa)
#
#
# Indices 1 2 3 4 5 6 
#
# 1 0.015441 -0.004529 -0.003999 0.000000 0.000000 0.000000
# 2 -0.004529 0.008088 -0.003594 0.000000 0.000000 0.000000
# 3 -0.003999 -0.003594 0.015853 0.000000 0.000000 0.000000
# 4 0.000000 0.000000 0.000000 0.022911 0.000000 0.000000
# 5 0.000000 0.000000 0.000000 0.000000 0.035707 0.000000
# 6 0.000000 0.000000 0.000000 0.000000 0.000000 0.025734
#
#
# Mechanical properties :
#
#
# Convention : Reuss Voigt Hill
#
# Bulk Modulus (GPa) = 66.04716 80.38860 73.21788
# Shear Modulus (GPa) = 32.67476 35.48784 34.08130
#
# Velocity S-wave (km/s) = 4.39778 4.58318 4.49143
# Velocity P-wave (km/s) = 8.05488 8.69425 8.38066
#
# Compressibility (1/GPa) = 0.01514070
#
# Stress axis : x y z
#
# Youngs Moduli (GPa) = 64.76177 123.63739 63.07820
#
# Poissons Ratio (x) = 0.55990 0.25225
# Poissons Ratio (y) = 0.29328 0.22667
# Poissons Ratio (z) = 0.25898 0.44429
#
# Static dielectric constant tensor:
#      x y z
#    x 1.585880 0.000000 0.000000 
#    y 0.000000 1.581060 0.000000 
#    z 0.000000 0.000000 1.576780 
# 
# From -- ./inp_files/7874.got.cif
#   From: 2010.05.17/outbox.ucp.g08.bks.cvg/sg57_4_cif.got.tgz:7874.got - 2010.06.11 16:39:23.
