data_PCOD9440662
_publ_section_title
;
Structure prediction by ZEFSAII (Michael W. Deem and Ramdas Pophale) SiO2 
 PCOD9440662
Probable space group: P B C M
;
_chemical_formula_sum "Si O2"
_cell_formula_units_Z 64
_cell_length_a 21.000000
_cell_length_b 18.000000
_cell_length_c 9.000000
_cell_angle_alpha 90.000000
_cell_angle_beta 90.000000
_cell_angle_gamma 90.000000
_cell_volume 3402.000000
_symmetry_space_group_name_H-M "P B C M"
_symmetry_group_IT_number 57
_symmetry_cell_setting 'orthorhombic'
loop_
_space_group_symop_operation_xyz
x,y,z
-x,-y,1/2+z
x,1/2-y,-z
-x,1/2+y,1/2-z
-x,-y,-z
x,y,1/2-z
-x,1/2+y,z
x,1/2-y,1/2+z
loop_
_atom_site_type_symbol
_atom_site_label
_atom_site_fract_x
_atom_site_fract_y
_atom_site_fract_z
Si Si1 0.994405 0.581499 0.572880
Si Si2 0.879829 0.393711 0.572319
Si Si3 0.746464 0.327043 0.572636
Si Si4 0.353591 0.932816 0.426967
Si Si5 0.620171 0.893711 0.572319
Si Si6 0.753536 0.827043 0.927364
Si Si7 0.853591 0.932816 0.426967
Si Si8 0.494405 0.581499 0.572880
O O1 0.000205 0.574928 0.750000
O O2 0.054110 0.625707 0.507609
O O3 0.000000 0.500000 0.500000
O O4 0.922044 0.605498 0.540294
O O5 0.889264 0.390178 0.750000
O O6 0.819517 0.344368 0.529804
O O7 0.861326 0.479677 0.537520
O O8 0.725654 0.250000 0.500000
O O9 0.743224 0.322750 0.750000
O O10 0.702077 0.393324 0.515375
O O11 0.341858 0.927340 0.250000
O O12 0.422044 0.894502 0.459706
O O13 0.361326 0.020323 0.462480
O O14 0.610736 0.890178 0.750000
O O15 0.680483 0.844368 0.529804
O O16 0.554110 0.874293 0.492391
O O17 0.756776 0.822750 0.750000
O O18 0.774346 0.750000 0.000000
O O19 0.797923 0.893324 0.984625
O O20 0.841858 0.927340 0.250000
O O21 0.500000 0.500000 0.500000
O O22 0.500205 0.574928 0.750000
#
# Coordination Sequence:
#
# PCOD9440662 Si02
#       8
#     8   8   8   8   8   8   8   8
#     4   9  17  30  52  81 109 135 167 211 260 308
#     4   9  19  35  55  80 107 136 173 214 258 310
#     4  11  23  37  53  75 105 141 178 216 260 309
#     4   9  18  34  55  80 107 134 171 215 257 307
#     4   9  19  35  55  80 107 136 173 214 258 310
#     4  11  23  37  53  75 105 141 178 216 260 309
#     4   9  18  34  55  80 107 134 171 215 257 307
#     4   9  17  30  52  81 109 135 167 211 260 308
#
# _framework density 18.812463000000001
#
# number of rings (size 3 to 8) (size 9 to 14) (size 15 to 20)
#    0.000    2.500    0.000    3.750    0.000    7.000 
#    0.000    1.250    0.000    3.000    0.000    0.000 
#    0.000    0.000    0.000    0.000    0.000    0.000 
#
# Total GULP energy -356909.673432 kJ/mol
# GULP energy per Si atom -5576.713647 kJ/mol
# Density = 1.876965 g / cm^3
# Si number density = 18.812463 Si / 1000 Ang^3
#
#
#
# Elastic Constant Matrix: (Units=GPa)
#
#
# Indices 1 2 3 4 5 6 
#
# 1 76.3723 -1.2526 31.2204 0.0000 0.0000 0.0000
# 2 -1.2526 19.6157 6.1841 0.0000 0.0000 0.0000
# 3 31.2204 6.1841 27.7310 0.0000 0.0000 0.0000
# 4 0.0000 0.0000 0.0000 15.8197 0.0000 0.0000
# 5 0.0000 0.0000 0.0000 0.0000 36.9147 0.0000
# 6 0.0000 0.0000 0.0000 0.0000 0.0000 2.9161
#
#
#
# Elastic Compliance Matrix: (Units=1/GPa)
#
#
# Indices 1 2 3 4 5 6 
#
# 1 0.026650 0.012005 -0.032681 0.000000 0.000000 0.000000
# 2 0.012005 0.060242 -0.026950 0.000000 0.000000 0.000000
# 3 -0.032681 -0.026950 0.078864 0.000000 0.000000 0.000000
# 4 0.000000 0.000000 0.000000 0.063212 0.000000 0.000000
# 5 0.000000 0.000000 0.000000 0.000000 0.027089 0.000000
# 6 0.000000 0.000000 0.000000 0.000000 0.000000 0.342924
#
#
# Mechanical properties :
#
#
# Convention : Reuss Voigt Hill
#
# Bulk Modulus (GPa) = 14.18340 21.78032 17.98186
# Shear Modulus (GPa) = 6.96636 16.96790 11.96713
#
# Velocity S-wave (km/s) = 1.92642 3.00651 2.52489
# Velocity P-wave (km/s) = 3.53608 4.86362 4.25198
#
# Compressibility (1/GPa) = 0.07050498
#
# Stress axis : x y z
#
# Youngs Moduli (GPa) = 37.52295 16.59963 12.68010
#
# Poissons Ratio (x) = -0.19928 0.41440
# Poissons Ratio (y) = -0.45046 0.34172
# Poissons Ratio (z) = 1.22628 0.44735
#
# Static dielectric constant tensor:
#      x y z
#    x 1.691180 0.000000 0.000000 
#    y 0.000000 1.654890 0.000000 
#    z 0.000000 0.000000 1.619860 
# 
# From -- ./inp_files/8614.got.cif
#   From: 2010.05.17/outbox.ucp.g08.bks.cvg/sg57_5_cif.got.tgz:8614.got - 2010.06.11 16:39:23.
