data_PCOD9440146
_publ_section_title
;
Structure prediction by ZEFSAII (Michael W. Deem and Ramdas Pophale) SiO2 
 PCOD9440146
Probable space group: P B C M
;
_chemical_formula_sum "Si O2"
_cell_formula_units_Z 40
_cell_length_a 26.246267
_cell_length_b 9.381549
_cell_length_c 8.548214
_cell_angle_alpha 90.000000
_cell_angle_beta 90.000000
_cell_angle_gamma 90.000000
_cell_volume 2104.832203
_symmetry_space_group_name_H-M "P B C M"
_symmetry_group_IT_number 57
_symmetry_cell_setting 'orthorhombic'
loop_
_space_group_symop_operation_xyz
x,y,z
-x,-y,1/2+z
x,1/2-y,-z
-x,1/2+y,1/2-z
-x,-y,-z
x,y,1/2-z
-x,1/2+y,z
x,1/2-y,1/2+z
loop_
_atom_site_type_symbol
_atom_site_label
_atom_site_fract_x
_atom_site_fract_y
_atom_site_fract_z
Si Si1 0.048129 0.588720 0.437180
Si Si2 0.452552 0.409556 0.937920
Si Si3 0.355919 0.908480 0.438818
Si Si4 0.240656 0.908671 0.061316
Si Si5 0.143683 0.410317 0.938395
O O1 0.046586 0.750000 0.500000
O O2 0.047139 0.590896 0.250000
O O3 0.098714 0.509010 0.496244
O O4 0.000000 0.500000 0.500000
O O5 0.453759 0.409097 0.750000
O O6 0.399766 0.483685 0.990287
O O7 0.455723 0.250000 0.000000
O O8 0.500000 0.500000 0.000000
O O9 0.367147 0.750000 0.500000
O O10 0.356221 0.904832 0.250000
O O11 0.298288 0.946028 0.489889
O O12 0.240330 0.903512 0.250000
O O13 0.197580 0.020071 0.012158
O O14 0.228993 0.750000 0.000000
O O15 0.141050 0.409630 0.750000
O O16 0.138521 0.250000 0.000000
#
# Coordination Sequence:
#
# PCOD9440146 Si02
#       5
#     8   8   8   8   8
#     4  12  25  43  65  90 120 154 193 237 286 340
#     4  11  23  38  57  81 112 147 188 234 285 340
#     4   9  19  36  57  82 111 146 186 232 282 337
#     4   9  19  36  58  83 113 148 189 233 282 337
#     4  11  23  39  59  86 119 155 194 238 286 338
#
# _framework density 19.003889000000001
#
# number of rings (size 3 to 8) (size 9 to 14) (size 15 to 20)
#    0.000    1.600    0.000    4.800    0.000    7.200 
#    0.000    0.000    0.000    0.000    0.000    0.000 
#    0.000    0.000    0.000    0.000    0.000    0.000 
#
# Total GULP energy -223591.875287 kJ/mol
# GULP energy per Si atom -5589.796882 kJ/mol
# Density = 1.896064 g / cm^3
# Si number density = 19.003889 Si / 1000 Ang^3
#
#
#
# Elastic Constant Matrix: (Units=GPa)
#
#
# Indices 1 2 3 4 5 6 
#
# 1 158.7168 129.3860 51.1583 0.0000 0.0000 0.0000
# 2 129.3860 192.6924 51.3320 0.0000 0.0000 0.0000
# 3 51.1583 51.3320 73.4201 0.0000 0.0000 0.0000
# 4 0.0000 0.0000 0.0000 37.7603 0.0000 0.0000
# 5 0.0000 0.0000 0.0000 0.0000 27.6909 0.0000
# 6 0.0000 0.0000 0.0000 0.0000 0.0000 44.0136
#
#
#
# Elastic Compliance Matrix: (Units=1/GPa)
#
#
# Indices 1 2 3 4 5 6 
#
# 1 0.014886 -0.008888 -0.004159 0.000000 0.000000 0.000000
# 2 -0.008888 0.011684 -0.001976 0.000000 0.000000 0.000000
# 3 -0.004159 -0.001976 0.017899 0.000000 0.000000 0.000000
# 4 0.000000 0.000000 0.000000 0.026483 0.000000 0.000000
# 5 0.000000 0.000000 0.000000 0.000000 0.036113 0.000000
# 6 0.000000 0.000000 0.000000 0.000000 0.000000 0.022720
#
#
# Mechanical properties :
#
#
# Convention : Reuss Voigt Hill
#
# Bulk Modulus (GPa) = 69.32485 98.73133 84.02809
# Shear Modulus (GPa) = 30.36958 34.75649 32.56303
#
# Velocity S-wave (km/s) = 4.00193 4.28122 4.14393
# Velocity P-wave (km/s) = 7.61002 8.74668 8.19807
#
# Compressibility (1/GPa) = 0.01442484
#
# Stress axis : x y z
#
# Youngs Moduli (GPa) = 67.17595 85.58864 55.86777
#
# Poissons Ratio (x) = 0.76069 0.23234
# Poissons Ratio (y) = 0.59704 0.11039
# Poissons Ratio (z) = 0.27936 0.16911
#
# Static dielectric constant tensor:
#      x y z
#    x 1.667350 0.000000 0.000000 
#    y 0.000000 1.606870 0.000000 
#    z 0.000000 0.000000 1.647370 
# 
# From -- ./inp_files/8863.got.cif
#   From: 2010.05.17/outbox.cif.g08.bks.cpg/sg57_5_cif.got.tgz:8863.got - 2010.06.03 13:58:18.
