data_PCOD9440690
_publ_section_title
;
Structure prediction by ZEFSAII (Michael W. Deem and Ramdas Pophale) SiO2 
 PCOD9440690
Probable space group: P N N M
;
_chemical_formula_sum "Si O2"
_cell_formula_units_Z 64
_cell_length_a 12.746559
_cell_length_b 9.738260
_cell_length_c 20.286372
_cell_angle_alpha 90.000000
_cell_angle_beta 90.000000
_cell_angle_gamma 90.000000
_cell_volume 2518.133270
_symmetry_space_group_name_H-M "P N N M"
_symmetry_group_IT_number 58
_symmetry_cell_setting 'orthorhombic'
loop_
_space_group_symop_operation_xyz
x,y,z
-x,-y,z
1/2+x,1/2-y,1/2-z
1/2-x,1/2+y,1/2-z
-x,-y,-z
x,y,-z
1/2-x,1/2+y,1/2+z
1/2+x,1/2-y,1/2+z
loop_
_atom_site_type_symbol
_atom_site_label
_atom_site_fract_x
_atom_site_fract_y
_atom_site_fract_z
Si Si1 0.626267 0.100939 0.575160
Si Si2 0.874328 0.931175 0.690682
Si Si3 0.626475 0.619282 0.930825
Si Si4 0.593024 0.893737 0.884465
Si Si5 0.675921 0.718210 0.764936
Si Si6 0.593360 0.307195 0.315334
Si Si7 0.179381 0.997142 0.074468
Si Si8 0.179219 0.699501 0.123602
O O1 0.587961 0.121861 0.500000
O O2 0.748499 0.151281 0.576629
O O3 0.569226 0.181130 0.634480
O O4 0.637087 0.939670 0.591380
O O5 0.905489 0.031351 0.630889
O O6 0.815684 0.052170 0.732201
O O7 0.951891 0.862914 0.744673
O O8 0.798659 0.829790 0.649229
O O9 0.568325 0.763696 0.930557
O O10 0.615423 0.544291 0.000000
O O11 0.699846 0.964848 0.909258
O O12 0.500000 0.000000 0.879837
O O13 0.614657 0.813440 0.816719
O O14 0.631576 0.760096 0.694058
O O15 0.794727 0.764115 0.782529
O O16 0.611083 0.428348 0.368963
O O17 0.168919 0.833394 0.079508
O O18 0.153133 0.043591 0.000000
#
# Coordination Sequence:
#
# PCOD9440690 Si02
#       8
#     8   8   8   8   8   8   8   8
#     4  10  17  28  43  65  98 133 156 188 251 316
#     4   9  16  27  43  62  88 120 158 202 255 306
#     4   9  16  28  44  62  86 126 170 205 246 294
#     4  10  20  32  48  70  99 139 183 218 246 295
#     4   9  16  29  46  66  89 123 166 210 255 298
#     4  10  16  26  43  63  87 125 162 193 246 305
#     4  11  20  29  43  69  99 126 164 214 250 288
#     4  10  18  28  45  68  95 122 161 209 267 304
#
# _framework density 25.415652000000001
#
# number of rings (size 3 to 8) (size 9 to 14) (size 15 to 20)
#    0.000    2.250    6.250    1.125    0.000    1.500 
#    0.000    0.000    0.000    6.750    0.000   12.250 
#    0.000    2.000    0.000    5.250    0.000    2.375 
#
# Total GULP energy -357168.627643 kJ/mol
# GULP energy per Si atom -5580.759807 kJ/mol
# Density = 2.535781 g / cm^3
# Si number density = 25.415652 Si / 1000 Ang^3
#
#
#
# Elastic Constant Matrix: (Units=GPa)
#
#
# Indices 1 2 3 4 5 6 
#
# 1 42.7324 2.5664 -7.9924 0.0000 0.0000 0.0000
# 2 2.5664 123.8760 29.0451 0.0000 0.0000 0.0000
# 3 -7.9924 29.0451 174.6823 0.0000 0.0000 0.0000
# 4 0.0000 0.0000 0.0000 67.5398 0.0000 0.0000
# 5 0.0000 0.0000 0.0000 0.0000 -8.0944 0.0000
# 6 0.0000 0.0000 0.0000 0.0000 0.0000 22.5884
#
#
#
# Elastic Compliance Matrix: (Units=1/GPa)
#
#
# Indices 1 2 3 4 5 6 
#
# 1 0.023675 -0.000775 0.001212 0.000000 0.000000 0.000000
# 2 -0.000775 0.008425 -0.001436 0.000000 0.000000 0.000000
# 3 0.001212 -0.001436 0.006019 0.000000 0.000000 0.000000
# 4 0.000000 0.000000 0.000000 0.014806 0.000000 0.000000
# 5 0.000000 0.000000 0.000000 0.000000 -0.123542 0.000000
# 6 0.000000 0.000000 0.000000 0.000000 0.000000 0.044271
#
#
# Mechanical properties :
#
#
# Convention : Reuss Voigt Hill
#
# Bulk Modulus (GPa) = 27.68470 43.16988 35.42729
# Shear Modulus (GPa) = -406.24528 37.58486 -184.33021
#
# Velocity S-wave (km/s) = -12.65652 3.84970 -8.52547
# Velocity P-wave (km/s) = 14.23612 6.06487 9.10726
#
# Compressibility (1/GPa) = 0.03612104
#
# Stress axis : x y z
#
# Youngs Moduli (GPa) = 42.23921 118.68837 166.14157
#
# Poissons Ratio (x) = 0.09194 -0.20137
# Poissons Ratio (y) = 0.03272 0.23864
# Poissons Ratio (z) = -0.05119 0.17048
#
# Static dielectric constant tensor:
#      x y z
#    x 2.202420 0.000000 0.000000 
#    y 0.000000 2.129530 0.000000 
#    z 0.000000 0.000000 2.039840 
# 
# From -- ./inp_files/30569.got.cif
#   From: 2010.05.17/outbox.cif.g08.bks.cpg/sg58_16_cif.got.tgz:30569.got - 2010.06.03 14:20:14.
