data_PCOD9440420
_publ_section_title
;
Structure prediction by ZEFSAII (Michael W. Deem and Ramdas Pophale) SiO2 
 PCOD9440420
Probable space group: P B C M
;
_chemical_formula_sum "Si O2"
_cell_formula_units_Z 56
_cell_length_a 21.000000
_cell_length_b 18.000000
_cell_length_c 9.000000
_cell_angle_alpha 90.000000
_cell_angle_beta 90.000000
_cell_angle_gamma 90.000000
_cell_volume 3402.000000
_symmetry_space_group_name_H-M "P B C M"
_symmetry_group_IT_number 57
_symmetry_cell_setting 'orthorhombic'
loop_
_space_group_symop_operation_xyz
x,y,z
-x,-y,1/2+z
x,1/2-y,-z
-x,1/2+y,1/2-z
-x,-y,-z
x,y,1/2-z
-x,1/2+y,z
x,1/2-y,1/2+z
loop_
_atom_site_type_symbol
_atom_site_label
_atom_site_fract_x
_atom_site_fract_y
_atom_site_fract_z
Si Si1 0.440689 0.044141 0.427387
Si Si2 0.883510 0.125728 0.574268
Si Si3 0.473165 0.828740 0.926790
Si Si4 0.970712 0.827814 0.427470
Si Si5 0.935002 0.970438 0.926516
Si Si6 0.355185 0.934913 0.571534
Si Si7 0.244788 0.826100 0.572840
O O1 0.441788 0.033762 0.250000
O O2 0.376195 0.011242 0.494499
O O3 0.500000 0.000000 0.500000
O O4 0.461299 0.128131 0.461860
O O5 0.873660 0.139893 0.750000
O O6 0.827129 0.161244 0.481460
O O7 0.954504 0.154841 0.536311
O O8 0.885184 0.036711 0.549787
O O9 0.469491 0.821778 0.750000
O O10 0.411751 0.877647 0.970808
O O11 0.470278 0.750000 0.000000
O O12 0.954596 0.750000 0.500000
O O13 0.965927 0.827530 0.250000
O O14 0.926416 0.891757 0.496130
O O15 0.943853 0.962112 0.750000
O O16 0.000000 0.000000 0.000000
O O17 0.356531 0.944315 0.750000
O O18 0.289250 0.895692 0.529241
O O19 0.269174 0.750000 0.500000
O O20 0.247136 0.819003 0.750000
#
# Coordination Sequence:
#
# PCOD9440420 Si02
#       7
#     8   8   8   8   8   8   8
#     4   9  17  29  45  65  88 116 149 185 224 268
#     4   9  19  33  47  65  91 123 157 189 224 268
#     4   9  17  28  43  65  91 115 144 180 220 264
#     4  10  19  30  46  69  95 122 152 189 231 275
#     4   9  17  30  47  66  89 118 152 190 231 276
#     4   9  19  33  45  63  90 120 155 189 220 262
#     4  11  22  33  47  67  93 124 158 192 224 263
#
# _framework density 16.460905
#
# number of rings (size 3 to 8) (size 9 to 14) (size 15 to 20)
#    0.000    2.571    0.000    4.286    0.000    8.571 
#    0.000    0.000    0.000    0.000    0.000    1.000 
#    0.000    4.571    0.000    0.000    0.000    0.000 
#
# Total GULP energy -311854.312527 kJ/mol
# GULP energy per Si atom -5568.827009 kJ/mol
# Density = 1.642344 g / cm^3
# Si number density = 16.460905 Si / 1000 Ang^3
#
#
#
# Elastic Constant Matrix: (Units=GPa)
#
#
# Indices 1 2 3 4 5 6 
#
# 1 21.6347 -2.0343 12.9651 0.0000 0.0000 0.0000
# 2 -2.0343 62.8464 21.1006 0.0000 0.0000 0.0000
# 3 12.9651 21.1006 28.3980 0.0000 0.0000 0.0000
# 4 0.0000 0.0000 0.0000 28.9021 0.0000 0.0000
# 5 0.0000 0.0000 0.0000 0.0000 17.4908 0.0000
# 6 0.0000 0.0000 0.0000 0.0000 0.0000 19.2105
#
#
#
# Elastic Compliance Matrix: (Units=1/GPa)
#
#
# Indices 1 2 3 4 5 6 
#
# 1 0.077947 0.019281 -0.049913 0.000000 0.000000 0.000000
# 2 0.019281 0.025970 -0.028100 0.000000 0.000000 0.000000
# 3 -0.049913 -0.028100 0.078881 0.000000 0.000000 0.000000
# 4 0.000000 0.000000 0.000000 0.034600 0.000000 0.000000
# 5 0.000000 0.000000 0.000000 0.000000 0.057173 0.000000
# 6 0.000000 0.000000 0.000000 0.000000 0.000000 0.052055
#
#
# Mechanical properties :
#
#
# Convention : Reuss Voigt Hill
#
# Bulk Modulus (GPa) = 15.30585 19.66022 17.48304
# Shear Modulus (GPa) = 10.73269 18.51053 14.62161
#
# Velocity S-wave (km/s) = 2.55622 3.35702 2.98361
# Velocity P-wave (km/s) = 4.24627 5.19573 4.74481
#
# Compressibility (1/GPa) = 0.06533449
#
# Stress axis : x y z
#
# Youngs Moduli (GPa) = 12.82928 38.50540 12.67739
#
# Poissons Ratio (x) = -0.74244 0.63277
# Poissons Ratio (y) = -0.24737 0.35623
# Poissons Ratio (z) = 0.64035 1.08199
#
# Static dielectric constant tensor:
#      x y z
#    x 1.538710 0.000000 0.000000 
#    y 0.000000 1.585980 0.000000 
#    z 0.000000 0.000000 1.545520 
# 
# From -- ./inp_files/8286.got.cif
#   From: 2010.05.17/outbox.ucp.g08.bks.cvg/sg57_5_cif.got.tgz:8286.got - 2010.06.11 16:39:23.
