data_PCOD9440135
_publ_section_title
;
Structure prediction by ZEFSAII (Michael W. Deem and Ramdas Pophale) SiO2 
 PCOD9440135
Probable space group: P B C M
;
_chemical_formula_sum "Si O2"
_cell_formula_units_Z 60
_cell_length_a 8.586918
_cell_length_b 13.897476
_cell_length_c 24.555730
_cell_angle_alpha 90.000000
_cell_angle_beta 90.000000
_cell_angle_gamma 90.000000
_cell_volume 2930.394549
_symmetry_space_group_name_H-M "P B C M"
_symmetry_group_IT_number 57
_symmetry_cell_setting 'orthorhombic'
loop_
_space_group_symop_operation_xyz
x,y,z
-x,-y,1/2+z
x,1/2-y,-z
-x,1/2+y,1/2-z
-x,-y,-z
x,y,1/2-z
-x,1/2+y,z
x,1/2-y,1/2+z
loop_
_atom_site_type_symbol
_atom_site_label
_atom_site_fract_x
_atom_site_fract_y
_atom_site_fract_z
Si Si1 0.214508 0.639144 0.060106
Si Si2 0.677041 0.920605 0.885117
Si Si3 0.387526 0.040094 0.611569
Si Si4 0.958837 0.471863 0.750000
Si Si5 0.495467 0.259457 0.435739
Si Si6 0.930549 0.885423 0.153169
Si Si7 0.889625 0.054721 0.543240
Si Si8 0.978950 0.660520 0.155903
O O1 0.304951 0.538676 0.072573
O O2 0.331786 0.722609 0.078621
O O3 0.061907 0.643981 0.097630
O O4 0.179445 0.637159 0.995969
O O5 0.617711 0.819137 0.908570
O O6 0.812362 0.892927 0.843539
O O7 0.531322 0.981360 0.862557
O O8 0.756673 0.985112 0.932524
O O9 0.457314 0.132794 0.581550
O O10 0.250434 0.082257 0.648885
O O11 0.995692 0.551588 0.797977
O O12 0.922397 0.390677 0.702217
O O13 0.476470 0.250000 0.500000
O O14 0.951074 0.772921 0.163796
O O15 0.012737 0.908471 0.095118
O O16 0.000000 0.000000 0.500000
#
# Coordination Sequence:
#
# PCOD9440135 Si02
#       8
#     8   8   8   4   8   8   8   8
#     4  11  24  42  65 104 145 182 223 284 342 421
#     4  11  23  40  65  97 142 180 228 275 337 421
#     4  11  22  44  64  97 145 183 224 271 356 410
#     4  12  24  52  74  96 132 176 246 302 358 384
#     4  11  24  37  63  99 143 191 223 270 340 427
#     4  12  26  44  73 101 135 185 234 294 354 420
#     4  12  21  41  66 102 143 187 226 280 353 414
#     4  12  25  45  73 104 133 181 240 297 343 415
#
# _framework density 20.475058000000001
#
# number of rings (size 3 to 8) (size 9 to 14) (size 15 to 20)
#    0.000    0.533    6.667    2.000    3.733    2.133 
#    0.000    0.667    0.000    0.800    0.000    0.000 
#    0.000    0.000    0.000    0.000    0.000    0.000 
#
# Total GULP energy -334180.042408 kJ/mol
# GULP energy per Si atom -5569.667373 kJ/mol
# Density = 2.042846 g / cm^3
# Si number density = 20.475058 Si / 1000 Ang^3
#
#
#
# Elastic Constant Matrix: (Units=GPa)
#
#
# Indices 1 2 3 4 5 6 
#
# 1 76.8527 41.4635 4.7184 0.0000 0.0000 0.0000
# 2 41.4635 161.8410 34.3660 0.0000 0.0000 0.0000
# 3 4.7184 34.3660 80.1729 0.0000 0.0000 0.0000
# 4 0.0000 0.0000 0.0000 9.9624 0.0000 0.0000
# 5 0.0000 0.0000 0.0000 0.0000 -12.6258 0.0000
# 6 0.0000 0.0000 0.0000 0.0000 0.0000 40.4750
#
#
#
# Elastic Compliance Matrix: (Units=1/GPa)
#
#
# Indices 1 2 3 4 5 6 
#
# 1 0.015151 -0.004062 0.000850 0.000000 0.000000 0.000000
# 2 -0.004062 0.007887 -0.003142 0.000000 0.000000 0.000000
# 3 0.000850 -0.003142 0.013770 0.000000 0.000000 0.000000
# 4 0.000000 0.000000 0.000000 0.100378 0.000000 0.000000
# 5 0.000000 0.000000 0.000000 0.000000 -0.079203 0.000000
# 6 0.000000 0.000000 0.000000 0.000000 0.000000 0.024707
#
#
# Mechanical properties :
#
#
# Convention : Reuss Voigt Hill
#
# Bulk Modulus (GPa) = 41.49483 53.32915 47.41199
# Shear Modulus (GPa) = 48.34163 23.45024 35.89594
#
# Velocity S-wave (km/s) = 4.86428 3.38791 4.19161
# Velocity P-wave (km/s) = 7.20128 6.43478 6.82879
#
# Compressibility (1/GPa) = 0.02409939
#
# Stress axis : x y z
#
# Youngs Moduli (GPa) = 66.00067 126.79553 72.62344
#
# Poissons Ratio (x) = 0.51506 -0.06170
# Poissons Ratio (y) = 0.26811 0.22815
# Poissons Ratio (z) = -0.05607 0.39834
#
# Static dielectric constant tensor:
#      x y z
#    x 1.810050 0.000000 0.000000 
#    y 0.000000 1.772990 0.000000 
#    z 0.000000 0.000000 1.674570 
# 
# From -- ./inp_files/26833.got.cif
#   From: 2010.05.17/outbox.cif.g08.bks.cpg/sg57_14_cif.got.tgz:26833.got - 2010.06.03 13:58:18.
