data_PCOD9440899
_publ_section_title
;
Structure prediction by ZEFSAII (Michael W. Deem and Ramdas Pophale) SiO2 
 PCOD9440899
Probable space group: P N N M
;
_chemical_formula_sum "Si O2"
_cell_formula_units_Z 56
_cell_length_a 21.995569
_cell_length_b 19.033299
_cell_length_c 7.666998
_cell_angle_alpha 90.000000
_cell_angle_beta 90.000000
_cell_angle_gamma 90.000000
_cell_volume 3209.775230
_symmetry_space_group_name_H-M "P N N M"
_symmetry_group_IT_number 58
_symmetry_cell_setting 'orthorhombic'
loop_
_space_group_symop_operation_xyz
x,y,z
-x,-y,z
1/2+x,1/2-y,1/2-z
1/2-x,1/2+y,1/2-z
-x,-y,-z
x,y,-z
1/2-x,1/2+y,1/2+z
1/2+x,1/2-y,1/2+z
loop_
_atom_site_type_symbol
_atom_site_label
_atom_site_fract_x
_atom_site_fract_y
_atom_site_fract_z
Si Si1 0.498534 0.581072 0.286041
Si Si2 0.199547 0.281531 0.207468
Si Si3 0.745502 0.418014 0.205994
Si Si4 0.878418 0.842219 0.795906
Si Si5 0.254342 0.420562 0.708025
Si Si6 0.177877 0.705282 0.801462
Si Si7 0.377568 0.343147 0.285966
O O1 0.500000 0.500000 0.230371
O O2 0.497645 0.580209 0.500000
O O3 0.437930 0.620490 0.221860
O O4 0.559639 0.621408 0.233169
O O5 0.143215 0.234216 0.270579
O O6 0.203009 0.364464 0.237715
O O7 0.258943 0.249369 0.299946
O O8 0.206605 0.269039 0.000000
O O9 0.680887 0.392113 0.280679
O O10 0.755006 0.500175 0.232109
O O11 0.800017 0.368567 0.277784
O O12 0.742148 0.403458 0.000000
O O13 0.891575 0.832439 0.000000
O O14 0.256861 0.421511 0.500000
O O15 0.319414 0.389557 0.771237
O O16 0.131795 0.762680 0.724107
O O17 0.157709 0.691746 0.000000
O O18 0.376065 0.341571 0.500000
#
# Coordination Sequence:
#
# PCOD9440899 Si02
#       7
#     8   8   8   8   8   8   8
#     4   9  15  23  39  63  86 109 140 172 197 228
#     4   9  16  26  40  59  83 108 135 168 205 244
#     4  10  18  27  41  61  85 110 136 171 212 248
#     4   9  17  28  42  61  85 113 142 169 198 239
#     4  10  18  28  43  62  83 107 137 172 211 252
#     4   8  15  27  41  58  80 108 140 170 204 246
#     4   8  14  25  41  59  80 107 138 170 200 236
#
# _framework density 17.446705999999999
#
# number of rings (size 3 to 8) (size 9 to 14) (size 15 to 20)
#    0.000    3.000    0.000    3.000    0.000    3.429 
#    0.000    0.000    0.000    7.286    0.000    1.000 
#    0.000    8.000    0.000    0.000    0.000    0.000 
#
# Total GULP energy -311762.754741 kJ/mol
# GULP energy per Si atom -5567.192049 kJ/mol
# Density = 1.740700 g / cm^3
# Si number density = 17.446706 Si / 1000 Ang^3
#
#
#
# Elastic Constant Matrix: (Units=GPa)
#
#
# Indices 1 2 3 4 5 6 
#
# 1 96.0392 79.9618 0.3957 0.0000 0.0000 0.0000
# 2 79.9618 170.0668 -7.0510 0.0000 0.0000 0.0000
# 3 0.3957 -7.0510 34.6152 0.0000 0.0000 0.0000
# 4 0.0000 0.0000 0.0000 16.2568 0.0000 0.0000
# 5 0.0000 0.0000 0.0000 0.0000 8.4098 0.0000
# 6 0.0000 0.0000 0.0000 0.0000 0.0000 28.5949
#
#
#
# Elastic Compliance Matrix: (Units=1/GPa)
#
#
# Indices 1 2 3 4 5 6 
#
# 1 0.017229 -0.008178 -0.001863 0.000000 0.000000 0.000000
# 2 -0.008178 0.009812 0.002092 0.000000 0.000000 0.000000
# 3 -0.001863 0.002092 0.029336 0.000000 0.000000 0.000000
# 4 0.000000 0.000000 0.000000 0.061513 0.000000 0.000000
# 5 0.000000 0.000000 0.000000 0.000000 0.118909 0.000000
# 6 0.000000 0.000000 0.000000 0.000000 0.000000 0.034971
#
#
# Mechanical properties :
#
#
# Convention : Reuss Voigt Hill
#
# Bulk Modulus (GPa) = 24.70342 49.70380 37.20361
# Shear Modulus (GPa) = 16.60242 25.81330 21.20786
#
# Velocity S-wave (km/s) = 3.08816 3.85067 3.49030
# Velocity P-wave (km/s) = 5.18707 6.95133 6.13297
#
# Compressibility (1/GPa) = 0.04048022
#
# Stress axis : x y z
#
# Youngs Moduli (GPa) = 58.04164 101.91724 34.08724
#
# Poissons Ratio (x) = 0.83347 0.06350
# Poissons Ratio (y) = 0.47466 -0.07132
# Poissons Ratio (z) = 0.10812 -0.21322
#
# Static dielectric constant tensor:
#      x y z
#    x 1.580710 0.000000 0.000000 
#    y 0.000000 1.637330 0.000000 
#    z 0.000000 0.000000 1.659590 
# 
# From -- ./inp_files/8103.got.cif
#   From: 2010.05.17/outbox.cif.g08.bks.cpg/sg58_5_cif.got.tgz:8103.got - 2010.06.03 14:20:14.
