data_PCOD9440834
_publ_section_title
;
Structure prediction by ZEFSAII (Michael W. Deem and Ramdas Pophale) SiO2 
 PCOD9440834
Probable space group: P N N M
;
_chemical_formula_sum "Si O2"
_cell_formula_units_Z 64
_cell_length_a 6.937462
_cell_length_b 20.467833
_cell_length_c 19.233812
_cell_angle_alpha 90.000000
_cell_angle_beta 90.000000
_cell_angle_gamma 90.000000
_cell_volume 2731.101551
_symmetry_space_group_name_H-M "P N N M"
_symmetry_group_IT_number 58
_symmetry_cell_setting 'orthorhombic'
loop_
_space_group_symop_operation_xyz
x,y,z
-x,-y,z
1/2+x,1/2-y,1/2-z
1/2-x,1/2+y,1/2-z
-x,-y,-z
x,y,-z
1/2-x,1/2+y,1/2+z
1/2+x,1/2-y,1/2+z
loop_
_atom_site_type_symbol
_atom_site_label
_atom_site_fract_x
_atom_site_fract_y
_atom_site_fract_z
Si Si1 0.880932 0.158791 0.280946
Si Si2 0.835188 0.379288 0.240929
Si Si3 0.117973 0.739778 0.838982
Si Si4 0.978491 0.634078 0.607865
Si Si5 0.512555 0.722284 0.921610
Si Si6 0.722829 0.518446 0.265870
Si Si7 0.024166 0.853388 0.919484
Si Si8 0.754848 0.476371 0.422205
O O1 0.820259 0.218161 0.229597
O O2 0.880165 0.182522 0.360741
O O3 0.769068 0.091643 0.263510
O O4 0.108761 0.142978 0.262891
O O5 0.941191 0.331022 0.187710
O O6 0.931538 0.367530 0.315428
O O7 0.833691 0.457404 0.230935
O O8 0.292261 0.725645 0.892440
O O9 0.971229 0.788926 0.876124
O O10 0.061047 0.700767 0.576078
O O11 0.057347 0.569184 0.572230
O O12 0.749048 0.637611 0.599743
O O13 0.526832 0.695858 0.000000
O O14 0.500000 0.500000 0.258072
O O15 0.766930 0.513310 0.348383
O O16 0.910231 0.920575 0.907425
O O17 0.007713 0.838547 0.000000
O O18 0.716184 0.504416 0.500000
#
# Coordination Sequence:
#
# PCOD9440834 Si02
#       8
#     8   8   8   8   8   8   8   8
#     4  10  19  34  57  84 113 160 204 244 303 370
#     4   9  18  30  52  81 110 149 201 252 290 347
#     4  10  17  31  52  81 111 148 201 249 295 359
#     4  10  17  33  54  84 120 156 195 246 303 361
#     4  10  20  33  55  88 123 154 193 259 321 356
#     4   9  18  33  52  76 110 153 199 241 293 352
#     4  10  20  32  52  83 121 157 194 252 312 362
#     4  10  20  34  54  82 118 160 204 240 296 372
#
# _framework density 23.433769000000002
#
# number of rings (size 3 to 8) (size 9 to 14) (size 15 to 20)
#    0.000    2.250    1.250    4.500    0.000    0.250 
#    0.000    1.250    0.000   46.875    0.000   58.625 
#    0.000    0.000    0.000   24.375    0.000    0.000 
#
# Total GULP energy -357988.268070 kJ/mol
# GULP energy per Si atom -5593.566689 kJ/mol
# Density = 2.338043 g / cm^3
# Si number density = 23.433769 Si / 1000 Ang^3
#
#
#
# Elastic Constant Matrix: (Units=GPa)
#
#
# Indices 1 2 3 4 5 6 
#
# 1 93.4366 32.6725 22.2308 0.0000 0.0000 0.0000
# 2 32.6725 179.2430 88.6814 0.0000 0.0000 0.0000
# 3 22.2308 88.6814 178.6166 0.0000 0.0000 0.0000
# 4 0.0000 0.0000 0.0000 35.0218 0.0000 0.0000
# 5 0.0000 0.0000 0.0000 0.0000 30.8574 0.0000
# 6 0.0000 0.0000 0.0000 0.0000 0.0000 42.2824
#
#
#
# Elastic Compliance Matrix: (Units=1/GPa)
#
#
# Indices 1 2 3 4 5 6 
#
# 1 0.011467 -0.001835 -0.000516 0.000000 0.000000 0.000000
# 2 -0.001835 0.007689 -0.003589 0.000000 0.000000 0.000000
# 3 -0.000516 -0.003589 0.007445 0.000000 0.000000 0.000000
# 4 0.000000 0.000000 0.000000 0.028554 0.000000 0.000000
# 5 0.000000 0.000000 0.000000 0.000000 0.032407 0.000000
# 6 0.000000 0.000000 0.000000 0.000000 0.000000 0.023651
#
#
# Mechanical properties :
#
#
# Convention : Reuss Voigt Hill
#
# Bulk Modulus (GPa) = 67.93290 82.05175 74.99233
# Shear Modulus (GPa) = 39.06257 42.14640 40.60449
#
# Velocity S-wave (km/s) = 4.08724 4.24551 4.16713
# Velocity P-wave (km/s) = 7.16424 7.68914 7.43132
#
# Compressibility (1/GPa) = 0.01472041
#
# Stress axis : x y z
#
# Youngs Moduli (GPa) = 87.20800 130.05109 134.32043
#
# Poissons Ratio (x) = 0.23861 0.06934
# Poissons Ratio (y) = 0.16001 0.48212
# Poissons Ratio (z) = 0.04502 0.46679
#
# Static dielectric constant tensor:
#      x y z
#    x 2.091080 0.000000 0.000000 
#    y 0.000000 1.944850 0.000000 
#    z 0.000000 0.000000 1.848590 
# 
# From -- ./inp_files/26491.got.cif
#   From: 2010.05.17/outbox.cif.g08.bks.cpg/sg58_14_cif.got.tgz:26491.got - 2010.06.03 14:20:14.
