data_PCOD9440134
_publ_section_title
;
Structure prediction by ZEFSAII (Michael W. Deem and Ramdas Pophale) SiO2 
 PCOD9440134
Probable space group: P B C M
;
_chemical_formula_sum "Si O2"
_cell_formula_units_Z 56
_cell_length_a 15.282349
_cell_length_b 11.872322
_cell_length_c 14.855459
_cell_angle_alpha 90.000000
_cell_angle_beta 90.000000
_cell_angle_gamma 90.000000
_cell_volume 2695.329443
_symmetry_space_group_name_H-M "P B C M"
_symmetry_group_IT_number 57
_symmetry_cell_setting 'orthorhombic'
loop_
_space_group_symop_operation_xyz
x,y,z
-x,-y,1/2+z
x,1/2-y,-z
-x,1/2+y,1/2-z
-x,-y,-z
x,y,1/2-z
-x,1/2+y,z
x,1/2-y,1/2+z
loop_
_atom_site_type_symbol
_atom_site_label
_atom_site_fract_x
_atom_site_fract_y
_atom_site_fract_z
Si Si1 0.684108 0.626730 0.982900
Si Si2 0.436729 0.981235 0.646914
Si Si3 0.137710 0.839168 0.581412
Si Si4 0.328808 0.767545 0.892994
Si Si5 0.640612 0.011402 0.649228
Si Si6 0.046190 0.283818 0.853029
Si Si7 0.880064 0.902987 0.030030
O O1 0.623458 0.555362 0.917394
O O2 0.782270 0.639503 0.947243
O O3 0.645778 0.750000 0.000000
O O4 0.693295 0.557048 0.075141
O O5 0.426028 0.018035 0.750000
O O6 0.403740 0.852920 0.638303
O O7 0.538535 0.995508 0.624107
O O8 0.134452 0.750000 0.500000
O O9 0.234062 0.824183 0.623918
O O10 0.056468 0.812455 0.645010
O O11 0.123005 0.963691 0.542165
O O12 0.336273 0.643100 0.853199
O O13 0.337223 0.750000 0.000000
O O14 0.653534 0.967533 0.750000
O O15 0.078879 0.291998 0.750000
O O16 0.059233 0.160039 0.897082
O O17 0.090942 0.363487 0.929896
#
# Coordination Sequence:
#
# PCOD9440134 Si02
#       7
#     8   8   8   8   8   8   8
#     4  12  24  44  70  93 132 182 222 265 337 397
#     4  11  25  43  67  99 135 176 222 276 334 396
#     4  11  22  44  72  95 135 177 221 279 335 395
#     4  11  22  43  73  99 131 177 225 274 335 399
#     4  11  26  44  67 103 138 171 221 285 334 393
#     4  11  25  42  68  99 131 180 225 273 343 403
#     4  11  23  49  66  96 140 170 219 290 326 392
#
# _framework density 20.776681
#
# number of rings (size 3 to 8) (size 9 to 14) (size 15 to 20)
#    0.000    0.857    5.714    2.143    2.000    3.429 
#    0.000    0.000    0.000    0.000    0.000    0.000 
#    0.000    0.000    0.000    0.000    0.000    0.000 
#
# Total GULP energy -313042.279782 kJ/mol
# GULP energy per Si atom -5590.040710 kJ/mol
# Density = 2.072939 g / cm^3
# Si number density = 20.776681 Si / 1000 Ang^3
#
#
#
# Elastic Constant Matrix: (Units=GPa)
#
#
# Indices 1 2 3 4 5 6 
#
# 1 63.1653 13.9146 20.2772 0.0000 0.0000 0.0000
# 2 13.9146 146.0483 11.7241 0.0000 0.0000 0.0000
# 3 20.2772 11.7241 85.7082 0.0000 0.0000 0.0000
# 4 0.0000 0.0000 0.0000 1.5940 0.0000 0.0000
# 5 0.0000 0.0000 0.0000 0.0000 -3.3088 0.0000
# 6 0.0000 0.0000 0.0000 0.0000 0.0000 21.0816
#
#
#
# Elastic Compliance Matrix: (Units=1/GPa)
#
#
# Indices 1 2 3 4 5 6 
#
# 1 0.017389 -0.001341 -0.003930 0.000000 0.000000 0.000000
# 2 -0.001341 0.007027 -0.000644 0.000000 0.000000 0.000000
# 3 -0.003930 -0.000644 0.012685 0.000000 0.000000 0.000000
# 4 0.000000 0.000000 0.000000 0.627359 0.000000 0.000000
# 5 0.000000 0.000000 0.000000 0.000000 -0.302222 0.000000
# 6 0.000000 0.000000 0.000000 0.000000 0.000000 0.047435
#
#
# Mechanical properties :
#
#
# Convention : Reuss Voigt Hill
#
# Bulk Modulus (GPa) = 39.57307 42.97261 41.27284
# Shear Modulus (GPa) = 11.62988 20.47375 16.05182
#
# Velocity S-wave (km/s) = 2.36848 3.14254 2.78256
# Velocity P-wave (km/s) = 5.15440 5.82198 5.49833
#
# Compressibility (1/GPa) = 0.02526971
#
# Stress axis : x y z
#
# Youngs Moduli (GPa) = 57.50880 142.31804 78.83047
#
# Poissons Ratio (x) = 0.19087 0.30984
# Poissons Ratio (y) = 0.07713 0.05076
# Poissons Ratio (z) = 0.22603 0.09163
#
# Static dielectric constant tensor:
#      x y z
#    x 1.766220 0.000000 0.000000 
#    y 0.000000 1.742760 0.000000 
#    z 0.000000 0.000000 1.731060 
# 
# From -- ./inp_files/18488.got.cif
#   From: 2010.05.17/outbox.cif.g08.bks.cpg/sg57_10_cif.got.tgz:18488.got - 2010.06.03 13:58:18.
