data_PCOD9440211
_publ_section_title
;
Structure prediction by ZEFSAII (Michael W. Deem and Ramdas Pophale) SiO2 
 PCOD9440211
Probable space group: P B C M
;
_chemical_formula_sum "Si O2"
_cell_formula_units_Z 44
_cell_length_a 6.664318
_cell_length_b 14.291189
_cell_length_c 24.758610
_cell_angle_alpha 90.000000
_cell_angle_beta 90.000000
_cell_angle_gamma 90.000000
_cell_volume 2358.035471
_symmetry_space_group_name_H-M "P B C M"
_symmetry_group_IT_number 57
_symmetry_cell_setting 'orthorhombic'
loop_
_space_group_symop_operation_xyz
x,y,z
-x,-y,1/2+z
x,1/2-y,-z
-x,1/2+y,1/2-z
-x,-y,-z
x,y,1/2-z
-x,1/2+y,z
x,1/2-y,1/2+z
loop_
_atom_site_type_symbol
_atom_site_label
_atom_site_fract_x
_atom_site_fract_y
_atom_site_fract_z
Si Si1 0.321951 0.742232 0.365252
Si Si2 0.043146 0.085305 0.750000
Si Si3 0.038673 0.112595 0.630184
Si Si4 0.036658 0.126865 0.250000
Si Si5 0.694074 0.214586 0.750000
Si Si6 0.292610 0.248226 0.435813
Si Si7 0.960805 0.894811 0.632242
O O1 0.413687 0.763478 0.305970
O O2 0.487098 0.738122 0.410914
O O3 0.183505 0.649850 0.363885
O O4 0.161937 0.825346 0.374243
O O5 0.117084 0.122268 0.692279
O O6 0.804411 0.113415 0.750000
O O7 0.074159 0.974051 0.750000
O O8 0.195102 0.157541 0.589034
O O9 0.982811 0.004584 0.622061
O O10 0.885841 0.214339 0.250000
O O11 0.139814 0.124830 0.191281
O O12 0.291604 0.250000 0.500000
O O13 0.160367 0.162542 0.412368
#
# Coordination Sequence:
#
# PCOD9440211 Si02
#       7
#     8   4   8   4   4   8   8
#     4   9  19  34  53  80 111 134 171 221 260 314
#     4   8  14  29  55  83 106 128 162 211 267 325
#     4   9  19  37  59  81 107 138 171 215 271 322
#     4   8  14  29  55  83 106 128 162 211 267 325
#     4   8  14  28  50  76 104 138 166 200 266 322
#     4  11  24  37  52  76 104 143 188 221 256 300
#     4   9  19  37  59  81 107 138 171 215 271 322
#
# _framework density 18.659600000000001
#
# number of rings (size 3 to 8) (size 9 to 14) (size 15 to 20)
#    0.000    2.909    0.000    1.091    0.000    6.545 
#    0.000    1.818    0.000   13.091    0.000    0.000 
#    0.000    0.000    0.000    0.000    0.000    0.000 
#
# Total GULP energy -245089.036225 kJ/mol
# GULP energy per Si atom -5570.205369 kJ/mol
# Density = 1.861713 g / cm^3
# Si number density = 18.659600 Si / 1000 Ang^3
#
#
#
# Elastic Constant Matrix: (Units=GPa)
#
#
# Indices 1 2 3 4 5 6 
#
# 1 44.0044 21.6937 37.8345 0.0000 0.0000 0.0000
# 2 21.6937 121.1826 32.5317 0.0000 0.0000 0.0000
# 3 37.8345 32.5317 167.9900 0.0000 0.0000 0.0000
# 4 0.0000 0.0000 0.0000 24.0759 0.0000 0.0000
# 5 0.0000 0.0000 0.0000 0.0000 29.0622 0.0000
# 6 0.0000 0.0000 0.0000 0.0000 0.0000 5.9085
#
#
#
# Elastic Compliance Matrix: (Units=1/GPa)
#
#
# Indices 1 2 3 4 5 6 
#
# 1 0.029685 -0.003712 -0.005967 0.000000 0.000000 0.000000
# 2 -0.003712 0.009169 -0.000939 0.000000 0.000000 0.000000
# 3 -0.005967 -0.000939 0.007478 0.000000 0.000000 0.000000
# 4 0.000000 0.000000 0.000000 0.041535 0.000000 0.000000
# 5 0.000000 0.000000 0.000000 0.000000 0.034409 0.000000
# 6 0.000000 0.000000 0.000000 0.000000 0.000000 0.169246
#
#
# Mechanical properties :
#
#
# Convention : Reuss Voigt Hill
#
# Bulk Modulus (GPa) = 39.84799 57.47743 48.66271
# Shear Modulus (GPa) = 15.57023 27.88381 21.72702
#
# Velocity S-wave (km/s) = 2.89179 3.86986 3.41602
# Velocity P-wave (km/s) = 5.70540 7.13006 6.45714
#
# Compressibility (1/GPa) = 0.02509537
#
# Stress axis : x y z
#
# Youngs Moduli (GPa) = 33.68669 109.06568 133.71681
#
# Poissons Ratio (x) = 0.40489 0.79786
# Poissons Ratio (y) = 0.12506 0.12562
# Poissons Ratio (z) = 0.20100 0.10246
#
# Static dielectric constant tensor:
#      x y z
#    x 1.642670 0.000000 0.000000 
#    y 0.000000 1.645090 0.000000 
#    z 0.000000 0.000000 1.675820 
# 
# From -- ./inp_files/27912.got.cif
#   From: 2010.05.17/outbox.cif.g08.bks.cpg/sg57_14_cif.got.tgz:27912.got - 2010.06.03 13:58:18.
