data_PCOD9440431
_publ_section_title
;
Structure prediction by ZEFSAII (Michael W. Deem and Ramdas Pophale) SiO2 
 PCOD9440431
Probable space group: P B C M
;
_chemical_formula_sum "Si O2"
_cell_formula_units_Z 64
_cell_length_a 24.000000
_cell_length_b 15.000000
_cell_length_c 9.000000
_cell_angle_alpha 90.000000
_cell_angle_beta 90.000000
_cell_angle_gamma 90.000000
_cell_volume 3240.000000
_symmetry_space_group_name_H-M "P B C M"
_symmetry_group_IT_number 57
_symmetry_cell_setting 'orthorhombic'
loop_
_space_group_symop_operation_xyz
x,y,z
-x,-y,1/2+z
x,1/2-y,-z
-x,1/2+y,1/2-z
-x,-y,-z
x,y,1/2-z
-x,1/2+y,z
x,1/2-y,1/2+z
loop_
_atom_site_type_symbol
_atom_site_label
_atom_site_fract_x
_atom_site_fract_y
_atom_site_fract_z
Si Si1 0.458651 0.621712 0.417893
Si Si2 0.567076 0.909725 0.081861
Si Si3 0.344384 0.838814 0.426503
Si Si4 0.786198 0.654135 0.071800
Si Si5 0.679339 0.960977 0.571150
Si Si6 0.109120 0.464406 0.570480
Si Si7 0.890856 0.159829 0.578609
Si Si8 0.974526 0.658156 0.921797
O O1 0.453556 0.656752 0.250000
O O2 0.450565 0.514355 0.410000
O O3 0.518896 0.637898 0.488374
O O4 0.408654 0.654519 0.521092
O O5 0.570341 0.875541 0.250000
O O6 0.626534 0.912883 0.002510
O O7 0.319801 0.750000 0.500000
O O8 0.341037 0.831304 0.250000
O O9 0.319024 0.934505 0.472602
O O10 0.785799 0.662927 0.250000
O O11 0.735058 0.590495 0.030141
O O12 0.843343 0.605696 0.029900
O O13 0.781066 0.750000 0.000000
O O14 0.672362 0.959239 0.750000
O O15 0.103752 0.468866 0.750000
O O16 0.125970 0.563196 0.517763
O O17 0.052653 0.425792 0.502707
O O18 0.872128 0.250000 0.500000
O O19 0.873695 0.165083 0.750000
O O20 0.958430 0.156442 0.572067
O O21 0.957728 0.659093 0.750000
O O22 0.956248 0.750000 0.000000
#
# Coordination Sequence:
#
# PCOD9440431 Si02
#       8
#     8   8   8   8   8   8   8   8
#     4   9  16  27  45  71 103 136 169 206 250 302
#     4   9  16  27  47  74 101 131 169 212 256 302
#     4  10  19  32  51  75 105 138 172 210 254 307
#     4  10  22  40  60  80 103 132 170 218 269 317
#     4   9  19  36  55  74 100 137 175 213 262 315
#     4  10  20  35  55  79 108 142 180 223 270 317
#     4   9  19  34  52  77 111 148 182 218 262 314
#     4  10  19  31  50  78 111 146 183 222 265 315
#
# _framework density 19.753086
#
# number of rings (size 3 to 8) (size 9 to 14) (size 15 to 20)
#    0.000    2.500    0.000    2.250    0.000    6.500 
#    0.000    1.250    0.000    1.500    0.000    0.000 
#    0.000    0.000    0.000    0.000    0.000    0.000 
#
# Total GULP energy -357112.436696 kJ/mol
# GULP energy per Si atom -5579.881823 kJ/mol
# Density = 1.970813 g / cm^3
# Si number density = 19.753086 Si / 1000 Ang^3
#
#
#
# Elastic Constant Matrix: (Units=GPa)
#
#
# Indices 1 2 3 4 5 6 
#
# 1 30.5834 22.7486 17.1969 0.0000 0.0000 0.0000
# 2 22.7486 121.4994 28.9522 0.0000 0.0000 0.0000
# 3 17.1969 28.9522 37.3984 0.0000 0.0000 0.0000
# 4 0.0000 0.0000 0.0000 28.5910 0.0000 0.0000
# 5 0.0000 0.0000 0.0000 0.0000 9.9178 0.0000
# 6 0.0000 0.0000 0.0000 0.0000 0.0000 10.0909
#
#
#
# Elastic Compliance Matrix: (Units=1/GPa)
#
#
# Indices 1 2 3 4 5 6 
#
# 1 0.045919 -0.004373 -0.017730 0.000000 0.000000 0.000000
# 2 -0.004373 0.010509 -0.006125 0.000000 0.000000 0.000000
# 3 -0.017730 -0.006125 0.039633 0.000000 0.000000 0.000000
# 4 0.000000 0.000000 0.000000 0.034976 0.000000 0.000000
# 5 0.000000 0.000000 0.000000 0.000000 0.100829 0.000000
# 6 0.000000 0.000000 0.000000 0.000000 0.000000 0.099099
#
#
# Mechanical properties :
#
#
# Convention : Reuss Voigt Hill
#
# Bulk Modulus (GPa) = 25.24821 36.36406 30.80614
# Shear Modulus (GPa) = 12.48058 17.75885 15.11971
#
# Velocity S-wave (km/s) = 2.51635 3.00166 2.76965
# Velocity P-wave (km/s) = 4.61003 5.51929 5.08502
#
# Compressibility (1/GPa) = 0.03960677
#
# Stress axis : x y z
#
# Youngs Moduli (GPa) = 21.77729 95.15978 25.23126
#
# Poissons Ratio (x) = 0.41610 0.44735
# Poissons Ratio (y) = 0.09522 0.15453
# Poissons Ratio (z) = 0.38611 0.58282
#
# Static dielectric constant tensor:
#      x y z
#    x 1.688420 0.000000 0.000000 
#    y 0.000000 1.722110 0.000000 
#    z 0.000000 0.000000 1.676710 
# 
# From -- ./inp_files/9308.got.cif
#   From: 2010.05.17/outbox.ucp.g08.bks.cvg/sg57_5_cif.got.tgz:9308.got - 2010.06.11 16:39:23.
