data_PCOD9440376
_publ_section_title
;
Structure prediction by ZEFSAII (Michael W. Deem and Ramdas Pophale) SiO2 
 PCOD9440376
Probable space group: P B C M
;
_chemical_formula_sum "Si O2"
_cell_formula_units_Z 56
_cell_length_a 20.526617
_cell_length_b 12.793376
_cell_length_c 9.884421
_cell_angle_alpha 90.000000
_cell_angle_beta 90.000000
_cell_angle_gamma 90.000000
_cell_volume 2595.695701
_symmetry_space_group_name_H-M "P B C M"
_symmetry_group_IT_number 57
_symmetry_cell_setting 'orthorhombic'
loop_
_space_group_symop_operation_xyz
x,y,z
-x,-y,1/2+z
x,1/2-y,-z
-x,1/2+y,1/2-z
-x,-y,-z
x,y,1/2-z
-x,1/2+y,z
x,1/2-y,1/2+z
loop_
_atom_site_type_symbol
_atom_site_label
_atom_site_fract_x
_atom_site_fract_y
_atom_site_fract_z
Si Si1 0.051529 0.599801 0.098658
Si Si2 0.791798 0.916268 0.090270
Si Si3 0.473184 0.405994 0.906597
Si Si4 0.616423 0.161475 0.400806
Si Si5 0.806805 0.163193 0.099759
Si Si6 0.356620 0.415710 0.410051
Si Si7 0.910539 0.590553 0.408049
O O1 0.050454 0.546847 0.250000
O O2 0.114492 0.672002 0.103661
O O3 0.980146 0.649383 0.084689
O O4 0.067794 0.518829 0.978844
O O5 0.806378 0.900109 0.250000
O O6 0.792516 0.042259 0.066294
O O7 0.717675 0.881237 0.065206
O O8 0.848821 0.872397 0.995172
O O9 0.458336 0.435701 0.750000
O O10 0.537315 0.335112 0.900329
O O11 0.500000 0.500000 0.000000
O O12 0.409104 0.369221 0.986066
O O13 0.639766 0.250000 0.500000
O O14 0.637803 0.184746 0.250000
O O15 0.638181 0.042263 0.430311
O O16 0.782446 0.181300 0.250000
O O17 0.781728 0.250000 0.000000
O O18 0.372558 0.397528 0.250000
O O19 0.892930 0.579975 0.250000
#
# Coordination Sequence:
#
# PCOD9440376 Si02
#       7
#     8   8   8   8   8   8   8
#     4   8  15  27  40  55  79 107 132 169 218 251
#     4   9  18  31  43  58  87 119 141 170 215 257
#     4   9  17  30  47  67  90 115 146 185 224 261
#     4   9  18  30  45  67  92 117 147 181 218 260
#     4   9  17  28  40  56  82 115 145 173 209 252
#     4   9  18  32  47  64  89 122 154 182 218 265
#     4   9  15  24  41  62  79  99 135 176 209 247
#
# _framework density 21.574179000000001
#
# number of rings (size 3 to 8) (size 9 to 14) (size 15 to 20)
#    0.000    3.143    0.000    2.571    0.000    6.857 
#    0.000    0.000    0.000    0.000    0.000    1.000 
#    0.000    2.286    0.000    0.000    0.000    0.000 
#
# Total GULP energy -311919.399548 kJ/mol
# GULP energy per Si atom -5569.989278 kJ/mol
# Density = 2.152508 g / cm^3
# Si number density = 21.574179 Si / 1000 Ang^3
#
#
#
# Elastic Constant Matrix: (Units=GPa)
#
#
# Indices 1 2 3 4 5 6 
#
# 1 208.1203 1.6962 78.3631 0.0000 0.0000 0.0000
# 2 1.6962 41.0085 48.0760 0.0000 0.0000 0.0000
# 3 78.3631 48.0760 116.6206 0.0000 0.0000 0.0000
# 4 0.0000 0.0000 0.0000 15.4208 0.0000 0.0000
# 5 0.0000 0.0000 0.0000 0.0000 8.5762 0.0000
# 6 0.0000 0.0000 0.0000 0.0000 0.0000 -13.7458
#
#
#
# Elastic Compliance Matrix: (Units=1/GPa)
#
#
# Indices 1 2 3 4 5 6 
#
# 1 0.008989 0.012984 -0.011393 0.000000 0.000000 0.000000
# 2 0.012984 0.065949 -0.035912 0.000000 0.000000 0.000000
# 3 -0.011393 -0.035912 0.031035 0.000000 0.000000 0.000000
# 4 0.000000 0.000000 0.000000 0.064848 0.000000 0.000000
# 5 0.000000 0.000000 0.000000 0.000000 0.116602 0.000000
# 6 0.000000 0.000000 0.000000 0.000000 0.000000 -0.072749
#
#
# Mechanical properties :
#
#
# Convention : Reuss Voigt Hill
#
# Bulk Modulus (GPa) = 26.78670 69.11333 47.95001
# Shear Modulus (GPa) = 16.90579 17.89117 17.39848
#
# Velocity S-wave (km/s) = 2.80234 2.88286 2.84289
# Velocity P-wave (km/s) = 4.78685 6.57160 5.74890
#
# Compressibility (1/GPa) = 0.03733196
#
# Stress axis : x y z
#
# Youngs Moduli (GPa) = 111.25019 15.16321 32.22218
#
# Poissons Ratio (x) = -0.19688 0.36710
# Poissons Ratio (y) = -1.44451 1.15716
# Poissons Ratio (z) = 1.26744 0.54454
#
# Static dielectric constant tensor:
#      x y z
#    x 1.872480 0.000000 0.000000 
#    y 0.000000 1.776180 0.000000 
#    z 0.000000 0.000000 1.612090 
# 
# From -- ./inp_files/8316.got.cif
#   From: 2010.05.17/outbox.cif.g08.bks.cpg/sg57_5_cif.got.tgz:8316.got - 2010.06.03 13:58:18.
