data_PCOD9440245
_publ_section_title
;
Structure prediction by ZEFSAII (Michael W. Deem and Ramdas Pophale) SiO2 
 PCOD9440245
Probable space group: P B C M
;
_chemical_formula_sum "Si O2"
_cell_formula_units_Z 24
_cell_length_a 10.873007
_cell_length_b 9.781908
_cell_length_c 10.279552
_cell_angle_alpha 90.000000
_cell_angle_beta 90.000000
_cell_angle_gamma 90.000000
_cell_volume 1093.320344
_symmetry_space_group_name_H-M "P B C M"
_symmetry_group_IT_number 57
_symmetry_cell_setting 'orthorhombic'
loop_
_space_group_symop_operation_xyz
x,y,z
-x,-y,1/2+z
x,1/2-y,-z
-x,1/2+y,1/2-z
-x,-y,-z
x,y,1/2-z
-x,1/2+y,z
x,1/2-y,1/2+z
loop_
_atom_site_type_symbol
_atom_site_label
_atom_site_fract_x
_atom_site_fract_y
_atom_site_fract_z
Si Si1 0.203351 0.250000 0.500000
Si Si2 0.380392 0.007349 0.407120
Si Si3 0.233819 0.750000 0.500000
Si Si4 0.990676 0.106982 0.115362
O O1 0.293160 0.377757 0.525892
O O2 0.099768 0.281490 0.609329
O O3 0.400024 0.033491 0.250000
O O4 0.313816 0.862155 0.425974
O O5 0.500000 0.000000 0.500000
O O6 0.140489 0.822534 0.599393
O O7 0.002028 0.030092 0.250000
O O8 0.000000 0.000000 0.000000
#
# Coordination Sequence:
#
# PCOD9440245 Si02
#       4
#     4   8   4   8
#     4  11  25  46  72 104 147 189 238 290 360 435
#     4  12  28  50  74 105 144 193 249 302 361 431
#     4  11  25  48  72 108 143 191 236 298 362 439
#     4  11  24  43  74 110 145 187 235 298 368 433
#
# _framework density 21.951478999999999
#
# number of rings (size 3 to 8) (size 9 to 14) (size 15 to 20)
#    0.000    0.667    3.333    3.000    0.000   14.667 
#    0.000    0.000    0.000    0.000    0.000    0.000 
#    0.000    0.000    0.000    0.000    0.000    0.000 
#
# Total GULP energy -133706.152872 kJ/mol
# GULP energy per Si atom -5571.089703 kJ/mol
# Density = 2.190152 g / cm^3
# Si number density = 21.951479 Si / 1000 Ang^3
#
#
#
# Elastic Constant Matrix: (Units=GPa)
#
#
# Indices 1 2 3 4 5 6 
#
# 1 163.0858 54.7592 61.1662 0.0000 0.0000 0.0000
# 2 54.7592 127.3546 69.4132 0.0000 0.0000 0.0000
# 3 61.1662 69.4132 200.8465 0.0000 0.0000 0.0000
# 4 0.0000 0.0000 0.0000 26.2707 0.0000 0.0000
# 5 0.0000 0.0000 0.0000 0.0000 -87.6276 0.0000
# 6 0.0000 0.0000 0.0000 0.0000 0.0000 27.7616
#
#
#
# Elastic Compliance Matrix: (Units=1/GPa)
#
#
# Indices 1 2 3 4 5 6 
#
# 1 0.007489 -0.002436 -0.001439 0.000000 0.000000 0.000000
# 2 -0.002436 0.010467 -0.002875 0.000000 0.000000 0.000000
# 3 -0.001439 -0.002875 0.006411 0.000000 0.000000 0.000000
# 4 0.000000 0.000000 0.000000 0.038065 0.000000 0.000000
# 5 0.000000 0.000000 0.000000 0.000000 -0.011412 0.000000
# 6 0.000000 0.000000 0.000000 0.000000 0.000000 0.036021
#
#
# Mechanical properties :
#
#
# Convention : Reuss Voigt Hill
#
# Bulk Modulus (GPa) = 92.02817 95.77381 93.90099
# Shear Modulus (GPa) = 48.00119 13.67750 30.83934
#
# Velocity S-wave (km/s) = 4.68128 2.49886 3.75225
# Velocity P-wave (km/s) = 8.44001 7.21459 7.85124
#
# Compressibility (1/GPa) = 0.01086624
#
# Stress axis : x y z
#
# Youngs Moduli (GPa) = 133.52313 95.54078 155.98369
#
# Poissons Ratio (x) = 0.23273 0.22445
# Poissons Ratio (y) = 0.32525 0.44853
# Poissons Ratio (z) = 0.19213 0.27473
#
# Static dielectric constant tensor:
#      x y z
#    x 1.814340 0.000000 0.000000 
#    y 0.000000 1.853220 0.000000 
#    z 0.000000 0.000000 1.918220 
# 
# From -- ./inp_files/2290.got.cif
#   From: 2010.05.17/outbox.cif.g08.bks.cpg/sg57_2_cif.got.tgz:2290.got - 2010.06.03 13:58:18.
