data_PCOD9440942
_publ_section_title
;
Structure prediction by ZEFSAII (Michael W. Deem and Ramdas Pophale) SiO2 
 PCOD9440942
Probable space group: P N N M
;
_chemical_formula_sum "Si O2"
_cell_formula_units_Z 64
_cell_length_a 20.320974
_cell_length_b 19.966001
_cell_length_c 7.767166
_cell_angle_alpha 90.000000
_cell_angle_beta 90.000000
_cell_angle_gamma 90.000000
_cell_volume 3151.361288
_symmetry_space_group_name_H-M "P N N M"
_symmetry_group_IT_number 58
_symmetry_cell_setting 'orthorhombic'
loop_
_space_group_symop_operation_xyz
x,y,z
-x,-y,z
1/2+x,1/2-y,1/2-z
1/2-x,1/2+y,1/2-z
-x,-y,-z
x,y,-z
1/2-x,1/2+y,1/2+z
1/2+x,1/2-y,1/2+z
loop_
_atom_site_type_symbol
_atom_site_label
_atom_site_fract_x
_atom_site_fract_y
_atom_site_fract_z
Si Si1 0.150349 0.051542 0.797170
Si Si2 0.846094 0.242535 0.298890
Si Si3 0.963307 0.600246 0.292723
Si Si4 0.635072 0.594451 0.798317
Si Si5 0.600671 0.968570 0.790230
Si Si6 0.984518 0.889898 0.791906
Si Si7 0.493779 0.240265 0.298200
Si Si8 0.220623 0.624200 0.287794
O O1 0.078069 0.069006 0.726519
O O2 0.208901 0.097577 0.728175
O O3 0.164888 0.972943 0.778525
O O4 0.146489 0.066397 0.000000
O O5 0.829218 0.236222 0.500000
O O6 0.843985 0.167164 0.224334
O O7 0.922391 0.266118 0.289940
O O8 0.801081 0.302003 0.227567
O O9 0.962726 0.600431 0.500000
O O10 0.909806 0.545522 0.234490
O O11 0.034688 0.571312 0.238118
O O12 0.960686 0.676525 0.234473
O O13 0.556075 0.590469 0.775918
O O14 0.649917 0.594032 0.000000
O O15 0.664828 0.928985 0.733377
O O16 0.601252 0.968575 0.000000
O O17 0.975562 0.811466 0.747906
O O18 0.988745 0.897228 0.000000
O O19 0.479294 0.244089 0.500000
O O20 0.220109 0.625062 0.500000
#
# Coordination Sequence:
#
# PCOD9440942 Si02
#       8
#     8   8   8   8   8   8   8   8
#     4  10  20  34  53  73  96 131 166 200 240 290
#     4   9  17  32  53  73  93 123 164 202 235 284
#     4   9  15  26  46  70  96 125 160 202 243 281
#     4  10  20  33  53  79 101 123 158 207 254 288
#     4   8  14  25  46  71  92 121 164 207 236 273
#     4   9  19  34  50  71  98 128 165 204 245 291
#     4  10  18  28  45  71 101 127 156 200 248 292
#     4   9  16  30  53  74  92 123 172 206 226 279
#
# _framework density 20.308685000000001
#
# number of rings (size 3 to 8) (size 9 to 14) (size 15 to 20)
#    0.000    2.750    1.250    1.875    0.000    3.000 
#    0.000    3.125    0.000    1.500    0.000    0.000 
#    0.000    0.000    0.000    0.000    0.000    0.000 
#
# Total GULP energy -356829.358103 kJ/mol
# GULP energy per Si atom -5575.458720 kJ/mol
# Density = 2.026246 g / cm^3
# Si number density = 20.308685 Si / 1000 Ang^3
#
#
#
# Elastic Constant Matrix: (Units=GPa)
#
#
# Indices 1 2 3 4 5 6 
#
# 1 36.6677 33.6605 0.7111 0.0000 0.0000 0.0000
# 2 33.6605 133.2097 -2.8496 0.0000 0.0000 0.0000
# 3 0.7111 -2.8496 23.7202 0.0000 0.0000 0.0000
# 4 0.0000 0.0000 0.0000 18.7926 0.0000 0.0000
# 5 0.0000 0.0000 0.0000 0.0000 18.4782 0.0000
# 6 0.0000 0.0000 0.0000 0.0000 0.0000 29.6017
#
#
#
# Elastic Compliance Matrix: (Units=1/GPa)
#
#
# Indices 1 2 3 4 5 6 
#
# 1 0.035618 -0.009046 -0.002155 0.000000 0.000000 0.000000
# 2 -0.009046 0.009824 0.001451 0.000000 0.000000 0.000000
# 3 -0.002155 0.001451 0.042397 0.000000 0.000000 0.000000
# 4 0.000000 0.000000 0.000000 0.053212 0.000000 0.000000
# 5 0.000000 0.000000 0.000000 0.000000 0.054118 0.000000
# 6 0.000000 0.000000 0.000000 0.000000 0.000000 0.033782
#
#
# Mechanical properties :
#
#
# Convention : Reuss Voigt Hill
#
# Bulk Modulus (GPa) = 14.63272 28.51573 21.57423
# Shear Modulus (GPa) = 18.43450 24.17954 21.30702
#
# Velocity S-wave (km/s) = 3.01610 3.45425 3.24259
# Velocity P-wave (km/s) = 4.39886 5.47547 4.96642
#
# Compressibility (1/GPa) = 0.06833998
#
# Stress axis : x y z
#
# Youngs Moduli (GPa) = 28.07555 101.79241 23.58653
#
# Poissons Ratio (x) = 0.92085 0.05082
# Poissons Ratio (y) = 0.25398 -0.03423
# Poissons Ratio (z) = 0.06049 -0.14774
#
# Static dielectric constant tensor:
#      x y z
#    x 1.691850 0.000000 0.000000 
#    y 0.000000 1.762230 0.000000 
#    z 0.000000 0.000000 1.752810 
# 
# From -- ./inp_files/9420.got.cif
#   From: 2010.05.17/outbox.cif.g08.bks.cpg/sg58_5_cif.got.tgz:9420.got - 2010.06.03 14:20:14.
