data_PCOD9440400
_publ_section_title
;
Structure prediction by ZEFSAII (Michael W. Deem and Ramdas Pophale) SiO2 
 PCOD9440400
Probable space group: P B C M
;
_chemical_formula_sum "Si O2"
_cell_formula_units_Z 48
_cell_length_a 21.000000
_cell_length_b 15.000000
_cell_length_c 9.000000
_cell_angle_alpha 90.000000
_cell_angle_beta 90.000000
_cell_angle_gamma 90.000000
_cell_volume 2835.000000
_symmetry_space_group_name_H-M "P B C M"
_symmetry_group_IT_number 57
_symmetry_cell_setting 'orthorhombic'
loop_
_space_group_symop_operation_xyz
x,y,z
-x,-y,1/2+z
x,1/2-y,-z
-x,1/2+y,1/2-z
-x,-y,-z
x,y,1/2-z
-x,1/2+y,z
x,1/2-y,1/2+z
loop_
_atom_site_type_symbol
_atom_site_label
_atom_site_fract_x
_atom_site_fract_y
_atom_site_fract_z
Si Si1 0.034310 0.845708 0.930186
Si Si2 0.588801 0.043357 0.428614
Si Si3 0.469616 0.351253 0.429771
Si Si4 0.104470 0.153373 0.569390
Si Si5 0.843475 0.464840 0.929372
Si Si6 0.719752 0.350030 0.929873
O O1 0.028075 0.840093 0.750000
O O2 0.090396 0.914923 0.967228
O O3 0.052364 0.750000 0.000000
O O4 0.966037 0.867517 0.003969
O O5 0.578841 0.050336 0.250000
O O6 0.535602 0.104607 0.510151
O O7 0.657395 0.088513 0.462463
O O8 0.578813 0.936422 0.463727
O O9 0.459636 0.250000 0.500000
O O10 0.471043 0.340951 0.250000
O O11 0.122498 0.250000 0.500000
O O12 0.101419 0.160080 0.750000
O O13 0.149456 0.069238 0.527631
O O14 0.839566 0.465314 0.750000
O O15 0.782629 0.406251 0.979694
O O16 0.722609 0.339507 0.750000
O O17 0.716761 0.250000 0.000000
#
# Coordination Sequence:
#
# PCOD9440400 Si02
#       6
#     8   8   8   8   8   8
#     4  10  18  30  48  72  97 123 156 196 243 290
#     4   9  19  34  53  76 103 136 170 204 245 292
#     4  10  19  32  52  78 106 135 168 207 248 289
#     4  10  19  33  50  69  93 124 160 200 245 288
#     4   9  19  33  50  70  96 128 160 196 240 290
#     4  10  20  36  54  74 100 130 163 198 241 292
#
# _framework density 16.931217
#
# number of rings (size 3 to 8) (size 9 to 14) (size 15 to 20)
#    0.000    2.333    0.000    4.000    0.000    2.667 
#    0.000    5.833    0.000    0.000    0.000    0.000 
#    0.000    0.000    0.000    0.000    0.000    0.000 
#
# Total GULP energy -267375.086291 kJ/mol
# GULP energy per Si atom -5570.314298 kJ/mol
# Density = 1.689268 g / cm^3
# Si number density = 16.931217 Si / 1000 Ang^3
#
#
#
# Elastic Constant Matrix: (Units=GPa)
#
#
# Indices 1 2 3 4 5 6 
#
# 1 89.0381 78.1316 23.6905 0.0000 0.0000 0.0000
# 2 78.1316 190.2752 41.6355 0.0000 0.0000 0.0000
# 3 23.6905 41.6355 62.7152 0.0000 0.0000 0.0000
# 4 0.0000 0.0000 0.0000 36.0533 0.0000 0.0000
# 5 0.0000 0.0000 0.0000 0.0000 21.3860 0.0000
# 6 0.0000 0.0000 0.0000 0.0000 0.0000 34.7734
#
#
#
# Elastic Compliance Matrix: (Units=1/GPa)
#
#
# Indices 1 2 3 4 5 6 
#
# 1 0.017811 -0.006834 -0.002191 0.000000 0.000000 0.000000
# 2 -0.006834 0.008771 -0.003241 0.000000 0.000000 0.000000
# 3 -0.002191 -0.003241 0.018925 0.000000 0.000000 0.000000
# 4 0.000000 0.000000 0.000000 0.027737 0.000000 0.000000
# 5 0.000000 0.000000 0.000000 0.000000 0.046760 0.000000
# 6 0.000000 0.000000 0.000000 0.000000 0.000000 0.028758
#
#
# Mechanical properties :
#
#
# Convention : Reuss Voigt Hill
#
# Bulk Modulus (GPa) = 47.67870 69.88264 58.78067
# Shear Modulus (GPa) = 27.73378 31.68058 29.70718
#
# Velocity S-wave (km/s) = 4.05164 4.33035 4.19332
# Velocity P-wave (km/s) = 7.07878 8.14657 7.63138
#
# Compressibility (1/GPa) = 0.02097373
#
# Stress axis : x y z
#
# Youngs Moduli (GPa) = 56.14422 114.01009 52.84122
#
# Poissons Ratio (x) = 0.77918 0.11577
# Poissons Ratio (y) = 0.38371 0.17128
# Poissons Ratio (z) = 0.12301 0.36955
#
# Static dielectric constant tensor:
#      x y z
#    x 1.583760 0.000000 0.000000 
#    y 0.000000 1.592650 0.000000 
#    z 0.000000 0.000000 1.572670 
# 
# From -- ./inp_files/7853.got.cif
#   From: 2010.05.17/outbox.ucp.g08.bks.cvg/sg57_4_cif.got.tgz:7853.got - 2010.06.11 16:39:23.
