data_PCOD9440281
_publ_section_title
;
Structure prediction by ZEFSAII (Michael W. Deem and Ramdas Pophale) SiO2 
 PCOD9440281
Probable space group: P B C M
;
_chemical_formula_sum "Si O2"
_cell_formula_units_Z 40
_cell_length_a 9.028380
_cell_length_b 18.120402
_cell_length_c 10.196211
_cell_angle_alpha 90.000000
_cell_angle_beta 90.000000
_cell_angle_gamma 90.000000
_cell_volume 1668.078453
_symmetry_space_group_name_H-M "P B C M"
_symmetry_group_IT_number 57
_symmetry_cell_setting 'orthorhombic'
loop_
_space_group_symop_operation_xyz
x,y,z
-x,-y,1/2+z
x,1/2-y,-z
-x,1/2+y,1/2-z
-x,-y,-z
x,y,1/2-z
-x,1/2+y,z
x,1/2-y,1/2+z
loop_
_atom_site_type_symbol
_atom_site_label
_atom_site_fract_x
_atom_site_fract_y
_atom_site_fract_z
Si Si1 0.762451 0.750000 0.000000
Si Si2 0.024016 0.636156 0.750000
Si Si3 0.061945 0.198760 0.250000
Si Si4 0.850004 0.962410 0.452548
Si Si5 0.372671 0.626208 0.750000
Si Si6 0.428818 0.123195 0.992893
Si Si7 0.176311 0.584339 0.250000
Si Si8 0.425414 0.803386 0.750000
O O1 0.659531 0.691178 0.926919
O O2 0.851186 0.791807 0.886458
O O3 0.030710 0.724492 0.750000
O O4 0.195649 0.609653 0.750000
O O5 0.925580 0.604428 0.630498
O O6 0.989121 0.117581 0.250000
O O7 0.704360 0.933185 0.526118
O O8 0.787156 0.030488 0.368167
O O9 0.000000 0.000000 0.500000
O O10 0.454027 0.597722 0.617294
O O11 0.397680 0.715665 0.750000
O O12 0.498042 0.160988 0.121380
O O13 0.266196 0.658614 0.250000
#
# Coordination Sequence:
#
# PCOD9440281 Si02
#       8
#     4   4   4   8   4   8   4   4
#     4  12  22  40  74 108 136 186 254 302 364 422
#     4  11  25  45  75 106 144 191 255 304 366 432
#     4  12  24  41  77 108 136 199 246 318 359 429
#     4  11  26  51  71 105 147 201 252 304 369 446
#     4  12  24  46  74 113 149 191 244 310 385 440
#     4  12  25  46  76 104 152 192 245 304 375 446
#     4  11  27  46  69 109 156 187 253 310 372 446
#     4  12  26  44  73 116 147 194 246 314 370 447
#
# _framework density 23.979690000000002
#
# number of rings (size 3 to 8) (size 9 to 14) (size 15 to 20)
#    0.000    0.400    5.000    3.600    2.800    2.400 
#    3.600    0.000    0.000    0.000    0.000    0.000 
#    0.000    0.000    0.000    0.000    0.000    0.000 
#
# Total GULP energy -223053.124518 kJ/mol
# GULP energy per Si atom -5576.328113 kJ/mol
# Density = 2.392511 g / cm^3
# Si number density = 23.979690 Si / 1000 Ang^3
#
#
#
# Elastic Constant Matrix: (Units=GPa)
#
#
# Indices 1 2 3 4 5 6 
#
# 1 107.2062 13.3549 31.0067 0.0000 0.0000 0.0000
# 2 13.3549 86.8608 2.2518 0.0000 0.0000 0.0000
# 3 31.0067 2.2518 90.9749 0.0000 0.0000 0.0000
# 4 0.0000 0.0000 0.0000 25.4870 0.0000 0.0000
# 5 0.0000 0.0000 0.0000 0.0000 13.8773 0.0000
# 6 0.0000 0.0000 0.0000 0.0000 0.0000 54.0849
#
#
#
# Elastic Compliance Matrix: (Units=1/GPa)
#
#
# Indices 1 2 3 4 5 6 
#
# 1 0.010547 -0.001529 -0.003557 0.000000 0.000000 0.000000
# 2 -0.001529 0.011742 0.000231 0.000000 0.000000 0.000000
# 3 -0.003557 0.000231 0.012199 0.000000 0.000000 0.000000
# 4 0.000000 0.000000 0.000000 0.039236 0.000000 0.000000
# 5 0.000000 0.000000 0.000000 0.000000 0.072060 0.000000
# 6 0.000000 0.000000 0.000000 0.000000 0.000000 0.018489
#
#
# Mechanical properties :
#
#
# Convention : Reuss Voigt Hill
#
# Bulk Modulus (GPa) = 40.36128 42.02987 41.19558
# Shear Modulus (GPa) = 27.43590 34.58508 31.01049
#
# Velocity S-wave (km/s) = 3.38617 3.80184 3.60001
# Velocity P-wave (km/s) = 5.67064 6.06937 5.87339
#
# Compressibility (1/GPa) = 0.02477622
#
# Stress axis : x y z
#
# Youngs Moduli (GPa) = 94.81301 85.16550 81.97657
#
# Poissons Ratio (x) = 0.13025 0.29158
# Poissons Ratio (y) = 0.14501 -0.01891
# Poissons Ratio (z) = 0.33724 -0.01964
#
# Static dielectric constant tensor:
#      x y z
#    x 2.008400 0.000000 0.000000 
#    y 0.000000 1.966370 0.000000 
#    z 0.000000 0.000000 2.520640 
# 
# From -- ./inp_files/11649.got.cif
#   From: 2010.05.17/outbox.cif.g08.bks.cpg/sg57_6_cif.got.tgz:11649.got - 2010.06.03 13:58:18.
