data_PCOD9440925
_publ_section_title
;
Structure prediction by ZEFSAII (Michael W. Deem and Ramdas Pophale) SiO2 
 PCOD9440925
Probable space group: P N N M
;
_chemical_formula_sum "Si O2"
_cell_formula_units_Z 64
_cell_length_a 18.816051
_cell_length_b 27.198317
_cell_length_c 9.008593
_cell_angle_alpha 90.000000
_cell_angle_beta 90.000000
_cell_angle_gamma 90.000000
_cell_volume 4610.281874
_symmetry_space_group_name_H-M "P N N M"
_symmetry_group_IT_number 58
_symmetry_cell_setting 'orthorhombic'
loop_
_space_group_symop_operation_xyz
x,y,z
-x,-y,z
1/2+x,1/2-y,1/2-z
1/2-x,1/2+y,1/2-z
-x,-y,-z
x,y,-z
1/2-x,1/2+y,1/2+z
1/2+x,1/2-y,1/2+z
loop_
_atom_site_type_symbol
_atom_site_label
_atom_site_fract_x
_atom_site_fract_y
_atom_site_fract_z
Si Si1 0.583218 0.056772 0.820642
Si Si2 0.579081 0.755021 0.322790
Si Si3 0.581232 0.943646 0.822015
Si Si4 0.073792 0.262707 0.676071
Si Si5 0.211835 0.208911 0.324284
Si Si6 0.339580 0.852953 0.678099
Si Si7 0.703552 0.703324 0.824466
Si Si8 0.336309 0.144021 0.324041
O O1 0.500779 0.067124 0.779376
O O2 0.633573 0.095563 0.741368
O O3 0.597687 0.999999 0.779474
O O4 0.588874 0.061184 0.000000
O O5 0.574364 0.752110 0.500000
O O6 0.501902 0.754097 0.250096
O O7 0.630329 0.712068 0.261626
O O8 0.616977 0.807413 0.285623
O O9 0.633519 0.903252 0.757091
O O10 0.583524 0.941759 0.000000
O O11 0.065786 0.271024 0.500000
O O12 0.128196 0.216859 0.696879
O O13 0.112313 0.310204 0.747655
O O14 0.226434 0.220272 0.500000
O O15 0.249156 0.249684 0.222839
O O16 0.254290 0.158858 0.292945
O O17 0.347742 0.850370 0.500000
O O18 0.256755 0.841387 0.713053
O O19 0.690275 0.703302 0.000000
O O20 0.343517 0.136473 0.500000
#
# Coordination Sequence:
#
# PCOD9440925 Si02
#       8
#     8   8   8   8   8   8   8   8
#     4   9  18  31  43  56  79 109 139 171 206 241
#     4  10  19  29  41  60  85 109 137 171 203 239
#     4   9  18  30  42  58  79 105 139 174 203 237
#     4  10  18  28  43  60  81 111 141 167 201 243
#     4   8  16  29  41  56  80 108 136 166 201 241
#     4  10  19  29  42  61  83 107 139 174 204 239
#     4   9  17  28  41  58  80 106 136 168 201 239
#     4   9  17  28  41  57  79 107 135 165 202 239
#
# _framework density 13.882015000000001
#
# number of rings (size 3 to 8) (size 9 to 14) (size 15 to 20)
#    0.000    2.750    0.000    3.750    0.000    7.500 
#    0.000    1.250    0.000    0.000    0.000    0.000 
#    0.000    1.000    0.000   11.250    0.000    5.625 
#
# Total GULP energy -356332.489078 kJ/mol
# GULP energy per Si atom -5567.695142 kJ/mol
# Density = 1.385042 g / cm^3
# Si number density = 13.882015 Si / 1000 Ang^3
#
#
#
# Elastic Constant Matrix: (Units=GPa)
#
#
# Indices 1 2 3 4 5 6 
#
# 1 98.1343 49.3506 43.4063 0.0000 0.0000 0.0000
# 2 49.3506 79.2469 32.9159 0.0000 0.0000 0.0000
# 3 43.4063 32.9159 40.8075 0.0000 0.0000 0.0000
# 4 0.0000 0.0000 0.0000 22.2366 0.0000 0.0000
# 5 0.0000 0.0000 0.0000 0.0000 19.3416 0.0000
# 6 0.0000 0.0000 0.0000 0.0000 0.0000 25.6272
#
#
#
# Elastic Compliance Matrix: (Units=1/GPa)
#
#
# Indices 1 2 3 4 5 6 
#
# 1 0.020806 -0.005661 -0.017565 0.000000 0.000000 0.000000
# 2 -0.005661 0.020517 -0.010527 0.000000 0.000000 0.000000
# 3 -0.017565 -0.010527 0.051680 0.000000 0.000000 0.000000
# 4 0.000000 0.000000 0.000000 0.044971 0.000000 0.000000
# 5 0.000000 0.000000 0.000000 0.000000 0.051702 0.000000
# 6 0.000000 0.000000 0.000000 0.000000 0.000000 0.039021
#
#
# Mechanical properties :
#
#
# Convention : Reuss Voigt Hill
#
# Bulk Modulus (GPa) = 39.22121 52.17046 45.69583
# Shear Modulus (GPa) = 16.40938 19.60880 18.00909
#
# Velocity S-wave (km/s) = 3.44184 3.76244 3.60571
# Velocity P-wave (km/s) = 6.64151 7.51915 7.09391
#
# Compressibility (1/GPa) = 0.02549641
#
# Stress axis : x y z
#
# Youngs Moduli (GPa) = 48.06224 48.74002 19.34975
#
# Poissons Ratio (x) = 0.27593 0.33988
# Poissons Ratio (y) = 0.27210 0.20370
# Poissons Ratio (z) = 0.84421 0.51311
#
# Static dielectric constant tensor:
#      x y z
#    x 1.468850 0.000000 0.000000 
#    y 0.000000 1.443910 0.000000 
#    z 0.000000 0.000000 1.462740 
# 
# From -- ./inp_files/8485.got.cif
#   From: 2010.05.17/outbox.cif.g08.bks.cpg/sg58_5_cif.got.tgz:8485.got - 2010.06.03 14:20:14.
