data_PCOD9440084
_publ_section_title
;
Structure prediction by ZEFSAII (Michael W. Deem and Ramdas Pophale) SiO2 
 PCOD9440084
Probable space group: P B C M
;
_chemical_formula_sum "Si O2"
_cell_formula_units_Z 48
_cell_length_a 14.331623
_cell_length_b 15.517927
_cell_length_c 9.891725
_cell_angle_alpha 90.000000
_cell_angle_beta 90.000000
_cell_angle_gamma 90.000000
_cell_volume 2199.890751
_symmetry_space_group_name_H-M "P B C M"
_symmetry_group_IT_number 57
_symmetry_cell_setting 'orthorhombic'
loop_
_space_group_symop_operation_xyz
x,y,z
-x,-y,1/2+z
x,1/2-y,-z
-x,1/2+y,1/2-z
-x,-y,-z
x,y,1/2-z
-x,1/2+y,z
x,1/2-y,1/2+z
loop_
_atom_site_type_symbol
_atom_site_label
_atom_site_fract_x
_atom_site_fract_y
_atom_site_fract_z
Si Si1 0.106049 0.098621 0.005854
Si Si2 0.251096 0.662725 0.088508
Si Si3 0.768519 0.896488 0.250000
Si Si4 0.908079 0.408914 0.402187
Si Si5 0.590113 0.833733 0.750000
Si Si6 0.555493 0.875380 0.250000
Si Si7 0.800678 0.807635 0.750000
Si Si8 0.454596 0.854866 0.984240
O O1 0.178792 0.075752 0.886451
O O2 0.009892 0.128461 0.936648
O O3 0.146920 0.165138 0.113739
O O4 0.083657 0.012173 0.089694
O O5 0.239827 0.675509 0.250000
O O6 0.351830 0.618483 0.063234
O O7 0.255035 0.750000 0.000000
O O8 0.164930 0.615655 0.017924
O O9 0.658394 0.916280 0.250000
O O10 0.781844 0.793390 0.250000
O O11 0.879013 0.383372 0.250000
O O12 0.575175 0.729090 0.750000
O O13 0.699092 0.852193 0.750000
O O14 0.535679 0.870140 0.877294
O O15 0.491647 0.894393 0.378166
O O16 0.450754 0.750000 0.000000
#
# Coordination Sequence:
#
# PCOD9440084 Si02
#       8
#     8   8   4   8   4   4   4   8
#     4  11  24  43  66  90 124 168 212 250 316 385
#     4  11  24  39  65  97 126 159 210 270 316 360
#     4  11  22  39  63  99 130 157 206 262 315 366
#     4  11  25  45  66  87 123 171 217 255 309 385
#     4   9  16  32  53  85 125 159 200 239 304 370
#     4   9  18  30  55  87 123 165 196 243 304 372
#     4  11  22  37  65  99 128 161 200 262 315 368
#     4   9  17  31  54  85 123 161 202 245 301 370
#
# _framework density 21.819264
#
# number of rings (size 3 to 8) (size 9 to 14) (size 15 to 20)
#    0.000    1.667    2.500    2.000    7.000    4.000 
#    0.000    0.000    0.000    6.000    0.000    0.000 
#    0.000    0.000    0.000    0.000    0.000    0.000 
#
# Total GULP energy -268164.339284 kJ/mol
# GULP energy per Si atom -5586.757068 kJ/mol
# Density = 2.176960 g / cm^3
# Si number density = 21.819264 Si / 1000 Ang^3
#
#
#
# Elastic Constant Matrix: (Units=GPa)
#
#
# Indices 1 2 3 4 5 6 
#
# 1 137.1755 17.5803 71.1108 0.0000 0.0000 0.0000
# 2 17.5803 24.6207 14.0787 0.0000 0.0000 0.0000
# 3 71.1108 14.0787 201.1549 0.0000 0.0000 0.0000
# 4 0.0000 0.0000 0.0000 18.4654 0.0000 0.0000
# 5 0.0000 0.0000 0.0000 0.0000 33.5952 0.0000
# 6 0.0000 0.0000 0.0000 0.0000 0.0000 112.6295
#
#
#
# Elastic Compliance Matrix: (Units=1/GPa)
#
#
# Indices 1 2 3 4 5 6 
#
# 1 0.009495 -0.005063 -0.003002 0.000000 0.000000 0.000000
# 2 -0.005063 0.045010 -0.001360 0.000000 0.000000 0.000000
# 3 -0.003002 -0.001360 0.006128 0.000000 0.000000 0.000000
# 4 0.000000 0.000000 0.000000 0.054155 0.000000 0.000000
# 5 0.000000 0.000000 0.000000 0.000000 0.029766 0.000000
# 6 0.000000 0.000000 0.000000 0.000000 0.000000 0.008879
#
#
# Mechanical properties :
#
#
# Convention : Reuss Voigt Hill
#
# Bulk Modulus (GPa) = 23.93434 63.16564 43.54999
# Shear Modulus (GPa) = 26.85119 50.28344 38.56731
#
# Velocity S-wave (km/s) = 3.51182 4.80577 4.20882
# Velocity P-wave (km/s) = 5.23804 7.73345 6.60467
#
# Compressibility (1/GPa) = 0.04178097
#
# Stress axis : x y z
#
# Youngs Moduli (GPa) = 105.31632 22.21750 163.18945
#
# Poissons Ratio (x) = 0.11249 0.48994
# Poissons Ratio (y) = 0.53324 0.22198
# Poissons Ratio (z) = 0.31619 0.03022
#
# Static dielectric constant tensor:
#      x y z
#    x 1.775670 0.000000 0.000000 
#    y 0.000000 1.840380 0.000000 
#    z 0.000000 0.000000 1.729830 
# 
# From -- ./inp_files/4784.got.cif
#   From: 2010.05.17/outbox.cif.g08.bks.cpg/sg57_3_cif.got.tgz:4784.got - 2010.06.03 13:58:18.
