data_PCOD9440963
_publ_section_title
;
Structure prediction by ZEFSAII (Michael W. Deem and Ramdas Pophale) SiO2 
 PCOD9440963
Probable space group: P N N M
;
_chemical_formula_sum "Si O2"
_cell_formula_units_Z 64
_cell_length_a 22.738575
_cell_length_b 17.696230
_cell_length_c 7.422728
_cell_angle_alpha 90.000000
_cell_angle_beta 90.000000
_cell_angle_gamma 90.000000
_cell_volume 2986.809646
_symmetry_space_group_name_H-M "P N N M"
_symmetry_group_IT_number 58
_symmetry_cell_setting 'orthorhombic'
loop_
_space_group_symop_operation_xyz
x,y,z
-x,-y,z
1/2+x,1/2-y,1/2-z
1/2-x,1/2+y,1/2-z
-x,-y,-z
x,y,-z
1/2-x,1/2+y,1/2+z
1/2+x,1/2-y,1/2+z
loop_
_atom_site_type_symbol
_atom_site_label
_atom_site_fract_x
_atom_site_fract_y
_atom_site_fract_z
Si Si1 0.470212 0.659284 0.280573
Si Si2 0.847826 0.285382 0.284359
Si Si3 0.056720 0.598970 0.279965
Si Si4 0.877509 0.721669 0.785657
Si Si5 0.601727 0.626949 0.285050
Si Si6 0.221269 0.163052 0.220351
Si Si7 0.129907 0.039870 0.780672
Si Si8 0.574538 0.067296 0.785772
O O1 0.472305 0.661162 0.500000
O O2 0.436218 0.734914 0.218598
O O3 0.536516 0.648219 0.215474
O O4 0.427354 0.589700 0.231169
O O5 0.847364 0.293885 0.500000
O O6 0.904548 0.331252 0.215751
O O7 0.855336 0.197011 0.247372
O O8 0.787232 0.321799 0.217382
O O9 0.055565 0.602125 0.500000
O O10 0.084909 0.518343 0.224558
O O11 0.989251 0.595313 0.217392
O O12 0.821089 0.768075 0.721348
O O13 0.879406 0.633092 0.749791
O O14 0.877993 0.730957 0.000000
O O15 0.595806 0.618568 0.500000
O O16 0.623713 0.545863 0.216840
O O17 0.187623 0.086644 0.276396
O O18 0.131050 0.039286 0.000000
O O19 0.222377 0.162417 0.000000
O O20 0.568883 0.061458 0.000000
#
# Coordination Sequence:
#
# PCOD9440963 Si02
#       8
#     8   8   8   8   8   8   8   8
#     4   8  14  25  45  71  98 123 144 176 229 280
#     4  10  19  33  49  63  87 127 162 184 219 274
#     4   8  16  30  47  65  89 122 155 185 221 271
#     4   9  16  28  46  68  91 118 152 186 221 270
#     4  10  18  28  47  76  99 112 141 194 239 267
#     4   8  16  31  48  63  86 122 161 188 211 261
#     4   8  14  27  47  70  92 119 154 187 218 265
#     4   9  16  29  47  69  93 115 148 193 232 265
#
# _framework density 21.427547000000001
#
# number of rings (size 3 to 8) (size 9 to 14) (size 15 to 20)
#    0.000    3.250    0.000    3.375    0.000    1.500 
#    2.250    2.500    0.000    5.250    0.000    0.000 
#    0.000    0.000    0.000    0.000    0.000    0.000 
#
# Total GULP energy -357026.662280 kJ/mol
# GULP energy per Si atom -5578.541598 kJ/mol
# Density = 2.137878 g / cm^3
# Si number density = 21.427547 Si / 1000 Ang^3
#
#
#
# Elastic Constant Matrix: (Units=GPa)
#
#
# Indices 1 2 3 4 5 6 
#
# 1 52.2171 12.6649 -1.3590 0.0000 0.0000 0.0000
# 2 12.6649 97.9740 -6.0412 0.0000 0.0000 0.0000
# 3 -1.3590 -6.0412 65.3637 0.0000 0.0000 0.0000
# 4 0.0000 0.0000 0.0000 15.0557 0.0000 0.0000
# 5 0.0000 0.0000 0.0000 0.0000 -3.5450 0.0000
# 6 0.0000 0.0000 0.0000 0.0000 0.0000 13.4188
#
#
#
# Elastic Compliance Matrix: (Units=1/GPa)
#
#
# Indices 1 2 3 4 5 6 
#
# 1 0.019773 -0.002545 0.000176 0.000000 0.000000 0.000000
# 2 -0.002545 0.010593 0.000926 0.000000 0.000000 0.000000
# 3 0.000176 0.000926 0.015388 0.000000 0.000000 0.000000
# 4 0.000000 0.000000 0.000000 0.066420 0.000000 0.000000
# 5 0.000000 0.000000 0.000000 0.000000 -0.282084 0.000000
# 6 0.000000 0.000000 0.000000 0.000000 0.000000 0.074522
#
#
# Mechanical properties :
#
#
# Convention : Reuss Voigt Hill
#
# Bulk Modulus (GPa) = 23.32764 25.12045 24.22405
# Shear Modulus (GPa) = -63.92865 19.00523 -22.46171
#
# Velocity S-wave (km/s) = -5.46805 2.98141 -3.24120
# Velocity P-wave (km/s) = 5.38105 4.85805 1.63632
#
# Compressibility (1/GPa) = 0.04286760
#
# Stress axis : x y z
#
# Youngs Moduli (GPa) = 50.57482 94.40284 64.98460
#
# Poissons Ratio (x) = 0.24027 -0.01143
# Poissons Ratio (y) = 0.12872 -0.06018
# Poissons Ratio (z) = -0.00889 -0.08743
#
# Static dielectric constant tensor:
#      x y z
#    x 1.752240 0.000000 0.000000 
#    y 0.000000 1.772620 0.000000 
#    z 0.000000 0.000000 1.837590 
# 
# From -- ./inp_files/9257.got.cif
#   From: 2010.05.17/outbox.cif.g08.bks.cpg/sg58_5_cif.got.tgz:9257.got - 2010.06.03 14:20:14.
