data_PCOD9440513
_publ_section_title
;
Structure prediction by ZEFSAII (Michael W. Deem and Ramdas Pophale) SiO2 
 PCOD9440513
Probable space group: P B C M
;
_chemical_formula_sum "Si O2"
_cell_formula_units_Z 56
_cell_length_a 15.000000
_cell_length_b 21.000000
_cell_length_c 9.000000
_cell_angle_alpha 90.000000
_cell_angle_beta 90.000000
_cell_angle_gamma 90.000000
_cell_volume 2835.000000
_symmetry_space_group_name_H-M "P B C M"
_symmetry_group_IT_number 57
_symmetry_cell_setting 'orthorhombic'
loop_
_space_group_symop_operation_xyz
x,y,z
-x,-y,1/2+z
x,1/2-y,-z
-x,1/2+y,1/2-z
-x,-y,-z
x,y,1/2-z
-x,1/2+y,z
x,1/2-y,1/2+z
loop_
_atom_site_type_symbol
_atom_site_label
_atom_site_fract_x
_atom_site_fract_y
_atom_site_fract_z
Si Si1 0.850884 0.416273 0.428360
Si Si2 0.508821 0.816524 0.071846
Si Si3 0.028527 0.684521 0.078469
Si Si4 0.762920 0.956028 0.930483
Si Si5 0.301128 0.683502 0.571954
Si Si6 0.424273 0.044178 0.929039
Si Si7 0.186293 0.184953 0.422110
O O1 0.860991 0.413594 0.250000
O O2 0.835262 0.489829 0.470517
O O3 0.762746 0.374929 0.468529
O O4 0.930938 0.377837 0.502698
O O5 0.513449 0.809902 0.250000
O O6 0.404559 0.826402 0.029656
O O7 0.559216 0.881366 0.030433
O O8 0.539399 0.750000 0.000000
O O9 0.055638 0.686465 0.250000
O O10 0.921330 0.683326 0.070684
O O11 0.058021 0.750000 0.000000
O O12 0.756557 0.956198 0.750000
O O13 0.783012 0.883831 0.980836
O O14 0.669873 0.975673 0.002705
O O15 0.271745 0.750000 0.500000
O O16 0.297909 0.689838 0.750000
O O17 0.426069 0.039213 0.750000
O O18 0.500000 0.000000 0.000000
O O19 0.216979 0.250000 0.500000
O O20 0.212956 0.188848 0.250000
#
# Coordination Sequence:
#
# PCOD9440513 Si02
#       7
#     8   8   8   8   8   8   8
#     4  10  20  34  53  78 111 148 183 225 278 333
#     4   9  19  35  54  77 105 138 179 226 274 326
#     4  10  20  35  56  83 113 147 188 229 273 327
#     4  10  22  40  59  81 111 147 185 228 283 337
#     4   9  17  30  48  71 101 137 174 213 261 316
#     4  11  23  39  59  83 112 148 189 231 278 333
#     4   9  20  39  61  83 111 148 188 233 282 331
#
# _framework density 19.753086
#
# number of rings (size 3 to 8) (size 9 to 14) (size 15 to 20)
#    0.000    2.286    0.000    2.143    0.000    8.000 
#    0.000    5.714    0.000    0.000    0.000    0.000 
#    0.000    0.000    0.000    0.000    0.000    0.000 
#
# Total GULP energy -312635.219067 kJ/mol
# GULP energy per Si atom -5582.771769 kJ/mol
# Density = 1.970813 g / cm^3
# Si number density = 19.753086 Si / 1000 Ang^3
#
#
#
# Elastic Constant Matrix: (Units=GPa)
#
#
# Indices 1 2 3 4 5 6 
#
# 1 16.4446 10.6610 12.7691 0.0000 0.0000 0.0000
# 2 10.6610 132.7845 36.4553 0.0000 0.0000 0.0000
# 3 12.7691 36.4553 23.9550 0.0000 0.0000 0.0000
# 4 0.0000 0.0000 0.0000 34.6990 0.0000 0.0000
# 5 0.0000 0.0000 0.0000 0.0000 18.6659 0.0000
# 6 0.0000 0.0000 0.0000 0.0000 0.0000 36.3169
#
#
#
# Elastic Compliance Matrix: (Units=1/GPa)
#
#
# Indices 1 2 3 4 5 6 
#
# 1 0.115702 0.013128 -0.081653 0.000000 0.000000 0.000000
# 2 0.013128 0.014425 -0.028950 0.000000 0.000000 0.000000
# 3 -0.081653 -0.028950 0.129326 0.000000 0.000000 0.000000
# 4 0.000000 0.000000 0.000000 0.028819 0.000000 0.000000
# 5 0.000000 0.000000 0.000000 0.000000 0.053574 0.000000
# 6 0.000000 0.000000 0.000000 0.000000 0.000000 0.027535
#
#
# Mechanical properties :
#
#
# Convention : Reuss Voigt Hill
#
# Bulk Modulus (GPa) = 15.50297 32.55054 24.02675
# Shear Modulus (GPa) = 8.53485 25.48960 17.01223
#
# Velocity S-wave (km/s) = 2.08090 3.59613 2.93788
# Velocity P-wave (km/s) = 3.69309 5.81010 4.86807
#
# Compressibility (1/GPa) = 0.06450379
#
# Stress axis : x y z
#
# Youngs Moduli (GPa) = 8.64287 69.32356 7.73238
#
# Poissons Ratio (x) = -0.91007 0.63137
# Poissons Ratio (y) = -0.11346 0.22385
# Poissons Ratio (z) = 0.70571 2.00693
#
# Static dielectric constant tensor:
#      x y z
#    x 1.708360 0.000000 0.000000 
#    y 0.000000 1.689720 0.000000 
#    z 0.000000 0.000000 1.668250 
# 
# From -- ./inp_files/5178.got.cif
#   From: 2010.05.17/outbox.ucp.g08.bks.cvg/sg57_3_cif.got.tgz:5178.got - 2010.06.11 16:39:23.
