data_PCOD9440933
_publ_section_title
;
Structure prediction by ZEFSAII (Michael W. Deem and Ramdas Pophale) SiO2 
 PCOD9440933
Probable space group: P N N M
;
_chemical_formula_sum "Si O2"
_cell_formula_units_Z 64
_cell_length_a 31.155611
_cell_length_b 9.899019
_cell_length_c 13.697605
_cell_angle_alpha 90.000000
_cell_angle_beta 90.000000
_cell_angle_gamma 90.000000
_cell_volume 4224.478156
_symmetry_space_group_name_H-M "P N N M"
_symmetry_group_IT_number 58
_symmetry_cell_setting 'orthorhombic'
loop_
_space_group_symop_operation_xyz
x,y,z
-x,-y,z
1/2+x,1/2-y,1/2-z
1/2-x,1/2+y,1/2-z
-x,-y,-z
x,y,-z
1/2-x,1/2+y,1/2+z
1/2+x,1/2-y,1/2+z
loop_
_atom_site_type_symbol
_atom_site_label
_atom_site_fract_x
_atom_site_fract_y
_atom_site_fract_z
Si Si1 0.184199 0.124101 0.775903
Si Si2 0.684485 0.696203 0.722522
Si Si3 0.098837 0.189348 0.886912
Si Si4 0.225264 0.307505 0.384955
Si Si5 0.955166 0.561634 0.117013
Si Si6 0.774224 0.377592 0.615246
Si Si7 0.399777 0.194918 0.617366
Si Si8 0.458773 0.429029 0.387320
O O1 0.141824 0.185834 0.824462
O O2 0.197077 0.205564 0.678991
O O3 0.225014 0.138208 0.848519
O O4 0.177865 0.963625 0.759326
O O5 0.725562 0.708981 0.650796
O O6 0.697359 0.776965 0.820066
O O7 0.643213 0.762322 0.671845
O O8 0.062438 0.293383 0.849956
O O9 0.078436 0.040499 0.887946
O O10 0.108863 0.224774 0.000000
O O11 0.221889 0.282409 0.500000
O O12 0.213905 0.465091 0.366083
O O13 0.916736 0.455661 0.133232
O O14 0.000000 0.500000 0.155542
O O15 0.961537 0.575028 0.000000
O O16 0.777367 0.352151 0.500000
O O17 0.394349 0.215290 0.500000
O O18 0.438384 0.292887 0.652227
O O19 0.500000 0.500000 0.340730
O O20 0.471329 0.395886 0.500000
#
# Coordination Sequence:
#
# PCOD9440933 Si02
#       8
#     8   8   8   8   8   8   8   8
#     4  10  19  31  48  71  95 121 156 194 228 268
#     4  10  19  31  48  71  95 121 156 194 228 268
#     4  10  18  28  44  66  94 126 157 189 225 270
#     4   9  19  34  50  66  92 126 156 190 231 272
#     4   9  18  30  42  61  93 129 159 189 226 268
#     4   9  19  34  50  66  92 126 156 190 231 272
#     4  10  18  28  44  66  94 126 157 189 225 270
#     4   9  16  26  42  63  89 123 155 181 220 276
#
# _framework density 15.149800000000001
#
# number of rings (size 3 to 8) (size 9 to 14) (size 15 to 20)
#    0.000    2.500    1.250    1.500    1.750    4.500 
#    0.000    0.000    0.000    0.000    0.000    0.000 
#    0.000    6.000    0.000    0.000    0.000    0.000 
#
# Total GULP energy -356485.016853 kJ/mol
# GULP energy per Si atom -5570.078388 kJ/mol
# Density = 1.511532 g / cm^3
# Si number density = 15.149800 Si / 1000 Ang^3
#
#
#
# Elastic Constant Matrix: (Units=GPa)
#
#
# Indices 1 2 3 4 5 6 
#
# 1 52.2087 9.7729 23.4782 0.0000 0.0000 0.0000
# 2 9.7729 50.6769 26.2286 0.0000 0.0000 0.0000
# 3 23.4782 26.2286 63.0349 0.0000 0.0000 0.0000
# 4 0.0000 0.0000 0.0000 19.7875 0.0000 0.0000
# 5 0.0000 0.0000 0.0000 0.0000 20.3560 0.0000
# 6 0.0000 0.0000 0.0000 0.0000 0.0000 19.2114
#
#
#
# Elastic Compliance Matrix: (Units=1/GPa)
#
#
# Indices 1 2 3 4 5 6 
#
# 1 0.023008 -0.000002 -0.008569 0.000000 0.000000 0.000000
# 2 -0.000002 0.025149 -0.010464 0.000000 0.000000 0.000000
# 3 -0.008569 -0.010464 0.023410 0.000000 0.000000 0.000000
# 4 0.000000 0.000000 0.000000 0.050537 0.000000 0.000000
# 5 0.000000 0.000000 0.000000 0.000000 0.049126 0.000000
# 6 0.000000 0.000000 0.000000 0.000000 0.000000 0.052052
#
#
# Mechanical properties :
#
#
# Convention : Reuss Voigt Hill
#
# Bulk Modulus (GPa) = 29.85305 31.65333 30.75319
# Shear Modulus (GPa) = 18.34762 18.96706 18.65734
#
# Velocity S-wave (km/s) = 3.48383 3.54215 3.51311
# Velocity P-wave (km/s) = 5.99423 6.13743 6.06625
#
# Compressibility (1/GPa) = 0.03349742
#
# Stress axis : x y z
#
# Youngs Moduli (GPa) = 43.46399 39.76327 42.71761
#
# Poissons Ratio (x) = 0.00008 0.36603
# Poissons Ratio (y) = 0.00009 0.44698
# Poissons Ratio (z) = 0.37242 0.41607
#
# Static dielectric constant tensor:
#      x y z
#    x 1.510760 0.000000 0.000000 
#    y 0.000000 1.523130 0.000000 
#    z 0.000000 0.000000 1.466060 
# 
# From -- ./inp_files/13440.got.cif
#   From: 2010.05.17/outbox.cif.g08.bks.cpg/sg58_7_cif.got.tgz:13440.got - 2010.06.03 14:20:14.
