data_PCOD9440866
_publ_section_title
;
Structure prediction by ZEFSAII (Michael W. Deem and Ramdas Pophale) SiO2 
 PCOD9440866
Probable space group: P N N M
;
_chemical_formula_sum "Si O2"
_cell_formula_units_Z 48
_cell_length_a 7.986034
_cell_length_b 17.734969
_cell_length_c 16.581965
_cell_angle_alpha 90.000000
_cell_angle_beta 90.000000
_cell_angle_gamma 90.000000
_cell_volume 2348.537952
_symmetry_space_group_name_H-M "P N N M"
_symmetry_group_IT_number 58
_symmetry_cell_setting 'orthorhombic'
loop_
_space_group_symop_operation_xyz
x,y,z
-x,-y,z
1/2+x,1/2-y,1/2-z
1/2-x,1/2+y,1/2-z
-x,-y,-z
x,y,-z
1/2-x,1/2+y,1/2+z
1/2+x,1/2-y,1/2+z
loop_
_atom_site_type_symbol
_atom_site_label
_atom_site_fract_x
_atom_site_fract_y
_atom_site_fract_z
Si Si1 0.430031 0.886512 0.594528
Si Si2 0.739064 0.979949 0.669498
Si Si3 0.335501 0.802844 0.261087
Si Si4 0.951839 0.856200 0.742517
Si Si5 0.967398 0.088804 0.087428
Si Si6 0.624112 0.060604 0.835403
O O1 0.447450 0.874726 0.500000
O O2 0.593567 0.927106 0.632223
O O3 0.401165 0.812311 0.647856
O O4 0.278207 0.946006 0.613161
O O5 0.896563 0.925514 0.685938
O O6 0.695174 0.012826 0.758504
O O7 0.346935 0.719212 0.227664
O O8 0.440947 0.862733 0.206989
O O9 0.145189 0.832014 0.263452
O O10 0.933360 0.879564 0.836169
O O11 0.769864 0.090593 0.107199
O O12 0.006634 0.122232 0.000000
O O13 0.000000 0.000000 0.085112
O O14 0.500000 0.000000 0.874764
#
# Coordination Sequence:
#
# PCOD9440866 Si02
#       6
#     8   8   8   8   8   8
#     4  10  20  36  59  88 119 151 192 235 296 355
#     4  10  17  33  58  85 112 151 189 235 281 342
#     4  10  22  35  57  87 111 155 195 236 291 338
#     4  11  22  37  59  83 119 149 199 242 283 348
#     4  10  21  35  55  83 113 150 186 230 291 339
#     4  10  18  34  59  84 112 141 193 232 274 339
#
# _framework density 20.438245999999999
#
# number of rings (size 3 to 8) (size 9 to 14) (size 15 to 20)
#    0.000    1.833    5.000    2.000    0.000    1.000 
#    0.000    2.500    0.000    5.000    0.000    0.000 
#    0.000    0.000    0.000    0.000    0.000    0.000 
#
# Total GULP energy -267395.248901 kJ/mol
# GULP energy per Si atom -5570.734352 kJ/mol
# Density = 2.039173 g / cm^3
# Si number density = 20.438246 Si / 1000 Ang^3
#
#
#
# Elastic Constant Matrix: (Units=GPa)
#
#
# Indices 1 2 3 4 5 6 
#
# 1 35.1937 14.8139 0.7868 0.0000 0.0000 0.0000
# 2 14.8139 83.8315 1.3861 0.0000 0.0000 0.0000
# 3 0.7868 1.3861 72.5504 0.0000 0.0000 0.0000
# 4 0.0000 0.0000 0.0000 16.4094 0.0000 0.0000
# 5 0.0000 0.0000 0.0000 0.0000 20.5503 0.0000
# 6 0.0000 0.0000 0.0000 0.0000 0.0000 29.8058
#
#
#
# Elastic Compliance Matrix: (Units=1/GPa)
#
#
# Indices 1 2 3 4 5 6 
#
# 1 0.030701 -0.005421 -0.000229 0.000000 0.000000 0.000000
# 2 -0.005421 0.012890 -0.000187 0.000000 0.000000 0.000000
# 3 -0.000229 -0.000187 0.013790 0.000000 0.000000 0.000000
# 4 0.000000 0.000000 0.000000 0.060941 0.000000 0.000000
# 5 0.000000 0.000000 0.000000 0.000000 0.048661 0.000000
# 6 0.000000 0.000000 0.000000 0.000000 0.000000 0.033551
#
#
# Mechanical properties :
#
#
# Convention : Reuss Voigt Hill
#
# Bulk Modulus (GPa) = 21.87987 25.06102 23.47044
# Shear Modulus (GPa) = 21.98341 24.99235 23.48788
#
# Velocity S-wave (km/s) = 3.28319 3.50068 3.39368
# Velocity P-wave (km/s) = 5.01010 5.35053 5.18311
#
# Compressibility (1/GPa) = 0.04570412
#
# Stress axis : x y z
#
# Youngs Moduli (GPa) = 32.57190 77.58060 72.51843
#
# Poissons Ratio (x) = 0.42060 0.01663
# Poissons Ratio (y) = 0.17659 0.01359
# Poissons Ratio (z) = 0.00747 0.01454
#
# Static dielectric constant tensor:
#      x y z
#    x 1.845940 0.000000 0.000000 
#    y 0.000000 1.755390 0.000000 
#    z 0.000000 0.000000 1.724550 
# 
# From -- ./inp_files/25418.got.cif
#   From: 2010.05.17/outbox.cif.g08.bks.cpg/sg58_13_cif.got.tgz:25418.got - 2010.06.03 14:20:14.
