data_PCOD9440561
_publ_section_title
;
Structure prediction by ZEFSAII (Michael W. Deem and Ramdas Pophale) SiO2 
 PCOD9440561
Probable space group: P B C M
;
_chemical_formula_sum "Si O2"
_cell_formula_units_Z 52
_cell_length_a 15.000000
_cell_length_b 15.000000
_cell_length_c 12.000000
_cell_angle_alpha 90.000000
_cell_angle_beta 90.000000
_cell_angle_gamma 90.000000
_cell_volume 2700.000000
_symmetry_space_group_name_H-M "P B C M"
_symmetry_group_IT_number 57
_symmetry_cell_setting 'orthorhombic'
loop_
_space_group_symop_operation_xyz
x,y,z
-x,-y,1/2+z
x,1/2-y,-z
-x,1/2+y,1/2-z
-x,-y,-z
x,y,1/2-z
-x,1/2+y,z
x,1/2-y,1/2+z
loop_
_atom_site_type_symbol
_atom_site_label
_atom_site_fract_x
_atom_site_fract_y
_atom_site_fract_z
Si Si1 0.478907 0.881120 0.623947
Si Si2 0.244792 0.305891 0.381033
Si Si3 0.349529 0.750000 0.500000
Si Si4 0.723602 0.420686 0.383527
Si Si5 0.952936 0.651963 0.956369
Si Si6 0.617586 0.948484 0.460541
Si Si7 0.913653 0.007488 0.623058
O O1 0.511730 0.866615 0.750000
O O2 0.408779 0.805656 0.588011
O O3 0.551551 0.882298 0.525603
O O4 0.433884 0.979537 0.615421
O O5 0.260850 0.250000 0.500000
O O6 0.257503 0.271500 0.250000
O O7 0.140811 0.331701 0.394260
O O8 0.308520 0.391597 0.396417
O O9 0.294017 0.676610 0.567074
O O10 0.715994 0.420533 0.250000
O O11 0.656764 0.489989 0.440633
O O12 0.819985 0.455694 0.419437
O O13 0.938877 0.581825 0.057391
O O14 0.983117 0.750000 0.000000
O O15 0.020321 0.592099 0.884486
O O16 0.902890 0.980874 0.750000
#
# Coordination Sequence:
#
# PCOD9440561 Si02
#       7
#     8   8   4   8   8   8   8
#     4  10  21  38  59  83 118 156 199 251 307 366
#     4  11  24  41  62  91 123 162 206 257 310 370
#     4  10  22  36  58  88 122 154 204 248 316 364
#     4  10  20  37  61  87 120 159 206 256 310 376
#     4  10  22  40  63  89 127 164 210 264 313 383
#     4  10  21  39  59  86 115 157 203 252 307 371
#     4  10  21  38  62  91 124 165 209 259 318 377
#
# _framework density 19.259259
#
# number of rings (size 3 to 8) (size 9 to 14) (size 15 to 20)
#    0.000    1.846    1.538    1.846    2.154    4.308 
#    0.000    1.538    0.000    0.000    0.000    0.000 
#    0.000    0.000    0.000    0.000    0.000    0.000 
#
# Total GULP energy -289738.852224 kJ/mol
# GULP energy per Si atom -5571.901004 kJ/mol
# Density = 1.921542 g / cm^3
# Si number density = 19.259259 Si / 1000 Ang^3
#
#
#
# Elastic Constant Matrix: (Units=GPa)
#
#
# Indices 1 2 3 4 5 6 
#
# 1 32.3958 12.9767 -2.3560 0.0000 0.0000 0.0000
# 2 12.9767 90.8253 27.0025 0.0000 0.0000 0.0000
# 3 -2.3560 27.0025 75.4141 0.0000 0.0000 0.0000
# 4 0.0000 0.0000 0.0000 12.5570 0.0000 0.0000
# 5 0.0000 0.0000 0.0000 0.0000 50.8180 0.0000
# 6 0.0000 0.0000 0.0000 0.0000 0.0000 30.0035
#
#
#
# Elastic Compliance Matrix: (Units=1/GPa)
#
#
# Indices 1 2 3 4 5 6 
#
# 1 0.033368 -0.005682 0.003077 0.000000 0.000000 0.000000
# 2 -0.005682 0.013289 -0.004936 0.000000 0.000000 0.000000
# 3 0.003077 -0.004936 0.015124 0.000000 0.000000 0.000000
# 4 0.000000 0.000000 0.000000 0.079637 0.000000 0.000000
# 5 0.000000 0.000000 0.000000 0.000000 0.019678 0.000000
# 6 0.000000 0.000000 0.000000 0.000000 0.000000 0.033329
#
#
# Mechanical properties :
#
#
# Convention : Reuss Voigt Hill
#
# Bulk Modulus (GPa) = 21.41384 30.43131 25.92258
# Shear Modulus (GPa) = 22.21492 29.40984 25.81238
#
# Velocity S-wave (km/s) = 3.39996 3.91199 3.66493
# Velocity P-wave (km/s) = 5.15323 6.01997 5.60338
#
# Compressibility (1/GPa) = 0.04669876
#
# Stress axis : x y z
#
# Youngs Moduli (GPa) = 29.96877 75.24768 66.12196
#
# Poissons Ratio (x) = 0.42758 -0.20346
# Poissons Ratio (y) = 0.17029 0.32637
# Poissons Ratio (z) = -0.09221 0.37141
#
# Static dielectric constant tensor:
#      x y z
#    x 1.719040 0.000000 0.000000 
#    y 0.000000 1.647730 0.000000 
#    z 0.000000 0.000000 1.694380 
# 
# From -- ./inp_files/13796.got.cif
#   From: 2010.05.17/outbox.ucp.g08.bks.cvg/sg57_7_cif.got.tgz:13796.got - 2010.06.11 16:39:23.
