data_PCOD9440235
_publ_section_title
;
Structure prediction by ZEFSAII (Michael W. Deem and Ramdas Pophale) SiO2 
 PCOD9440235
Probable space group: P B C M
;
_chemical_formula_sum "Si O2"
_cell_formula_units_Z 40
_cell_length_a 11.285294
_cell_length_b 10.045414
_cell_length_c 16.578944
_cell_angle_alpha 90.000000
_cell_angle_beta 90.000000
_cell_angle_gamma 90.000000
_cell_volume 1879.479453
_symmetry_space_group_name_H-M "P B C M"
_symmetry_group_IT_number 57
_symmetry_cell_setting 'orthorhombic'
loop_
_space_group_symop_operation_xyz
x,y,z
-x,-y,1/2+z
x,1/2-y,-z
-x,1/2+y,1/2-z
-x,-y,-z
x,y,1/2-z
-x,1/2+y,z
x,1/2-y,1/2+z
loop_
_atom_site_type_symbol
_atom_site_label
_atom_site_fract_x
_atom_site_fract_y
_atom_site_fract_z
Si Si1 0.264487 0.065882 0.656620
Si Si2 0.735513 0.065882 0.656620
Si Si3 0.500000 0.124838 0.559122
Si Si4 0.861264 0.307409 0.589207
Si Si5 0.861264 0.692591 0.089207
O O1 0.283696 0.031980 0.750000
O O2 0.215154 0.936772 0.610200
O O3 0.384313 0.117171 0.614987
O O4 0.171597 0.186468 0.648082
O O5 0.716303 0.031980 0.750000
O O6 0.615687 0.117171 0.614987
O O7 0.828403 0.186468 0.648082
O O8 0.784846 0.936772 0.610200
O O9 0.500000 0.250000 0.500000
O O10 0.500000 0.000000 0.500000
O O11 0.836103 0.250000 0.500000
O O12 0.000000 0.341923 0.593571
O O13 0.836103 0.750000 0.000000
#
# Coordination Sequence:
#
# PCOD9440235 Si02
#       5
#     8   8   8   8   8
#     4  12  25  42  66  98 133 168 216 276 334 386
#     4  12  25  42  66  98 133 168 216 276 334 386
#     4  12  25  44  69  92 125 170 217 262 317 390
#     4  11  24  43  67  95 131 176 222 266 321 394
#     4  11  24  43  67  95 131 176 222 266 321 394
#
# _framework density 21.282489999999999
#
# number of rings (size 3 to 8) (size 9 to 14) (size 15 to 20)
#    0.000    0.400    0.000   10.200    0.000    8.000 
#    0.000    6.000    0.000    0.000    0.000    0.000 
#    0.000    0.000    0.000    0.000    0.000    0.000 
#
# Total GULP energy -224135.851240 kJ/mol
# GULP energy per Si atom -5603.396281 kJ/mol
# Density = 2.123405 g / cm^3
# Si number density = 21.282490 Si / 1000 Ang^3
#
#
#
# Elastic Constant Matrix: (Units=GPa)
#
#
# Indices 1 2 3 4 5 6 
#
# 1 129.8073 60.8567 85.9471 0.0000 0.0000 0.0000
# 2 60.8567 159.6604 50.3787 0.0000 0.0000 0.0000
# 3 85.9471 50.3787 143.7105 0.0000 0.0000 0.0000
# 4 0.0000 0.0000 0.0000 28.4911 0.0000 0.0000
# 5 0.0000 0.0000 0.0000 0.0000 -3.7363 0.0000
# 6 0.0000 0.0000 0.0000 0.0000 0.0000 33.7243
#
#
#
# Elastic Compliance Matrix: (Units=1/GPa)
#
#
# Indices 1 2 3 4 5 6 
#
# 1 0.013936 -0.003016 -0.007277 0.000000 0.000000 0.000000
# 2 -0.003016 0.007695 -0.000894 0.000000 0.000000 0.000000
# 3 -0.007277 -0.000894 0.011624 0.000000 0.000000 0.000000
# 4 0.000000 0.000000 0.000000 0.035099 0.000000 0.000000
# 5 0.000000 0.000000 0.000000 0.000000 -0.267646 0.000000
# 6 0.000000 0.000000 0.000000 0.000000 0.000000 0.029652
#
#
# Mechanical properties :
#
#
# Convention : Reuss Voigt Hill
#
# Bulk Modulus (GPa) = 91.90324 91.94923 91.92624
# Shear Modulus (GPa) = -34.80936 27.42888 -3.69024
#
# Velocity S-wave (km/s) = -4.04863 3.59388 -1.31822
# Velocity P-wave (km/s) = 4.62830 7.77941 6.40080
#
# Compressibility (1/GPa) = 0.01088101
#
# Stress axis : x y z
#
# Youngs Moduli (GPa) = 71.75698 129.95774 86.02829
#
# Poissons Ratio (x) = 0.39190 0.62606
# Poissons Ratio (y) = 0.21639 0.07691
# Poissons Ratio (z) = 0.52220 0.11618
#
# Static dielectric constant tensor:
#      x y z
#    x 1.787020 0.000000 0.000000 
#    y 0.000000 1.716600 0.000000 
#    z 0.000000 0.000000 1.762750 
# 
# From -- ./inp_files/21625.got.cif
#   From: 2010.05.17/outbox.cif.g08.bks.cpg/sg57_11_cif.got.tgz:21625.got - 2010.06.03 13:58:18.
