data_PCOD9440599
_publ_section_title
;
Structure prediction by ZEFSAII (Michael W. Deem and Ramdas Pophale) SiO2 
 PCOD9440599
Probable space group: P B C M
;
_chemical_formula_sum "Si O2"
_cell_formula_units_Z 40
_cell_length_a 24.000000
_cell_length_b 9.000000
_cell_length_c 9.000000
_cell_angle_alpha 90.000000
_cell_angle_beta 90.000000
_cell_angle_gamma 90.000000
_cell_volume 1944.000000
_symmetry_space_group_name_H-M "P B C M"
_symmetry_group_IT_number 57
_symmetry_cell_setting 'orthorhombic'
loop_
_space_group_symop_operation_xyz
x,y,z
-x,-y,1/2+z
x,1/2-y,-z
-x,1/2+y,1/2-z
-x,-y,-z
x,y,1/2-z
-x,1/2+y,z
x,1/2-y,1/2+z
loop_
_atom_site_type_symbol
_atom_site_label
_atom_site_fract_x
_atom_site_fract_y
_atom_site_fract_z
Si Si1 0.659667 0.590662 0.425364
Si Si2 0.872671 0.398242 0.918927
Si Si3 0.048151 0.094319 0.425168
Si Si4 0.551320 0.914837 0.429165
Si Si5 0.739723 0.102080 0.419263
O O1 0.660084 0.750000 0.500000
O O2 0.650782 0.595162 0.250000
O O3 0.608252 0.511690 0.508815
O O4 0.717990 0.522878 0.471950
O O5 0.893979 0.409271 0.750000
O O6 0.806226 0.393647 0.912666
O O7 0.893219 0.250000 0.000000
O O8 0.893191 0.529579 0.021541
O O9 0.042234 0.250000 0.500000
O O10 0.043469 0.096362 0.250000
O O11 0.000000 0.000000 0.500000
O O12 0.548786 0.750000 0.500000
O O13 0.550625 0.909905 0.250000
O O14 0.500000 0.000000 0.500000
O O15 0.719470 0.250000 0.500000
O O16 0.719155 0.085775 0.250000
#
# Coordination Sequence:
#
# PCOD9440599 Si02
#       5
#     8   8   8   8   8
#     4  11  22  38  59  84 115 152 192 236 287 342
#     4  10  21  39  62  88 119 154 193 237 288 341
#     4  12  25  42  63  88 119 154 195 239 288 342
#     4  11  22  39  60  85 115 149 190 236 288 343
#     4  10  21  38  60  87 118 153 193 238 286 340
#
# _framework density 20.576132000000001
#
# number of rings (size 3 to 8) (size 9 to 14) (size 15 to 20)
#    0.000    1.200    0.000    8.400    0.000    4.000 
#    0.000    4.000    0.000    0.000    0.000    0.000 
#    0.000    0.000    0.000    0.000    0.000    0.000 
#
# Total GULP energy -223066.728347 kJ/mol
# GULP energy per Si atom -5576.668209 kJ/mol
# Density = 2.052930 g / cm^3
# Si number density = 20.576132 Si / 1000 Ang^3
#
#
#
# Elastic Constant Matrix: (Units=GPa)
#
#
# Indices 1 2 3 4 5 6 
#
# 1 16.6454 26.9235 42.0819 0.0000 0.0000 0.0000
# 2 26.9235 85.5270 54.3990 0.0000 0.0000 0.0000
# 3 42.0819 54.3990 247.9800 0.0000 0.0000 0.0000
# 4 0.0000 0.0000 0.0000 28.5989 0.0000 0.0000
# 5 0.0000 0.0000 0.0000 0.0000 58.2727 0.0000
# 6 0.0000 0.0000 0.0000 0.0000 0.0000 39.0347
#
#
#
# Elastic Compliance Matrix: (Units=1/GPa)
#
#
# Indices 1 2 3 4 5 6 
#
# 1 0.190444 -0.045783 -0.022275 0.000000 0.000000 0.000000
# 2 -0.045783 0.024595 0.002374 0.000000 0.000000 0.000000
# 3 -0.022275 0.002374 0.007292 0.000000 0.000000 0.000000
# 4 0.000000 0.000000 0.000000 0.034966 0.000000 0.000000
# 5 0.000000 0.000000 0.000000 0.000000 0.017161 0.000000
# 6 0.000000 0.000000 0.000000 0.000000 0.000000 0.025618
#
#
# Mechanical properties :
#
#
# Convention : Reuss Voigt Hill
#
# Bulk Modulus (GPa) = 10.99353 66.32903 38.66128
# Shear Modulus (GPa) = 10.82803 40.29779 25.56291
#
# Velocity S-wave (km/s) = 2.29649 4.43026 3.52853
# Velocity P-wave (km/s) = 3.51941 7.64693 5.95239
#
# Compressibility (1/GPa) = 0.09096261
#
# Stress axis : x y z
#
# Youngs Moduli (GPa) = 5.25089 40.65944 137.14062
#
# Poissons Ratio (x) = 1.86152 3.05478
# Poissons Ratio (y) = 0.24040 -0.32559
# Poissons Ratio (z) = 0.11696 -0.09653
#
# Static dielectric constant tensor:
#      x y z
#    x 1.852680 0.000000 0.000000 
#    y 0.000000 1.582440 0.000000 
#    z 0.000000 0.000000 1.894550 
# 
# From -- ./inp_files/8869.got.cif
#   From: 2010.05.17/outbox.ucp.g08.bks.cvg/sg57_5_cif.got.tgz:8869.got - 2010.06.11 16:39:23.
