data_PCOD9440681
_publ_section_title
;
Structure prediction by ZEFSAII (Michael W. Deem and Ramdas Pophale) SiO2 
 PCOD9440681
Probable space group: P N N M
;
_chemical_formula_sum "Si O2"
_cell_formula_units_Z 28
_cell_length_a 7.154643
_cell_length_b 5.089616
_cell_length_c 31.791554
_cell_angle_alpha 90.000000
_cell_angle_beta 90.000000
_cell_angle_gamma 90.000000
_cell_volume 1157.669903
_symmetry_space_group_name_H-M "P N N M"
_symmetry_group_IT_number 58
_symmetry_cell_setting 'orthorhombic'
loop_
_space_group_symop_operation_xyz
x,y,z
-x,-y,z
1/2+x,1/2-y,1/2-z
1/2-x,1/2+y,1/2-z
-x,-y,-z
x,y,-z
1/2-x,1/2+y,1/2+z
1/2+x,1/2-y,1/2+z
loop_
_atom_site_type_symbol
_atom_site_label
_atom_site_fract_x
_atom_site_fract_y
_atom_site_fract_z
Si Si1 0.360780 0.754830 0.500000
Si Si2 0.725362 0.039125 0.586423
Si Si3 0.272280 0.466313 0.368790
Si Si4 0.795381 0.123224 0.224779
O O1 0.500000 0.500000 0.500000
O O2 0.243976 0.809079 0.542382
O O3 0.500000 0.000000 0.500000
O O4 0.793410 0.240011 0.621850
O O5 0.500000 0.000000 0.589447
O O6 0.790836 0.744991 0.596177
O O7 0.500000 0.500000 0.371150
O O8 0.219155 0.367898 0.322611
O O9 0.697722 0.907663 0.254297
O O10 0.000000 0.000000 0.220848
#
# Coordination Sequence:
#
# PCOD9440681 Si02
#       4
#     4   8   8   8
#     4  10  16  22  34  56  86 124 165 202 241 294
#     4   9  15  24  37  57  86 123 163 200 239 298
#     4   9  17  28  43  62  89 126 166 203 248 307
#     4  11  22  37  56  79 106 141 181 224 270 320
#
# _framework density 24.186512
#
# number of rings (size 3 to 8) (size 9 to 14) (size 15 to 20)
#    0.000    2.286    0.000    6.857    0.000    4.571 
#    0.000    0.000    0.000    0.000    0.000    0.000 
#    0.000    0.000    0.000   90.000    0.000  100.286 
#
# Total GULP energy -156218.475657 kJ/mol
# GULP energy per Si atom -5579.231273 kJ/mol
# Density = 2.413146 g / cm^3
# Si number density = 24.186512 Si / 1000 Ang^3
#
#
#
# Elastic Constant Matrix: (Units=GPa)
#
#
# Indices 1 2 3 4 5 6 
#
# 1 63.7953 -3.1860 -2.1644 0.0000 0.0000 0.0000
# 2 -3.1860 165.9694 64.6685 0.0000 0.0000 0.0000
# 3 -2.1644 64.6685 143.2207 0.0000 0.0000 0.0000
# 4 0.0000 0.0000 0.0000 41.0967 0.0000 0.0000
# 5 0.0000 0.0000 0.0000 0.0000 19.3468 0.0000
# 6 0.0000 0.0000 0.0000 0.0000 0.0000 5.7392
#
#
#
# Elastic Compliance Matrix: (Units=1/GPa)
#
#
# Indices 1 2 3 4 5 6 
#
# 1 0.015692 0.000253 0.000123 0.000000 0.000000 0.000000
# 2 0.000253 0.007316 -0.003299 0.000000 0.000000 0.000000
# 3 0.000123 -0.003299 0.008474 0.000000 0.000000 0.000000
# 4 0.000000 0.000000 0.000000 0.024333 0.000000 0.000000
# 5 0.000000 0.000000 0.000000 0.000000 0.051688 0.000000
# 6 0.000000 0.000000 0.000000 0.000000 0.000000 0.174242
#
#
# Mechanical properties :
#
#
# Convention : Reuss Voigt Hill
#
# Bulk Modulus (GPa) = 39.00928 54.62462 46.81695
# Shear Modulus (GPa) = 16.88416 34.14769 25.51592
#
# Velocity S-wave (km/s) = 2.64499 3.76153 3.25155
# Velocity P-wave (km/s) = 5.04891 6.44199 5.78752
#
# Compressibility (1/GPa) = 0.02563493
#
# Stress axis : x y z
#
# Youngs Moduli (GPa) = 63.72692 136.69311 118.00979
#
# Poissons Ratio (x) = -0.03464 -0.01448
# Poissons Ratio (y) = -0.01615 0.38936
# Poissons Ratio (z) = -0.00782 0.45101
#
# Static dielectric constant tensor:
#      x y z
#    x 2.087470 0.000000 0.000000 
#    y 0.000000 1.837960 0.000000 
#    z 0.000000 0.000000 2.019890 
# 
# From -- ./inp_files/32571.got.cif
#   From: 2010.05.17/outbox.cif.g08.bks.cpg/sg58_17_cif.got.tgz:32571.got - 2010.06.03 14:20:14.
