data_PCOD9440621
_publ_section_title
;
Structure prediction by ZEFSAII (Michael W. Deem and Ramdas Pophale) SiO2 
 PCOD9440621
Probable space group: P B C M
;
_chemical_formula_sum "Si O2"
_cell_formula_units_Z 56
_cell_length_a 6.000000
_cell_length_b 15.000000
_cell_length_c 30.000000
_cell_angle_alpha 90.000000
_cell_angle_beta 90.000000
_cell_angle_gamma 90.000000
_cell_volume 2700.000000
_symmetry_space_group_name_H-M "P B C M"
_symmetry_group_IT_number 57
_symmetry_cell_setting 'orthorhombic'
loop_
_space_group_symop_operation_xyz
x,y,z
-x,-y,1/2+z
x,1/2-y,-z
-x,1/2+y,1/2-z
-x,-y,-z
x,y,1/2-z
-x,1/2+y,z
x,1/2-y,1/2+z
loop_
_atom_site_type_symbol
_atom_site_label
_atom_site_fract_x
_atom_site_fract_y
_atom_site_fract_z
Si Si1 0.667204 0.987427 0.040785
Si Si2 0.662045 0.717582 0.542568
Si Si3 0.238438 0.817779 0.697650
Si Si4 0.737396 0.911943 0.697602
Si Si5 0.292229 0.514339 0.888396
Si Si6 0.289381 0.783325 0.387099
Si Si7 0.006124 0.633866 0.063879
O O1 0.741600 0.884452 0.039438
O O2 0.531753 0.997429 0.087345
O O3 0.843887 0.066210 0.035700
O O4 0.500000 0.000000 0.000000
O O5 0.512178 0.750000 0.500000
O O6 0.529976 0.724081 0.589157
O O7 0.846603 0.794112 0.541411
O O8 0.231892 0.797462 0.750000
O O9 0.487616 0.865227 0.690386
O O10 0.264690 0.733245 0.665280
O O11 0.987076 0.864076 0.688864
O O12 0.744227 0.933245 0.750000
O O13 0.717534 0.994767 0.663966
O O14 0.215025 0.615609 0.898394
O O15 0.141961 0.436402 0.908881
O O16 0.158652 0.699059 0.406959
#
# Coordination Sequence:
#
# PCOD9440621 Si02
#       7
#     8   8   8   8   8   8   8
#     4  11  25  44  65  95 134 176 230 290 354 422
#     4  11  25  42  64  96 128 175 231 286 352 423
#     4  10  21  41  70 100 137 181 231 289 356 425
#     4  10  21  41  69 101 137 182 232 288 357 426
#     4  11  24  40  64  96 133 181 226 286 349 421
#     4  11  24  41  64  94 135 176 229 285 349 417
#     4  12  22  41  66  89 129 174 226 283 345 417
#
# _framework density 20.740741
#
# number of rings (size 3 to 8) (size 9 to 14) (size 15 to 20)
#    0.000    1.143    1.429    5.143    0.000    5.714 
#    0.000    0.000    0.000    5.143    0.000    0.000 
#    0.000    0.000    0.000    0.000    0.000    0.000 
#
# Total GULP energy -311869.749316 kJ/mol
# GULP energy per Si atom -5569.102666 kJ/mol
# Density = 2.069353 g / cm^3
# Si number density = 20.740741 Si / 1000 Ang^3
#
#
#
# Elastic Constant Matrix: (Units=GPa)
#
#
# Indices 1 2 3 4 5 6 
#
# 1 103.8600 66.1706 33.5098 0.0000 0.0000 0.0000
# 2 66.1706 186.3967 54.2198 0.0000 0.0000 0.0000
# 3 33.5098 54.2198 80.8223 0.0000 0.0000 0.0000
# 4 0.0000 0.0000 0.0000 38.5305 0.0000 0.0000
# 5 0.0000 0.0000 0.0000 0.0000 224.1366 0.0000
# 6 0.0000 0.0000 0.0000 0.0000 0.0000 -8.2514
#
#
#
# Elastic Compliance Matrix: (Units=1/GPa)
#
#
# Indices 1 2 3 4 5 6 
#
# 1 0.012946 -0.003770 -0.002838 0.000000 0.000000 0.000000
# 2 -0.003770 0.007764 -0.003645 0.000000 0.000000 0.000000
# 3 -0.002838 -0.003645 0.015995 0.000000 0.000000 0.000000
# 4 0.000000 0.000000 0.000000 0.025953 0.000000 0.000000
# 5 0.000000 0.000000 0.000000 0.000000 0.004462 0.000000
# 6 0.000000 0.000000 0.000000 0.000000 0.000000 -0.121192
#
#
# Mechanical properties :
#
#
# Convention : Reuss Voigt Hill
#
# Bulk Modulus (GPa) = 61.73818 75.43104 68.58461
# Shear Modulus (GPa) = -177.52067 65.36173 -56.07947
#
# Velocity S-wave (km/s) = -9.26154 5.61980 -5.20548
# Velocity P-wave (km/s) = 9.19440 8.86324 1.72916
#
# Compressibility (1/GPa) = 0.01619743
#
# Stress axis : x y z
#
# Youngs Moduli (GPa) = 77.24275 128.80576 62.51985
#
# Poissons Ratio (x) = 0.48563 0.17745
# Poissons Ratio (y) = 0.29122 0.22789
# Poissons Ratio (z) = 0.21924 0.46950
#
# Static dielectric constant tensor:
#      x y z
#    x 1.871350 0.000000 0.000000 
#    y 0.000000 1.705120 0.000000 
#    z 0.000000 0.000000 1.818850 
# 
# From -- ./inp_files/29160.got.cif
#   From: 2010.05.17/outbox.ucp.g08.bks.cvg/sg57_15_cif.got.tgz:29160.got - 2010.06.11 16:39:23.
