data_PCOD9440982
_publ_section_title
;
Structure prediction by ZEFSAII (Michael W. Deem and Ramdas Pophale) SiO2 
 PCOD9440982
Probable space group: P N N M
;
_chemical_formula_sum "Si O2"
_cell_formula_units_Z 40
_cell_length_a 14.509633
_cell_length_b 13.160654
_cell_length_c 8.518146
_cell_angle_alpha 90.000000
_cell_angle_beta 90.000000
_cell_angle_gamma 90.000000
_cell_volume 1626.593299
_symmetry_space_group_name_H-M "P N N M"
_symmetry_group_IT_number 58
_symmetry_cell_setting 'orthorhombic'
loop_
_space_group_symop_operation_xyz
x,y,z
-x,-y,z
1/2+x,1/2-y,1/2-z
1/2-x,1/2+y,1/2-z
-x,-y,-z
x,y,-z
1/2-x,1/2+y,1/2+z
1/2+x,1/2-y,1/2+z
loop_
_atom_site_type_symbol
_atom_site_label
_atom_site_fract_x
_atom_site_fract_y
_atom_site_fract_z
Si Si1 0.547976 0.110188 0.317349
Si Si2 0.396357 0.575889 0.816095
Si Si3 0.271960 0.969121 0.819758
Si Si4 0.283152 0.177854 0.681547
Si Si5 0.936861 0.202115 0.685685
O O1 0.537673 0.138212 0.500000
O O2 0.496250 0.195583 0.217390
O O3 0.500000 0.000000 0.294674
O O4 0.655830 0.096884 0.277158
O O5 0.331861 0.489918 0.740691
O O6 0.327302 0.673845 0.805615
O O7 0.495235 0.611946 0.756803
O O8 0.404925 0.552498 0.000000
O O9 0.310353 0.084982 0.795349
O O10 0.273207 0.938471 0.000000
O O11 0.304518 0.150908 0.500000
O O12 0.340436 0.275521 0.728762
O O13 0.921966 0.189556 0.500000
#
# Coordination Sequence:
#
# PCOD9440982 Si02
#       5
#     8   8   8   8   8
#     4  11  20  29  43  66  97 128 151 185 237 284
#     4   8  18  33  45  63  95 125 152 190 234 274
#     4  10  18  29  46  64  88 122 156 188 222 271
#     4   9  17  31  45  63  93 125 150 186 233 271
#     4  11  20  30  48  73  95 123 160 194 227 276
#
# _framework density 24.591273000000001
#
# number of rings (size 3 to 8) (size 9 to 14) (size 15 to 20)
#    1.200    1.000    2.000    3.000    0.000    2.400 
#    0.000    0.000    0.000    0.000    0.000    1.400 
#    0.000   11.200    0.000    0.000    0.000    0.000 
#
# Total GULP energy -223381.936897 kJ/mol
# GULP energy per Si atom -5584.548422 kJ/mol
# Density = 2.453530 g / cm^3
# Si number density = 24.591273 Si / 1000 Ang^3
#
#
#
# Elastic Constant Matrix: (Units=GPa)
#
#
# Indices 1 2 3 4 5 6 
#
# 1 190.5755 25.6265 28.8838 0.0000 0.0000 0.0000
# 2 25.6265 92.4516 -2.0424 0.0000 0.0000 0.0000
# 3 28.8838 -2.0424 45.2366 0.0000 0.0000 0.0000
# 4 0.0000 0.0000 0.0000 -4.2417 0.0000 0.0000
# 5 0.0000 0.0000 0.0000 0.0000 35.0055 0.0000
# 6 0.0000 0.0000 0.0000 0.0000 0.0000 43.1296
#
#
#
# Elastic Compliance Matrix: (Units=1/GPa)
#
#
# Indices 1 2 3 4 5 6 
#
# 1 0.006087 -0.001775 -0.003967 0.000000 0.000000 0.000000
# 2 -0.001775 0.011345 0.001645 0.000000 0.000000 0.000000
# 3 -0.003967 0.001645 0.024713 0.000000 0.000000 0.000000
# 4 0.000000 0.000000 0.000000 -0.235754 0.000000 0.000000
# 5 0.000000 0.000000 0.000000 0.000000 0.028567 0.000000
# 6 0.000000 0.000000 0.000000 0.000000 0.000000 0.023186
#
#
# Mechanical properties :
#
#
# Convention : Reuss Voigt Hill
#
# Bulk Modulus (GPa) = 29.45281 48.13327 38.79304
# Shear Modulus (GPa) = -40.86782 33.16505 -3.85138
#
# Velocity S-wave (km/s) = -4.08104 3.67638 -1.25282
# Velocity P-wave (km/s) = 3.19431 6.13489 3.70360
#
# Compressibility (1/GPa) = 0.03395261
#
# Stress axis : x y z
#
# Youngs Moduli (GPa) = 164.28057 88.14601 40.46437
#
# Poissons Ratio (x) = 0.15645 0.16051
# Poissons Ratio (y) = 0.29158 -0.06658
# Poissons Ratio (z) = 0.65167 -0.14504
#
# Static dielectric constant tensor:
#      x y z
#    x 1.995830 0.000000 0.000000 
#    y 0.000000 2.067030 0.000000 
#    z 0.000000 0.000000 1.814400 
# 
# From -- ./inp_files/5554.got.cif
#   From: 2010.05.17/outbox.cif.g08.bks.cpg/sg58_3_cif.got.tgz:5554.got - 2010.06.03 14:20:14.
