data_PCOD9440309
_publ_section_title
;
Structure prediction by ZEFSAII (Michael W. Deem and Ramdas Pophale) SiO2 
 PCOD9440309
Probable space group: P B C M
;
_chemical_formula_sum "Si O2"
_cell_formula_units_Z 28
_cell_length_a 8.519920
_cell_length_b 8.883532
_cell_length_c 13.502537
_cell_angle_alpha 90.000000
_cell_angle_beta 90.000000
_cell_angle_gamma 90.000000
_cell_volume 1021.966274
_symmetry_space_group_name_H-M "P B C M"
_symmetry_group_IT_number 57
_symmetry_cell_setting 'orthorhombic'
loop_
_space_group_symop_operation_xyz
x,y,z
-x,-y,1/2+z
x,1/2-y,-z
-x,1/2+y,1/2-z
-x,-y,-z
x,y,1/2-z
-x,1/2+y,z
x,1/2-y,1/2+z
loop_
_atom_site_type_symbol
_atom_site_label
_atom_site_fract_x
_atom_site_fract_y
_atom_site_fract_z
Si Si1 0.248415 0.947945 0.250000
Si Si2 0.050763 0.721917 0.138251
Si Si3 0.244038 0.250000 0.500000
Si Si4 0.525307 0.797837 0.750000
Si Si5 0.684309 0.495533 0.633113
O O1 0.146129 0.879001 0.157775
O O2 0.305279 0.119686 0.250000
O O3 0.415506 0.853497 0.250000
O O4 0.029093 0.666897 0.250000
O O5 0.168065 0.599115 0.093724
O O6 0.886913 0.724555 0.085101
O O7 0.346249 0.375799 0.445268
O O8 0.452302 0.877847 0.847632
O O9 0.714754 0.551481 0.750000
#
# Coordination Sequence:
#
# PCOD9440309 Si02
#       5
#     4   8   4   4   8
#     4   8  16  35  54  70  98 135 171 208 247 292
#     4   8  18  32  48  72 103 131 160 207 251 291
#     4  12  16  28  54  76 100 128 164 194 256 316
#     4   8  16  35  54  70  98 135 171 208 247 292
#     4   8  18  32  48  72 103 131 160 207 251 291
#
# _framework density 27.398164999999999
#
# number of rings (size 3 to 8) (size 9 to 14) (size 15 to 20)
#    1.714    1.714    0.000    1.714    0.000    0.000 
#    0.000    7.143    0.000    6.857    0.000    0.000 
#    0.000    0.000    0.000    0.000    0.000    0.000 
#
# Total GULP energy -155891.165469 kJ/mol
# GULP energy per Si atom -5567.541624 kJ/mol
# Density = 2.733581 g / cm^3
# Si number density = 27.398165 Si / 1000 Ang^3
#
#
#
# Elastic Constant Matrix: (Units=GPa)
#
#
# Indices 1 2 3 4 5 6 
#
# 1 79.6672 24.0956 25.9356 0.0000 0.0000 0.0000
# 2 24.0956 89.4793 4.6582 0.0000 0.0000 0.0000
# 3 25.9356 4.6582 67.4146 0.0000 0.0000 0.0000
# 4 0.0000 0.0000 0.0000 37.7374 0.0000 0.0000
# 5 0.0000 0.0000 0.0000 0.0000 26.8115 0.0000
# 6 0.0000 0.0000 0.0000 0.0000 0.0000 38.4314
#
#
#
# Elastic Compliance Matrix: (Units=1/GPa)
#
#
# Indices 1 2 3 4 5 6 
#
# 1 0.015598 -0.003902 -0.005731 0.000000 0.000000 0.000000
# 2 -0.003902 0.012192 0.000659 0.000000 0.000000 0.000000
# 3 -0.005731 0.000659 0.016993 0.000000 0.000000 0.000000
# 4 0.000000 0.000000 0.000000 0.026499 0.000000 0.000000
# 5 0.000000 0.000000 0.000000 0.000000 0.037297 0.000000
# 6 0.000000 0.000000 0.000000 0.000000 0.000000 0.026020
#
#
# Mechanical properties :
#
#
# Convention : Reuss Voigt Hill
#
# Bulk Modulus (GPa) = 37.26579 38.43777 37.85178
# Shear Modulus (GPa) = 30.96088 32.72084 31.84086
#
# Velocity S-wave (km/s) = 3.36525 3.45957 3.41273
# Velocity P-wave (km/s) = 5.36012 5.47887 5.41982
#
# Compressibility (1/GPa) = 0.02683426
#
# Stress axis : x y z
#
# Youngs Moduli (GPa) = 64.10991 82.01933 58.84774
#
# Poissons Ratio (x) = 0.32004 0.33727
# Poissons Ratio (y) = 0.25016 -0.03876
# Poissons Ratio (z) = 0.36743 -0.05403
#
# Static dielectric constant tensor:
#      x y z
#    x 2.206070 0.000000 0.000000 
#    y 0.000000 2.476640 0.000000 
#    z 0.000000 0.000000 2.174340 
# 
# From -- ./inp_files/17294.got.cif
#   From: 2010.05.17/outbox.cif.g08.bks.cpg/sg57_9_cif.got.tgz:17294.got - 2010.06.03 13:58:18.
