data_PCOD9440758
_publ_section_title
;
Structure prediction by ZEFSAII (Michael W. Deem and Ramdas Pophale) SiO2 
 PCOD9440758
Probable space group: P N N M
;
_chemical_formula_sum "Si O2"
_cell_formula_units_Z 64
_cell_length_a 18.874019
_cell_length_b 15.793815
_cell_length_c 9.203147
_cell_angle_alpha 90.000000
_cell_angle_beta 90.000000
_cell_angle_gamma 90.000000
_cell_volume 2743.391530
_symmetry_space_group_name_H-M "P N N M"
_symmetry_group_IT_number 58
_symmetry_cell_setting 'orthorhombic'
loop_
_space_group_symop_operation_xyz
x,y,z
-x,-y,z
1/2+x,1/2-y,1/2-z
1/2-x,1/2+y,1/2-z
-x,-y,-z
x,y,-z
1/2-x,1/2+y,1/2+z
1/2+x,1/2-y,1/2+z
loop_
_atom_site_type_symbol
_atom_site_label
_atom_site_fract_x
_atom_site_fract_y
_atom_site_fract_z
Si Si1 0.211506 0.831448 0.331328
Si Si2 0.576789 0.567589 0.831078
Si Si3 0.537615 0.833262 0.334863
Si Si4 0.546620 0.345148 0.330652
Si Si5 0.203562 0.002221 0.175060
Si Si6 0.336970 0.094857 0.831105
Si Si7 0.083647 0.414359 0.337544
Si Si8 0.325875 0.739969 0.831434
O O1 0.233111 0.829086 0.500000
O O2 0.127014 0.847689 0.327088
O O3 0.234664 0.918118 0.251169
O O4 0.250764 0.758020 0.245017
O O5 0.502269 0.591843 0.762678
O O6 0.623794 0.502620 0.735671
O O7 0.573525 0.542312 0.000000
O O8 0.553911 0.853497 0.500000
O O9 0.499517 0.742173 0.328973
O O10 0.479796 0.898499 0.272686
O O11 0.610483 0.842333 0.248615
O O12 0.554779 0.370360 0.500000
O O13 0.621158 0.319925 0.258364
O O14 0.256712 0.076562 0.219411
O O15 0.204235 0.994980 0.000000
O O16 0.374826 0.002193 0.820973
O O17 0.332959 0.119695 0.000000
O O18 0.052128 0.413657 0.500000
O O19 0.134173 0.331849 0.329386
O O20 0.319063 0.714112 0.000000
#
# Coordination Sequence:
#
# PCOD9440758 Si02
#       8
#     8   8   8   8   8   8   8   8
#     4   9  17  27  41  62  82 100 132 171 209 247
#     4   9  18  30  45  63  79 102 137 173 211 253
#     4  10  21  29  35  53  76 104 138 171 207 238
#     4  10  20  32  43  57  82 113 143 175 211 250
#     4   9  16  28  44  60  76  99 133 168 207 246
#     4  10  18  28  40  55  75 103 136 169 204 243
#     4   9  16  27  38  50  71 103 139 170 200 238
#     4  10  17  27  43  60  81 108 139 174 210 246
#
# _framework density 23.328789
#
# number of rings (size 3 to 8) (size 9 to 14) (size 15 to 20)
#    0.750    1.750    1.250    2.250    0.000    5.000 
#    0.000    0.000    0.000    0.000    0.000    0.000 
#    0.000    0.000    0.000    1.125    0.000   21.000 
#
# Total GULP energy -357557.018340 kJ/mol
# GULP energy per Si atom -5586.828412 kJ/mol
# Density = 2.327569 g / cm^3
# Si number density = 23.328789 Si / 1000 Ang^3
#
#
#
# Elastic Constant Matrix: (Units=GPa)
#
#
# Indices 1 2 3 4 5 6 
#
# 1 141.0309 9.5658 67.0815 0.0000 0.0000 0.0000
# 2 9.5658 79.4260 24.4944 0.0000 0.0000 0.0000
# 3 67.0815 24.4944 118.5872 0.0000 0.0000 0.0000
# 4 0.0000 0.0000 0.0000 6.3676 0.0000 0.0000
# 5 0.0000 0.0000 0.0000 0.0000 -2.8270 0.0000
# 6 0.0000 0.0000 0.0000 0.0000 0.0000 45.6402
#
#
#
# Elastic Compliance Matrix: (Units=1/GPa)
#
#
# Indices 1 2 3 4 5 6 
#
# 1 0.009724 0.000561 -0.005617 0.000000 0.000000 0.000000
# 2 0.000561 0.013479 -0.003101 0.000000 0.000000 0.000000
# 3 -0.005617 -0.003101 0.012250 0.000000 0.000000 0.000000
# 4 0.000000 0.000000 0.000000 0.157045 0.000000 0.000000
# 5 0.000000 0.000000 0.000000 0.000000 -0.353726 0.000000
# 6 0.000000 0.000000 0.000000 0.000000 0.000000 0.021911
#
#
# Mechanical properties :
#
#
# Convention : Reuss Voigt Hill
#
# Bulk Modulus (GPa) = 52.24770 60.14750 56.19760
# Shear Modulus (GPa) = -42.87314 25.69631 -8.58841
#
# Velocity S-wave (km/s) = -4.29158 3.32246 -1.92080
# Velocity P-wave (km/s) = 1.45329 6.36843 4.38434
#
# Compressibility (1/GPa) = 0.01913960
#
# Stress axis : x y z
#
# Youngs Moduli (GPa) = 102.83724 74.18814 81.63038
#
# Poissons Ratio (x) = -0.04162 0.45848
# Poissons Ratio (y) = -0.05769 0.25317
# Poissons Ratio (z) = 0.57759 0.23009
#
# Static dielectric constant tensor:
#      x y z
#    x 1.871750 0.000000 0.000000 
#    y 0.000000 1.936630 0.000000 
#    z 0.000000 0.000000 1.791890 
# 
# From -- ./inp_files/9515.got.cif
#   From: 2010.05.17/outbox.cif.g08.bks.cpg/sg58_5_cif.got.tgz:9515.got - 2010.06.03 14:20:14.
