data_PCOD9440520
_publ_section_title
;
Structure prediction by ZEFSAII (Michael W. Deem and Ramdas Pophale) SiO2 
 PCOD9440520
Probable space group: P B C M
;
_chemical_formula_sum "Si O2"
_cell_formula_units_Z 56
_cell_length_a 21.000000
_cell_length_b 9.000000
_cell_length_c 15.000000
_cell_angle_alpha 90.000000
_cell_angle_beta 90.000000
_cell_angle_gamma 90.000000
_cell_volume 2835.000000
_symmetry_space_group_name_H-M "P B C M"
_symmetry_group_IT_number 57
_symmetry_cell_setting 'orthorhombic'
loop_
_space_group_symop_operation_xyz
x,y,z
-x,-y,1/2+z
x,1/2-y,-z
-x,1/2+y,1/2-z
-x,-y,-z
x,y,1/2-z
-x,1/2+y,z
x,1/2-y,1/2+z
loop_
_atom_site_type_symbol
_atom_site_label
_atom_site_fract_x
_atom_site_fract_y
_atom_site_fract_z
Si Si1 0.347136 0.456666 0.852351
Si Si2 0.694955 0.421625 0.526271
Si Si3 0.529927 0.382498 0.432871
Si Si4 0.010144 0.449306 0.250000
Si Si5 0.394704 0.120389 0.851298
Si Si6 0.945869 0.595496 0.550952
Si Si7 0.094891 0.736751 0.250000
Si Si8 0.832970 0.373901 0.923841
O O1 0.329257 0.490135 0.750000
O O2 0.410837 0.549850 0.879074
O O3 0.362267 0.281829 0.859581
O O4 0.298074 0.498628 0.930203
O O5 0.683114 0.250000 0.500000
O O6 0.638952 0.505789 0.580501
O O7 0.759995 0.426695 0.582683
O O8 0.546837 0.250000 0.500000
O O9 0.500000 0.500000 0.500000
O O10 0.469369 0.348974 0.370259
O O11 0.936196 0.400204 0.250000
O O12 0.036268 0.387408 0.155552
O O13 0.035049 0.619875 0.250000
O O14 0.387502 0.065242 0.750000
O O15 0.941746 0.750000 0.500000
O O16 0.879878 0.506491 0.548977
O O17 0.000000 0.500000 0.500000
O O18 0.137233 0.698838 0.335597
O O19 0.833962 0.250000 0.000000
#
# Coordination Sequence:
#
# PCOD9440520 Si02
#       8
#     8   8   8   4   8   8   4   8
#     4  11  24  42  64  93 127 167 218 274 333 392
#     4  11  24  43  63  88 124 168 220 268 321 385
#     4  12  21  39  64  93 128 165 206 269 333 396
#     4  10  20  34  58  94 124 156 200 244 304 366
#     4  11  24  41  65  92 125 170 214 264 333 396
#     4  11  21  36  62  91 125 163 201 252 313 373
#     4  10  20  38  64  92 132 164 202 258 306 384
#     4  10  23  41  61  90 123 167 211 260 315 375
#
# _framework density 19.753086
#
# number of rings (size 3 to 8) (size 9 to 14) (size 15 to 20)
#    0.000    1.143    2.857    4.286    1.000    1.714 
#    3.857    0.000    0.000    0.000    0.000    0.000 
#    0.000    0.000    0.000    0.000    0.000    0.000 
#
# Total GULP energy -312683.370128 kJ/mol
# GULP energy per Si atom -5583.631609 kJ/mol
# Density = 1.970813 g / cm^3
# Si number density = 19.753086 Si / 1000 Ang^3
#
#
#
# Elastic Constant Matrix: (Units=GPa)
#
#
# Indices 1 2 3 4 5 6 
#
# 1 106.9647 21.5153 19.7255 0.0000 0.0000 0.0000
# 2 21.5153 66.5133 33.2649 0.0000 0.0000 0.0000
# 3 19.7255 33.2649 121.2000 0.0000 0.0000 0.0000
# 4 0.0000 0.0000 0.0000 25.2347 0.0000 0.0000
# 5 0.0000 0.0000 0.0000 0.0000 26.7900 0.0000
# 6 0.0000 0.0000 0.0000 0.0000 0.0000 25.4517
#
#
#
# Elastic Compliance Matrix: (Units=1/GPa)
#
#
# Indices 1 2 3 4 5 6 
#
# 1 0.010077 -0.002828 -0.000864 0.000000 0.000000 0.000000
# 2 -0.002828 0.018220 -0.004541 0.000000 0.000000 0.000000
# 3 -0.000864 -0.004541 0.009638 0.000000 0.000000 0.000000
# 4 0.000000 0.000000 0.000000 0.039628 0.000000 0.000000
# 5 0.000000 0.000000 0.000000 0.000000 0.037327 0.000000
# 6 0.000000 0.000000 0.000000 0.000000 0.000000 0.039290
#
#
# Mechanical properties :
#
#
# Convention : Reuss Voigt Hill
#
# Bulk Modulus (GPa) = 46.57546 49.29882 47.93714
# Shear Modulus (GPa) = 28.12131 30.17342 29.14736
#
# Velocity S-wave (km/s) = 3.77721 3.91260 3.84550
# Velocity P-wave (km/s) = 6.53093 6.73966 6.63612
#
# Compressibility (1/GPa) = 0.02147053
#
# Stress axis : x y z
#
# Youngs Moduli (GPa) = 99.23634 54.88459 103.75977
#
# Poissons Ratio (x) = 0.15519 0.08965
# Poissons Ratio (y) = 0.28059 0.47113
# Poissons Ratio (z) = 0.08574 0.24921
#
# Static dielectric constant tensor:
#      x y z
#    x 1.730800 0.000000 0.000000 
#    y 0.000000 1.687840 0.000000 
#    z 0.000000 0.000000 1.696450 
# 
# From -- ./inp_files/19399.got.cif
#   From: 2010.05.17/outbox.ucp.g08.bks.cvg/sg57_10_cif.got.tgz:19399.got - 2010.06.11 16:39:23.
