data_PCOD9440143
_publ_section_title
;
Structure prediction by ZEFSAII (Michael W. Deem and Ramdas Pophale) SiO2 
 PCOD9440143
Probable space group: P B C M
;
_chemical_formula_sum "Si O2"
_cell_formula_units_Z 64
_cell_length_a 19.296858
_cell_length_b 8.072942
_cell_length_c 18.534283
_cell_angle_alpha 90.000000
_cell_angle_beta 90.000000
_cell_angle_gamma 90.000000
_cell_volume 2887.315374
_symmetry_space_group_name_H-M "P B C M"
_symmetry_group_IT_number 57
_symmetry_cell_setting 'orthorhombic'
loop_
_space_group_symop_operation_xyz
x,y,z
-x,-y,1/2+z
x,1/2-y,-z
-x,1/2+y,1/2-z
-x,-y,-z
x,y,1/2-z
-x,1/2+y,z
x,1/2-y,1/2+z
loop_
_atom_site_type_symbol
_atom_site_label
_atom_site_fract_x
_atom_site_fract_y
_atom_site_fract_z
Si Si1 0.272067 0.327304 0.922322
Si Si2 0.473994 0.995803 0.166218
Si Si3 0.607804 0.840580 0.333073
Si Si4 0.157249 0.319774 0.165397
Si Si5 0.761012 0.168838 0.334672
Si Si6 0.106202 0.649832 0.836688
Si Si7 0.355055 0.826276 0.077497
Si Si8 0.024792 0.988794 0.837306
O O1 0.328035 0.209332 0.882040
O O2 0.201300 0.317036 0.876454
O O3 0.307785 0.506653 0.928116
O O4 0.258059 0.250000 0.000000
O O5 0.471485 0.940407 0.250000
O O6 0.554288 0.983069 0.143714
O O7 0.424081 0.883838 0.118110
O O8 0.441812 0.178362 0.164887
O O9 0.631091 0.867619 0.250000
O O10 0.152175 0.274785 0.250000
O O11 0.202606 0.489863 0.160376
O O12 0.081370 0.374896 0.138502
O O13 0.748223 0.201021 0.250000
O O14 0.818268 0.299983 0.363587
O O15 0.690789 0.196341 0.377237
O O16 0.114689 0.631993 0.750000
O O17 0.053933 0.508942 0.863584
O O18 0.059184 0.812572 0.850126
O O19 0.369738 0.750000 0.000000
O O20 0.022161 0.006954 0.750000
#
# Coordination Sequence:
#
# PCOD9440143 Si02
#       8
#     8   8   8   8   8   8   8   8
#     4  11  23  37  53  75 105 139 176 216 257 304
#     4   9  19  36  57  80 104 131 166 208 253 303
#     4   9  19  36  57  80 104 131 166 208 253 303
#     4   9  18  33  53  77 105 137 173 213 258 308
#     4   9  18  33  53  77 105 137 173 213 258 308
#     4   8  14  25  43  70 102 132 164 205 252 302
#     4  11  23  37  53  75 105 139 176 216 257 304
#     4   8  14  25  43  70 102 132 164 205 252 302
#
# _framework density 22.165918999999999
#
# number of rings (size 3 to 8) (size 9 to 14) (size 15 to 20)
#    0.000    2.750    0.000    3.000    0.000    5.000 
#    0.000    7.500    0.000    0.750    0.000    5.250 
#    0.000    0.000    0.000    0.000    0.000    0.000 
#
# Total GULP energy -357464.248227 kJ/mol
# GULP energy per Si atom -5585.378879 kJ/mol
# Density = 2.211547 g / cm^3
# Si number density = 22.165919 Si / 1000 Ang^3
#
#
#
# Elastic Constant Matrix: (Units=GPa)
#
#
# Indices 1 2 3 4 5 6 
#
# 1 101.7655 6.7590 23.8957 0.0000 0.0000 0.0000
# 2 6.7590 61.1317 3.8432 0.0000 0.0000 0.0000
# 3 23.8957 3.8432 38.7431 0.0000 0.0000 0.0000
# 4 0.0000 0.0000 0.0000 13.1452 0.0000 0.0000
# 5 0.0000 0.0000 0.0000 0.0000 66.8667 0.0000
# 6 0.0000 0.0000 0.0000 0.0000 0.0000 42.2411
#
#
#
# Elastic Compliance Matrix: (Units=1/GPa)
#
#
# Indices 1 2 3 4 5 6 
#
# 1 0.011533 -0.000833 -0.007030 0.000000 0.000000 0.000000
# 2 -0.000833 0.016521 -0.001125 0.000000 0.000000 0.000000
# 3 -0.007030 -0.001125 0.030259 0.000000 0.000000 0.000000
# 4 0.000000 0.000000 0.000000 0.076073 0.000000 0.000000
# 5 0.000000 0.000000 0.000000 0.000000 0.014955 0.000000
# 6 0.000000 0.000000 0.000000 0.000000 0.000000 0.023674
#
#
# Mechanical properties :
#
#
# Convention : Reuss Voigt Hill
#
# Bulk Modulus (GPa) = 24.79207 30.07064 27.43136
# Shear Modulus (GPa) = 24.45747 35.59343 30.02545
#
# Velocity S-wave (km/s) = 3.32532 4.01156 3.68445
# Velocity P-wave (km/s) = 5.09438 5.92051 5.52291
#
# Compressibility (1/GPa) = 0.04033548
#
# Stress axis : x y z
#
# Youngs Moduli (GPa) = 86.71028 60.52912 33.04823
#
# Poissons Ratio (x) = 0.05043 0.23234
# Poissons Ratio (y) = 0.07224 0.03718
# Poissons Ratio (z) = 0.60961 0.06809
#
# Static dielectric constant tensor:
#      x y z
#    x 1.814120 0.000000 0.000000 
#    y 0.000000 1.928350 0.000000 
#    z 0.000000 0.000000 1.745790 
# 
# From -- ./inp_files/23018.got.cif
#   From: 2010.05.17/outbox.cif.g08.bks.cpg/sg57_12_cif.got.tgz:23018.got - 2010.06.03 13:58:18.
