data_PCOD9440282
_publ_section_title
;
Structure prediction by ZEFSAII (Michael W. Deem and Ramdas Pophale) SiO2 
 PCOD9440282
Probable space group: P B C M
;
_chemical_formula_sum "Si O2"
_cell_formula_units_Z 40
_cell_length_a 5.035003
_cell_length_b 16.118556
_cell_length_c 19.358318
_cell_angle_alpha 90.000000
_cell_angle_beta 90.000000
_cell_angle_gamma 90.000000
_cell_volume 1571.062584
_symmetry_space_group_name_H-M "P B C M"
_symmetry_group_IT_number 57
_symmetry_cell_setting 'orthorhombic'
loop_
_space_group_symop_operation_xyz
x,y,z
-x,-y,1/2+z
x,1/2-y,-z
-x,1/2+y,1/2-z
-x,-y,-z
x,y,1/2-z
-x,1/2+y,z
x,1/2-y,1/2+z
loop_
_atom_site_type_symbol
_atom_site_label
_atom_site_fract_x
_atom_site_fract_y
_atom_site_fract_z
Si Si1 0.571668 0.182587 0.826339
Si Si2 0.659138 0.465868 0.562449
Si Si3 0.227594 0.403437 0.828211
Si Si4 0.061128 0.066150 0.652700
Si Si5 0.909833 0.207369 0.071017
O O1 0.586815 0.222500 0.750000
O O2 0.296119 0.131035 0.829992
O O3 0.679871 0.241372 0.888045
O O4 0.794838 0.111692 0.829126
O O5 0.500000 0.500000 0.500000
O O6 0.456665 0.447676 0.626527
O O7 0.870172 0.539136 0.575794
O O8 0.786586 0.378592 0.546708
O O9 0.310095 0.384724 0.750000
O O10 0.987986 0.471141 0.821839
O O11 0.123263 0.322928 0.870811
O O12 0.008814 0.250000 0.000000
#
# Coordination Sequence:
#
# PCOD9440282 Si02
#       5
#     8   8   8   8   8
#     4  12  25  45  73 110 152 196 248 311 382 452
#     4  11  26  48  78 107 150 202 256 314 378 459
#     4  11  25  47  78 111 147 197 260 322 378 454
#     4  11  25  45  77 110 149 193 258 308 381 449
#     4  11  28  46  70 106 153 198 250 309 388 456
#
# _framework density 25.460477000000001
#
# number of rings (size 3 to 8) (size 9 to 14) (size 15 to 20)
#    0.000    0.800    2.000    3.600    5.600    7.200 
#    0.000    0.000    0.000    0.000    0.000    0.000 
#    0.000    0.000    0.000    0.000    0.000    0.000 
#
# Total GULP energy -223337.180071 kJ/mol
# GULP energy per Si atom -5583.429502 kJ/mol
# Density = 2.540253 g / cm^3
# Si number density = 25.460477 Si / 1000 Ang^3
#
#
#
# Elastic Constant Matrix: (Units=GPa)
#
#
# Indices 1 2 3 4 5 6 
#
# 1 111.0397 41.3759 20.8996 0.0000 0.0000 0.0000
# 2 41.3759 111.6235 71.3986 0.0000 0.0000 0.0000
# 3 20.8996 71.3986 164.4064 0.0000 0.0000 0.0000
# 4 0.0000 0.0000 0.0000 38.2062 0.0000 0.0000
# 5 0.0000 0.0000 0.0000 0.0000 -3.5383 0.0000
# 6 0.0000 0.0000 0.0000 0.0000 0.0000 37.6985
#
#
#
# Elastic Compliance Matrix: (Units=1/GPa)
#
#
# Indices 1 2 3 4 5 6 
#
# 1 0.010478 -0.004198 0.000491 0.000000 0.000000 0.000000
# 2 -0.004198 0.014086 -0.005584 0.000000 0.000000 0.000000
# 3 0.000491 -0.005584 0.008445 0.000000 0.000000 0.000000
# 4 0.000000 0.000000 0.000000 0.026174 0.000000 0.000000
# 5 0.000000 0.000000 0.000000 0.000000 -0.282622 0.000000
# 6 0.000000 0.000000 0.000000 0.000000 0.000000 0.026526
#
#
# Mechanical properties :
#
#
# Convention : Reuss Voigt Hill
#
# Bulk Modulus (GPa) = 69.31063 72.71308 71.01185
# Shear Modulus (GPa) = -28.81463 31.36630 1.27583
#
# Velocity S-wave (km/s) = -3.36778 3.51374 0.70865
# Velocity P-wave (km/s) = 3.48702 6.71439 5.34987
#
# Compressibility (1/GPa) = 0.01442780
#
# Stress axis : x y z
#
# Youngs Moduli (GPa) = 95.44180 70.99075 118.41343
#
# Poissons Ratio (x) = 0.29801 -0.05816
# Poissons Ratio (y) = 0.40066 0.66120
# Poissons Ratio (z) = -0.04688 0.39640
#
# Static dielectric constant tensor:
#      x y z
#    x -7.166530 0.000000 0.000000 
#    y 0.000000 2.210870 0.000000 
#    z 0.000000 0.000000 1.177530 
# 
# From -- ./inp_files/19997.got.cif
#   From: 2010.05.17/outbox.cif.g08.bks.cpg/sg57_10_cif.got.tgz:19997.got - 2010.06.03 13:58:18.
