data_PCOD9440101
_publ_section_title
;
Structure prediction by ZEFSAII (Michael W. Deem and Ramdas Pophale) SiO2 
 PCOD9440101
Probable space group: P B C M
;
_chemical_formula_sum "Si O2"
_cell_formula_units_Z 48
_cell_length_a 31.562661
_cell_length_b 9.177618
_cell_length_c 8.592363
_cell_angle_alpha 90.000000
_cell_angle_beta 90.000000
_cell_angle_gamma 90.000000
_cell_volume 2488.950183
_symmetry_space_group_name_H-M "P B C M"
_symmetry_group_IT_number 57
_symmetry_cell_setting 'orthorhombic'
loop_
_space_group_symop_operation_xyz
x,y,z
-x,-y,1/2+z
x,1/2-y,-z
-x,1/2+y,1/2-z
-x,-y,-z
x,y,1/2-z
-x,1/2+y,z
x,1/2-y,1/2+z
loop_
_atom_site_type_symbol
_atom_site_label
_atom_site_fract_x
_atom_site_fract_y
_atom_site_fract_z
Si Si1 0.373837 0.585873 0.937313
Si Si2 0.292590 0.413997 0.436319
Si Si3 0.459504 0.086191 0.436387
Si Si4 0.211377 0.913725 0.436492
Si Si5 0.959733 0.914061 0.936466
Si Si6 0.130519 0.084801 0.936588
O O1 0.370181 0.587777 0.750000
O O2 0.416622 0.499319 0.980131
O O3 0.375814 0.750000 0.000000
O O4 0.333585 0.503409 0.008286
O O5 0.295159 0.250000 0.500000
O O6 0.290460 0.412016 0.250000
O O7 0.251040 0.492228 0.503887
O O8 0.458682 0.250000 0.500000
O O9 0.461841 0.090888 0.250000
O O10 0.500000 0.000000 0.500000
O O11 0.215282 0.750000 0.500000
O O12 0.210746 0.912684 0.250000
O O13 0.168672 0.987150 0.500973
O O14 0.958994 0.914652 0.750000
O O15 0.962929 0.750000 0.000000
O O16 0.914825 0.971209 0.001252
O O17 0.000000 0.000000 0.000000
O O18 0.130325 0.088361 0.750000
O O19 0.135769 0.250000 0.000000
#
# Coordination Sequence:
#
# PCOD9440101 Si02
#       6
#     8   8   8   8   8   8
#     4  11  24  42  64  93 126 164 205 253 306 363
#     4  12  25  43  66  93 124 162 204 251 302 361
#     4  11  24  41  64  92 126 164 208 256 309 366
#     4  12  25  43  64  91 124 160 201 250 303 360
#     4  11  22  39  61  89 121 159 202 250 303 360
#     4  11  22  40  63  90 121 159 202 248 300 360
#
# _framework density 19.285238
#
# number of rings (size 3 to 8) (size 9 to 14) (size 15 to 20)
#    0.000    0.667    0.000   10.000    0.000    6.000 
#    0.000    3.333    0.000    0.000    0.000    0.000 
#    0.000    0.000    0.000    0.000    0.000    0.000 
#
# Total GULP energy -268766.919445 kJ/mol
# GULP energy per Si atom -5599.310822 kJ/mol
# Density = 1.924134 g / cm^3
# Si number density = 19.285238 Si / 1000 Ang^3
#
#
#
# Elastic Constant Matrix: (Units=GPa)
#
#
# Indices 1 2 3 4 5 6 
#
# 1 214.8814 115.0462 94.5664 0.0000 0.0000 0.0000
# 2 115.0462 168.7765 72.9551 0.0000 0.0000 0.0000
# 3 94.5664 72.9551 192.8213 0.0000 0.0000 0.0000
# 4 0.0000 0.0000 0.0000 40.3234 0.0000 0.0000
# 5 0.0000 0.0000 0.0000 0.0000 35.7246 0.0000
# 6 0.0000 0.0000 0.0000 0.0000 0.0000 44.3770
#
#
#
# Elastic Compliance Matrix: (Units=1/GPa)
#
#
# Indices 1 2 3 4 5 6 
#
# 1 0.008065 -0.004528 -0.002242 0.000000 0.000000 0.000000
# 2 -0.004528 0.009626 -0.001421 0.000000 0.000000 0.000000
# 3 -0.002242 -0.001421 0.006823 0.000000 0.000000 0.000000
# 4 0.000000 0.000000 0.000000 0.024799 0.000000 0.000000
# 5 0.000000 0.000000 0.000000 0.000000 0.027992 0.000000
# 6 0.000000 0.000000 0.000000 0.000000 0.000000 0.022534
#
#
# Mechanical properties :
#
#
# Convention : Reuss Voigt Hill
#
# Bulk Modulus (GPa) = 122.98144 126.84605 124.91375
# Shear Modulus (GPa) = 42.04043 43.67910 42.85977
#
# Velocity S-wave (km/s) = 4.67403 4.76426 4.71936
# Velocity P-wave (km/s) = 9.64557 9.80717 9.72671
#
# Compressibility (1/GPa) = 0.00813131
#
# Stress axis : x y z
#
# Youngs Moduli (GPa) = 123.99604 103.88533 146.55382
#
# Poissons Ratio (x) = 0.47042 0.32857
# Poissons Ratio (y) = 0.56148 0.20829
# Poissons Ratio (z) = 0.27800 0.14765
#
# Static dielectric constant tensor:
#      x y z
#    x 1.653020 0.000000 0.000000 
#    y 0.000000 1.627390 0.000000 
#    z 0.000000 0.000000 1.643380 
# 
# From -- ./inp_files/9933.got.cif
#   From: 2010.05.17/outbox.cif.g08.bks.cpg/sg57_5_cif.got.tgz:9933.got - 2010.06.03 13:58:18.
