data_PCOD9440138
_publ_section_title
;
Structure prediction by ZEFSAII (Michael W. Deem and Ramdas Pophale) SiO2 
 PCOD9440138
Probable space group: P B C M
;
_chemical_formula_sum "Si O2"
_cell_formula_units_Z 48
_cell_length_a 11.273556
_cell_length_b 22.016554
_cell_length_c 9.840729
_cell_angle_alpha 90.000000
_cell_angle_beta 90.000000
_cell_angle_gamma 90.000000
_cell_volume 2442.516709
_symmetry_space_group_name_H-M "P B C M"
_symmetry_group_IT_number 57
_symmetry_cell_setting 'orthorhombic'
loop_
_space_group_symop_operation_xyz
x,y,z
-x,-y,1/2+z
x,1/2-y,-z
-x,1/2+y,1/2-z
-x,-y,-z
x,y,1/2-z
-x,1/2+y,z
x,1/2-y,1/2+z
loop_
_atom_site_type_symbol
_atom_site_label
_atom_site_fract_x
_atom_site_fract_y
_atom_site_fract_z
Si Si1 0.879664 0.491061 0.411687
Si Si2 0.324193 0.306705 0.750000
Si Si3 0.598298 0.163045 0.250000
Si Si4 0.349856 0.337302 0.250000
Si Si5 0.247082 0.867899 0.507162
Si Si6 0.629878 0.192357 0.750000
Si Si7 0.004540 0.810233 0.912194
Si Si8 0.211666 0.381806 0.989496
O O1 0.907123 0.488391 0.250000
O O2 0.809283 0.431230 0.458870
O O3 0.795564 0.549193 0.439977
O O4 0.000000 0.500000 0.500000
O O5 0.457925 0.330784 0.750000
O O6 0.314769 0.234096 0.750000
O O7 0.264412 0.335301 0.880776
O O8 0.650387 0.129125 0.119444
O O9 0.634097 0.234536 0.250000
O O10 0.493642 0.332773 0.250000
O O11 0.289610 0.370402 0.377848
O O12 0.302096 0.832448 0.380679
O O13 0.140377 0.829935 0.573920
O O14 0.976941 0.805055 0.750000
O O15 0.925368 0.860535 0.989567
O O16 0.984265 0.750000 0.000000
#
# Coordination Sequence:
#
# PCOD9440138 Si02
#       8
#     8   4   4   4   8   4   8   8
#     4  12  27  48  70  96 139 188 229 284 347 416
#     4  11  22  46  71 100 142 184 224 283 344 409
#     4  11  24  42  73 102 138 186 226 279 352 409
#     4  11  26  44  73 106 138 184 228 281 348 413
#     4  12  25  43  69 101 138 181 233 282 342 410
#     4  11  24  48  69 104 144 180 230 283 342 413
#     4  12  25  40  66 103 140 172 222 290 354 415
#     4  12  25  44  69 101 139 179 234 281 343 410
#
# _framework density 19.651862000000001
#
# number of rings (size 3 to 8) (size 9 to 14) (size 15 to 20)
#    0.000    0.333    5.000    4.000    4.667    2.667 
#    0.000    5.000    0.000    0.000    0.000    0.000 
#    0.000    0.000    0.000    0.000    0.000    0.000 
#
# Total GULP energy -268235.226719 kJ/mol
# GULP energy per Si atom -5588.233890 kJ/mol
# Density = 1.960713 g / cm^3
# Si number density = 19.651862 Si / 1000 Ang^3
#
#
#
# Elastic Constant Matrix: (Units=GPa)
#
#
# Indices 1 2 3 4 5 6 
#
# 1 86.2226 20.9049 26.0662 0.0000 0.0000 0.0000
# 2 20.9049 83.9184 26.8025 0.0000 0.0000 0.0000
# 3 26.0662 26.8025 122.1039 0.0000 0.0000 0.0000
# 4 0.0000 0.0000 0.0000 26.6934 0.0000 0.0000
# 5 0.0000 0.0000 0.0000 0.0000 -40.2789 0.0000
# 6 0.0000 0.0000 0.0000 0.0000 0.0000 17.6449
#
#
#
# Elastic Compliance Matrix: (Units=1/GPa)
#
#
# Indices 1 2 3 4 5 6 
#
# 1 0.012869 -0.002504 -0.002198 0.000000 0.000000 0.000000
# 2 -0.002504 0.013302 -0.002385 0.000000 0.000000 0.000000
# 3 -0.002198 -0.002385 0.009182 0.000000 0.000000 0.000000
# 4 0.000000 0.000000 0.000000 0.037462 0.000000 0.000000
# 5 0.000000 0.000000 0.000000 0.000000 -0.024827 0.000000
# 6 0.000000 0.000000 0.000000 0.000000 0.000000 0.056674
#
#
# Mechanical properties :
#
#
# Convention : Reuss Voigt Hill
#
# Bulk Modulus (GPa) = 47.21458 48.86577 48.04017
# Shear Modulus (GPa) = 39.71504 15.37662 27.54583
#
# Velocity S-wave (km/s) = 4.50035 2.80027 3.74798
# Velocity P-wave (km/s) = 7.14716 5.94769 6.57484
#
# Compressibility (1/GPa) = 0.02117990
#
# Stress axis : x y z
#
# Youngs Moduli (GPa) = 77.70393 75.17700 108.90298
#
# Poissons Ratio (x) = 0.18824 0.23933
# Poissons Ratio (y) = 0.19457 0.25977
# Poissons Ratio (z) = 0.17077 0.17932
#
# Static dielectric constant tensor:
#      x y z
#    x 1.695040 0.000000 0.000000 
#    y 0.000000 1.689370 0.000000 
#    z 0.000000 0.000000 1.873630 
# 
# From -- ./inp_files/3238.got.cif
#   From: 2010.05.17/outbox.cif.g08.bks.cpg/sg57_2_cif.got.tgz:3238.got - 2010.06.03 13:58:18.
