data_PCOD9440208
_publ_section_title
;
Structure prediction by ZEFSAII (Michael W. Deem and Ramdas Pophale) SiO2 
 PCOD9440208
Probable space group: P B C M
;
_chemical_formula_sum "Si O2"
_cell_formula_units_Z 40
_cell_length_a 8.830001
_cell_length_b 14.909379
_cell_length_c 14.983996
_cell_angle_alpha 90.000000
_cell_angle_beta 90.000000
_cell_angle_gamma 90.000000
_cell_volume 1972.640548
_symmetry_space_group_name_H-M "P B C M"
_symmetry_group_IT_number 57
_symmetry_cell_setting 'orthorhombic'
loop_
_space_group_symop_operation_xyz
x,y,z
-x,-y,1/2+z
x,1/2-y,-z
-x,1/2+y,1/2-z
-x,-y,-z
x,y,1/2-z
-x,1/2+y,z
x,1/2-y,1/2+z
loop_
_atom_site_type_symbol
_atom_site_label
_atom_site_fract_x
_atom_site_fract_y
_atom_site_fract_z
Si Si1 0.643092 0.412675 0.583329
Si Si2 0.183510 0.474269 0.750000
Si Si3 0.005122 0.581041 0.072865
Si Si4 0.436187 0.934979 0.376019
Si Si5 0.427270 0.254207 0.651647
Si Si6 0.821131 0.750000 0.000000
O O1 0.819898 0.396093 0.592911
O O2 0.585126 0.502999 0.630799
O O3 0.609101 0.425859 0.479078
O O4 0.535498 0.333001 0.617138
O O5 0.301605 0.515934 0.674165
O O6 0.072501 0.440261 0.667906
O O7 0.000000 0.500000 0.000000
O O8 0.921510 0.664345 0.025101
O O9 0.475152 0.835887 0.344047
O O10 0.368461 0.280487 0.750000
O O11 0.290631 0.236498 0.584000
#
# Coordination Sequence:
#
# PCOD9440208 Si02
#       6
#     8   4   8   8   8   4
#     4  11  25  46  75 102 146 201 247 310 375 442
#     4  12  26  46  76 110 146 194 260 312 382 466
#     4  12  28  49  71 111 156 199 247 319 397 448
#     4  11  23  47  76 103 142 195 254 307 367 453
#     4  12  26  45  75 110 144 197 262 303 373 459
#     4  12  28  48  74 108 156 200 248 328 378 446
#
# _framework density 20.27739
#
# number of rings (size 3 to 8) (size 9 to 14) (size 15 to 20)
#    0.000    0.400    5.000    2.400    9.800    0.000 
#    5.400    0.000    0.000    0.000    0.000    0.000 
#    0.000    0.000    0.000    0.000    0.000    0.000 
#
# Total GULP energy -222673.179920 kJ/mol
# GULP energy per Si atom -5566.829498 kJ/mol
# Density = 2.023124 g / cm^3
# Si number density = 20.277390 Si / 1000 Ang^3
#
#
#
# Elastic Constant Matrix: (Units=GPa)
#
#
# Indices 1 2 3 4 5 6 
#
# 1 138.5433 61.3336 67.5868 0.0000 0.0000 0.0000
# 2 61.3336 100.9808 63.9558 0.0000 0.0000 0.0000
# 3 67.5868 63.9558 190.7401 0.0000 0.0000 0.0000
# 4 0.0000 0.0000 0.0000 20.4402 0.0000 0.0000
# 5 0.0000 0.0000 0.0000 0.0000 322.9016 0.0000
# 6 0.0000 0.0000 0.0000 0.0000 0.0000 20.1905
#
#
#
# Elastic Compliance Matrix: (Units=1/GPa)
#
#
# Indices 1 2 3 4 5 6 
#
# 1 0.010439 -0.005076 -0.001997 0.000000 0.000000 0.000000
# 2 -0.005076 0.015041 -0.003245 0.000000 0.000000 0.000000
# 3 -0.001997 -0.003245 0.007038 0.000000 0.000000 0.000000
# 4 0.000000 0.000000 0.000000 0.048923 0.000000 0.000000
# 5 0.000000 0.000000 0.000000 0.000000 0.003097 0.000000
# 6 0.000000 0.000000 0.000000 0.000000 0.000000 0.049528
#
#
# Mechanical properties :
#
#
# Convention : Reuss Voigt Hill
#
# Bulk Modulus (GPa) = 84.15169 90.66851 87.41010
# Shear Modulus (GPa) = 31.51336 88.53235 60.02286
#
# Velocity S-wave (km/s) = 3.94650 6.61479 5.44657
# Velocity P-wave (km/s) = 7.89664 10.15636 9.09694
#
# Compressibility (1/GPa) = 0.01188330
#
# Stress axis : x y z
#
# Youngs Moduli (GPa) = 95.79212 66.48600 142.07850
#
# Poissons Ratio (x) = 0.33746 0.28375
# Poissons Ratio (y) = 0.48621 0.46100
# Poissons Ratio (z) = 0.19131 0.21573
#
# Static dielectric constant tensor:
#      x y z
#    x 1.710150 0.000000 0.000000 
#    y 0.000000 1.774540 0.000000 
#    z 0.000000 0.000000 1.777420 
# 
# From -- ./inp_files/15976.got.cif
#   From: 2010.05.17/outbox.cif.g08.bks.cpg/sg57_8_cif.got.tgz:15976.got - 2010.06.03 13:58:18.
