data_PCOD9440221
_publ_section_title
;
Structure prediction by ZEFSAII (Michael W. Deem and Ramdas Pophale) SiO2 
 PCOD9440221
Probable space group: P B C M
;
_chemical_formula_sum "Si O2"
_cell_formula_units_Z 24
_cell_length_a 8.379666
_cell_length_b 11.534983
_cell_length_c 9.993651
_cell_angle_alpha 90.000000
_cell_angle_beta 90.000000
_cell_angle_gamma 90.000000
_cell_volume 965.979359
_symmetry_space_group_name_H-M "P B C M"
_symmetry_group_IT_number 57
_symmetry_cell_setting 'orthorhombic'
loop_
_space_group_symop_operation_xyz
x,y,z
-x,-y,1/2+z
x,1/2-y,-z
-x,1/2+y,1/2-z
-x,-y,-z
x,y,1/2-z
-x,1/2+y,z
x,1/2-y,1/2+z
loop_
_atom_site_type_symbol
_atom_site_label
_atom_site_fract_x
_atom_site_fract_y
_atom_site_fract_z
Si Si1 0.912419 0.809876 0.250000
Si Si2 0.075329 0.440277 0.750000
Si Si3 0.627283 0.155222 0.402972
Si Si4 0.279156 0.408142 0.016228
O O1 0.008954 0.688288 0.250000
O O2 0.799638 0.819210 0.380153
O O3 0.005974 0.930673 0.250000
O O4 0.178986 0.432394 0.616021
O O5 0.706552 0.250000 0.500000
O O6 0.606545 0.194973 0.250000
O O7 0.455789 0.128078 0.471027
O O8 0.714033 0.031804 0.407632
#
# Coordination Sequence:
#
# PCOD9440221 Si02
#       4
#     4   4   8   8
#     4  12  26  47  70  98 136 187 237 288 341 404
#     4  12  26  45  72  98 136 187 237 286 341 406
#     4  11  24  41  71 105 138 177 223 284 348 413
#     4  11  25  44  67 100 141 178 229 280 349 414
#
# _framework density 24.845251000000001
#
# number of rings (size 3 to 8) (size 9 to 14) (size 15 to 20)
#    0.000    0.667    3.333    4.000    4.667    2.667 
#    0.000    0.000    0.000    0.000    0.000    0.000 
#    0.000    0.000    0.000    0.000    0.000    0.000 
#
# Total GULP energy -134430.376950 kJ/mol
# GULP energy per Si atom -5601.265706 kJ/mol
# Density = 2.478870 g / cm^3
# Si number density = 24.845251 Si / 1000 Ang^3
#
#
#
# Elastic Constant Matrix: (Units=GPa)
#
#
# Indices 1 2 3 4 5 6 
#
# 1 15.3415 21.4509 -1.5489 0.0000 0.0000 0.0000
# 2 21.4509 182.6826 24.8376 0.0000 0.0000 0.0000
# 3 -1.5489 24.8376 183.9477 0.0000 0.0000 0.0000
# 4 0.0000 0.0000 0.0000 77.4706 0.0000 0.0000
# 5 0.0000 0.0000 0.0000 0.0000 33.8259 0.0000
# 6 0.0000 0.0000 0.0000 0.0000 0.0000 31.1817
#
#
#
# Elastic Compliance Matrix: (Units=1/GPa)
#
#
# Indices 1 2 3 4 5 6 
#
# 1 0.078664 -0.009501 0.001945 0.000000 0.000000 0.000000
# 2 -0.009501 0.006724 -0.000988 0.000000 0.000000 0.000000
# 3 0.001945 -0.000988 0.005586 0.000000 0.000000 0.000000
# 4 0.000000 0.000000 0.000000 0.012908 0.000000 0.000000
# 5 0.000000 0.000000 0.000000 0.000000 0.029563 0.000000
# 6 0.000000 0.000000 0.000000 0.000000 0.000000 0.032070
#
#
# Mechanical properties :
#
#
# Convention : Reuss Voigt Hill
#
# Bulk Modulus (GPa) = 13.53436 52.38346 32.95891
# Shear Modulus (GPa) = 24.12755 50.97777 37.55266
#
# Velocity S-wave (km/s) = 3.11965 4.53461 3.89197
# Velocity P-wave (km/s) = 4.29367 6.96753 5.78715
#
# Compressibility (1/GPa) = 0.07388603
#
# Stress axis : x y z
#
# Youngs Moduli (GPa) = 12.71231 148.72194 179.01573
#
# Poissons Ratio (x) = 1.41306 -0.34824
# Poissons Ratio (y) = 0.12078 0.17685
# Poissons Ratio (z) = -0.02473 0.14692
#
# Static dielectric constant tensor:
#      x y z
#    x 1.976100 0.000000 0.000000 
#    y 0.000000 2.065530 0.000000 
#    z 0.000000 0.000000 1.897500 
# 
# From -- ./inp_files/11172.got.cif
#   From: 2010.05.17/outbox.cif.g08.bks.cpg/sg57_6_cif.got.tgz:11172.got - 2010.06.03 13:58:18.
