data_PCOD9440293
_publ_section_title
;
Structure prediction by ZEFSAII (Michael W. Deem and Ramdas Pophale) SiO2 
 PCOD9440293
Probable space group: P B C M
;
_chemical_formula_sum "Si O2"
_cell_formula_units_Z 56
_cell_length_a 5.178886
_cell_length_b 15.252934
_cell_length_c 29.225898
_cell_angle_alpha 90.000000
_cell_angle_beta 90.000000
_cell_angle_gamma 90.000000
_cell_volume 2308.647392
_symmetry_space_group_name_H-M "P B C M"
_symmetry_group_IT_number 57
_symmetry_cell_setting 'orthorhombic'
loop_
_space_group_symop_operation_xyz
x,y,z
-x,-y,1/2+z
x,1/2-y,-z
-x,1/2+y,1/2-z
-x,-y,-z
x,y,1/2-z
-x,1/2+y,z
x,1/2-y,1/2+z
loop_
_atom_site_type_symbol
_atom_site_label
_atom_site_fract_x
_atom_site_fract_y
_atom_site_fract_z
Si Si1 0.587918 0.463194 0.161640
Si Si2 0.003104 0.806601 0.750000
Si Si3 0.083995 0.389158 0.369468
Si Si4 0.493875 0.920780 0.750000
Si Si5 0.138044 0.714467 0.149498
Si Si6 0.504653 0.652647 0.017424
Si Si7 0.340776 0.369437 0.612443
Si Si8 0.202181 0.489969 0.459545
O O1 0.369483 0.390958 0.151818
O O2 0.527831 0.520954 0.205317
O O3 0.579451 0.529371 0.118500
O O4 0.874207 0.427286 0.165205
O O5 0.202105 0.887381 0.750000
O O6 0.083722 0.760348 0.797483
O O7 0.709039 0.842688 0.750000
O O8 0.085243 0.450180 0.413894
O O9 0.968674 0.294501 0.380729
O O10 0.427153 0.685865 0.136583
O O11 0.928480 0.639120 0.139443
O O12 0.699340 0.661569 0.060335
O O13 0.299191 0.590287 0.043150
O O14 0.436232 0.750000 0.000000
O O15 0.601713 0.586619 0.977645
O O16 0.000000 0.500000 0.500000
#
# Coordination Sequence:
#
# PCOD9440293 Si02
#       8
#     8   4   8   4   8   8   8   8
#     4  12  24  45  71 101 134 188 225 294 350 433
#     4  12  22  44  66 102 136 176 234 294 344 424
#     4  12  27  46  71 103 147 182 238 292 371 426
#     4  12  24  42  72 102 138 176 242 286 358 418
#     4  12  26  43  72 101 138 184 230 295 356 424
#     4  11  26  44  71 103 142 189 246 297 364 443
#     4  12  24  46  70 102 135 187 238 282 350 434
#     4  11  26  45  69 102 144 190 234 313 364 422
#
# _framework density 24.256626000000001
#
# number of rings (size 3 to 8) (size 9 to 14) (size 15 to 20)
#    0.000    0.286    4.286    4.286    6.000    1.714 
#    0.000    0.000    0.000    0.000    0.000    0.000 
#    0.000    0.000    0.000    0.000    0.000    0.000 
#
# Total GULP energy -313029.551275 kJ/mol
# GULP energy per Si atom -5589.813416 kJ/mol
# Density = 2.420142 g / cm^3
# Si number density = 24.256626 Si / 1000 Ang^3
#
#
#
# Elastic Constant Matrix: (Units=GPa)
#
#
# Indices 1 2 3 4 5 6 
#
# 1 86.1291 24.2478 17.5081 0.0000 0.0000 0.0000
# 2 24.2478 121.7842 7.8591 0.0000 0.0000 0.0000
# 3 17.5081 7.8591 85.2794 0.0000 0.0000 0.0000
# 4 0.0000 0.0000 0.0000 29.7805 0.0000 0.0000
# 5 0.0000 0.0000 0.0000 0.0000 26.0587 0.0000
# 6 0.0000 0.0000 0.0000 0.0000 0.0000 27.2810
#
#
#
# Elastic Compliance Matrix: (Units=1/GPa)
#
#
# Indices 1 2 3 4 5 6 
#
# 1 0.012771 -0.002388 -0.002402 0.000000 0.000000 0.000000
# 2 -0.002388 0.008707 -0.000312 0.000000 0.000000 0.000000
# 3 -0.002402 -0.000312 0.012248 0.000000 0.000000 0.000000
# 4 0.000000 0.000000 0.000000 0.033579 0.000000 0.000000
# 5 0.000000 0.000000 0.000000 0.000000 0.038375 0.000000
# 6 0.000000 0.000000 0.000000 0.000000 0.000000 0.036656
#
#
# Mechanical properties :
#
#
# Convention : Reuss Voigt Hill
#
# Bulk Modulus (GPa) = 42.51305 43.60253 43.05779
# Shear Modulus (GPa) = 31.17605 32.86256 32.01930
#
# Velocity S-wave (km/s) = 3.58894 3.68474 3.63715
# Velocity P-wave (km/s) = 5.89393 6.00979 5.95214
#
# Compressibility (1/GPa) = 0.02352219
#
# Stress axis : x y z
#
# Youngs Moduli (GPa) = 78.30279 114.85276 81.64570
#
# Poissons Ratio (x) = 0.27424 0.19610
# Poissons Ratio (y) = 0.18697 0.02549
# Poissons Ratio (z) = 0.18807 0.03585
#
# Static dielectric constant tensor:
#      x y z
#    x 2.004680 0.000000 0.000000 
#    y 0.000000 2.019130 0.000000 
#    z 0.000000 0.000000 2.031950 
# 
# From -- ./inp_files/29211.got.cif
#   From: 2010.05.17/outbox.cif.g08.bks.cpg/sg57_15_cif.got.tgz:29211.got - 2010.06.03 13:58:18.
