data_PCOD9440086
_publ_section_title
;
Structure prediction by ZEFSAII (Michael W. Deem and Ramdas Pophale) SiO2 
 PCOD9440086
Probable space group: P B C M
;
_chemical_formula_sum "Si O2"
_cell_formula_units_Z 48
_cell_length_a 14.792246
_cell_length_b 8.241736
_cell_length_c 14.852810
_cell_angle_alpha 90.000000
_cell_angle_beta 90.000000
_cell_angle_gamma 90.000000
_cell_volume 1810.762305
_symmetry_space_group_name_H-M "P B C M"
_symmetry_group_IT_number 57
_symmetry_cell_setting 'orthorhombic'
loop_
_space_group_symop_operation_xyz
x,y,z
-x,-y,1/2+z
x,1/2-y,-z
-x,1/2+y,1/2-z
-x,-y,-z
x,y,1/2-z
-x,1/2+y,z
x,1/2-y,1/2+z
loop_
_atom_site_type_symbol
_atom_site_label
_atom_site_fract_x
_atom_site_fract_y
_atom_site_fract_z
Si Si1 0.528109 0.148607 0.139781
Si Si2 0.694822 0.345284 0.356993
Si Si3 0.858157 0.524955 0.352438
Si Si4 0.637336 0.823320 0.359120
Si Si5 0.807615 0.488845 0.857266
Si Si6 0.030713 0.167139 0.593774
O O1 0.525801 0.156721 0.250000
O O2 0.597427 0.288701 0.106972
O O3 0.424903 0.174959 0.109440
O O4 0.574987 0.979002 0.119981
O O5 0.675996 0.374516 0.250000
O O6 0.761801 0.481638 0.398656
O O7 0.756478 0.181970 0.365314
O O8 0.832005 0.508523 0.250000
O O9 0.908721 0.695977 0.358918
O O10 0.936122 0.392342 0.368917
O O11 0.646083 0.811692 0.250000
O O12 0.737183 0.871998 0.388657
O O13 0.827348 0.506337 0.750000
O O14 0.901123 0.513746 0.909162
O O15 0.015008 0.250000 0.500000
#
# Coordination Sequence:
#
# PCOD9440086 Si02
#       6
#     8   8   8   8   8   8
#     4   8  13  23  39  69 107 136 163 209 266 313
#     4   8  16  30  51  77 106 136 173 219 267 315
#     4  11  22  38  59  81 104 139 181 221 265 324
#     4   8  14  23  41  68 101 135 168 210 263 313
#     4   9  17  33  53  75 104 142 181 219 263 317
#     4  12  25  39  55  80 110 140 174 222 275 322
#
# _framework density 26.508175000000001
#
# number of rings (size 3 to 8) (size 9 to 14) (size 15 to 20)
#    0.000    2.667    0.000    5.000    0.000    2.667 
#    0.000    5.000    0.000    0.000    0.000   11.667 
#    0.000    0.000    0.000    0.000    0.000    0.000 
#
# Total GULP energy -268237.705414 kJ/mol
# GULP energy per Si atom -5588.285529 kJ/mol
# Density = 2.644784 g / cm^3
# Si number density = 26.508175 Si / 1000 Ang^3
#
#
#
# Elastic Constant Matrix: (Units=GPa)
#
#
# Indices 1 2 3 4 5 6 
#
# 1 176.6789 -8.8654 19.8137 0.0000 0.0000 0.0000
# 2 -8.8654 96.7573 -2.9335 0.0000 0.0000 0.0000
# 3 19.8137 -2.9335 41.3110 0.0000 0.0000 0.0000
# 4 0.0000 0.0000 0.0000 21.2133 0.0000 0.0000
# 5 0.0000 0.0000 0.0000 0.0000 -34.9561 0.0000
# 6 0.0000 0.0000 0.0000 0.0000 0.0000 37.2063
#
#
#
# Elastic Compliance Matrix: (Units=1/GPa)
#
#
# Indices 1 2 3 4 5 6 
#
# 1 0.006002 0.000464 -0.002846 0.000000 0.000000 0.000000
# 2 0.000464 0.010393 0.000516 0.000000 0.000000 0.000000
# 3 -0.002846 0.000516 0.025608 0.000000 0.000000 0.000000
# 4 0.000000 0.000000 0.000000 0.047140 0.000000 0.000000
# 5 0.000000 0.000000 0.000000 0.000000 -0.028607 0.000000
# 6 0.000000 0.000000 0.000000 0.000000 0.000000 0.026877
#
#
# Mechanical properties :
#
#
# Convention : Reuss Voigt Hill
#
# Bulk Modulus (GPa) = 26.12974 36.75299 31.44137
# Shear Modulus (GPa) = 48.12125 25.14152 36.63138
#
# Velocity S-wave (km/s) = 4.26530 3.08302 3.72141
# Velocity P-wave (km/s) = 5.84257 5.15444 5.50926
#
# Compressibility (1/GPa) = 0.03827057
#
# Stress axis : x y z
#
# Youngs Moduli (GPa) = 166.59969 96.21622 39.04998
#
# Poissons Ratio (x) = -0.04461 0.11113
# Poissons Ratio (y) = -0.07725 -0.02014
# Poissons Ratio (z) = 0.47414 -0.04961
#
# Static dielectric constant tensor:
#      x y z
#    x 2.009220 0.000000 0.000000 
#    y 0.000000 2.204160 0.000000 
#    z 0.000000 0.000000 2.056330 
# 
# From -- ./inp_files/22420.got.cif
#   From: 2010.05.17/outbox.cif.g08.bks.cpg/sg57_12_cif.got.tgz:22420.got - 2010.06.03 13:58:18.
