data_PCOD9440319
_publ_section_title
;
Structure prediction by ZEFSAII (Michael W. Deem and Ramdas Pophale) SiO2 
 PCOD9440319
Probable space group: P B C M
;
_chemical_formula_sum "Si O2"
_cell_formula_units_Z 48
_cell_length_a 8.553886
_cell_length_b 15.093696
_cell_length_c 18.970706
_cell_angle_alpha 90.000000
_cell_angle_beta 90.000000
_cell_angle_gamma 90.000000
_cell_volume 2449.303202
_symmetry_space_group_name_H-M "P B C M"
_symmetry_group_IT_number 57
_symmetry_cell_setting 'orthorhombic'
loop_
_space_group_symop_operation_xyz
x,y,z
-x,-y,1/2+z
x,1/2-y,-z
-x,1/2+y,1/2-z
-x,-y,-z
x,y,1/2-z
-x,1/2+y,z
x,1/2-y,1/2+z
loop_
_atom_site_type_symbol
_atom_site_label
_atom_site_fract_x
_atom_site_fract_y
_atom_site_fract_z
Si Si1 0.298715 0.103388 0.611230
Si Si2 0.115716 0.051097 0.750000
Si Si3 0.179319 0.750000 0.500000
Si Si4 0.827090 0.967601 0.524594
Si Si5 0.993200 0.851569 0.750000
Si Si6 0.332140 0.619795 0.894599
Si Si7 0.890048 0.712078 0.099480
Si Si8 0.177049 0.683391 0.750000
O O1 0.221602 0.063539 0.681194
O O2 0.269653 0.035930 0.547195
O O3 0.483135 0.116101 0.615905
O O4 0.207261 0.196677 0.597640
O O5 0.986149 0.128928 0.750000
O O6 0.034010 0.955039 0.750000
O O7 0.287765 0.677635 0.536656
O O8 0.060546 0.725171 0.436417
O O9 0.823036 0.868071 0.553865
O O10 0.754003 0.028551 0.584978
O O11 0.000000 0.000000 0.500000
O O12 0.145138 0.788159 0.750000
O O13 0.904544 0.822365 0.820819
O O14 0.262137 0.656516 0.821873
#
# Coordination Sequence:
#
# PCOD9440319 Si02
#       8
#     8   4   4   8   4   8   8   4
#     4  12  25  45  67 101 146 180 225 296 361 403
#     4  12  25  47  75  98 137 188 238 286 341 433
#     4  12  22  40  70  98 132 188 228 278 340 420
#     4  12  23  43  70 101 132 182 239 281 337 423
#     4  12  24  41  74 103 122 179 245 281 331 414
#     4  12  27  42  69 102 147 178 229 298 356 406
#     4  12  22  44  71  99 133 185 237 282 340 425
#     4  12  23  48  67  99 137 187 231 281 340 425
#
# _framework density 19.597411000000001
#
# number of rings (size 3 to 8) (size 9 to 14) (size 15 to 20)
#    0.000    0.000    6.667    4.000    2.333    0.000 
#    3.000    0.000    0.000    0.000    0.000    0.000 
#    0.000    0.000    0.000    0.000    0.000    0.000 
#
# Total GULP energy -268193.407760 kJ/mol
# GULP energy per Si atom -5587.362662 kJ/mol
# Density = 1.955281 g / cm^3
# Si number density = 19.597411 Si / 1000 Ang^3
#
#
#
# Elastic Constant Matrix: (Units=GPa)
#
#
# Indices 1 2 3 4 5 6 
#
# 1 82.8580 -6.5582 15.7021 0.0000 0.0000 0.0000
# 2 -6.5582 71.3729 -0.1011 0.0000 0.0000 0.0000
# 3 15.7021 -0.1011 107.5568 0.0000 0.0000 0.0000
# 4 0.0000 0.0000 0.0000 25.0251 0.0000 0.0000
# 5 0.0000 0.0000 0.0000 0.0000 19.0790 0.0000
# 6 0.0000 0.0000 0.0000 0.0000 0.0000 23.5190
#
#
#
# Elastic Compliance Matrix: (Units=1/GPa)
#
#
# Indices 1 2 3 4 5 6 
#
# 1 0.012505 0.001146 -0.001825 0.000000 0.000000 0.000000
# 2 0.001146 0.014116 -0.000154 0.000000 0.000000 0.000000
# 3 -0.001825 -0.000154 0.009564 0.000000 0.000000 0.000000
# 4 0.000000 0.000000 0.000000 0.039960 0.000000 0.000000
# 5 0.000000 0.000000 0.000000 0.000000 0.052414 0.000000
# 6 0.000000 0.000000 0.000000 0.000000 0.000000 0.042519
#
#
# Mechanical properties :
#
#
# Convention : Reuss Voigt Hill
#
# Bulk Modulus (GPa) = 28.96815 31.09703 30.03259
# Shear Modulus (GPa) = 27.13723 30.37426 28.75574
#
# Velocity S-wave (km/s) = 3.72524 3.94116 3.83472
# Velocity P-wave (km/s) = 5.77208 6.05085 5.91311
#
# Compressibility (1/GPa) = 0.03452067
#
# Stress axis : x y z
#
# Youngs Moduli (GPa) = 79.96574 70.84131 104.56273
#
# Poissons Ratio (x) = -0.08122 0.19078
# Poissons Ratio (y) = -0.09168 0.01611
# Poissons Ratio (z) = 0.14590 0.01092
#
# Static dielectric constant tensor:
#      x y z
#    x 1.690570 0.000000 0.000000 
#    y 0.000000 1.792800 0.000000 
#    z 0.000000 0.000000 1.688610 
# 
# From -- ./inp_files/21032.got.cif
#   From: 2010.05.17/outbox.cif.g08.bks.cpg/sg57_11_cif.got.tgz:21032.got - 2010.06.03 13:58:18.
