data_PCOD9440093
_publ_section_title
;
Structure prediction by ZEFSAII (Michael W. Deem and Ramdas Pophale) SiO2 
 PCOD9440093
Probable space group: P B C M
;
_chemical_formula_sum "Si O2"
_cell_formula_units_Z 40
_cell_length_a 23.900230
_cell_length_b 8.547174
_cell_length_c 10.121533
_cell_angle_alpha 90.000000
_cell_angle_beta 90.000000
_cell_angle_gamma 90.000000
_cell_volume 2067.620936
_symmetry_space_group_name_H-M "P B C M"
_symmetry_group_IT_number 57
_symmetry_cell_setting 'orthorhombic'
loop_
_space_group_symop_operation_xyz
x,y,z
-x,-y,1/2+z
x,1/2-y,-z
-x,1/2+y,1/2-z
-x,-y,-z
x,y,1/2-z
-x,1/2+y,z
x,1/2-y,1/2+z
loop_
_atom_site_type_symbol
_atom_site_label
_atom_site_fract_x
_atom_site_fract_y
_atom_site_fract_z
Si Si1 0.634024 0.450689 0.250000
Si Si2 0.047417 0.588958 0.084952
Si Si3 0.246527 0.569140 0.250000
Si Si4 0.625770 0.074448 0.250000
Si Si5 0.764831 0.450387 0.250000
Si Si6 0.563116 0.936547 0.999102
Si Si7 0.170595 0.559260 0.010634
O O1 0.629405 0.262338 0.250000
O O2 0.699633 0.500813 0.250000
O O3 0.600157 0.511293 0.375419
O O4 0.039979 0.601829 0.250000
O O5 0.108299 0.512967 0.055671
O O6 0.049607 0.750000 0.000000
O O7 0.000000 0.500000 0.000000
O O8 0.310269 0.520066 0.250000
O O9 0.241203 0.759652 0.250000
O O10 0.213991 0.512968 0.122550
O O11 0.593759 0.009413 0.124515
O O12 0.802395 0.497387 0.374875
O O13 0.561043 0.750000 0.000000
O O14 0.500000 0.000000 0.000000
O O15 0.169906 0.750000 0.000000
#
# Coordination Sequence:
#
# PCOD9440093 Si02
#       7
#     4   8   4   4   4   8   8
#     4  11  22  40  63  94 125 153 208 253 320 377
#     4  11  23  38  61  90 126 166 214 267 321 379
#     4   9  16  32  53  86 114 143 190 249 306 361
#     4  11  22  38  65  92 121 159 196 259 314 371
#     4   9  18  30  55  86 116 147 188 257 304 367
#     4  12  25  42  62  88 123 164 207 256 311 376
#     4   9  17  30  53  84 117 148 198 251 310 356
#
# _framework density 19.345907
#
# number of rings (size 3 to 8) (size 9 to 14) (size 15 to 20)
#    0.000    1.600    1.000    4.800    5.600    3.200 
#    0.000    0.000    0.000    7.200    0.000    0.000 
#    0.000    0.000    0.000    0.000    0.000    0.000 
#
# Total GULP energy -222947.457645 kJ/mol
# GULP energy per Si atom -5573.686441 kJ/mol
# Density = 1.930187 g / cm^3
# Si number density = 19.345907 Si / 1000 Ang^3
#
#
#
# Elastic Constant Matrix: (Units=GPa)
#
#
# Indices 1 2 3 4 5 6 
#
# 1 218.8009 43.8495 117.7087 0.0000 0.0000 0.0000
# 2 43.8495 58.0840 33.6235 0.0000 0.0000 0.0000
# 3 117.7087 33.6235 231.6745 0.0000 0.0000 0.0000
# 4 0.0000 0.0000 0.0000 21.3815 0.0000 0.0000
# 5 0.0000 0.0000 0.0000 0.0000 41.3950 0.0000
# 6 0.0000 0.0000 0.0000 0.0000 0.0000 26.4969
#
#
#
# Elastic Compliance Matrix: (Units=1/GPa)
#
#
# Indices 1 2 3 4 5 6 
#
# 1 0.006871 -0.003457 -0.002990 0.000000 0.000000 0.000000
# 2 -0.003457 0.020535 -0.001224 0.000000 0.000000 0.000000
# 3 -0.002990 -0.001224 0.006013 0.000000 0.000000 0.000000
# 4 0.000000 0.000000 0.000000 0.046769 0.000000 0.000000
# 5 0.000000 0.000000 0.000000 0.000000 0.024157 0.000000
# 6 0.000000 0.000000 0.000000 0.000000 0.000000 0.037740
#
#
# Mechanical properties :
#
#
# Convention : Reuss Voigt Hill
#
# Bulk Modulus (GPa) = 55.31450 99.88031 77.59740
# Shear Modulus (GPa) = 30.58985 38.74653 34.66819
#
# Velocity S-wave (km/s) = 3.98075 4.48015 4.23781
# Velocity P-wave (km/s) = 7.05570 8.86020 8.00893
#
# Compressibility (1/GPa) = 0.01807844
#
# Stress axis : x y z
#
# Youngs Moduli (GPa) = 145.53000 48.69815 166.30828
#
# Poissons Ratio (x) = 0.16835 0.49718
# Poissons Ratio (y) = 0.50308 0.20354
# Poissons Ratio (z) = 0.43506 0.05960
#
# Static dielectric constant tensor:
#      x y z
#    x 1.668980 0.000000 0.000000 
#    y 0.000000 1.717120 0.000000 
#    z 0.000000 0.000000 1.694230 
# 
# From -- ./inp_files/9010.got.cif
#   From: 2010.05.17/outbox.cif.g08.bks.cpg/sg57_5_cif.got.tgz:9010.got - 2010.06.03 13:58:18.
