data_PCOD9440114
_publ_section_title
;
Structure prediction by ZEFSAII (Michael W. Deem and Ramdas Pophale) SiO2 
 PCOD9440114
Probable space group: P B C M
;
_chemical_formula_sum "Si O2"
_cell_formula_units_Z 32
_cell_length_a 7.851753
_cell_length_b 10.264488
_cell_length_c 16.055438
_cell_angle_alpha 90.000000
_cell_angle_beta 90.000000
_cell_angle_gamma 90.000000
_cell_volume 1293.975574
_symmetry_space_group_name_H-M "P B C M"
_symmetry_group_IT_number 57
_symmetry_cell_setting 'orthorhombic'
loop_
_space_group_symop_operation_xyz
x,y,z
-x,-y,1/2+z
x,1/2-y,-z
-x,1/2+y,1/2-z
-x,-y,-z
x,y,1/2-z
-x,1/2+y,z
x,1/2-y,1/2+z
loop_
_atom_site_type_symbol
_atom_site_label
_atom_site_fract_x
_atom_site_fract_y
_atom_site_fract_z
Si Si1 0.647980 0.776128 0.097713
Si Si2 0.462779 0.475426 0.849609
Si Si3 0.988832 0.302258 0.660079
Si Si4 0.095688 0.952105 0.417373
O O1 0.599251 0.923288 0.116448
O O2 0.502873 0.675326 0.128503
O O3 0.812877 0.738322 0.151305
O O4 0.680403 0.750000 0.000000
O O5 0.440240 0.490859 0.750000
O O6 0.290805 0.508868 0.901371
O O7 0.917288 0.268963 0.750000
O O8 0.991452 0.457249 0.648083
O O9 0.910444 0.202272 0.594520
O O10 0.000000 0.000000 0.500000
#
# Coordination Sequence:
#
# PCOD9440114 Si02
#       4
#     8   8   8   8
#     4  11  23  40  62  91 124 160 200 249 304 361
#     4  11  23  42  63  90 124 162 203 251 302 361
#     4  11  22  40  62  89 122 162 204 251 304 363
#     4  11  23  40  61  88 122 160 203 255 306 361
#
# _framework density 24.729989
#
# number of rings (size 3 to 8) (size 9 to 14) (size 15 to 20)
#    0.000    1.000    0.000   10.500    0.000    4.000 
#    0.000    5.000    0.000    0.000    0.000    0.000 
#    0.000    0.000    0.000    0.000    0.000    0.000 
#
# Total GULP energy -178831.854270 kJ/mol
# GULP energy per Si atom -5588.495446 kJ/mol
# Density = 2.467370 g / cm^3
# Si number density = 24.729989 Si / 1000 Ang^3
#
#
#
# Elastic Constant Matrix: (Units=GPa)
#
#
# Indices 1 2 3 4 5 6 
#
# 1 41.0645 10.1477 5.9795 0.0000 0.0000 0.0000
# 2 10.1477 59.5981 -24.6782 0.0000 0.0000 0.0000
# 3 5.9795 -24.6782 146.9990 0.0000 0.0000 0.0000
# 4 0.0000 0.0000 0.0000 40.2269 0.0000 0.0000
# 5 0.0000 0.0000 0.0000 0.0000 21.4478 0.0000
# 6 0.0000 0.0000 0.0000 0.0000 0.0000 41.4133
#
#
#
# Elastic Compliance Matrix: (Units=1/GPa)
#
#
# Indices 1 2 3 4 5 6 
#
# 1 0.025921 -0.005212 -0.001929 0.000000 0.000000 0.000000
# 2 -0.005212 0.019081 0.003415 0.000000 0.000000 0.000000
# 3 -0.001929 0.003415 0.007455 0.000000 0.000000 0.000000
# 4 0.000000 0.000000 0.000000 0.024859 0.000000 0.000000
# 5 0.000000 0.000000 0.000000 0.000000 0.046625 0.000000
# 6 0.000000 0.000000 0.000000 0.000000 0.000000 0.024147
#
#
# Mechanical properties :
#
#
# Convention : Reuss Voigt Hill
#
# Bulk Modulus (GPa) = 22.22071 25.61776 23.91923
# Shear Modulus (GPa) = 29.31839 37.69843 33.50841
#
# Velocity S-wave (km/s) = 3.44690 3.90859 3.68499
# Velocity P-wave (km/s) = 4.98461 5.54535 5.27244
#
# Compressibility (1/GPa) = 0.04500307
#
# Stress axis : x y z
#
# Youngs Moduli (GPa) = 38.57881 52.40875 134.14514
#
# Poissons Ratio (x) = 0.27318 0.25883
# Poissons Ratio (y) = 0.20109 -0.45815
# Poissons Ratio (z) = 0.07444 -0.17899
#
# Static dielectric constant tensor:
#      x y z
#    x 1.986170 0.000000 0.000000 
#    y 0.000000 2.059470 0.000000 
#    z 0.000000 0.000000 1.971000 
# 
# From -- ./inp_files/15486.got.cif
#   From: 2010.05.17/outbox.cif.g08.bks.cpg/sg57_8_cif.got.tgz:15486.got - 2010.06.03 13:58:18.
