data_PCOD9440517
_publ_section_title
;
Structure prediction by ZEFSAII (Michael W. Deem and Ramdas Pophale) SiO2 
 PCOD9440517
Probable space group: P B C M
;
_chemical_formula_sum "Si O2"
_cell_formula_units_Z 56
_cell_length_a 21.000000
_cell_length_b 15.000000
_cell_length_c 9.000000
_cell_angle_alpha 90.000000
_cell_angle_beta 90.000000
_cell_angle_gamma 90.000000
_cell_volume 2835.000000
_symmetry_space_group_name_H-M "P B C M"
_symmetry_group_IT_number 57
_symmetry_cell_setting 'orthorhombic'
loop_
_space_group_symop_operation_xyz
x,y,z
-x,-y,1/2+z
x,1/2-y,-z
-x,1/2+y,1/2-z
-x,-y,-z
x,y,1/2-z
-x,1/2+y,z
x,1/2-y,1/2+z
loop_
_atom_site_type_symbol
_atom_site_label
_atom_site_fract_x
_atom_site_fract_y
_atom_site_fract_z
Si Si1 0.590105 0.526779 0.925859
Si Si2 0.833745 0.846202 0.928371
Si Si3 0.068351 0.491983 0.572466
Si Si4 0.879631 0.336671 0.916987
Si Si5 0.534152 0.150056 0.572217
Si Si6 0.272287 0.836776 0.583065
Si Si7 0.716864 0.973139 0.572532
O O1 0.598779 0.515470 0.750000
O O2 0.534017 0.599422 0.946729
O O3 0.577127 0.428169 0.996682
O O4 0.652137 0.564704 0.005562
O O5 0.832038 0.837527 0.750000
O O6 0.897409 0.899895 0.969728
O O7 0.775821 0.911259 0.972330
O O8 0.829399 0.750000 0.000000
O O9 0.065426 0.496784 0.750000
O O10 0.108363 0.575162 0.511235
O O11 0.000000 0.500000 0.500000
O O12 0.905799 0.346006 0.750000
O O13 0.803861 0.323439 0.904382
O O14 0.906605 0.250000 0.000000
O O15 0.536486 0.250000 0.500000
O O16 0.547351 0.156706 0.750000
O O17 0.299366 0.750000 0.500000
O O18 0.298290 0.844252 0.750000
O O19 0.278563 0.927681 0.493069
O O20 0.715028 0.977846 0.750000
#
# Coordination Sequence:
#
# PCOD9440517 Si02
#       7
#     8   8   8   8   8   8   8
#     4  10  22  39  60  90 123 159 205 251 299 357
#     4  10  24  43  64  88 120 159 202 250 301 358
#     4  11  23  41  62  88 120 156 201 252 305 362
#     4  10  20  35  58  86 114 149 188 235 293 355
#     4  10  21  39  63  89 122 162 203 252 303 356
#     4  10  20  34  56  85 116 151 191 237 293 357
#     4  11  22  39  61  88 123 160 200 250 304 358
#
# _framework density 19.753086
#
# number of rings (size 3 to 8) (size 9 to 14) (size 15 to 20)
#    0.000    1.714    1.429    2.571    0.000    6.857 
#    0.000    7.143    0.000    0.000    0.000    0.000 
#    0.000    0.000    0.000    0.000    0.000    0.000 
#
# Total GULP energy -312620.591295 kJ/mol
# GULP energy per Si atom -5582.510559 kJ/mol
# Density = 1.970813 g / cm^3
# Si number density = 19.753086 Si / 1000 Ang^3
#
#
#
# Elastic Constant Matrix: (Units=GPa)
#
#
# Indices 1 2 3 4 5 6 
#
# 1 81.8324 40.1439 53.6121 0.0000 0.0000 0.0000
# 2 40.1439 139.7073 57.9882 0.0000 0.0000 0.0000
# 3 53.6121 57.9882 101.7530 0.0000 0.0000 0.0000
# 4 0.0000 0.0000 0.0000 40.4451 0.0000 0.0000
# 5 0.0000 0.0000 0.0000 0.0000 26.7349 0.0000
# 6 0.0000 0.0000 0.0000 0.0000 0.0000 2.5605
#
#
#
# Elastic Compliance Matrix: (Units=1/GPa)
#
#
# Indices 1 2 3 4 5 6 
#
# 1 0.018967 -0.001706 -0.009022 0.000000 0.000000 0.000000
# 2 -0.001706 0.009529 -0.004532 0.000000 0.000000 0.000000
# 3 -0.009022 -0.004532 0.017164 0.000000 0.000000 0.000000
# 4 0.000000 0.000000 0.000000 0.024725 0.000000 0.000000
# 5 0.000000 0.000000 0.000000 0.000000 0.037404 0.000000
# 6 0.000000 0.000000 0.000000 0.000000 0.000000 0.390556
#
#
# Mechanical properties :
#
#
# Convention : Reuss Voigt Hill
#
# Bulk Modulus (GPa) = 66.04158 69.64233 67.84196
# Shear Modulus (GPa) = 9.36488 25.38465 17.37477
#
# Velocity S-wave (km/s) = 2.17974 3.58872 2.96902
# Velocity P-wave (km/s) = 6.31198 7.24602 6.79507
#
# Compressibility (1/GPa) = 0.01514198
#
# Stress axis : x y z
#
# Youngs Moduli (GPa) = 52.72256 104.94371 58.26246
#
# Poissons Ratio (x) = 0.17898 0.52562
# Poissons Ratio (y) = 0.08992 0.26404
# Poissons Ratio (z) = 0.47564 0.47559
#
# Static dielectric constant tensor:
#      x y z
#    x 1.772170 0.000000 0.000000 
#    y 0.000000 1.621630 0.000000 
#    z 0.000000 0.000000 1.679660 
# 
# From -- ./inp_files/8189.got.cif
#   From: 2010.05.17/outbox.ucp.g08.bks.cvg/sg57_5_cif.got.tgz:8189.got - 2010.06.11 16:39:23.
