data_PCOD9440660
_publ_section_title
;
Structure prediction by ZEFSAII (Michael W. Deem and Ramdas Pophale) SiO2 
 PCOD9440660
Probable space group: P B C M
;
_chemical_formula_sum "Si O2"
_cell_formula_units_Z 40
_cell_length_a 15.000000
_cell_length_b 9.000000
_cell_length_c 15.000000
_cell_angle_alpha 90.000000
_cell_angle_beta 90.000000
_cell_angle_gamma 90.000000
_cell_volume 2025.000000
_symmetry_space_group_name_H-M "P B C M"
_symmetry_group_IT_number 57
_symmetry_cell_setting 'orthorhombic'
loop_
_space_group_symop_operation_xyz
x,y,z
-x,-y,1/2+z
x,1/2-y,-z
-x,1/2+y,1/2-z
-x,-y,-z
x,y,1/2-z
-x,1/2+y,z
x,1/2-y,1/2+z
loop_
_atom_site_type_symbol
_atom_site_label
_atom_site_fract_x
_atom_site_fract_y
_atom_site_fract_z
Si Si1 0.913721 0.911917 0.540841
Si Si2 0.204306 0.881477 0.939247
Si Si3 0.389299 0.642379 0.147071
Si Si4 0.885396 0.340748 0.750000
Si Si5 0.928327 0.510632 0.250000
Si Si6 0.534455 0.631798 0.934641
O O1 0.926682 0.750000 0.500000
O O2 0.901888 0.927327 0.649401
O O3 0.825044 0.975124 0.493418
O O4 0.000000 0.000000 0.500000
O O5 0.307364 0.853907 0.920936
O O6 0.164456 0.876030 0.840988
O O7 0.166344 0.750000 0.000000
O O8 0.366542 0.676192 0.250000
O O9 0.460438 0.764074 0.112326
O O10 0.419462 0.469815 0.139719
O O11 0.968901 0.448722 0.750000
O O12 0.909364 0.165400 0.750000
O O13 0.584322 0.750000 0.000000
O O14 0.500000 0.500000 0.000000
#
# Coordination Sequence:
#
# PCOD9440660 Si02
#       6
#     8   8   8   4   4   8
#     4  12  25  42  67  96 133 179 223 275 336 399
#     4  12  24  42  63  96 135 177 220 277 334 393
#     4  11  22  39  67  97 131 170 222 272 330 404
#     4  12  24  40  68  94 130 173 227 269 333 400
#     4  12  24  42  68  96 128 175 229 271 329 402
#     4   9  19  38  63  91 124 169 212 261 332 400
#
# _framework density 19.753086
#
# number of rings (size 3 to 8) (size 9 to 14) (size 15 to 20)
#    0.000    0.800    5.000    4.200    0.000    0.800 
#    0.000    0.000    0.000    0.000    0.000    0.000 
#    0.000    0.000    0.000    0.000    0.000    0.000 
#
# Total GULP energy -222684.120353 kJ/mol
# GULP energy per Si atom -5567.103009 kJ/mol
# Density = 1.970813 g / cm^3
# Si number density = 19.753086 Si / 1000 Ang^3
#
#
#
# Elastic Constant Matrix: (Units=GPa)
#
#
# Indices 1 2 3 4 5 6 
#
# 1 49.4164 10.1446 44.3074 0.0000 0.0000 0.0000
# 2 10.1446 101.1333 36.5030 0.0000 0.0000 0.0000
# 3 44.3074 36.5030 166.6315 0.0000 0.0000 0.0000
# 4 0.0000 0.0000 0.0000 34.2680 0.0000 0.0000
# 5 0.0000 0.0000 0.0000 0.0000 31.0562 0.0000
# 6 0.0000 0.0000 0.0000 0.0000 0.0000 24.9895
#
#
#
# Elastic Compliance Matrix: (Units=1/GPa)
#
#
# Indices 1 2 3 4 5 6 
#
# 1 0.026572 -0.000125 -0.007038 0.000000 0.000000 0.000000
# 2 -0.000125 0.010737 -0.002319 0.000000 0.000000 0.000000
# 3 -0.007038 -0.002319 0.008381 0.000000 0.000000 0.000000
# 4 0.000000 0.000000 0.000000 0.029182 0.000000 0.000000
# 5 0.000000 0.000000 0.000000 0.000000 0.032200 0.000000
# 6 0.000000 0.000000 0.000000 0.000000 0.000000 0.040017
#
#
# Mechanical properties :
#
#
# Convention : Reuss Voigt Hill
#
# Bulk Modulus (GPa) = 37.41651 55.45457 46.43554
# Shear Modulus (GPa) = 28.57762 33.14449 30.86106
#
# Velocity S-wave (km/s) = 3.80773 4.10071 3.95693
# Velocity P-wave (km/s) = 6.18991 7.11027 6.66599
#
# Compressibility (1/GPa) = 0.02672617
#
# Stress axis : x y z
#
# Youngs Moduli (GPa) = 37.63297 93.13168 119.32137
#
# Poissons Ratio (x) = 0.01165 0.83981
# Poissons Ratio (y) = 0.00471 0.27670
# Poissons Ratio (z) = 0.26487 0.21597
#
# Static dielectric constant tensor:
#      x y z
#    x 1.767610 0.000000 0.000000 
#    y 0.000000 1.483670 0.000000 
#    z 0.000000 0.000000 1.989820 
# 
# From -- ./inp_files/18286.got.cif
#   From: 2010.05.17/outbox.ucp.g08.bks.cvg/sg57_10_cif.got.tgz:18286.got - 2010.06.11 16:39:23.
