data_PCOD9440457
_publ_section_title
;
Structure prediction by ZEFSAII (Michael W. Deem and Ramdas Pophale) SiO2 
 PCOD9440457
Probable space group: P B C M
;
_chemical_formula_sum "Si O2"
_cell_formula_units_Z 56
_cell_length_a 18.000000
_cell_length_b 21.000000
_cell_length_c 9.000000
_cell_angle_alpha 90.000000
_cell_angle_beta 90.000000
_cell_angle_gamma 90.000000
_cell_volume 3402.000000
_symmetry_space_group_name_H-M "P B C M"
_symmetry_group_IT_number 57
_symmetry_cell_setting 'orthorhombic'
loop_
_space_group_symop_operation_xyz
x,y,z
-x,-y,1/2+z
x,1/2-y,-z
-x,1/2+y,1/2-z
-x,-y,-z
x,y,1/2-z
-x,1/2+y,z
x,1/2-y,1/2+z
loop_
_atom_site_type_symbol
_atom_site_label
_atom_site_fract_x
_atom_site_fract_y
_atom_site_fract_z
Si Si1 0.297900 0.954407 0.073298
Si Si2 0.137202 0.932693 0.569933
Si Si3 0.584539 0.820657 0.070088
Si Si4 0.882246 0.583070 0.571393
Si Si5 0.532336 0.434544 0.070605
Si Si6 0.722509 0.604937 0.073166
Si Si7 0.974252 0.175325 0.568397
O O1 0.286951 0.942134 0.250000
O O2 0.379715 0.927814 0.029378
O O3 0.302011 0.031069 0.053399
O O4 0.223450 0.931547 0.986983
O O5 0.134140 0.926864 0.750000
O O6 0.089751 0.873785 0.496883
O O7 0.108560 0.006291 0.532146
O O8 0.588012 0.815634 0.250000
O O9 0.519489 0.873035 0.033227
O O10 0.572255 0.750000 0.000000
O O11 0.661998 0.850122 0.007039
O O12 0.872649 0.583898 0.750000
O O13 0.806010 0.606895 0.493908
O O14 0.950096 0.632732 0.537508
O O15 0.530187 0.441633 0.250000
O O16 0.500000 0.500000 0.000000
O O17 0.724053 0.618507 0.250000
O O18 0.974287 0.250000 0.500000
O O19 0.967164 0.180637 0.750000
#
# Coordination Sequence:
#
# PCOD9440457 Si02
#       7
#     8   8   8   8   8   8   8
#     4   9  18  34  56  84 113 143 182 230 282 333
#     4  10  20  36  59  86 113 145 188 235 283 335
#     4  11  23  37  54  78 113 153 189 231 282 338
#     4   9  20  37  58  84 115 148 188 233 279 334
#     4  10  20  35  58  84 111 145 188 236 283 331
#     4  10  19  33  56  83 112 146 183 227 279 335
#     4  11  23  39  58  81 112 150 188 233 285 339
#
# _framework density 16.460905
#
# number of rings (size 3 to 8) (size 9 to 14) (size 15 to 20)
#    0.000    2.000    1.429    2.143    0.000    4.000 
#    0.000    2.143    0.000    1.714    0.000    0.000 
#    0.000    0.000    0.000    0.000    0.000    0.000 
#
# Total GULP energy -312012.689592 kJ/mol
# GULP energy per Si atom -5571.655171 kJ/mol
# Density = 1.642344 g / cm^3
# Si number density = 16.460905 Si / 1000 Ang^3
#
#
#
# Elastic Constant Matrix: (Units=GPa)
#
#
# Indices 1 2 3 4 5 6 
#
# 1 152.0352 81.0195 52.2053 0.0000 0.0000 0.0000
# 2 81.0195 149.5700 54.7786 0.0000 0.0000 0.0000
# 3 52.2053 54.7786 82.3466 0.0000 0.0000 0.0000
# 4 0.0000 0.0000 0.0000 36.1490 0.0000 0.0000
# 5 0.0000 0.0000 0.0000 0.0000 32.3775 0.0000
# 6 0.0000 0.0000 0.0000 0.0000 0.0000 36.2210
#
#
#
# Elastic Compliance Matrix: (Units=1/GPa)
#
#
# Indices 1 2 3 4 5 6 
#
# 1 0.010000 -0.004092 -0.003618 0.000000 0.000000 0.000000
# 2 -0.004092 0.010514 -0.004400 0.000000 0.000000 0.000000
# 3 -0.003618 -0.004400 0.017364 0.000000 0.000000 0.000000
# 4 0.000000 0.000000 0.000000 0.027663 0.000000 0.000000
# 5 0.000000 0.000000 0.000000 0.000000 0.030886 0.000000
# 6 0.000000 0.000000 0.000000 0.000000 0.000000 0.027608
#
#
# Mechanical properties :
#
#
# Convention : Reuss Voigt Hill
#
# Bulk Modulus (GPa) = 73.21123 84.43984 78.82553
# Shear Modulus (GPa) = 32.72086 34.01274 33.36680
#
# Velocity S-wave (km/s) = 4.46330 4.55056 4.50714
# Velocity P-wave (km/s) = 8.43409 8.88925 8.66466
#
# Compressibility (1/GPa) = 0.01365911
#
# Stress axis : x y z
#
# Youngs Moduli (GPa) = 99.99669 95.11337 57.58976
#
# Poissons Ratio (x) = 0.38920 0.20835
# Poissons Ratio (y) = 0.40919 0.25338
# Poissons Ratio (z) = 0.36177 0.41848
#
# Static dielectric constant tensor:
#      x y z
#    x 1.568470 0.000000 0.000000 
#    y 0.000000 1.553350 0.000000 
#    z 0.000000 0.000000 1.561320 
# 
# From -- ./inp_files/6992.got.cif
#   From: 2010.05.17/outbox.ucp.g08.bks.cvg/sg57_4_cif.got.tgz:6992.got - 2010.06.11 16:39:23.
