data_PCOD9440572
_publ_section_title
;
Structure prediction by ZEFSAII (Michael W. Deem and Ramdas Pophale) SiO2 
 PCOD9440572
Probable space group: P B C M
;
_chemical_formula_sum "Si O2"
_cell_formula_units_Z 48
_cell_length_a 12.000000
_cell_length_b 24.000000
_cell_length_c 9.000000
_cell_angle_alpha 90.000000
_cell_angle_beta 90.000000
_cell_angle_gamma 90.000000
_cell_volume 2592.000000
_symmetry_space_group_name_H-M "P B C M"
_symmetry_group_IT_number 57
_symmetry_cell_setting 'orthorhombic'
loop_
_space_group_symop_operation_xyz
x,y,z
-x,-y,1/2+z
x,1/2-y,-z
-x,1/2+y,1/2-z
-x,-y,-z
x,y,1/2-z
-x,1/2+y,z
x,1/2-y,1/2+z
loop_
_atom_site_type_symbol
_atom_site_label
_atom_site_fract_x
_atom_site_fract_y
_atom_site_fract_z
Si Si1 0.799061 0.893002 0.426806
Si Si2 0.349836 0.306921 0.579217
Si Si3 0.121507 0.502706 0.927847
Si Si4 0.783960 0.377483 0.427978
Si Si5 0.383008 0.693655 0.081224
Si Si6 0.999090 0.190701 0.571992
O O1 0.796342 0.901022 0.250000
O O2 0.695441 0.858155 0.485830
O O3 0.810104 0.950940 0.510346
O O4 0.906610 0.854791 0.463387
O O5 0.312535 0.250000 0.500000
O O6 0.310748 0.308524 0.750000
O O7 0.483517 0.307619 0.579412
O O8 0.111310 0.500557 0.750000
O O9 0.178266 0.560875 0.969347
O O10 0.000000 0.500000 0.000000
O O11 0.776594 0.374843 0.250000
O O12 0.669493 0.358481 0.499037
O O13 0.880610 0.334565 0.476013
O O14 0.344155 0.695141 0.250000
O O15 0.346686 0.750000 0.000000
O O16 0.021464 0.250000 0.500000
O O17 0.997947 0.196829 0.750000
#
# Coordination Sequence:
#
# PCOD9440572 Si02
#       6
#     8   8   8   8   8   8
#     4  11  22  38  58  83 115 150 194 237 283 342
#     4  10  21  38  59  86 117 151 191 236 287 340
#     4  11  22  39  60  83 114 153 193 237 287 341
#     4  10  21  38  57  81 114 148 189 235 282 337
#     4  10  21  37  59  86 116 150 191 235 284 342
#     4  10  21  35  51  79 114 144 179 228 280 335
#
# _framework density 18.518519000000001
#
# number of rings (size 3 to 8) (size 9 to 14) (size 15 to 20)
#    0.000    1.667    1.667    3.000    0.000    8.000 
#    0.000    0.833    0.000    0.000    0.000    0.000 
#    0.000    0.000    0.000    0.000    0.000    0.000 
#
# Total GULP energy -268083.121746 kJ/mol
# GULP energy per Si atom -5585.065036 kJ/mol
# Density = 1.847637 g / cm^3
# Si number density = 18.518519 Si / 1000 Ang^3
#
#
#
# Elastic Constant Matrix: (Units=GPa)
#
#
# Indices 1 2 3 4 5 6 
#
# 1 21.9880 35.9640 24.1697 0.0000 0.0000 0.0000
# 2 35.9640 100.4991 36.6225 0.0000 0.0000 0.0000
# 3 24.1697 36.6225 23.5796 0.0000 0.0000 0.0000
# 4 0.0000 0.0000 0.0000 32.0279 0.0000 0.0000
# 5 0.0000 0.0000 0.0000 0.0000 22.2701 0.0000
# 6 0.0000 0.0000 0.0000 0.0000 0.0000 13.3411
#
#
#
# Elastic Compliance Matrix: (Units=1/GPa)
#
#
# Indices 1 2 3 4 5 6 
#
# 1 -0.351685 -0.012698 0.380209 0.000000 0.000000 0.000000
# 2 -0.012698 0.022467 -0.021878 0.000000 0.000000 0.000000
# 3 0.380209 -0.021878 -0.313334 0.000000 0.000000 0.000000
# 4 0.000000 0.000000 0.000000 0.031223 0.000000 0.000000
# 5 0.000000 0.000000 0.000000 0.000000 0.044903 0.000000
# 6 0.000000 0.000000 0.000000 0.000000 0.000000 0.074956
#
#
# Mechanical properties :
#
#
# Convention : Reuss Voigt Hill
#
# Bulk Modulus (GPa) = 20.52891 37.73102 29.12997
# Shear Modulus (GPa) = -4.28634 16.81521 6.26443
#
# Velocity S-wave (km/s) = -1.52304 3.01661 1.84123
# Velocity P-wave (km/s) = 2.83140 5.70546 4.50383
#
# Compressibility (1/GPa) = 0.04871178
#
# Stress axis : x y z
#
# Youngs Moduli (GPa) = -2.84345 44.50947 -3.19149
#
# Poissons Ratio (x) = 0.56520 1.21343
# Poissons Ratio (y) = -0.03611 -0.06982
# Poissons Ratio (z) = 1.08110 0.97380
#
# Static dielectric constant tensor:
#      x y z
#    x 1.657750 0.000000 0.000000 
#    y 0.000000 1.673340 0.000000 
#    z 0.000000 0.000000 1.615760 
# 
# From -- ./inp_files/3145.got.cif
#   From: 2010.05.17/outbox.ucp.g08.bks.cvg/sg57_2_cif.got.tgz:3145.got - 2010.06.11 16:39:23.
