data_PCOD9440087
_publ_section_title
;
Structure prediction by ZEFSAII (Michael W. Deem and Ramdas Pophale) SiO2 
 PCOD9440087
Probable space group: P B C M
;
_chemical_formula_sum "Si O2"
_cell_formula_units_Z 56
_cell_length_a 4.963236
_cell_length_b 25.046397
_cell_length_c 22.955029
_cell_angle_alpha 90.000000
_cell_angle_beta 90.000000
_cell_angle_gamma 90.000000
_cell_volume 2853.566725
_symmetry_space_group_name_H-M "P B C M"
_symmetry_group_IT_number 57
_symmetry_cell_setting 'orthorhombic'
loop_
_space_group_symop_operation_xyz
x,y,z
-x,-y,1/2+z
x,1/2-y,-z
-x,1/2+y,1/2-z
-x,-y,-z
x,y,1/2-z
-x,1/2+y,z
x,1/2-y,1/2+z
loop_
_atom_site_type_symbol
_atom_site_label
_atom_site_fract_x
_atom_site_fract_y
_atom_site_fract_z
Si Si1 0.619171 0.401411 0.556746
Si Si2 0.236248 0.662336 0.867751
Si Si3 0.878081 0.830050 0.542071
Si Si4 0.835410 0.495861 0.623164
Si Si5 0.253220 0.215080 0.585862
Si Si6 0.052635 0.039836 0.750000
Si Si7 0.445794 0.613524 0.750000
Si Si8 0.672948 0.051467 0.931046
O O1 0.322077 0.377540 0.560094
O O2 0.718431 0.437517 0.609961
O O3 0.640270 0.439018 0.499577
O O4 0.820786 0.351746 0.547940
O O5 0.438147 0.702934 0.899929
O O6 0.364196 0.646956 0.806404
O O7 0.227952 0.607278 0.903841
O O8 0.941573 0.687701 0.866986
O O9 0.816638 0.813686 0.475393
O O10 0.815398 0.777051 0.578689
O O11 0.891726 0.507989 0.690617
O O12 0.608443 0.536448 0.599018
O O13 0.106416 0.507558 0.586555
O O14 0.251509 0.091249 0.750000
O O15 0.748140 0.061383 0.750000
#
# Coordination Sequence:
#
# PCOD9440087 Si02
#       8
#     8   8   8   8   8   4   4   8
#     4  12  23  37  59  87 121 154 194 235 289 348
#     4  12  21  38  60  87 120 151 184 237 293 348
#     4  11  22  38  60  87 113 151 193 236 287 345
#     4  12  24  38  57  83 121 158 192 239 286 340
#     4  11  22  38  61  86 117 149 187 240 294 340
#     4  12  22  40  56  83 114 157 200 236 268 346
#     4  12  24  36  62  83 118 153 194 230 290 342
#     4  12  21  38  57  88 121 154 184 236 293 355
#
# _framework density 19.624563999999999
#
# number of rings (size 3 to 8) (size 9 to 14) (size 15 to 20)
#    0.000    0.286    5.714    5.143    0.000    2.286 
#    0.000    0.000    0.000    5.143    0.000    0.000 
#    0.000    0.000    0.000    0.000    0.000    0.000 
#
# Total GULP energy -313456.068177 kJ/mol
# GULP energy per Si atom -5597.429789 kJ/mol
# Density = 1.957990 g / cm^3
# Si number density = 19.624564 Si / 1000 Ang^3
#
#
#
# Elastic Constant Matrix: (Units=GPa)
#
#
# Indices 1 2 3 4 5 6 
#
# 1 63.2196 -5.6695 -18.3532 0.0000 0.0000 0.0000
# 2 -5.6695 66.8729 17.4092 0.0000 0.0000 0.0000
# 3 -18.3532 17.4092 48.3557 0.0000 0.0000 0.0000
# 4 0.0000 0.0000 0.0000 21.1671 0.0000 0.0000
# 5 0.0000 0.0000 0.0000 0.0000 16.1693 0.0000
# 6 0.0000 0.0000 0.0000 0.0000 0.0000 28.6446
#
#
#
# Elastic Compliance Matrix: (Units=1/GPa)
#
#
# Indices 1 2 3 4 5 6 
#
# 1 0.017781 -0.000275 0.006848 0.000000 0.000000 0.000000
# 2 -0.000275 0.016504 -0.006046 0.000000 0.000000 0.000000
# 3 0.006848 -0.006046 0.025456 0.000000 0.000000 0.000000
# 4 0.000000 0.000000 0.000000 0.047243 0.000000 0.000000
# 5 0.000000 0.000000 0.000000 0.000000 0.061846 0.000000
# 6 0.000000 0.000000 0.000000 0.000000 0.000000 0.034911
#
#
# Mechanical properties :
#
#
# Convention : Reuss Voigt Hill
#
# Bulk Modulus (GPa) = 16.44897 18.35789 17.40343
# Shear Modulus (GPa) = 22.42620 25.53364 23.97992
#
# Velocity S-wave (km/s) = 3.38414 3.61100 3.49941
# Velocity P-wave (km/s) = 4.86517 5.17306 5.02148
#
# Compressibility (1/GPa) = 0.06079408
#
# Stress axis : x y z
#
# Youngs Moduli (GPa) = 56.23921 60.58954 39.28344
#
# Poissons Ratio (x) = 0.01667 -0.26901
# Poissons Ratio (y) = 0.01548 0.23753
# Poissons Ratio (z) = -0.38512 0.36635
#
# Static dielectric constant tensor:
#      x y z
#    x 1.680140 0.000000 0.000000 
#    y 0.000000 1.684060 0.000000 
#    z 0.000000 0.000000 1.686600 
# 
# From -- ./inp_files/26318.got.cif
#   From: 2010.05.17/outbox.cif.g08.bks.cpg/sg57_14_cif.got.tgz:26318.got - 2010.06.03 13:58:18.
