data_PCOD9440026
_publ_section_title
;
Structure prediction by ZEFSAII (Michael W. Deem and Ramdas Pophale) SiO2 
 PCOD9440026
Probable space group: P B C M
;
_chemical_formula_sum "Si O2"
_cell_formula_units_Z 48
_cell_length_a 15.540891
_cell_length_b 20.214839
_cell_length_c 9.209669
_cell_angle_alpha 90.000000
_cell_angle_beta 90.000000
_cell_angle_gamma 90.000000
_cell_volume 2893.278387
_symmetry_space_group_name_H-M "P B C M"
_symmetry_group_IT_number 57
_symmetry_cell_setting 'orthorhombic'
loop_
_space_group_symop_operation_xyz
x,y,z
-x,-y,1/2+z
x,1/2-y,-z
-x,1/2+y,1/2-z
-x,-y,-z
x,y,1/2-z
-x,1/2+y,z
x,1/2-y,1/2+z
loop_
_atom_site_type_symbol
_atom_site_label
_atom_site_fract_x
_atom_site_fract_y
_atom_site_fract_z
Si Si1 0.031635 0.432378 0.075039
Si Si2 0.082557 0.820311 0.924854
Si Si3 0.229401 0.453290 0.421644
Si Si4 0.568860 0.410073 0.082710
Si Si5 0.600774 0.930535 0.917300
Si Si6 0.739769 0.107513 0.421791
O O1 0.017715 0.434699 0.250000
O O2 0.134122 0.426746 0.049614
O O3 0.000000 0.500000 0.000000
O O4 0.980222 0.373265 0.999617
O O5 0.070087 0.818443 0.750000
O O6 0.180305 0.844980 0.952328
O O7 0.069244 0.750000 0.000000
O O8 0.247126 0.447223 0.250000
O O9 0.307032 0.420065 0.508606
O O10 0.230685 0.532077 0.455544
O O11 0.562218 0.390900 0.250000
O O12 0.584937 0.489757 0.076731
O O13 0.479509 0.398368 0.000204
O O14 0.652500 0.378696 0.008180
O O15 0.601491 0.910773 0.750000
O O16 0.721109 0.109610 0.250000
#
# Coordination Sequence:
#
# PCOD9440026 Si02
#       6
#     8   8   8   8   8   8
#     4  11  21  35  55  79 106 140 179 224 272 324
#     4  11  23  39  55  77 106 141 180 224 272 322
#     4   9  17  30  47  70 100 133 169 211 260 309
#     4   9  16  25  40  64  94 129 165 201 246 298
#     4   9  16  25  39  64  96 130 164 202 249 298
#     4   9  17  31  48  68  98 133 169 209 256 309
#
# _framework density 16.590176
#
# number of rings (size 3 to 8) (size 9 to 14) (size 15 to 20)
#    0.000    2.333    1.667    2.000    0.000    6.667 
#    0.000    0.000    0.000    0.000    0.000    1.167 
#    0.000    2.667    0.000    0.000    0.000    0.000 
#
# Total GULP energy -267647.006007 kJ/mol
# GULP energy per Si atom -5575.979292 kJ/mol
# Density = 1.655242 g / cm^3
# Si number density = 16.590176 Si / 1000 Ang^3
#
#
#
# Elastic Constant Matrix: (Units=GPa)
#
#
# Indices 1 2 3 4 5 6 
#
# 1 159.0397 55.5471 105.8734 0.0000 0.0000 0.0000
# 2 55.5471 70.9033 52.7202 0.0000 0.0000 0.0000
# 3 105.8734 52.7202 112.0856 0.0000 0.0000 0.0000
# 4 0.0000 0.0000 0.0000 16.5167 0.0000 0.0000
# 5 0.0000 0.0000 0.0000 0.0000 36.6903 0.0000
# 6 0.0000 0.0000 0.0000 0.0000 0.0000 12.3628
#
#
#
# Elastic Compliance Matrix: (Units=1/GPa)
#
#
# Indices 1 2 3 4 5 6 
#
# 1 0.017148 -0.002138 -0.015192 0.000000 0.000000 0.000000
# 2 -0.002138 0.021956 -0.008307 0.000000 0.000000 0.000000
# 3 -0.015192 -0.008307 0.027179 0.000000 0.000000 0.000000
# 4 0.000000 0.000000 0.000000 0.060545 0.000000 0.000000
# 5 0.000000 0.000000 0.000000 0.000000 0.027255 0.000000
# 6 0.000000 0.000000 0.000000 0.000000 0.000000 0.080888
#
#
# Mechanical properties :
#
#
# Convention : Reuss Voigt Hill
#
# Bulk Modulus (GPa) = 66.63127 85.59000 76.11064
# Shear Modulus (GPa) = 17.16761 21.63985 19.40373
#
# Velocity S-wave (km/s) = 3.22033 3.61553 3.42364
# Velocity P-wave (km/s) = 7.35375 8.31458 7.84888
#
# Compressibility (1/GPa) = 0.01500797
#
# Stress axis : x y z
#
# Youngs Moduli (GPa) = 58.31739 45.54624 36.79346
#
# Poissons Ratio (x) = 0.09738 0.55895
# Poissons Ratio (y) = 0.12469 0.30566
# Poissons Ratio (z) = 0.88593 0.37837
#
# Static dielectric constant tensor:
#      x y z
#    x 1.555720 0.000000 0.000000 
#    y 0.000000 1.537800 0.000000 
#    z 0.000000 0.000000 1.537000 
# 
# From -- ./inp_files/4565.got.cif
#   From: 2010.05.17/outbox.cif.g08.bks.cpg/sg57_3_cif.got.tgz:4565.got - 2010.06.03 13:58:18.
