data_PCOD9440214
_publ_section_title
;
Structure prediction by ZEFSAII (Michael W. Deem and Ramdas Pophale) SiO2 
 PCOD9440214
Probable space group: P B C M
;
_chemical_formula_sum "Si O2"
_cell_formula_units_Z 24
_cell_length_a 18.097158
_cell_length_b 4.912029
_cell_length_c 11.310901
_cell_angle_alpha 90.000000
_cell_angle_beta 90.000000
_cell_angle_gamma 90.000000
_cell_volume 1005.468574
_symmetry_space_group_name_H-M "P B C M"
_symmetry_group_IT_number 57
_symmetry_cell_setting 'orthorhombic'
loop_
_space_group_symop_operation_xyz
x,y,z
-x,-y,1/2+z
x,1/2-y,-z
-x,1/2+y,1/2-z
-x,-y,-z
x,y,1/2-z
-x,1/2+y,z
x,1/2-y,1/2+z
loop_
_atom_site_type_symbol
_atom_site_label
_atom_site_fract_x
_atom_site_fract_y
_atom_site_fract_z
Si Si1 0.444658 0.250000 0.500000
Si Si2 0.046451 0.258559 0.250000
Si Si3 0.358971 0.288929 0.750000
Si Si4 0.263765 0.717961 0.250000
Si Si5 0.156196 0.998123 0.066651
O O1 0.500000 0.500000 0.500000
O O2 0.399189 0.237298 0.624049
O O3 0.095704 0.162392 0.140855
O O4 0.972747 0.074956 0.250000
O O5 0.338127 0.606793 0.750000
O O6 0.285568 0.096861 0.750000
O O7 0.215714 0.824559 0.140279
O O8 0.116267 0.750000 0.000000
O O9 0.194927 0.250000 0.000000
#
# Coordination Sequence:
#
# PCOD9440214 Si02
#       5
#     4   4   4   4   8
#     4  12  26  48  72 106 146 186 234 288 346 410
#     4  11  24  41  62  95 131 172 234 282 348 431
#     4  12  26  44  76 104 141 192 234 287 345 426
#     4  11  26  43  66 103 136 176 234 287 349 419
#     4  11  24  42  66  93 135 178 223 296 351 412
#
# _framework density 23.869467
#
# number of rings (size 3 to 8) (size 9 to 14) (size 15 to 20)
#    0.000    0.667    0.000    7.000    7.000    9.333 
#    0.000    0.000    0.000    0.000    0.000    0.000 
#    0.000    0.000    0.000    0.000    0.000    0.000 
#
# Total GULP energy -134202.734663 kJ/mol
# GULP energy per Si atom -5591.780611 kJ/mol
# Density = 2.381514 g / cm^3
# Si number density = 23.869467 Si / 1000 Ang^3
#
#
#
# Elastic Constant Matrix: (Units=GPa)
#
#
# Indices 1 2 3 4 5 6 
#
# 1 55.3136 -5.2495 31.9080 0.0000 0.0000 0.0000
# 2 -5.2495 119.8272 15.7352 0.0000 0.0000 0.0000
# 3 31.9080 15.7352 117.3817 0.0000 0.0000 0.0000
# 4 0.0000 0.0000 0.0000 25.4158 0.0000 0.0000
# 5 0.0000 0.0000 0.0000 0.0000 56.9634 0.0000
# 6 0.0000 0.0000 0.0000 0.0000 0.0000 66.5033
#
#
#
# Elastic Compliance Matrix: (Units=1/GPa)
#
#
# Indices 1 2 3 4 5 6 
#
# 1 0.021801 0.001764 -0.006163 0.000000 0.000000 0.000000
# 2 0.001764 0.008638 -0.001638 0.000000 0.000000 0.000000
# 3 -0.006163 -0.001638 0.010414 0.000000 0.000000 0.000000
# 4 0.000000 0.000000 0.000000 0.039346 0.000000 0.000000
# 5 0.000000 0.000000 0.000000 0.000000 0.017555 0.000000
# 6 0.000000 0.000000 0.000000 0.000000 0.000000 0.015037
#
#
# Mechanical properties :
#
#
# Convention : Reuss Voigt Hill
#
# Bulk Modulus (GPa) = 34.74508 41.92331 38.33420
# Shear Modulus (GPa) = 37.18688 46.45174 41.81931
#
# Velocity S-wave (km/s) = 3.95134 4.41622 4.19023
# Velocity P-wave (km/s) = 5.95024 6.60346 6.28534
#
# Compressibility (1/GPa) = 0.02878105
#
# Stress axis : x y z
#
# Youngs Moduli (GPa) = 45.86896 115.77185 96.02496
#
# Poissons Ratio (x) = -0.20426 0.59178
# Poissons Ratio (y) = -0.08093 0.15724
# Poissons Ratio (z) = 0.28268 0.18958
#
# Static dielectric constant tensor:
#      x y z
#    x 1.883710 0.000000 0.000000 
#    y 0.000000 1.823920 0.000000 
#    z 0.000000 0.000000 2.108940 
# 
# From -- ./inp_files/14015.got.cif
#   From: 2010.05.17/outbox.cif.g08.bks.cpg/sg57_8_cif.got.tgz:14015.got - 2010.06.03 13:58:18.
