data_PCOD9440226
_publ_section_title
;
Structure prediction by ZEFSAII (Michael W. Deem and Ramdas Pophale) SiO2 
 PCOD9440226
Probable space group: P B C M
;
_chemical_formula_sum "Si O2"
_cell_formula_units_Z 32
_cell_length_a 9.355691
_cell_length_b 8.694664
_cell_length_c 17.497600
_cell_angle_alpha 90.000000
_cell_angle_beta 90.000000
_cell_angle_gamma 90.000000
_cell_volume 1423.335093
_symmetry_space_group_name_H-M "P B C M"
_symmetry_group_IT_number 57
_symmetry_cell_setting 'orthorhombic'
loop_
_space_group_symop_operation_xyz
x,y,z
-x,-y,1/2+z
x,1/2-y,-z
-x,1/2+y,1/2-z
-x,-y,-z
x,y,1/2-z
-x,1/2+y,z
x,1/2-y,1/2+z
loop_
_atom_site_type_symbol
_atom_site_label
_atom_site_fract_x
_atom_site_fract_y
_atom_site_fract_z
Si Si1 0.862833 0.963611 0.838961
Si Si2 0.384897 0.999581 0.568343
Si Si3 0.095275 0.339779 0.071693
Si Si4 0.594979 0.189924 0.661330
O O1 0.903537 0.960758 0.750000
O O2 0.852195 0.791854 0.870413
O O3 0.716869 0.059914 0.845774
O O4 0.983795 0.051532 0.886616
O O5 0.370773 0.832800 0.606520
O O6 0.500000 0.000000 0.500000
O O7 0.232321 0.064679 0.542958
O O8 0.449690 0.112606 0.632471
O O9 0.028935 0.250000 0.000000
O O10 0.587036 0.238519 0.750000
#
# Coordination Sequence:
#
# PCOD9440226 Si02
#       4
#     8   8   8   8
#     4  11  25  44  68 100 135 173 220 271 327 393
#     4  12  25  43  67  96 132 174 221 274 329 391
#     4  12  25  43  68  97 132 173 218 270 328 390
#     4  11  24  42  65  95 131 172 219 271 330 394
#
# _framework density 22.482406999999998
#
# number of rings (size 3 to 8) (size 9 to 14) (size 15 to 20)
#    0.000    0.500    0.000    9.000    0.000   10.000 
#    0.000    0.000    0.000    0.000    0.000    0.000 
#    0.000    0.000    0.000    0.000    0.000    0.000 
#
# Total GULP energy -179420.188338 kJ/mol
# GULP energy per Si atom -5606.880886 kJ/mol
# Density = 2.243124 g / cm^3
# Si number density = 22.482407 Si / 1000 Ang^3
#
#
#
# Elastic Constant Matrix: (Units=GPa)
#
#
# Indices 1 2 3 4 5 6 
#
# 1 71.7295 9.6491 27.2974 0.0000 0.0000 0.0000
# 2 9.6491 93.4191 12.6841 0.0000 0.0000 0.0000
# 3 27.2974 12.6841 101.3942 0.0000 0.0000 0.0000
# 4 0.0000 0.0000 0.0000 44.1113 0.0000 0.0000
# 5 0.0000 0.0000 0.0000 0.0000 32.5291 0.0000
# 6 0.0000 0.0000 0.0000 0.0000 0.0000 35.9605
#
#
#
# Elastic Compliance Matrix: (Units=1/GPa)
#
#
# Indices 1 2 3 4 5 6 
#
# 1 0.015635 -0.001061 -0.004077 0.000000 0.000000 0.000000
# 2 -0.001061 0.010961 -0.001085 0.000000 0.000000 0.000000
# 3 -0.004077 -0.001085 0.011096 0.000000 0.000000 0.000000
# 4 0.000000 0.000000 0.000000 0.022670 0.000000 0.000000
# 5 0.000000 0.000000 0.000000 0.000000 0.030742 0.000000
# 6 0.000000 0.000000 0.000000 0.000000 0.000000 0.027808
#
#
# Mechanical properties :
#
#
# Convention : Reuss Voigt Hill
#
# Bulk Modulus (GPa) = 39.61081 40.64489 40.12785
# Shear Modulus (GPa) = 35.77181 36.98100 36.37640
#
# Velocity S-wave (km/s) = 3.99319 4.06012 4.02679
# Velocity P-wave (km/s) = 6.23840 6.33224 6.28549
#
# Compressibility (1/GPa) = 0.02524564
#
# Stress axis : x y z
#
# Youngs Moduli (GPa) = 63.95730 91.22871 90.12423
#
# Poissons Ratio (x) = 0.09683 0.36740
# Poissons Ratio (y) = 0.06789 0.09783
# Poissons Ratio (z) = 0.26073 0.09903
#
# Static dielectric constant tensor:
#      x y z
#    x 1.786290 0.000000 0.000000 
#    y 0.000000 1.826720 0.000000 
#    z 0.000000 0.000000 1.833230 
# 
# From -- ./inp_files/15596.got.cif
#   From: 2010.05.17/outbox.cif.g08.bks.cpg/sg57_8_cif.got.tgz:15596.got - 2010.06.03 13:58:18.
