data_PCOD9440526
_publ_section_title
;
Structure prediction by ZEFSAII (Michael W. Deem and Ramdas Pophale) SiO2 
 PCOD9440526
Probable space group: P B C M
;
_chemical_formula_sum "Si O2"
_cell_formula_units_Z 64
_cell_length_a 21.000000
_cell_length_b 18.000000
_cell_length_c 9.000000
_cell_angle_alpha 90.000000
_cell_angle_beta 90.000000
_cell_angle_gamma 90.000000
_cell_volume 3402.000000
_symmetry_space_group_name_H-M "P B C M"
_symmetry_group_IT_number 57
_symmetry_cell_setting 'orthorhombic'
loop_
_space_group_symop_operation_xyz
x,y,z
-x,-y,1/2+z
x,1/2-y,-z
-x,1/2+y,1/2-z
-x,-y,-z
x,y,1/2-z
-x,1/2+y,z
x,1/2-y,1/2+z
loop_
_atom_site_type_symbol
_atom_site_label
_atom_site_fract_x
_atom_site_fract_y
_atom_site_fract_z
Si Si1 0.481630 0.828014 0.429294
Si Si2 0.593550 0.560720 0.924296
Si Si3 0.641470 0.088127 0.928802
Si Si4 0.172324 0.401603 0.571386
Si Si5 0.213951 0.568997 0.569738
Si Si6 0.095160 0.669037 0.571089
Si Si7 0.290693 0.324116 0.076210
Si Si8 0.950977 0.667658 0.571108
O O1 0.500385 0.750000 0.500000
O O2 0.484521 0.822659 0.250000
O O3 0.531339 0.892915 0.472364
O O4 0.409365 0.849172 0.474522
O O5 0.585517 0.541067 0.750000
O O6 0.655256 0.613529 0.936679
O O7 0.609577 0.488297 0.017944
O O8 0.643861 0.088597 0.750000
O O9 0.714972 0.091476 0.982977
O O10 0.168135 0.395437 0.750000
O O11 0.196874 0.484168 0.532127
O O12 0.226204 0.347226 0.507279
O O13 0.104492 0.382328 0.498867
O O14 0.215345 0.573156 0.750000
O O15 0.154716 0.619537 0.519520
O O16 0.100459 0.750000 0.500000
O O17 0.098546 0.674918 0.750000
O O18 0.023345 0.640685 0.537267
O O19 0.277311 0.312178 0.250000
O O20 0.315943 0.250000 0.000000
O O21 0.944972 0.750000 0.500000
O O22 0.943901 0.672041 0.750000
#
# Coordination Sequence:
#
# PCOD9440526 Si02
#       8
#     8   8   8   8   8   8   8   8
#     4  10  22  38  57  84 115 147 186 231 277 328
#     4  10  21  37  56  82 113 145 183 230 276 324
#     4  10  20  37  60  83 111 149 188 225 275 334
#     4  11  21  35  55  78 109 146 183 222 271 330
#     4   9  19  36  57  81 110 145 182 222 273 329
#     4   9  19  37  58  80 108 142 182 227 274 325
#     4  11  22  35  53  78 110 145 184 226 269 321
#     4  10  20  35  55  79 109 144 182 226 274 324
#
# _framework density 18.812463000000001
#
# number of rings (size 3 to 8) (size 9 to 14) (size 15 to 20)
#    0.000    2.000    1.250    2.250    0.000    3.000 
#    0.000    1.875    0.000    0.000    0.000    0.000 
#    0.000    0.000    0.000    0.000    0.000    0.000 
#
# Total GULP energy -357205.591472 kJ/mol
# GULP energy per Si atom -5581.337367 kJ/mol
# Density = 1.876965 g / cm^3
# Si number density = 18.812463 Si / 1000 Ang^3
#
#
#
# Elastic Constant Matrix: (Units=GPa)
#
#
# Indices 1 2 3 4 5 6 
#
# 1 133.4046 17.2756 22.2651 0.0000 0.0000 0.0000
# 2 17.2756 27.5774 8.5199 0.0000 0.0000 0.0000
# 3 22.2651 8.5199 29.7882 0.0000 0.0000 0.0000
# 4 0.0000 0.0000 0.0000 21.0559 0.0000 0.0000
# 5 0.0000 0.0000 0.0000 0.0000 9.5187 0.0000
# 6 0.0000 0.0000 0.0000 0.0000 0.0000 31.2688
#
#
#
# Elastic Compliance Matrix: (Units=1/GPa)
#
#
# Indices 1 2 3 4 5 6 
#
# 1 0.008926 -0.003873 -0.005564 0.000000 0.000000 0.000000
# 2 -0.003873 0.041456 -0.008963 0.000000 0.000000 0.000000
# 3 -0.005564 -0.008963 0.040293 0.000000 0.000000 0.000000
# 4 0.000000 0.000000 0.000000 0.047493 0.000000 0.000000
# 5 0.000000 0.000000 0.000000 0.000000 0.105056 0.000000
# 6 0.000000 0.000000 0.000000 0.000000 0.000000 0.031981
#
#
# Mechanical properties :
#
#
# Convention : Reuss Voigt Hill
#
# Bulk Modulus (GPa) = 18.56098 31.87685 25.21892
# Shear Modulus (GPa) = 15.15324 21.88266 18.51795
#
# Velocity S-wave (km/s) = 2.84119 3.41427 3.14083
# Velocity P-wave (km/s) = 4.54433 5.70301 5.15632
#
# Compressibility (1/GPa) = 0.05387646
#
# Stress axis : x y z
#
# Youngs Moduli (GPa) = 112.03030 24.12168 24.81840
#
# Poissons Ratio (x) = 0.09342 0.13809
# Poissons Ratio (y) = 0.43386 0.22244
# Poissons Ratio (z) = 0.62336 0.21619
#
# Static dielectric constant tensor:
#      x y z
#    x 1.664760 0.000000 0.000000 
#    y 0.000000 1.645220 0.000000 
#    z 0.000000 0.000000 1.627570 
# 
# From -- ./inp_files/8407.got.cif
#   From: 2010.05.17/outbox.ucp.g08.bks.cvg/sg57_5_cif.got.tgz:8407.got - 2010.06.11 16:39:23.
