data_PCOD9440715
_publ_section_title
;
Structure prediction by ZEFSAII (Michael W. Deem and Ramdas Pophale) SiO2 
 PCOD9440715
Probable space group: P N N M
;
_chemical_formula_sum "Si O2"
_cell_formula_units_Z 38
_cell_length_a 6.734036
_cell_length_b 15.231086
_cell_length_c 17.405728
_cell_angle_alpha 90.000000
_cell_angle_beta 90.000000
_cell_angle_gamma 90.000000
_cell_volume 1785.247759
_symmetry_space_group_name_H-M "P N N M"
_symmetry_group_IT_number 58
_symmetry_cell_setting 'orthorhombic'
loop_
_space_group_symop_operation_xyz
x,y,z
-x,-y,z
1/2+x,1/2-y,1/2-z
1/2-x,1/2+y,1/2-z
-x,-y,-z
x,y,-z
1/2-x,1/2+y,1/2+z
1/2+x,1/2-y,1/2+z
loop_
_atom_site_type_symbol
_atom_site_label
_atom_site_fract_x
_atom_site_fract_y
_atom_site_fract_z
Si Si1 0.423194 0.321965 0.912679
Si Si2 0.000000 0.500000 0.717980
Si Si3 0.000000 0.500000 0.000000
Si Si4 0.750482 0.937623 0.354033
Si Si5 0.028482 0.268269 0.173387
Si Si6 0.342175 0.822333 0.158902
O O1 0.527253 0.401366 0.866256
O O2 0.220264 0.287061 0.876975
O O3 0.569671 0.238326 0.907525
O O4 0.392680 0.348728 0.000000
O O5 0.186771 0.511641 0.776752
O O6 0.054179 0.415979 0.667111
O O7 0.166717 0.517951 0.931128
O O8 0.617109 0.849337 0.344101
O O9 0.095725 0.273320 0.261492
O O10 0.896749 0.182422 0.156853
#
# Coordination Sequence:
#
# PCOD9440715 Si02
#       6
#     8   4   2   8   8   8
#     4  11  22  37  61  92 124 168 212 259 317 385
#     4   9  20  39  65  94 121 162 214 278 319 370
#     4  10  16  36  54  84 134 164 178 244 324 398
#     4   9  20  36  58  87 129 157 202 253 322 387
#     4  10  20  36  62  85 117 169 215 253 305 386
#     4  10  20  39  63  88 121 162 217 266 312 380
#
# _framework density 21.28556
#
# number of rings (size 3 to 8) (size 9 to 14) (size 15 to 20)
#    0.000    2.105    3.158    0.000    1.474    0.842 
#    0.000   16.316    0.000    1.263    0.000    0.000 
#    0.000    0.000    0.000    0.000    0.000    0.000 
#
# Total GULP energy -211715.760166 kJ/mol
# GULP energy per Si atom -5571.467373 kJ/mol
# Density = 2.123711 g / cm^3
# Si number density = 21.285560 Si / 1000 Ang^3
#
#
#
# Elastic Constant Matrix: (Units=GPa)
#
#
# Indices 1 2 3 4 5 6 
#
# 1 115.5349 18.1336 18.6454 0.0000 0.0000 0.0000
# 2 18.1336 78.7780 18.3331 0.0000 0.0000 0.0000
# 3 18.6454 18.3331 56.7263 0.0000 0.0000 0.0000
# 4 0.0000 0.0000 0.0000 24.0456 0.0000 0.0000
# 5 0.0000 0.0000 0.0000 0.0000 26.3881 0.0000
# 6 0.0000 0.0000 0.0000 0.0000 0.0000 30.2943
#
#
#
# Elastic Compliance Matrix: (Units=1/GPa)
#
#
# Indices 1 2 3 4 5 6 
#
# 1 0.009311 -0.001548 -0.002560 0.000000 0.000000 0.000000
# 2 -0.001548 0.013983 -0.004011 0.000000 0.000000 0.000000
# 3 -0.002560 -0.004011 0.019766 0.000000 0.000000 0.000000
# 4 0.000000 0.000000 0.000000 0.041588 0.000000 0.000000
# 5 0.000000 0.000000 0.000000 0.000000 0.037896 0.000000
# 6 0.000000 0.000000 0.000000 0.000000 0.000000 0.033010
#
#
# Mechanical properties :
#
#
# Convention : Reuss Voigt Hill
#
# Bulk Modulus (GPa) = 37.27995 40.14039 38.71017
# Shear Modulus (GPa) = 27.66517 29.20741 28.43629
#
# Velocity S-wave (km/s) = 3.60907 3.70830 3.65902
# Velocity P-wave (km/s) = 5.90926 6.10199 6.00640
#
# Compressibility (1/GPa) = 0.02682407
#
# Stress axis : x y z
#
# Youngs Moduli (GPa) = 107.39417 71.51312 50.59125
#
# Poissons Ratio (x) = 0.11067 0.12954
# Poissons Ratio (y) = 0.16619 0.20290
# Poissons Ratio (z) = 0.27498 0.28681
#
# Static dielectric constant tensor:
#      x y z
#    x 1.858710 0.000000 0.000000 
#    y 0.000000 1.838980 0.000000 
#    z 0.000000 0.000000 1.722560 
# 
# From -- ./inp_files/24217.got.cif
#   From: 2010.05.17/outbox.cif.g08.bks.cpg/sg58_13_cif.got.tgz:24217.got - 2010.06.03 14:20:14.
