data_PCOD9440829
_publ_section_title
;
Structure prediction by ZEFSAII (Michael W. Deem and Ramdas Pophale) SiO2 
 PCOD9440829
Probable space group: P N N M
;
_chemical_formula_sum "Si O2"
_cell_formula_units_Z 56
_cell_length_a 7.508542
_cell_length_b 19.091438
_cell_length_c 24.669023
_cell_angle_alpha 90.000000
_cell_angle_beta 90.000000
_cell_angle_gamma 90.000000
_cell_volume 3536.276425
_symmetry_space_group_name_H-M "P N N M"
_symmetry_group_IT_number 58
_symmetry_cell_setting 'orthorhombic'
loop_
_space_group_symop_operation_xyz
x,y,z
-x,-y,z
1/2+x,1/2-y,1/2-z
1/2-x,1/2+y,1/2-z
-x,-y,-z
x,y,-z
1/2-x,1/2+y,1/2+z
1/2+x,1/2-y,1/2+z
loop_
_atom_site_type_symbol
_atom_site_label
_atom_site_fract_x
_atom_site_fract_y
_atom_site_fract_z
Si Si1 0.365370 0.089120 0.941563
Si Si2 0.039256 0.221336 0.823206
Si Si3 0.371643 0.119107 0.820003
Si Si4 0.801829 0.668482 0.744950
Si Si5 0.819856 0.045209 0.909306
Si Si6 0.796724 0.021295 0.216834
Si Si7 0.501159 0.680906 0.558952
O O1 0.437987 0.105399 0.881574
O O2 0.183874 0.136431 0.941467
O O3 0.315845 0.007034 0.937624
O O4 0.451044 0.104347 0.000000
O O5 0.180411 0.157284 0.820644
O O6 0.142631 0.286846 0.797196
O O7 0.994307 0.227496 0.886977
O O8 0.864452 0.202417 0.787692
O O9 0.520044 0.165349 0.791382
O O10 0.330033 0.046636 0.788230
O O11 0.757608 0.586426 0.754023
O O12 0.793239 0.050524 0.844916
O O13 0.849469 0.120878 0.933985
O O14 0.000000 0.000000 0.915107
O O15 0.000000 0.000000 0.228566
O O16 0.518269 0.715408 0.500000
#
# Coordination Sequence:
#
# PCOD9440829 Si02
#       7
#     8   8   8   8   8   8   8
#     4   8  14  24  41  66  96 128 166 203 233 271
#     4  11  21  34  50  73  97 134 168 204 252 298
#     4  10  20  32  50  72  96 134 169 203 253 283
#     4  12  21  34  51  69 100 132 167 208 249 301
#     4   8  12  21  41  65  90 126 162 196 230 266
#     4  10  17  31  51  71  97 127 166 208 246 292
#     4   9  15  26  44  66  94 128 168 202 238 286
#
# _framework density 15.835865
#
# number of rings (size 3 to 8) (size 9 to 14) (size 15 to 20)
#    0.000    2.286    4.286    2.571    0.000    1.714 
#    0.000    0.714    0.000    1.714    0.000    0.000 
#    0.000    2.857    0.000    0.000    0.000    1.714 
#
# Total GULP energy -312024.878911 kJ/mol
# GULP energy per Si atom -5571.872838 kJ/mol
# Density = 1.579982 g / cm^3
# Si number density = 15.835865 Si / 1000 Ang^3
#
#
#
# Elastic Constant Matrix: (Units=GPa)
#
#
# Indices 1 2 3 4 5 6 
#
# 1 70.8169 15.2287 24.3028 0.0000 0.0000 0.0000
# 2 15.2287 62.9759 52.6345 0.0000 0.0000 0.0000
# 3 24.3028 52.6345 105.6997 0.0000 0.0000 0.0000
# 4 0.0000 0.0000 0.0000 22.8060 0.0000 0.0000
# 5 0.0000 0.0000 0.0000 0.0000 9.9903 0.0000
# 6 0.0000 0.0000 0.0000 0.0000 0.0000 25.3895
#
#
#
# Elastic Compliance Matrix: (Units=1/GPa)
#
#
# Indices 1 2 3 4 5 6 
#
# 1 0.015393 -0.001309 -0.002887 0.000000 0.000000 0.000000
# 2 -0.001309 0.027310 -0.013299 0.000000 0.000000 0.000000
# 3 -0.002887 -0.013299 0.016747 0.000000 0.000000 0.000000
# 4 0.000000 0.000000 0.000000 0.043848 0.000000 0.000000
# 5 0.000000 0.000000 0.000000 0.000000 0.100097 0.000000
# 6 0.000000 0.000000 0.000000 0.000000 0.000000 0.039386
#
#
# Mechanical properties :
#
#
# Convention : Reuss Voigt Hill
#
# Bulk Modulus (GPa) = 40.88237 47.09160 43.98698
# Shear Modulus (GPa) = 17.48702 21.45891 19.47296
#
# Velocity S-wave (km/s) = 3.32666 3.68514 3.51048
# Velocity P-wave (km/s) = 6.37400 6.92162 6.65345
#
# Compressibility (1/GPa) = 0.02446042
#
# Stress axis : x y z
#
# Youngs Moduli (GPa) = 64.96317 36.61600 59.71278
#
# Poissons Ratio (x) = 0.04794 0.17241
# Poissons Ratio (y) = 0.08505 0.79410
# Poissons Ratio (z) = 0.18757 0.48694
#
# Static dielectric constant tensor:
#      x y z
#    x 1.634310 0.000000 0.000000 
#    y 0.000000 1.531330 0.000000 
#    z 0.000000 0.000000 1.544150 
# 
# From -- ./inp_files/31658.got.cif
#   From: 2010.05.17/outbox.cif.g08.bks.cpg/sg58_16_cif.got.tgz:31658.got - 2010.06.03 14:20:14.
