data_PCOD9440939
_publ_section_title
;
Structure prediction by ZEFSAII (Michael W. Deem and Ramdas Pophale) SiO2 
 PCOD9440939
Probable space group: P N N M
;
_chemical_formula_sum "Si O2"
_cell_formula_units_Z 64
_cell_length_a 19.796796
_cell_length_b 23.927724
_cell_length_c 7.663714
_cell_angle_alpha 90.000000
_cell_angle_beta 90.000000
_cell_angle_gamma 90.000000
_cell_volume 3630.242087
_symmetry_space_group_name_H-M "P N N M"
_symmetry_group_IT_number 58
_symmetry_cell_setting 'orthorhombic'
loop_
_space_group_symop_operation_xyz
x,y,z
-x,-y,z
1/2+x,1/2-y,1/2-z
1/2-x,1/2+y,1/2-z
-x,-y,-z
x,y,-z
1/2-x,1/2+y,1/2+z
1/2+x,1/2-y,1/2+z
loop_
_atom_site_type_symbol
_atom_site_label
_atom_site_fract_x
_atom_site_fract_y
_atom_site_fract_z
Si Si1 0.857343 0.276372 0.287753
Si Si2 0.014422 0.124538 0.702443
Si Si3 0.349057 0.774517 0.290390
Si Si4 0.622661 0.565217 0.296475
Si Si5 0.996887 0.748952 0.291817
Si Si6 0.280731 0.337685 0.210917
Si Si7 0.644350 0.442148 0.298336
Si Si8 0.773739 0.838231 0.214055
O O1 0.856853 0.278833 0.500000
O O2 0.827936 0.215253 0.241063
O O3 0.801900 0.321633 0.230443
O O4 0.934381 0.279553 0.225849
O O5 0.034813 0.128336 0.500000
O O6 0.009541 0.187383 0.776332
O O7 0.071486 0.087663 0.793009
O O8 0.941623 0.095451 0.712082
O O9 0.345453 0.773808 0.500000
O O10 0.426543 0.781798 0.240691
O O11 0.294543 0.820445 0.230929
O O12 0.321852 0.713549 0.231339
O O13 0.604625 0.558575 0.500000
O O14 0.686541 0.606061 0.280647
O O15 0.637751 0.503924 0.220714
O O16 0.005412 0.754259 0.500000
O O17 0.281374 0.341160 0.000000
O O18 0.664700 0.450343 0.500000
O O19 0.696527 0.396835 0.222711
O O20 0.775421 0.838902 0.000000
#
# Coordination Sequence:
#
# PCOD9440939 Si02
#       8
#     8   8   8   8   8   8   8   8
#     4   8  14  27  46  66  87 114 148 185 228 270
#     4  11  21  32  45  64  94 129 161 190 220 265
#     4   9  17  29  49  69  88 119 153 184 226 276
#     4  11  22  32  45  66  93 124 157 195 232 264
#     4  10  18  28  45  69  95 119 146 185 226 269
#     4   9  17  32  49  66  89 119 156 190 222 273
#     4  10  20  33  47  66  91 121 160 197 228 269
#     4   8  14  27  47  65  84 114 150 188 226 267
#
# _framework density 17.629677000000001
#
# number of rings (size 3 to 8) (size 9 to 14) (size 15 to 20)
#    0.000    2.500    2.500    2.625    0.000    3.500 
#    0.000    0.000    0.000    0.750    0.000    0.875 
#    0.000    7.000    0.000    0.000    0.000    0.000 
#
# Total GULP energy -356885.335982 kJ/mol
# GULP energy per Si atom -5576.333375 kJ/mol
# Density = 1.758955 g / cm^3
# Si number density = 17.629677 Si / 1000 Ang^3
#
#
#
# Elastic Constant Matrix: (Units=GPa)
#
#
# Indices 1 2 3 4 5 6 
#
# 1 149.1252 53.6717 -8.2549 0.0000 0.0000 0.0000
# 2 53.6717 75.0959 -5.2518 0.0000 0.0000 0.0000
# 3 -8.2549 -5.2518 30.1025 0.0000 0.0000 0.0000
# 4 0.0000 0.0000 0.0000 4.2288 0.0000 0.0000
# 5 0.0000 0.0000 0.0000 0.0000 20.3647 0.0000
# 6 0.0000 0.0000 0.0000 0.0000 0.0000 17.6006
#
#
#
# Elastic Compliance Matrix: (Units=1/GPa)
#
#
# Indices 1 2 3 4 5 6 
#
# 1 0.009084 -0.006396 0.001375 0.000000 0.000000 0.000000
# 2 -0.006396 0.017985 0.001384 0.000000 0.000000 0.000000
# 3 0.001375 0.001384 0.033838 0.000000 0.000000 0.000000
# 4 0.000000 0.000000 0.000000 0.236476 0.000000 0.000000
# 5 0.000000 0.000000 0.000000 0.000000 0.049105 0.000000
# 6 0.000000 0.000000 0.000000 0.000000 0.000000 0.056816
#
#
# Mechanical properties :
#
#
# Convention : Reuss Voigt Hill
#
# Bulk Modulus (GPa) = 18.64558 37.18371 27.91464
# Shear Modulus (GPa) = 11.66982 22.71605 17.19294
#
# Velocity S-wave (km/s) = 2.57561 3.59348 3.12625
# Velocity P-wave (km/s) = 4.40956 6.19312 5.37583
#
# Compressibility (1/GPa) = 0.05363203
#
# Stress axis : x y z
#
# Youngs Moduli (GPa) = 110.08404 55.60336 29.55225
#
# Poissons Ratio (x) = 0.35565 -0.04064
# Poissons Ratio (y) = 0.70412 -0.04089
# Poissons Ratio (z) = -0.15138 -0.07694
#
# Static dielectric constant tensor:
#      x y z
#    x 1.614010 0.000000 0.000000 
#    y 0.000000 1.595120 0.000000 
#    z 0.000000 0.000000 1.660740 
# 
# From -- ./inp_files/8488.got.cif
#   From: 2010.05.17/outbox.cif.g08.bks.cpg/sg58_5_cif.got.tgz:8488.got - 2010.06.03 14:20:14.
