data_PCOD9440609
_publ_section_title
;
Structure prediction by ZEFSAII (Michael W. Deem and Ramdas Pophale) SiO2 
 PCOD9440609
Probable space group: P B C M
;
_chemical_formula_sum "Si O2"
_cell_formula_units_Z 56
_cell_length_a 15.000000
_cell_length_b 21.000000
_cell_length_c 9.000000
_cell_angle_alpha 90.000000
_cell_angle_beta 90.000000
_cell_angle_gamma 90.000000
_cell_volume 2835.000000
_symmetry_space_group_name_H-M "P B C M"
_symmetry_group_IT_number 57
_symmetry_cell_setting 'orthorhombic'
loop_
_space_group_symop_operation_xyz
x,y,z
-x,-y,1/2+z
x,1/2-y,-z
-x,1/2+y,1/2-z
-x,-y,-z
x,y,1/2-z
-x,1/2+y,z
x,1/2-y,1/2+z
loop_
_atom_site_type_symbol
_atom_site_label
_atom_site_fract_x
_atom_site_fract_y
_atom_site_fract_z
Si Si1 0.428146 0.183399 0.073154
Si Si2 0.908720 0.419072 0.923182
Si Si3 0.270851 0.091819 0.425969
Si Si4 0.403095 0.997913 0.579387
Si Si5 0.621429 0.148295 0.081024
Si Si6 0.205392 0.686810 0.924057
Si Si7 0.908156 0.929446 0.076326
O O1 0.434063 0.185164 0.250000
O O2 0.338749 0.147554 0.037891
O O3 0.521050 0.153716 0.022652
O O4 0.424196 0.250000 0.000000
O O5 0.897399 0.404323 0.750000
O O6 0.894778 0.494487 0.944186
O O7 0.843514 0.375803 0.017419
O O8 0.008755 0.407531 0.979137
O O9 0.253226 0.087479 0.250000
O O10 0.181746 0.100500 0.517338
O O11 0.329588 0.032899 0.481516
O O12 0.410540 0.022568 0.750000
O O13 0.366390 0.926738 0.590542
O O14 0.500000 0.000000 0.500000
O O15 0.629932 0.174407 0.250000
O O16 0.692741 0.179949 0.975846
O O17 0.198065 0.692298 0.750000
O O18 0.166881 0.750000 0.000000
O O19 0.925065 0.918046 0.250000
#
# Coordination Sequence:
#
# PCOD9440609 Si02
#       7
#     8   8   8   8   8   8   8
#     4  10  22  39  56  77 109 151 196 242 283 332
#     4  10  21  40  64  90 121 154 189 239 296 353
#     4  11  22  38  57  84 119 154 193 240 291 345
#     4  11  21  35  56  84 118 153 191 239 292 346
#     4  10  21  39  58  82 117 154 195 242 290 345
#     4  12  25  40  60  88 120 158 201 246 296 357
#     4  10  21  38  63  94 121 151 192 240 294 354
#
# _framework density 19.753086
#
# number of rings (size 3 to 8) (size 9 to 14) (size 15 to 20)
#    0.000    1.429    1.429    4.286    0.000    9.143 
#    0.000    0.714    0.000    1.714    0.000    0.000 
#    0.000    0.000    0.000    0.000    0.000    0.000 
#
# Total GULP energy -312434.057431 kJ/mol
# GULP energy per Si atom -5579.179597 kJ/mol
# Density = 1.970813 g / cm^3
# Si number density = 19.753086 Si / 1000 Ang^3
#
#
#
# Elastic Constant Matrix: (Units=GPa)
#
#
# Indices 1 2 3 4 5 6 
#
# 1 75.3806 23.6196 45.9178 0.0000 0.0000 0.0000
# 2 23.6196 50.6151 33.5075 0.0000 0.0000 0.0000
# 3 45.9178 33.5075 52.8640 0.0000 0.0000 0.0000
# 4 0.0000 0.0000 0.0000 27.0687 0.0000 0.0000
# 5 0.0000 0.0000 0.0000 0.0000 75.3123 0.0000
# 6 0.0000 0.0000 0.0000 0.0000 0.0000 -105.9613
#
#
#
# Elastic Compliance Matrix: (Units=1/GPa)
#
#
# Indices 1 2 3 4 5 6 
#
# 1 0.029009 0.005416 -0.028630 0.000000 0.000000 0.000000
# 2 0.005416 0.035052 -0.026922 0.000000 0.000000 0.000000
# 3 -0.028630 -0.026922 0.060849 0.000000 0.000000 0.000000
# 4 0.000000 0.000000 0.000000 0.036943 0.000000 0.000000
# 5 0.000000 0.000000 0.000000 0.000000 0.013278 0.000000
# 6 0.000000 0.000000 0.000000 0.000000 0.000000 -0.009437
#
#
# Mechanical properties :
#
#
# Convention : Reuss Voigt Hill
#
# Bulk Modulus (GPa) = 40.58779 42.77216 41.67998
# Shear Modulus (GPa) = 18.23624 4.33824 11.28724
#
# Velocity S-wave (km/s) = 3.04173 1.48358 2.39303
# Velocity P-wave (km/s) = 5.73832 4.96337 5.36486
#
# Compressibility (1/GPa) = 0.02463795
#
# Stress axis : x y z
#
# Youngs Moduli (GPa) = 34.47210 28.52902 16.43400
#
# Poissons Ratio (x) = -0.15453 0.47051
# Poissons Ratio (y) = -0.18672 0.44244
# Poissons Ratio (z) = 0.98695 0.76806
#
# Static dielectric constant tensor:
#      x y z
#    x 1.706310 0.000000 0.000000 
#    y 0.000000 2.189620 0.000000 
#    z 0.000000 0.000000 1.557590 
# 
# From -- ./inp_files/5241.got.cif
#   From: 2010.05.17/outbox.ucp.g08.bks.cvg/sg57_3_cif.got.tgz:5241.got - 2010.06.11 16:39:23.
