data_PCOD9440383
_publ_section_title
;
Structure prediction by ZEFSAII (Michael W. Deem and Ramdas Pophale) SiO2 
 PCOD9440383
Probable space group: P B C M
;
_chemical_formula_sum "Si O2"
_cell_formula_units_Z 64
_cell_length_a 8.496711
_cell_length_b 30.960602
_cell_length_c 13.731838
_cell_angle_alpha 90.000000
_cell_angle_beta 90.000000
_cell_angle_gamma 90.000000
_cell_volume 3612.342449
_symmetry_space_group_name_H-M "P B C M"
_symmetry_group_IT_number 57
_symmetry_cell_setting 'orthorhombic'
loop_
_space_group_symop_operation_xyz
x,y,z
-x,-y,1/2+z
x,1/2-y,-z
-x,1/2+y,1/2-z
-x,-y,-z
x,y,1/2-z
-x,1/2+y,z
x,1/2-y,1/2+z
loop_
_atom_site_type_symbol
_atom_site_label
_atom_site_fract_x
_atom_site_fract_y
_atom_site_fract_z
Si Si1 0.528065 0.019927 0.641296
Si Si2 0.807335 0.415222 0.137160
Si Si3 0.007188 0.270290 0.140484
Si Si4 0.892625 0.315538 0.552007
Si Si5 0.303565 0.175263 0.864964
Si Si6 0.604909 0.933935 0.544639
Si Si7 0.590104 0.147848 0.987824
Si Si8 0.905841 0.892169 0.487380
O O1 0.470526 0.028846 0.750000
O O2 0.699186 0.042288 0.630999
O O3 0.422291 0.042726 0.559907
O O4 0.546070 0.969323 0.620681
O O5 0.840179 0.405946 0.250000
O O6 0.701463 0.377357 0.089467
O O7 0.966051 0.417816 0.075373
O O8 0.966375 0.283895 0.250000
O O9 0.191065 0.282700 0.126128
O O10 0.962134 0.220701 0.122749
O O11 0.916948 0.296396 0.057087
O O12 0.708287 0.326247 0.557725
O O13 0.996619 0.358677 0.553678
O O14 0.333482 0.167811 0.750000
O O15 0.462919 0.175668 0.927767
O O16 0.200006 0.136477 0.912370
O O17 0.503446 0.890111 0.543582
O O18 0.786566 0.920934 0.548942
#
# Coordination Sequence:
#
# PCOD9440383 Si02
#       8
#     8   8   8   8   8   8   8   8
#     4   9  18  32  48  66  93 125 154 191 237 281
#     4   9  16  26  44  70  96 121 150 188 236 283
#     4   9  18  33  51  70  95 126 157 193 238 284
#     4   9  18  33  49  69  97 127 158 193 237 283
#     4   9  16  27  47  73  96 120 154 196 239 281
#     4   9  18  32  48  68  92 122 160 196 234 278
#     4   9  17  29  47  69  95 125 155 193 235 279
#     4   9  17  28  46  68  94 123 152 192 234 278
#
# _framework density 17.717036
#
# number of rings (size 3 to 8) (size 9 to 14) (size 15 to 20)
#    0.000    3.000    0.000    0.750    0.000    7.500 
#    0.000    8.750    0.000    0.000    0.000    0.000 
#    0.000    0.000    0.000    0.000    0.000    0.000 
#
# Total GULP energy -356453.088373 kJ/mol
# GULP energy per Si atom -5569.579506 kJ/mol
# Density = 1.767671 g / cm^3
# Si number density = 17.717036 Si / 1000 Ang^3
#
#
#
# Elastic Constant Matrix: (Units=GPa)
#
#
# Indices 1 2 3 4 5 6 
#
# 1 74.5122 19.7510 0.2749 0.0000 0.0000 0.0000
# 2 19.7510 51.9413 0.7398 0.0000 0.0000 0.0000
# 3 0.2749 0.7398 18.2604 0.0000 0.0000 0.0000
# 4 0.0000 0.0000 0.0000 9.4645 0.0000 0.0000
# 5 0.0000 0.0000 0.0000 0.0000 13.1574 0.0000
# 6 0.0000 0.0000 0.0000 0.0000 0.0000 15.8824
#
#
#
# Elastic Compliance Matrix: (Units=1/GPa)
#
#
# Indices 1 2 3 4 5 6 
#
# 1 0.014925 -0.005675 0.000005 0.000000 0.000000 0.000000
# 2 -0.005675 0.021422 -0.000782 0.000000 0.000000 0.000000
# 3 0.000005 -0.000782 0.054795 0.000000 0.000000 0.000000
# 4 0.000000 0.000000 0.000000 0.105658 0.000000 0.000000
# 5 0.000000 0.000000 0.000000 0.000000 0.076003 0.000000
# 6 0.000000 0.000000 0.000000 0.000000 0.000000 0.062963
#
#
# Mechanical properties :
#
#
# Convention : Reuss Voigt Hill
#
# Bulk Modulus (GPa) = 12.78177 20.69393 16.73785
# Shear Modulus (GPa) = 13.34226 15.96408 14.65317
#
# Velocity S-wave (km/s) = 2.74720 3.00502 2.87900
# Velocity P-wave (km/s) = 4.15847 4.87297 4.52983
#
# Compressibility (1/GPa) = 0.07823644
#
# Stress axis : x y z
#
# Youngs Moduli (GPa) = 67.00171 46.68150 18.24988
#
# Poissons Ratio (x) = 0.26494 -0.00010
# Poissons Ratio (y) = 0.38026 0.01428
# Poissons Ratio (z) = -0.00035 0.03653
#
# Static dielectric constant tensor:
#      x y z
#    x 1.612350 0.000000 0.000000 
#    y 0.000000 1.635180 0.000000 
#    z 0.000000 0.000000 1.584210 
# 
# From -- ./inp_files/17042.got.cif
#   From: 2010.05.17/outbox.cif.g08.bks.cpg/sg57_9_cif.got.tgz:17042.got - 2010.06.03 13:58:18.
