data_PCOD9440237
_publ_section_title
;
Structure prediction by ZEFSAII (Michael W. Deem and Ramdas Pophale) SiO2 
 PCOD9440237
Probable space group: P B C M
;
_chemical_formula_sum "Si O2"
_cell_formula_units_Z 40
_cell_length_a 4.882955
_cell_length_b 28.934738
_cell_length_c 11.500696
_cell_angle_alpha 90.000000
_cell_angle_beta 90.000000
_cell_angle_gamma 90.000000
_cell_volume 1624.899107
_symmetry_space_group_name_H-M "P B C M"
_symmetry_group_IT_number 57
_symmetry_cell_setting 'orthorhombic'
loop_
_space_group_symop_operation_xyz
x,y,z
-x,-y,1/2+z
x,1/2-y,-z
-x,1/2+y,1/2-z
-x,-y,-z
x,y,1/2-z
-x,1/2+y,z
x,1/2-y,1/2+z
loop_
_atom_site_type_symbol
_atom_site_label
_atom_site_fract_x
_atom_site_fract_y
_atom_site_fract_z
Si Si1 0.300863 0.228672 0.250000
Si Si2 0.245929 0.544066 0.618080
Si Si3 0.476763 0.348132 0.573394
Si Si4 0.414927 0.051340 0.123027
Si Si5 0.795119 0.291115 0.250000
Si Si6 0.005015 0.638569 0.559533
O O1 0.389351 0.197002 0.358344
O O2 0.488107 0.273624 0.250000
O O3 0.989761 0.245690 0.250000
O O4 0.361474 0.552499 0.750000
O O5 0.429613 0.548290 0.501171
O O6 0.183841 0.488876 0.617897
O O7 0.031845 0.585567 0.601559
O O8 0.347353 0.394771 0.627770
O O9 0.798650 0.355521 0.554204
O O10 0.309609 0.348415 0.454003
O O11 0.556475 0.042311 0.250000
O O12 0.866669 0.323521 0.142780
#
# Coordination Sequence:
#
# PCOD9440237 Si02
#       6
#     4   8   8   8   4   8
#     4  12  26  44  67  96 129 170 228 282 340 396
#     4   9  18  37  66 101 139 179 223 274 335 405
#     4  11  24  43  67  96 133 173 220 275 336 401
#     4   9  18  37  66 101 139 179 223 274 335 405
#     4  12  26  44  67  96 129 170 228 282 340 396
#     4  11  24  43  67  96 133 173 220 275 336 401
#
# _framework density 24.616911000000002
#
# number of rings (size 3 to 8) (size 9 to 14) (size 15 to 20)
#    0.000    1.600    2.000    2.400    0.000    5.600 
#    3.600    0.000    0.000    4.800    0.000    0.000 
#    0.000    0.000    0.000    0.000    0.000    0.000 
#
# Total GULP energy -222854.096975 kJ/mol
# GULP energy per Si atom -5571.352424 kJ/mol
# Density = 2.456088 g / cm^3
# Si number density = 24.616911 Si / 1000 Ang^3
#
#
#
# Elastic Constant Matrix: (Units=GPa)
#
#
# Indices 1 2 3 4 5 6 
#
# 1 80.9801 9.4133 31.8980 0.0000 0.0000 0.0000
# 2 9.4133 99.7352 13.8257 0.0000 0.0000 0.0000
# 3 31.8980 13.8257 117.0446 0.0000 0.0000 0.0000
# 4 0.0000 0.0000 0.0000 32.1717 0.0000 0.0000
# 5 0.0000 0.0000 0.0000 0.0000 17.1598 0.0000
# 6 0.0000 0.0000 0.0000 0.0000 0.0000 25.5710
#
#
#
# Elastic Compliance Matrix: (Units=1/GPa)
#
#
# Indices 1 2 3 4 5 6 
#
# 1 0.013896 -0.000800 -0.003693 0.000000 0.000000 0.000000
# 2 -0.000800 0.010239 -0.000992 0.000000 0.000000 0.000000
# 3 -0.003693 -0.000992 0.009667 0.000000 0.000000 0.000000
# 4 0.000000 0.000000 0.000000 0.031083 0.000000 0.000000
# 5 0.000000 0.000000 0.000000 0.000000 0.058276 0.000000
# 6 0.000000 0.000000 0.000000 0.000000 0.000000 0.039107
#
#
# Mechanical properties :
#
#
# Convention : Reuss Voigt Hill
#
# Bulk Modulus (GPa) = 43.79224 45.33710 44.56467
# Shear Modulus (GPa) = 27.64751 31.15537 29.40144
#
# Velocity S-wave (km/s) = 3.35492 3.56140 3.45970
# Velocity P-wave (km/s) = 5.73022 5.94714 5.83969
#
# Compressibility (1/GPa) = 0.02283510
#
# Stress axis : x y z
#
# Youngs Moduli (GPa) = 71.96212 97.66120 103.44224
#
# Poissons Ratio (x) = 0.07810 0.38198
# Poissons Ratio (y) = 0.05755 0.10257
# Poissons Ratio (z) = 0.26573 0.09684
#
# Static dielectric constant tensor:
#      x y z
#    x 1.891220 0.000000 0.000000 
#    y 0.000000 1.941940 0.000000 
#    z 0.000000 0.000000 2.044260 
# 
# From -- ./inp_files/10954.got.cif
#   From: 2010.05.17/outbox.cif.g08.bks.cpg/sg57_6_cif.got.tgz:10954.got - 2010.06.03 13:58:18.
