data_PCOD9440505
_publ_section_title
;
Structure prediction by ZEFSAII (Michael W. Deem and Ramdas Pophale) SiO2 
 PCOD9440505
Probable space group: P B C M
;
_chemical_formula_sum "Si O2"
_cell_formula_units_Z 64
_cell_length_a 21.000000
_cell_length_b 18.000000
_cell_length_c 9.000000
_cell_angle_alpha 90.000000
_cell_angle_beta 90.000000
_cell_angle_gamma 90.000000
_cell_volume 3402.000000
_symmetry_space_group_name_H-M "P B C M"
_symmetry_group_IT_number 57
_symmetry_cell_setting 'orthorhombic'
loop_
_space_group_symop_operation_xyz
x,y,z
-x,-y,1/2+z
x,1/2-y,-z
-x,1/2+y,1/2-z
-x,-y,-z
x,y,1/2-z
-x,1/2+y,z
x,1/2-y,1/2+z
loop_
_atom_site_type_symbol
_atom_site_label
_atom_site_fract_x
_atom_site_fract_y
_atom_site_fract_z
Si Si1 0.750189 0.102002 0.422974
Si Si2 0.489884 0.174514 0.574187
Si Si3 0.885737 0.173006 0.424216
Si Si4 0.376084 0.888246 0.427362
Si Si5 0.935963 0.473907 0.073145
Si Si6 0.283344 0.329366 0.573918
Si Si7 0.804656 0.955205 0.571300
Si Si8 0.598770 0.940875 0.926507
O O1 0.741014 0.086538 0.250000
O O2 0.810743 0.155128 0.439935
O O3 0.687530 0.136328 0.492667
O O4 0.765741 0.024223 0.504136
O O5 0.465048 0.250000 0.500000
O O6 0.481683 0.180084 0.750000
O O7 0.563858 0.162585 0.537837
O O8 0.456004 0.100877 0.514910
O O9 0.901659 0.250000 0.500000
O O10 0.901315 0.172640 0.250000
O O11 0.919295 0.106043 0.508174
O O12 0.366708 0.888708 0.250000
O O13 0.390061 0.974091 0.471786
O O14 0.940553 0.470961 0.250000
O O15 0.877600 0.528593 0.033986
O O16 0.000000 0.500000 0.000000
O O17 0.292772 0.250000 0.500000
O O18 0.278976 0.316839 0.750000
O O19 0.221565 0.375633 0.521660
O O20 0.340083 0.388258 0.549224
O O21 0.796757 0.958888 0.750000
O O22 0.584809 0.940830 0.750000
#
# Coordination Sequence:
#
# PCOD9440505 Si02
#       8
#     8   8   8   8   8   8   8   8
#     4  10  20  33  55  85 112 140 179 230 278 329
#     4  11  24  39  55  76 106 143 183 227 279 333
#     4  10  21  37  57  86 120 152 192 237 284 336
#     4  10  21  38  58  79 106 144 183 225 277 337
#     4  10  20  36  61  87 115 155 196 235 280 331
#     4  10  20  34  54  80 109 140 178 223 273 327
#     4   9  18  36  57  77 109 150 185 220 270 331
#     4  10  20  37  59  79 104 138 182 230 275 331
#
# _framework density 18.812463000000001
#
# number of rings (size 3 to 8) (size 9 to 14) (size 15 to 20)
#    0.000    2.000    1.250    2.250    0.000    6.000 
#    0.000    3.125    0.000    1.500    0.000    0.000 
#    0.000    0.000    0.000    0.000    0.000    0.000 
#
# Total GULP energy -357218.739546 kJ/mol
# GULP energy per Si atom -5581.542805 kJ/mol
# Density = 1.876965 g / cm^3
# Si number density = 18.812463 Si / 1000 Ang^3
#
#
#
# Elastic Constant Matrix: (Units=GPa)
#
#
# Indices 1 2 3 4 5 6 
#
# 1 74.2208 7.7630 48.4090 0.0000 0.0000 0.0000
# 2 7.7630 50.2700 24.8591 0.0000 0.0000 0.0000
# 3 48.4090 24.8591 8.4582 0.0000 0.0000 0.0000
# 4 0.0000 0.0000 0.0000 19.2707 0.0000 0.0000
# 5 0.0000 0.0000 0.0000 0.0000 25.3878 0.0000
# 6 0.0000 0.0000 0.0000 0.0000 0.0000 -3.4223
#
#
#
# Elastic Compliance Matrix: (Units=1/GPa)
#
#
# Indices 1 2 3 4 5 6 
#
# 1 0.001692 -0.009986 0.019664 0.000000 0.000000 0.000000
# 2 -0.009986 0.015058 0.012895 0.000000 0.000000 0.000000
# 3 0.019664 0.012895 -0.032218 0.000000 0.000000 0.000000
# 4 0.000000 0.000000 0.000000 0.051892 0.000000 0.000000
# 5 0.000000 0.000000 0.000000 0.000000 0.039389 0.000000
# 6 0.000000 0.000000 0.000000 0.000000 0.000000 -0.292199
#
#
# Mechanical properties :
#
#
# Convention : Reuss Voigt Hill
#
# Bulk Modulus (GPa) = 33.69222 32.77904 33.23563
# Shear Modulus (GPa) = -19.86966 11.70844 -4.08061
#
# Velocity S-wave (km/s) = -3.25344 2.49745 -1.47438
# Velocity P-wave (km/s) = 1.95837 5.07723 3.84795
#
# Compressibility (1/GPa) = 0.02968044
#
# Stress axis : x y z
#
# Youngs Moduli (GPa) = 591.01988 66.41094 -31.03896
#
# Poissons Ratio (x) = 0.66315 0.61036
# Poissons Ratio (y) = 5.90170 0.40026
# Poissons Ratio (z) = -11.62210 -0.85639
#
# Static dielectric constant tensor:
#      x y z
#    x 1.679580 0.000000 0.000000 
#    y 0.000000 1.636040 0.000000 
#    z 0.000000 0.000000 1.622320 
# 
# From -- ./inp_files/8448.got.cif
#   From: 2010.05.17/outbox.ucp.g08.bks.cvg/sg57_5_cif.got.tgz:8448.got - 2010.06.11 16:39:23.
