data_PCOD9440625
_publ_section_title
;
Structure prediction by ZEFSAII (Michael W. Deem and Ramdas Pophale) SiO2 
 PCOD9440625
Probable space group: P B C M
;
_chemical_formula_sum "Si O2"
_cell_formula_units_Z 40
_cell_length_a 15.000000
_cell_length_b 9.000000
_cell_length_c 15.000000
_cell_angle_alpha 90.000000
_cell_angle_beta 90.000000
_cell_angle_gamma 90.000000
_cell_volume 2025.000000
_symmetry_space_group_name_H-M "P B C M"
_symmetry_group_IT_number 57
_symmetry_cell_setting 'orthorhombic'
loop_
_space_group_symop_operation_xyz
x,y,z
-x,-y,1/2+z
x,1/2-y,-z
-x,1/2+y,1/2-z
-x,-y,-z
x,y,1/2-z
-x,1/2+y,z
x,1/2-y,1/2+z
loop_
_atom_site_type_symbol
_atom_site_label
_atom_site_fract_x
_atom_site_fract_y
_atom_site_fract_z
Si Si1 0.940738 0.527220 0.849933
Si Si2 0.900037 0.841028 0.908253
Si Si3 0.747671 0.400547 0.896702
Si Si4 0.604846 0.423847 0.750000
Si Si5 0.265939 0.552815 0.896285
Si Si6 0.410778 0.567875 0.750000
O O1 0.957022 0.473879 0.750000
O O2 0.934704 0.704821 0.849309
O O3 0.843841 0.471852 0.880693
O O4 0.020428 0.460773 0.908684
O O5 0.812040 0.932396 0.880244
O O6 0.883770 0.750000 0.000000
O O7 0.668925 0.457641 0.833572
O O8 0.760169 0.224579 0.875771
O O9 0.719541 0.436338 0.997671
O O10 0.510395 0.505288 0.750000
O O11 0.586013 0.247045 0.750000
O O12 0.352313 0.520249 0.836263
#
# Coordination Sequence:
#
# PCOD9440625 Si02
#       6
#     8   8   8   4   8   4
#     4  12  25  39  60  94 127 175 212 262 315 379
#     4  12  25  41  61  93 132 169 221 260 316 377
#     4  10  21  42  67  89 128 168 213 261 323 378
#     4  10  22  44  65  96 125 164 209 268 322 394
#     4  10  23  41  64  94 127 168 210 267 318 382
#     4  10  24  42  67  94 125 162 211 266 328 382
#
# _framework density 19.753086
#
# number of rings (size 3 to 8) (size 9 to 14) (size 15 to 20)
#    0.000    1.200    3.000    2.400    5.600    2.400 
#    0.000    0.000    0.000    0.000    0.000    0.000 
#    0.000    0.000    0.000    0.000    0.000    0.000 
#
# Total GULP energy -223207.335381 kJ/mol
# GULP energy per Si atom -5580.183385 kJ/mol
# Density = 1.970813 g / cm^3
# Si number density = 19.753086 Si / 1000 Ang^3
#
#
#
# Elastic Constant Matrix: (Units=GPa)
#
#
# Indices 1 2 3 4 5 6 
#
# 1 45.8670 -9.6641 -82.1806 0.0000 0.0000 0.0000
# 2 -9.6641 26.8621 -38.9304 0.0000 0.0000 0.0000
# 3 -82.1806 -38.9304 -54.0644 0.0000 0.0000 0.0000
# 4 0.0000 0.0000 0.0000 22.9411 0.0000 0.0000
# 5 0.0000 0.0000 0.0000 0.0000 23.8703 0.0000
# 6 0.0000 0.0000 0.0000 0.0000 0.0000 46.9186
#
#
#
# Elastic Compliance Matrix: (Units=1/GPa)
#
#
# Indices 1 2 3 4 5 6 
#
# 1 0.007928 -0.007151 -0.006902 0.000000 0.000000 0.000000
# 2 -0.007151 0.024666 -0.006892 0.000000 0.000000 0.000000
# 3 -0.006902 -0.006892 -0.003042 0.000000 0.000000 0.000000
# 4 0.000000 0.000000 0.000000 0.043590 0.000000 0.000000
# 5 0.000000 0.000000 0.000000 0.000000 0.041893 0.000000
# 6 0.000000 0.000000 0.000000 0.000000 0.000000 0.021314
#
#
# Mechanical properties :
#
#
# Convention : Reuss Voigt Hill
#
# Bulk Modulus (GPa) = -81.05452 -26.98729 -54.02090
# Shear Modulus (GPa) = 28.71466 28.70865 28.71166
#
# Velocity S-wave (km/s) = 3.81685 3.81645 3.81665
# Velocity P-wave (km/s) = 4.65816 2.39341 2.82578
#
# Compressibility (1/GPa) = -0.01233738
#
# Stress axis : x y z
#
# Youngs Moduli (GPa) = 126.12850 40.54101 -328.73945
#
# Poissons Ratio (x) = 0.28991 -2.26908
# Poissons Ratio (y) = 0.90194 -2.26561
# Poissons Ratio (z) = 0.87058 0.27940
#
# Static dielectric constant tensor:
#      x y z
#    x 1.629180 0.000000 0.000000 
#    y 0.000000 1.705080 0.000000 
#    z 0.000000 0.000000 1.776560 
# 
# From -- ./inp_files/18270.got.cif
#   From: 2010.05.17/outbox.ucp.g08.bks.cvg/sg57_10_cif.got.tgz:18270.got - 2010.06.11 16:39:23.
