data_PCOD9440837
_publ_section_title
;
Structure prediction by ZEFSAII (Michael W. Deem and Ramdas Pophale) SiO2 
 PCOD9440837
Probable space group: P N N M
;
_chemical_formula_sum "Si O2"
_cell_formula_units_Z 64
_cell_length_a 20.082842
_cell_length_b 15.739364
_cell_length_c 8.366533
_cell_angle_alpha 90.000000
_cell_angle_beta 90.000000
_cell_angle_gamma 90.000000
_cell_volume 2644.587124
_symmetry_space_group_name_H-M "P N N M"
_symmetry_group_IT_number 58
_symmetry_cell_setting 'orthorhombic'
loop_
_space_group_symop_operation_xyz
x,y,z
-x,-y,z
1/2+x,1/2-y,1/2-z
1/2-x,1/2+y,1/2-z
-x,-y,-z
x,y,-z
1/2-x,1/2+y,1/2+z
1/2+x,1/2-y,1/2+z
loop_
_atom_site_type_symbol
_atom_site_label
_atom_site_fract_x
_atom_site_fract_y
_atom_site_fract_z
Si Si1 0.252202 0.298428 0.684510
Si Si2 0.025167 0.759145 0.177416
Si Si3 0.702408 0.879408 0.692411
Si Si4 0.663602 0.052109 0.191874
Si Si5 0.342830 0.554767 0.315411
Si Si6 0.939362 0.061850 0.311787
Si Si7 0.986107 0.592113 0.690006
Si Si8 0.606468 0.286205 0.175978
O O1 0.271739 0.314826 0.500000
O O2 0.300188 0.220950 0.746493
O O3 0.225824 0.389376 0.753951
O O4 0.180553 0.249996 0.684166
O O5 0.033723 0.664902 0.242688
O O6 0.944708 0.763893 0.186243
O O7 0.046894 0.839650 0.278746
O O8 0.051581 0.767329 0.000000
O O9 0.708904 0.875610 0.500000
O O10 0.654286 0.957869 0.736602
O O11 0.768060 0.921301 0.772897
O O12 0.593818 0.102274 0.213681
O O13 0.672579 0.043723 0.000000
O O14 0.354576 0.576369 0.500000
O O15 0.371908 0.462599 0.280556
O O16 0.384892 0.613296 0.195151
O O17 0.931874 0.049551 0.500000
O O18 0.000000 0.000000 0.253912
O O19 0.997433 0.589589 0.500000
O O20 0.000000 0.500000 0.760225
O O21 0.578348 0.265169 0.000000
#
# Coordination Sequence:
#
# PCOD9440837 Si02
#       8
#     8   8   8   8   8   8   8   8
#     4   8  16  32  56  81 110 147 190 236 288 349
#     4  12  23  34  54  86 119 153 197 249 300 355
#     4  10  21  37  57  86 119 156 198 241 293 360
#     4  10  19  37  63  89 115 151 197 245 298 354
#     4  11  21  34  53  82 120 156 195 245 294 346
#     4  11  22  35  55  81 117 164 203 241 293 358
#     4  10  22  42  67  90 115 154 203 255 309 367
#     4  10  17  31  53  79 112 152 192 234 283 345
#
# _framework density 24.200374
#
# number of rings (size 3 to 8) (size 9 to 14) (size 15 to 20)
#    0.000    1.750    2.500    4.125    0.000    1.250 
#    0.000    2.500    0.000    3.000    0.000    0.000 
#    0.000    0.000    0.000    0.000    0.000    0.000 
#
# Total GULP energy -356827.049470 kJ/mol
# GULP energy per Si atom -5575.422648 kJ/mol
# Density = 2.414529 g / cm^3
# Si number density = 24.200374 Si / 1000 Ang^3
#
#
#
# Elastic Constant Matrix: (Units=GPa)
#
#
# Indices 1 2 3 4 5 6 
#
# 1 30.4302 15.2300 7.9109 0.0000 0.0000 0.0000
# 2 15.2300 141.0729 20.2297 0.0000 0.0000 0.0000
# 3 7.9109 20.2297 59.2630 0.0000 0.0000 0.0000
# 4 0.0000 0.0000 0.0000 24.4002 0.0000 0.0000
# 5 0.0000 0.0000 0.0000 0.0000 3.9303 0.0000
# 6 0.0000 0.0000 0.0000 0.0000 0.0000 45.4609
#
#
#
# Elastic Compliance Matrix: (Units=1/GPa)
#
#
# Indices 1 2 3 4 5 6 
#
# 1 0.035456 -0.003311 -0.003603 0.000000 0.000000 0.000000
# 2 -0.003311 0.007763 -0.002208 0.000000 0.000000 0.000000
# 3 -0.003603 -0.002208 0.018108 0.000000 0.000000 0.000000
# 4 0.000000 0.000000 0.000000 0.040983 0.000000 0.000000
# 5 0.000000 0.000000 0.000000 0.000000 0.254435 0.000000
# 6 0.000000 0.000000 0.000000 0.000000 0.000000 0.021997
#
#
# Mechanical properties :
#
#
# Convention : Reuss Voigt Hill
#
# Bulk Modulus (GPa) = 23.21060 35.27858 29.24459
# Shear Modulus (GPa) = 12.15522 27.25132 19.70327
#
# Velocity S-wave (km/s) = 2.24358 3.35934 2.85647
# Velocity P-wave (km/s) = 4.04022 5.44575 4.79477
#
# Compressibility (1/GPa) = 0.04308377
#
# Stress axis : x y z
#
# Youngs Moduli (GPa) = 28.20411 128.82295 55.22273
#
# Poissons Ratio (x) = 0.42655 0.19895
# Poissons Ratio (y) = 0.09339 0.12192
# Poissons Ratio (z) = 0.10161 0.28442
#
# Static dielectric constant tensor:
#      x y z
#    x 2.057130 0.000000 0.000000 
#    y 0.000000 2.094100 0.000000 
#    z 0.000000 0.000000 1.821260 
# 
# From -- ./inp_files/10063.got.cif
#   From: 2010.05.17/outbox.cif.g08.bks.cpg/sg58_6_cif.got.tgz:10063.got - 2010.06.03 14:20:14.
