data_PCOD9440373
_publ_section_title
;
Structure prediction by ZEFSAII (Michael W. Deem and Ramdas Pophale) SiO2 
 PCOD9440373
Probable space group: P B C M
;
_chemical_formula_sum "Si O2"
_cell_formula_units_Z 56
_cell_length_a 16.826016
_cell_length_b 25.704138
_cell_length_c 7.820265
_cell_angle_alpha 90.000000
_cell_angle_beta 90.000000
_cell_angle_gamma 90.000000
_cell_volume 3382.250827
_symmetry_space_group_name_H-M "P B C M"
_symmetry_group_IT_number 57
_symmetry_cell_setting 'orthorhombic'
loop_
_space_group_symop_operation_xyz
x,y,z
-x,-y,1/2+z
x,1/2-y,-z
-x,1/2+y,1/2-z
-x,-y,-z
x,y,1/2-z
-x,1/2+y,z
x,1/2-y,1/2+z
loop_
_atom_site_type_symbol
_atom_site_label
_atom_site_fract_x
_atom_site_fract_y
_atom_site_fract_z
Si Si1 0.769663 0.307575 0.955872
Si Si2 0.478981 0.916837 0.956164
Si Si3 0.587265 0.307948 0.544150
Si Si4 0.625824 0.513649 0.544485
Si Si5 0.965210 0.943162 0.046728
Si Si6 0.194553 0.014026 0.540084
Si Si7 0.873439 0.402633 0.953539
O O1 0.766558 0.311535 0.750000
O O2 0.678645 0.312464 0.018631
O O3 0.826408 0.353033 0.022378
O O4 0.798526 0.250000 0.000000
O O5 0.473773 0.916136 0.750000
O O6 0.460757 0.858517 0.017914
O O7 0.413986 0.959489 0.017947
O O8 0.564377 0.940536 0.002140
O O9 0.557755 0.250000 0.500000
O O10 0.589050 0.310563 0.750000
O O11 0.630032 0.509565 0.750000
O O12 0.715393 0.522477 0.482003
O O13 0.963518 0.938584 0.250000
O O14 0.873961 0.945350 0.984771
O O15 0.032007 0.903587 0.982831
O O16 0.000000 0.000000 0.000000
O O17 0.194386 0.014348 0.750000
O O18 0.165034 0.956736 0.483332
O O19 0.861762 0.403461 0.750000
#
# Coordination Sequence:
#
# PCOD9440373 Si02
#       7
#     8   8   8   8   8   8   8
#     4   9  17  28  42  60  82 109 139 168 198 237
#     4   9  17  28  41  60  85 109 135 169 207 243
#     4   9  17  29  44  61  83 111 141 172 206 244
#     4   9  16  27  43  60  81 111 141 166 198 245
#     4   9  16  26  40  59  82 106 134 165 196 233
#     4   8  14  25  41  59  79 106 137 163 191 235
#     4   9  16  27  42  59  82 111 138 164 199 240
#
# _framework density 16.557022
#
# number of rings (size 3 to 8) (size 9 to 14) (size 15 to 20)
#    0.000    3.143    0.000    2.143    0.000    4.571 
#    0.000    3.571    0.000    5.143    0.000    1.000 
#    0.000    0.000    0.000    0.000    0.000    0.000 
#
# Total GULP energy -311749.062252 kJ/mol
# GULP energy per Si atom -5566.947540 kJ/mol
# Density = 1.651934 g / cm^3
# Si number density = 16.557022 Si / 1000 Ang^3
#
#
#
# Elastic Constant Matrix: (Units=GPa)
#
#
# Indices 1 2 3 4 5 6 
#
# 1 129.3264 67.2168 -0.6398 0.0000 0.0000 0.0000
# 2 67.2168 114.5744 2.7617 0.0000 0.0000 0.0000
# 3 -0.6398 2.7617 15.6079 0.0000 0.0000 0.0000
# 4 0.0000 0.0000 0.0000 17.7180 0.0000 0.0000
# 5 0.0000 0.0000 0.0000 0.0000 18.0586 0.0000
# 6 0.0000 0.0000 0.0000 0.0000 0.0000 24.7689
#
#
#
# Elastic Compliance Matrix: (Units=1/GPa)
#
#
# Indices 1 2 3 4 5 6 
#
# 1 0.011165 -0.006589 0.001624 0.000000 0.000000 0.000000
# 2 -0.006589 0.012654 -0.002509 0.000000 0.000000 0.000000
# 3 0.001624 -0.002509 0.064581 0.000000 0.000000 0.000000
# 4 0.000000 0.000000 0.000000 0.056440 0.000000 0.000000
# 5 0.000000 0.000000 0.000000 0.000000 0.055375 0.000000
# 6 0.000000 0.000000 0.000000 0.000000 0.000000 0.040373
#
#
# Mechanical properties :
#
#
# Convention : Reuss Voigt Hill
#
# Bulk Modulus (GPa) = 13.61463 44.24289 28.92876
# Shear Modulus (GPa) = 17.85576 24.78711 21.32143
#
# Velocity S-wave (km/s) = 3.28752 3.87340 3.59243
# Velocity P-wave (km/s) = 4.75932 6.83987 5.89216
#
# Compressibility (1/GPa) = 0.07345042
#
# Stress axis : x y z
#
# Youngs Moduli (GPa) = 89.56397 79.02522 15.48447
#
# Poissons Ratio (x) = 0.52073 -0.02514
# Poissons Ratio (y) = 0.59017 0.03885
# Poissons Ratio (z) = -0.14542 0.19829
#
# Static dielectric constant tensor:
#      x y z
#    x 1.578600 0.000000 0.000000 
#    y 0.000000 1.550670 0.000000 
#    z 0.000000 0.000000 1.609700 
# 
# From -- ./inp_files/7328.got.cif
#   From: 2010.05.17/outbox.cif.g08.bks.cpg/sg57_4_cif.got.tgz:7328.got - 2010.06.03 13:58:18.
