data_PCOD9440926
_publ_section_title
;
Structure prediction by ZEFSAII (Michael W. Deem and Ramdas Pophale) SiO2 
 PCOD9440926
Probable space group: P N N M
;
_chemical_formula_sum "Si O2"
_cell_formula_units_Z 64
_cell_length_a 26.750394
_cell_length_b 18.795703
_cell_length_c 8.829275
_cell_angle_alpha 90.000000
_cell_angle_beta 90.000000
_cell_angle_gamma 90.000000
_cell_volume 4439.292904
_symmetry_space_group_name_H-M "P N N M"
_symmetry_group_IT_number 58
_symmetry_cell_setting 'orthorhombic'
loop_
_space_group_symop_operation_xyz
x,y,z
-x,-y,z
1/2+x,1/2-y,1/2-z
1/2-x,1/2+y,1/2-z
-x,-y,-z
x,y,-z
1/2-x,1/2+y,1/2+z
1/2+x,1/2-y,1/2+z
loop_
_atom_site_type_symbol
_atom_site_label
_atom_site_fract_x
_atom_site_fract_y
_atom_site_fract_z
Si Si1 0.552960 0.577366 0.680284
Si Si2 0.745135 0.583731 0.820493
Si Si3 0.243122 0.070013 0.821153
Si Si4 0.700660 0.209792 0.178301
Si Si5 0.859365 0.163081 0.679385
Si Si6 0.444356 0.576310 0.818872
Si Si7 0.355902 0.665152 0.319669
Si Si8 0.706420 0.790089 0.179822
O O1 0.548180 0.571022 0.500000
O O2 0.594328 0.634706 0.726214
O O3 0.499147 0.593920 0.753416
O O4 0.568898 0.501054 0.749596
O O5 0.746380 0.502162 0.771085
O O6 0.787414 0.631232 0.739722
O O7 0.690445 0.617042 0.783270
O O8 0.751190 0.591228 0.000000
O O9 0.191940 0.113580 0.788964
O O10 0.287993 0.126206 0.791934
O O11 0.242896 0.052928 0.000000
O O12 0.658543 0.256356 0.261634
O O13 0.751440 0.252338 0.220088
O O14 0.692053 0.209312 0.000000
O O15 0.869411 0.153463 0.500000
O O16 0.843821 0.245394 0.704820
O O17 0.403355 0.632360 0.764166
O O18 0.446150 0.571511 0.000000
O O19 0.363543 0.665712 0.500000
O O20 0.719605 0.779566 0.000000
#
# Coordination Sequence:
#
# PCOD9440926 Si02
#       8
#     8   8   8   8   8   8   8   8
#     4  11  21  32  45  63  87 114 144 181 222 255
#     4  10  19  29  42  61  87 117 146 178 214 251
#     4   9  17  28  43  63  86 113 143 175 211 253
#     4  10  18  28  43  62  84 111 144 178 211 252
#     4   9  17  30  45  60  82 115 150 180 214 256
#     4  11  21  33  47  63  84 112 147 182 215 254
#     4  10  19  32  47  63  86 114 144 178 218 259
#     4   8  16  30  44  59  84 114 142 176 216 254
#
# _framework density 14.41671
#
# number of rings (size 3 to 8) (size 9 to 14) (size 15 to 20)
#    0.000    2.250    0.000    7.125    0.000    7.000 
#    0.000    0.000    0.000    0.000    0.000    0.000 
#    0.000    1.000    0.000   10.750    0.000    4.750 
#
# Total GULP energy -356765.217709 kJ/mol
# GULP energy per Si atom -5574.456527 kJ/mol
# Density = 1.438390 g / cm^3
# Si number density = 14.416710 Si / 1000 Ang^3
#
#
#
# Elastic Constant Matrix: (Units=GPa)
#
#
# Indices 1 2 3 4 5 6 
#
# 1 50.0969 26.4630 34.2555 0.0000 0.0000 0.0000
# 2 26.4630 70.5206 36.8586 0.0000 0.0000 0.0000
# 3 34.2555 36.8586 83.7837 0.0000 0.0000 0.0000
# 4 0.0000 0.0000 0.0000 24.1118 0.0000 0.0000
# 5 0.0000 0.0000 0.0000 0.0000 19.4489 0.0000
# 6 0.0000 0.0000 0.0000 0.0000 0.0000 23.0809
#
#
#
# Elastic Compliance Matrix: (Units=1/GPa)
#
#
# Indices 1 2 3 4 5 6 
#
# 1 0.029673 -0.006225 -0.009393 0.000000 0.000000 0.000000
# 2 -0.006225 0.019720 -0.006130 0.000000 0.000000 0.000000
# 3 -0.009393 -0.006130 0.018473 0.000000 0.000000 0.000000
# 4 0.000000 0.000000 0.000000 0.041473 0.000000 0.000000
# 5 0.000000 0.000000 0.000000 0.000000 0.051417 0.000000
# 6 0.000000 0.000000 0.000000 0.000000 0.000000 0.043326
#
#
# Mechanical properties :
#
#
# Convention : Reuss Voigt Hill
#
# Bulk Modulus (GPa) = 41.03673 44.39504 42.71588
# Shear Modulus (GPa) = 19.55400 20.44993 20.00197
#
# Velocity S-wave (km/s) = 3.68685 3.77037 3.72884
# Velocity P-wave (km/s) = 6.83010 7.05799 6.94498
#
# Compressibility (1/GPa) = 0.02436841
#
# Stress axis : x y z
#
# Youngs Moduli (GPa) = 33.70110 50.70908 54.13354
#
# Poissons Ratio (x) = 0.31568 0.50849
# Poissons Ratio (y) = 0.20980 0.33185
# Poissons Ratio (z) = 0.31656 0.31086
#
# Static dielectric constant tensor:
#      x y z
#    x 1.465160 0.000000 0.000000 
#    y 0.000000 1.485630 0.000000 
#    z 0.000000 0.000000 1.480250 
# 
# From -- ./inp_files/10146.got.cif
#   From: 2010.05.17/outbox.cif.g08.bks.cpg/sg58_6_cif.got.tgz:10146.got - 2010.06.03 14:20:14.
