data_PCOD9440329
_publ_section_title
;
Structure prediction by ZEFSAII (Michael W. Deem and Ramdas Pophale) SiO2 
 PCOD9440329
Probable space group: P B C M
;
_chemical_formula_sum "Si O2"
_cell_formula_units_Z 40
_cell_length_a 14.834794
_cell_length_b 7.509229
_cell_length_c 14.424088
_cell_angle_alpha 90.000000
_cell_angle_beta 90.000000
_cell_angle_gamma 90.000000
_cell_volume 1606.812612
_symmetry_space_group_name_H-M "P B C M"
_symmetry_group_IT_number 57
_symmetry_cell_setting 'orthorhombic'
loop_
_space_group_symop_operation_xyz
x,y,z
-x,-y,1/2+z
x,1/2-y,-z
-x,1/2+y,1/2-z
-x,-y,-z
x,y,1/2-z
-x,1/2+y,z
x,1/2-y,1/2+z
loop_
_atom_site_type_symbol
_atom_site_label
_atom_site_fract_x
_atom_site_fract_y
_atom_site_fract_z
Si Si1 0.638854 0.792182 0.105258
Si Si2 0.905489 0.937122 0.953354
Si Si3 0.133749 0.633436 0.250000
Si Si4 0.358354 0.016873 0.250000
Si Si5 0.493138 0.715397 0.750000
Si Si6 0.243396 0.628509 0.069170
Si Si7 0.928015 0.714498 0.250000
O O1 0.678878 0.620478 0.161178
O O2 0.545941 0.834766 0.155980
O O3 0.703001 0.960602 0.108841
O O4 0.624359 0.750000 0.000000
O O5 0.907087 0.894732 0.844128
O O6 0.883888 0.750000 0.000000
O O7 0.829712 0.065161 0.992941
O O8 0.000000 0.000000 0.000000
O O9 0.188276 0.691052 0.159090
O O10 0.114198 0.416062 0.250000
O O11 0.036540 0.726376 0.250000
O O12 0.465673 0.077258 0.250000
O O13 0.384746 0.810617 0.250000
O O14 0.303709 0.750000 0.000000
#
# Coordination Sequence:
#
# PCOD9440329 Si02
#       7
#     8   8   4   4   4   8   4
#     4   9  21  42  64  97 133 177 215 256 336 401
#     4  12  23  41  64  96 127 175 236 296 344 408
#     4  12  26  42  66  87 124 179 229 289 358 400
#     4   8  19  41  69  98 134 161 212 262 321 393
#     4   8  19  41  67 102 133 164 214 268 317 397
#     4  12  26  44  64  91 139 176 231 288 335 405
#     4  12  24  40  64  95 127 172 227 299 350 400
#
# _framework density 24.894005
#
# number of rings (size 3 to 8) (size 9 to 14) (size 15 to 20)
#    1.200    0.000    4.000    2.400    2.800    0.800 
#    3.600    2.000    0.000    0.000    0.000    0.000 
#    0.000    0.000    0.000    0.000    0.000    0.000 
#
# Total GULP energy -223225.032608 kJ/mol
# GULP energy per Si atom -5580.625815 kJ/mol
# Density = 2.483735 g / cm^3
# Si number density = 24.894005 Si / 1000 Ang^3
#
#
#
# Elastic Constant Matrix: (Units=GPa)
#
#
# Indices 1 2 3 4 5 6 
#
# 1 31.2335 6.0482 8.6468 0.0000 0.0000 0.0000
# 2 6.0482 45.7224 27.0105 0.0000 0.0000 0.0000
# 3 8.6468 27.0105 218.2793 0.0000 0.0000 0.0000
# 4 0.0000 0.0000 0.0000 53.2342 0.0000 0.0000
# 5 0.0000 0.0000 0.0000 0.0000 -0.9663 0.0000
# 6 0.0000 0.0000 0.0000 0.0000 0.0000 39.1326
#
#
#
# Elastic Compliance Matrix: (Units=1/GPa)
#
#
# Indices 1 2 3 4 5 6 
#
# 1 0.032997 -0.003876 -0.000827 0.000000 0.000000 0.000000
# 2 -0.003876 0.024051 -0.002823 0.000000 0.000000 0.000000
# 3 -0.000827 -0.002823 0.004963 0.000000 0.000000 0.000000
# 4 0.000000 0.000000 0.000000 0.018785 0.000000 0.000000
# 5 0.000000 0.000000 0.000000 0.000000 -1.034839 0.000000
# 6 0.000000 0.000000 0.000000 0.000000 0.000000 0.025554
#
#
# Mechanical properties :
#
#
# Convention : Reuss Voigt Hill
#
# Bulk Modulus (GPa) = 21.29515 42.07178 31.68346
# Shear Modulus (GPa) = -5.56927 35.18208 14.80640
#
# Velocity S-wave (km/s) = -1.49735 3.76343 2.44145
# Velocity P-wave (km/s) = 2.36294 5.98512 4.55001
#
# Compressibility (1/GPa) = 0.04695906
#
# Stress axis : x y z
#
# Youngs Moduli (GPa) = 30.30616 41.57774 201.47699
#
# Poissons Ratio (x) = 0.16116 0.16672
# Poissons Ratio (y) = 0.11747 0.56870
# Poissons Ratio (z) = 0.02508 0.11736
#
# Static dielectric constant tensor:
#      x y z
#    x 1.766260 0.000000 0.000000 
#    y 0.000000 2.240920 0.000000 
#    z 0.000000 0.000000 2.085950 
# 
# From -- ./inp_files/18874.got.cif
#   From: 2010.05.17/outbox.cif.g08.bks.cpg/sg57_10_cif.got.tgz:18874.got - 2010.06.03 13:58:18.
