data_PCOD9440304
_publ_section_title
;
Structure prediction by ZEFSAII (Michael W. Deem and Ramdas Pophale) SiO2 
 PCOD9440304
Probable space group: P B C M
;
_chemical_formula_sum "Si O2"
_cell_formula_units_Z 20
_cell_length_a 7.214727
_cell_length_b 11.461317
_cell_length_c 9.800047
_cell_angle_alpha 90.000000
_cell_angle_beta 90.000000
_cell_angle_gamma 90.000000
_cell_volume 810.368564
_symmetry_space_group_name_H-M "P B C M"
_symmetry_group_IT_number 57
_symmetry_cell_setting 'orthorhombic'
loop_
_space_group_symop_operation_xyz
x,y,z
-x,-y,1/2+z
x,1/2-y,-z
-x,1/2+y,1/2-z
-x,-y,-z
x,y,1/2-z
-x,1/2+y,z
x,1/2-y,1/2+z
loop_
_atom_site_type_symbol
_atom_site_label
_atom_site_fract_x
_atom_site_fract_y
_atom_site_fract_z
Si Si1 0.750198 0.467374 0.750000
Si Si2 0.668189 0.948887 0.750000
Si Si3 0.810844 0.369753 0.468265
Si Si4 0.115004 0.292484 0.250000
O O1 0.546289 0.414457 0.750000
O O2 0.854139 0.426728 0.614027
O O3 0.731875 0.606221 0.750000
O O4 0.792210 0.833075 0.750000
O O5 0.709629 0.032161 0.620566
O O6 0.699416 0.250000 0.500000
O O7 0.982810 0.322562 0.378721
#
# Coordination Sequence:
#
# PCOD9440304 Si02
#       4
#     4   4   8   4
#     4  12  26  49  77 113 158 195 260 323 388 449
#     4  11  28  50  76 119 153 204 258 318 392 453
#     4  11  27  48  77 110 155 202 257 312 380 466
#     4  11  28  45  81 108 151 207 256 315 380 468
#
# _framework density 24.680129000000001
#
# number of rings (size 3 to 8) (size 9 to 14) (size 15 to 20)
#    0.000    0.800    0.000    4.800   22.400    0.000 
#    0.000    0.000    0.000    0.000    0.000    0.000 
#    0.000    0.000    0.000    0.000    0.000    0.000 
#
# Total GULP energy -112022.292124 kJ/mol
# GULP energy per Si atom -5601.114606 kJ/mol
# Density = 2.462396 g / cm^3
# Si number density = 24.680129 Si / 1000 Ang^3
#
#
#
# Elastic Constant Matrix: (Units=GPa)
#
#
# Indices 1 2 3 4 5 6 
#
# 1 117.2008 38.1281 40.8758 0.0000 0.0000 0.0000
# 2 38.1281 208.3583 69.1627 0.0000 0.0000 0.0000
# 3 40.8758 69.1627 222.6907 0.0000 0.0000 0.0000
# 4 0.0000 0.0000 0.0000 49.4620 0.0000 0.0000
# 5 0.0000 0.0000 0.0000 0.0000 0.0796 0.0000
# 6 0.0000 0.0000 0.0000 0.0000 0.0000 34.9052
#
#
#
# Elastic Compliance Matrix: (Units=1/GPa)
#
#
# Indices 1 2 3 4 5 6 
#
# 1 0.009413 -0.001281 -0.001330 0.000000 0.000000 0.000000
# 2 -0.001281 0.005525 -0.001481 0.000000 0.000000 0.000000
# 3 -0.001330 -0.001481 0.005195 0.000000 0.000000 0.000000
# 4 0.000000 0.000000 0.000000 0.020218 0.000000 0.000000
# 5 0.000000 0.000000 0.000000 0.000000 12.568187 0.000000
# 6 0.000000 0.000000 0.000000 0.000000 0.000000 0.028649
#
#
# Mechanical properties :
#
#
# Convention : Reuss Voigt Hill
#
# Bulk Modulus (GPa) = 83.68783 93.84254 88.76519
# Shear Modulus (GPa) = 0.39528 43.56157 21.97843
#
# Velocity S-wave (km/s) = 0.40063 4.20580 2.98741
# Velocity P-wave (km/s) = 5.84779 7.85437 6.92415
#
# Compressibility (1/GPa) = 0.01194917
#
# Stress axis : x y z
#
# Youngs Moduli (GPa) = 106.23664 180.98138 192.50794
#
# Poissons Ratio (x) = 0.23185 0.25602
# Poissons Ratio (y) = 0.13609 0.28509
# Poissons Ratio (z) = 0.14129 0.26802
#
# Static dielectric constant tensor:
#      x y z
#    x 1.913220 0.000000 0.000000 
#    y 0.000000 2.007260 0.000000 
#    z 0.000000 0.000000 1.980480 
# 
# From -- ./inp_files/897.got.cif
#   From: 2010.05.17/outbox.cif.g08.bks.cpg/sg57_1_cif.got.tgz:897.got - 2010.06.03 13:58:18.
