data_PCOD9440313
_publ_section_title
;
Structure prediction by ZEFSAII (Michael W. Deem and Ramdas Pophale) SiO2 
 PCOD9440313
Probable space group: P B C M
;
_chemical_formula_sum "Si O2"
_cell_formula_units_Z 40
_cell_length_a 4.961039
_cell_length_b 19.885771
_cell_length_c 18.741481
_cell_angle_alpha 90.000000
_cell_angle_beta 90.000000
_cell_angle_gamma 90.000000
_cell_volume 1848.923669
_symmetry_space_group_name_H-M "P B C M"
_symmetry_group_IT_number 57
_symmetry_cell_setting 'orthorhombic'
loop_
_space_group_symop_operation_xyz
x,y,z
-x,-y,1/2+z
x,1/2-y,-z
-x,1/2+y,1/2-z
-x,-y,-z
x,y,1/2-z
-x,1/2+y,z
x,1/2-y,1/2+z
loop_
_atom_site_type_symbol
_atom_site_label
_atom_site_fract_x
_atom_site_fract_y
_atom_site_fract_z
Si Si1 0.300826 0.531715 0.250000
Si Si2 0.801044 0.444612 0.250000
Si Si3 0.361623 0.865389 0.877145
Si Si4 0.589162 0.671590 0.523349
Si Si5 0.130917 0.205349 0.170549
Si Si6 0.072530 0.846572 0.120285
O O1 0.490354 0.466270 0.250000
O O2 0.366130 0.573146 0.177991
O O3 0.989721 0.510372 0.250000
O O4 0.871311 0.402747 0.320882
O O5 0.557027 0.809496 0.841539
O O6 0.058099 0.837777 0.881541
O O7 0.484044 0.870770 0.955714
O O8 0.644836 0.750000 0.500000
O O9 0.849198 0.638848 0.559974
O O10 0.347171 0.672766 0.580263
O O11 0.055794 0.183236 0.250000
O O12 0.053333 0.281973 0.159679
#
# Coordination Sequence:
#
# PCOD9440313 Si02
#       6
#     4   4   8   8   8   8
#     4  12  26  48  64  92 124 184 236 270 306 366
#     4  12  28  48  68  88 132 184 234 270 298 382
#     4  12  24  40  68  98 136 164 215 275 327 392
#     4  12  23  40  66 107 141 163 198 270 353 410
#     4  12  20  37  65 102 129 160 212 276 337 386
#     4  12  24  42  66 100 135 170 212 265 337 394
#
# _framework density 21.634208000000001
#
# number of rings (size 3 to 8) (size 9 to 14) (size 15 to 20)
#    0.000    0.000    7.000    4.200    0.000    0.000 
#    0.000    6.000    0.000    0.000    0.000    0.000 
#    0.000    0.000    0.000    0.000    0.000    0.000 
#
# Total GULP energy -223797.962981 kJ/mol
# GULP energy per Si atom -5594.949075 kJ/mol
# Density = 2.158497 g / cm^3
# Si number density = 21.634208 Si / 1000 Ang^3
#
#
#
# Elastic Constant Matrix: (Units=GPa)
#
#
# Indices 1 2 3 4 5 6 
#
# 1 71.0908 -11.0906 3.1360 0.0000 0.0000 0.0000
# 2 -11.0906 44.5559 20.2382 0.0000 0.0000 0.0000
# 3 3.1360 20.2382 107.6587 0.0000 0.0000 0.0000
# 4 0.0000 0.0000 0.0000 12.8612 0.0000 0.0000
# 5 0.0000 0.0000 0.0000 0.0000 26.1690 0.0000
# 6 0.0000 0.0000 0.0000 0.0000 0.0000 25.5655
#
#
#
# Elastic Compliance Matrix: (Units=1/GPa)
#
#
# Indices 1 2 3 4 5 6 
#
# 1 0.014782 0.004237 -0.001227 0.000000 0.000000 0.000000
# 2 0.004237 0.025753 -0.004965 0.000000 0.000000 0.000000
# 3 -0.001227 -0.004965 0.010258 0.000000 0.000000 0.000000
# 4 0.000000 0.000000 0.000000 0.077753 0.000000 0.000000
# 5 0.000000 0.000000 0.000000 0.000000 0.038213 0.000000
# 6 0.000000 0.000000 0.000000 0.000000 0.000000 0.039115
#
#
# Mechanical properties :
#
#
# Convention : Reuss Voigt Hill
#
# Bulk Modulus (GPa) = 21.32984 27.54138 24.43561
# Shear Modulus (GPa) = 22.18164 26.98726 24.58445
#
# Velocity S-wave (km/s) = 3.20551 3.53574 3.37466
# Velocity P-wave (km/s) = 4.85604 5.42464 5.14819
#
# Compressibility (1/GPa) = 0.04688268
#
# Stress axis : x y z
#
# Youngs Moduli (GPa) = 67.65163 38.82990 97.48839
#
# Poissons Ratio (x) = -0.16451 0.11962
# Poissons Ratio (y) = -0.28662 0.48400
# Poissons Ratio (z) = 0.08301 0.19278
#
# Static dielectric constant tensor:
#      x y z
#    x 1.753850 0.000000 0.000000 
#    y 0.000000 1.778290 0.000000 
#    z 0.000000 0.000000 1.822170 
# 
# From -- ./inp_files/20135.got.cif
#   From: 2010.05.17/outbox.cif.g08.bks.cpg/sg57_11_cif.got.tgz:20135.got - 2010.06.03 13:58:18.
