data_PCOD9440157
_publ_section_title
;
Structure prediction by ZEFSAII (Michael W. Deem and Ramdas Pophale) SiO2 
 PCOD9440157
Probable space group: P B C M
;
_chemical_formula_sum "Si O2"
_cell_formula_units_Z 40
_cell_length_a 6.925847
_cell_length_b 15.434895
_cell_length_c 19.149579
_cell_angle_alpha 90.000000
_cell_angle_beta 90.000000
_cell_angle_gamma 90.000000
_cell_volume 2047.084657
_symmetry_space_group_name_H-M "P B C M"
_symmetry_group_IT_number 57
_symmetry_cell_setting 'orthorhombic'
loop_
_space_group_symop_operation_xyz
x,y,z
-x,-y,1/2+z
x,1/2-y,-z
-x,1/2+y,1/2-z
-x,-y,-z
x,y,1/2-z
-x,1/2+y,z
x,1/2-y,1/2+z
loop_
_atom_site_type_symbol
_atom_site_label
_atom_site_fract_x
_atom_site_fract_y
_atom_site_fract_z
Si Si1 0.820628 0.792684 0.170086
Si Si2 0.970509 0.963655 0.106370
Si Si3 0.302481 0.039865 0.472082
Si Si4 0.848165 0.350847 0.667964
Si Si5 0.491432 0.285644 0.575923
O O1 0.752608 0.790724 0.250000
O O2 0.932950 0.881533 0.154701
O O3 0.640956 0.781765 0.118044
O O4 0.970137 0.713600 0.160085
O O5 0.902262 0.053260 0.141458
O O6 0.843265 0.948404 0.036714
O O7 0.190473 0.977834 0.081891
O O8 0.357728 0.130546 0.437525
O O9 0.500000 0.000000 0.500000
O O10 0.796298 0.353383 0.750000
O O11 0.673859 0.314462 0.621381
O O12 0.550057 0.250000 0.500000
#
# Coordination Sequence:
#
# PCOD9440157 Si02
#       5
#     8   8   8   8   8
#     4  11  25  44  64  95 133 174 223 272 328 399
#     4  11  23  41  69  94 130 173 218 270 329 392
#     4  11  23  40  63  99 129 162 219 272 326 386
#     4  11  25  44  65  94 132 177 221 268 331 401
#     4  12  24  41  69  95 131 173 218 278 336 387
#
# _framework density 19.539982999999999
#
# number of rings (size 3 to 8) (size 9 to 14) (size 15 to 20)
#    0.000    0.800    6.000    1.200    2.800    0.800 
#    0.000    0.000    0.000    0.000    0.000    0.000 
#    0.000    0.000    0.000    0.000    0.000    0.000 
#
# Total GULP energy -223647.791391 kJ/mol
# GULP energy per Si atom -5591.194785 kJ/mol
# Density = 1.949551 g / cm^3
# Si number density = 19.539983 Si / 1000 Ang^3
#
#
#
# Elastic Constant Matrix: (Units=GPa)
#
#
# Indices 1 2 3 4 5 6 
#
# 1 90.6857 23.5035 58.7897 0.0000 0.0000 0.0000
# 2 23.5035 84.9727 28.4123 0.0000 0.0000 0.0000
# 3 58.7897 28.4123 126.9272 0.0000 0.0000 0.0000
# 4 0.0000 0.0000 0.0000 31.6268 0.0000 0.0000
# 5 0.0000 0.0000 0.0000 0.0000 18.9763 0.0000
# 6 0.0000 0.0000 0.0000 0.0000 0.0000 23.1177
#
#
#
# Elastic Compliance Matrix: (Units=1/GPa)
#
#
# Indices 1 2 3 4 5 6 
#
# 1 0.016104 -0.002119 -0.006985 0.000000 0.000000 0.000000
# 2 -0.002119 0.012999 -0.001928 0.000000 0.000000 0.000000
# 3 -0.006985 -0.001928 0.011545 0.000000 0.000000 0.000000
# 4 0.000000 0.000000 0.000000 0.031619 0.000000 0.000000
# 5 0.000000 0.000000 0.000000 0.000000 0.052697 0.000000
# 6 0.000000 0.000000 0.000000 0.000000 0.000000 0.043257
#
#
# Mechanical properties :
#
#
# Convention : Reuss Voigt Hill
#
# Bulk Modulus (GPa) = 53.80760 58.22185 56.01473
# Shear Modulus (GPa) = 25.44766 27.53616 26.49191
#
# Velocity S-wave (km/s) = 3.61271 3.75803 3.68609
# Velocity P-wave (km/s) = 6.70814 6.97792 6.84436
#
# Compressibility (1/GPa) = 0.01858474
#
# Stress axis : x y z
#
# Youngs Moduli (GPa) = 62.09473 76.92665 86.61440
#
# Poissons Ratio (x) = 0.16301 0.60499
# Poissons Ratio (y) = 0.13158 0.16703
# Poissons Ratio (z) = 0.43372 0.14835
#
# Static dielectric constant tensor:
#      x y z
#    x 1.655000 0.000000 0.000000 
#    y 0.000000 1.692550 0.000000 
#    z 0.000000 0.000000 1.685360 
# 
# From -- ./inp_files/19984.got.cif
#   From: 2010.05.17/outbox.cif.g08.bks.cpg/sg57_10_cif.got.tgz:19984.got - 2010.06.03 13:58:18.
