data_PCOD9440754
_publ_section_title
;
Structure prediction by ZEFSAII (Michael W. Deem and Ramdas Pophale) SiO2 
 PCOD9440754
Probable space group: P N N M
;
_chemical_formula_sum "Si O2"
_cell_formula_units_Z 64
_cell_length_a 13.459311
_cell_length_b 16.313078
_cell_length_c 11.302049
_cell_angle_alpha 90.000000
_cell_angle_beta 90.000000
_cell_angle_gamma 90.000000
_cell_volume 2481.509413
_symmetry_space_group_name_H-M "P N N M"
_symmetry_group_IT_number 58
_symmetry_cell_setting 'orthorhombic'
loop_
_space_group_symop_operation_xyz
x,y,z
-x,-y,z
1/2+x,1/2-y,1/2-z
1/2-x,1/2+y,1/2-z
-x,-y,-z
x,y,-z
1/2-x,1/2+y,1/2+z
1/2+x,1/2-y,1/2+z
loop_
_atom_site_type_symbol
_atom_site_label
_atom_site_fract_x
_atom_site_fract_y
_atom_site_fract_z
Si Si1 0.480338 0.903190 0.136017
Si Si2 0.159399 0.023513 0.126675
Si Si3 0.830357 0.789619 0.871868
Si Si4 0.087237 0.847169 0.870524
Si Si5 0.718833 0.262200 0.873657
Si Si6 0.391876 0.102535 0.370097
Si Si7 0.303745 0.942031 0.294609
Si Si8 0.357094 0.307286 0.871503
O O1 0.547503 0.876390 0.250017
O O2 0.369989 0.902334 0.191130
O O3 0.500000 0.000000 0.124740
O O4 0.492520 0.870393 0.000000
O O5 0.086538 0.945748 0.130669
O O6 0.231899 0.006964 0.232351
O O7 0.128663 0.117739 0.128794
O O8 0.213148 0.014873 0.000000
O O9 0.851258 0.759753 0.740176
O O10 0.710025 0.775535 0.871082
O O11 0.858049 0.752258 0.000000
O O12 0.200240 0.811250 0.874084
O O13 0.066835 0.817207 0.737085
O O14 0.048115 0.820911 0.000000
O O15 0.790905 0.342758 0.868396
O O16 0.666871 0.263409 0.000000
O O17 0.438100 0.122353 0.500000
O O18 0.372104 0.004330 0.368308
O O19 0.230905 0.876995 0.357533
O O20 0.403361 0.317307 0.000000
#
# Coordination Sequence:
#
# PCOD9440754 Si02
#       8
#     8   8   8   8   8   8   8   8
#     4   9  19  31  42  57  76 100 135 172 197 226
#     4   9  15  24  40  59  77 103 134 162 192 227
#     4   9  16  26  39  57  79 102 131 163 193 228
#     4   8  15  26  39  54  75 102 133 164 191 227
#     4   9  16  27  39  54  76 103 133 162 195 232
#     4  10  19  28  40  57  78 105 134 164 198 234
#     4  10  17  27  41  56  78 107 136 161 193 233
#     4   9  17  26  38  57  79 102 129 162 196 229
#
# _framework density 25.790755000000001
#
# number of rings (size 3 to 8) (size 9 to 14) (size 15 to 20)
#    0.000    2.875    1.250    0.750    0.000    4.250 
#    0.000    0.000    0.000    0.000    0.000    0.000 
#    0.000    1.000    0.000   10.875    0.000    0.500 
#
# Total GULP energy -356287.622231 kJ/mol
# GULP energy per Si atom -5566.994097 kJ/mol
# Density = 2.573205 g / cm^3
# Si number density = 25.790755 Si / 1000 Ang^3
#
#
#
# Elastic Constant Matrix: (Units=GPa)
#
#
# Indices 1 2 3 4 5 6 
#
# 1 74.8217 25.7734 41.3212 0.0000 0.0000 0.0000
# 2 25.7734 122.6902 32.9201 0.0000 0.0000 0.0000
# 3 41.3212 32.9201 287.6610 0.0000 0.0000 0.0000
# 4 0.0000 0.0000 0.0000 75.0800 0.0000 0.0000
# 5 0.0000 0.0000 0.0000 0.0000 -17.5280 0.0000
# 6 0.0000 0.0000 0.0000 0.0000 0.0000 35.0541
#
#
#
# Elastic Compliance Matrix: (Units=1/GPa)
#
#
# Indices 1 2 3 4 5 6 
#
# 1 0.015346 -0.002716 -0.001894 0.000000 0.000000 0.000000
# 2 -0.002716 0.008889 -0.000627 0.000000 0.000000 0.000000
# 3 -0.001894 -0.000627 0.003820 0.000000 0.000000 0.000000
# 4 0.000000 0.000000 0.000000 0.013319 0.000000 0.000000
# 5 0.000000 0.000000 0.000000 0.000000 -0.057052 0.000000
# 6 0.000000 0.000000 0.000000 0.000000 0.000000 0.028527
#
#
# Mechanical properties :
#
#
# Convention : Reuss Voigt Hill
#
# Bulk Modulus (GPa) = 56.87392 76.13358 66.50375
# Shear Modulus (GPa) = 171.32316 44.19845 107.76081
#
# Velocity S-wave (km/s) = 8.15919 4.14422 6.47097
# Velocity P-wave (km/s) = 10.52915 7.24453 9.03732
#
# Compressibility (1/GPa) = 0.01758275
#
# Stress axis : x y z
#
# Youngs Moduli (GPa) = 65.16210 112.49370 261.77287
#
# Poissons Ratio (x) = 0.30550 0.49571
# Poissons Ratio (y) = 0.17696 0.16419
# Poissons Ratio (z) = 0.12339 0.07056
#
# Static dielectric constant tensor:
#      x y z
#    x 2.029160 0.000000 0.000000 
#    y 0.000000 2.063010 0.000000 
#    z 0.000000 0.000000 2.091660 
# 
# From -- ./inp_files/17190.got.cif
#   From: 2010.05.17/outbox.cif.g08.bks.cpg/sg58_9_cif.got.tgz:17190.got - 2010.06.03 14:20:14.
