data_PCOD9440501
_publ_section_title
;
Structure prediction by ZEFSAII (Michael W. Deem and Ramdas Pophale) SiO2 
 PCOD9440501
Probable space group: P B C M
;
_chemical_formula_sum "Si O2"
_cell_formula_units_Z 64
_cell_length_a 15.000000
_cell_length_b 24.000000
_cell_length_c 9.000000
_cell_angle_alpha 90.000000
_cell_angle_beta 90.000000
_cell_angle_gamma 90.000000
_cell_volume 3240.000000
_symmetry_space_group_name_H-M "P B C M"
_symmetry_group_IT_number 57
_symmetry_cell_setting 'orthorhombic'
loop_
_space_group_symop_operation_xyz
x,y,z
-x,-y,1/2+z
x,1/2-y,-z
-x,1/2+y,1/2-z
-x,-y,-z
x,y,1/2-z
-x,1/2+y,z
x,1/2-y,1/2+z
loop_
_atom_site_type_symbol
_atom_site_label
_atom_site_fract_x
_atom_site_fract_y
_atom_site_fract_z
Si Si1 0.040934 0.304588 0.922459
Si Si2 0.392784 0.394328 0.928010
Si Si3 0.706240 0.495550 0.069501
Si Si4 0.241224 0.307444 0.572289
Si Si5 0.312857 0.873473 0.577157
Si Si6 0.468283 0.689650 0.572680
Si Si7 0.882943 0.388584 0.918294
Si Si8 0.903936 0.495826 0.419832
O O1 0.051369 0.291328 0.750000
O O2 0.139892 0.317303 0.980673
O O3 0.972127 0.354017 0.933500
O O4 0.004731 0.250000 0.000000
O O5 0.410302 0.392001 0.750000
O O6 0.368261 0.457993 0.966426
O O7 0.304080 0.358780 0.960569
O O8 0.468437 0.360384 0.013947
O O9 0.707639 0.488083 0.250000
O O10 0.806498 0.518976 0.028973
O O11 0.686596 0.436777 0.988785
O O12 0.273466 0.250000 0.500000
O O13 0.241815 0.300605 0.750000
O O14 0.342309 0.874577 0.750000
O O15 0.372038 0.831501 0.482637
O O16 0.209211 0.855548 0.574972
O O17 0.489475 0.750000 0.500000
O O18 0.473633 0.694439 0.750000
O O19 0.882779 0.414933 0.750000
O O20 0.882357 0.431201 0.053524
O O21 0.916126 0.513215 0.250000
O O22 0.000000 0.500000 0.500000
#
# Coordination Sequence:
#
# PCOD9440501 Si02
#       8
#     8   8   8   8   8   8   8   8
#     4   9  18  32  51  76 109 147 188 231 282 341
#     4  10  21  38  61  88 117 152 196 246 296 354
#     4   9  20  38  60  87 120 160 202 242 296 357
#     4   9  18  32  52  76 108 149 188 233 288 345
#     4  10  21  40  63  88 120 154 195 248 299 353
#     4  12  26  44  66  91 118 152 194 244 301 361
#     4   9  19  35  56  80 111 149 190 238 288 338
#     4  10  20  33  53  81 115 155 197 241 285 337
#
# _framework density 19.753086
#
# number of rings (size 3 to 8) (size 9 to 14) (size 15 to 20)
#    0.000    2.250    0.000    2.250    1.750    4.500 
#    0.000    1.250    0.000    0.000    0.000    0.000 
#    0.000    0.000    0.000    0.000    0.000    0.000 
#
# Total GULP energy -356521.310712 kJ/mol
# GULP energy per Si atom -5570.645480 kJ/mol
# Density = 1.970813 g / cm^3
# Si number density = 19.753086 Si / 1000 Ang^3
#
#
#
# Elastic Constant Matrix: (Units=GPa)
#
#
# Indices 1 2 3 4 5 6 
#
# 1 46.5557 3.1204 18.9945 0.0000 0.0000 0.0000
# 2 3.1204 15.4865 6.0587 0.0000 0.0000 0.0000
# 3 18.9945 6.0587 38.9757 0.0000 0.0000 0.0000
# 4 0.0000 0.0000 0.0000 28.7358 0.0000 0.0000
# 5 0.0000 0.0000 0.0000 0.0000 27.5965 0.0000
# 6 0.0000 0.0000 0.0000 0.0000 0.0000 18.0176
#
#
#
# Elastic Compliance Matrix: (Units=1/GPa)
#
#
# Indices 1 2 3 4 5 6 
#
# 1 0.026812 -0.000309 -0.013019 0.000000 0.000000 0.000000
# 2 -0.000309 0.068757 -0.010538 0.000000 0.000000 0.000000
# 3 -0.013019 -0.010538 0.033640 0.000000 0.000000 0.000000
# 4 0.000000 0.000000 0.000000 0.034800 0.000000 0.000000
# 5 0.000000 0.000000 0.000000 0.000000 0.036236 0.000000
# 6 0.000000 0.000000 0.000000 0.000000 0.000000 0.055501
#
#
# Mechanical properties :
#
#
# Convention : Reuss Voigt Hill
#
# Bulk Modulus (GPa) = 12.27321 17.48501 14.87911
# Shear Modulus (GPa) = 15.12235 19.72627 17.42431
#
# Velocity S-wave (km/s) = 2.76989 3.16356 2.97325
# Velocity P-wave (km/s) = 4.05667 4.71329 4.39725
#
# Compressibility (1/GPa) = 0.08147825
#
# Stress axis : x y z
#
# Youngs Moduli (GPa) = 37.29685 14.54389 29.72687
#
# Poissons Ratio (x) = 0.00450 0.38700
# Poissons Ratio (y) = 0.01153 0.31325
# Poissons Ratio (z) = 0.48555 0.15326
#
# Static dielectric constant tensor:
#      x y z
#    x 1.785160 0.000000 0.000000 
#    y 0.000000 1.685400 0.000000 
#    z 0.000000 0.000000 1.688180 
# 
# From -- ./inp_files/5678.got.cif
#   From: 2010.05.17/outbox.ucp.g08.bks.cvg/sg57_3_cif.got.tgz:5678.got - 2010.06.11 16:39:23.
