data_PCOD9440508
_publ_section_title
;
Structure prediction by ZEFSAII (Michael W. Deem and Ramdas Pophale) SiO2 
 PCOD9440508
Probable space group: P B C M
;
_chemical_formula_sum "Si O2"
_cell_formula_units_Z 64
_cell_length_a 21.000000
_cell_length_b 21.000000
_cell_length_c 9.000000
_cell_angle_alpha 90.000000
_cell_angle_beta 90.000000
_cell_angle_gamma 90.000000
_cell_volume 3969.000000
_symmetry_space_group_name_H-M "P B C M"
_symmetry_group_IT_number 57
_symmetry_cell_setting 'orthorhombic'
loop_
_space_group_symop_operation_xyz
x,y,z
-x,-y,1/2+z
x,1/2-y,-z
-x,1/2+y,1/2-z
-x,-y,-z
x,y,1/2-z
-x,1/2+y,z
x,1/2-y,1/2+z
loop_
_atom_site_type_symbol
_atom_site_label
_atom_site_fract_x
_atom_site_fract_y
_atom_site_fract_z
Si Si1 0.841002 0.348961 0.425806
Si Si2 0.282770 0.850498 0.920582
Si Si3 0.442348 0.539099 0.429123
Si Si4 0.953181 0.947957 0.427944
Si Si5 0.171199 0.001748 0.073944
Si Si6 0.425425 0.813818 0.579165
Si Si7 0.688669 0.481015 0.425752
Si Si8 0.984678 0.185280 0.571780
O O1 0.830169 0.336822 0.250000
O O2 0.783637 0.322008 0.524966
O O3 0.841092 0.425887 0.446508
O O4 0.910427 0.324379 0.469226
O O5 0.276018 0.873968 0.750000
O O6 0.348069 0.811558 0.923169
O O7 0.295387 0.907852 0.034754
O O8 0.500000 0.500000 0.500000
O O9 0.444308 0.538008 0.250000
O O10 0.442742 0.614494 0.475876
O O11 0.376090 0.507827 0.484817
O O12 0.957607 0.953169 0.250000
O O13 0.881874 0.961418 0.482561
O O14 0.977210 0.877896 0.472463
O O15 0.000000 0.000000 0.500000
O O16 0.163710 0.014048 0.250000
O O17 0.244980 0.015607 0.033413
O O18 0.449478 0.750000 0.500000
O O19 0.445885 0.811398 0.750000
O O20 0.678113 0.488648 0.250000
O O21 0.008942 0.250000 0.500000
O O22 0.987150 0.189923 0.750000
#
# Coordination Sequence:
#
# PCOD9440508 Si02
#       8
#     8   8   8   8   8   8   8   8
#     4   9  17  31  46  63  93 127 161 202 244 289
#     4   9  17  28  42  65  94 125 167 206 236 282
#     4  10  20  34  52  77 106 136 172 208 246 298
#     4  11  21  34  52  73  97 125 164 210 255 302
#     4   9  17  31  50  73  99 125 161 207 251 294
#     4   9  19  32  46  67  97 130 168 208 239 283
#     4   9  17  30  48  71 101 132 161 201 249 292
#     4  10  22  37  48  65  94 126 163 207 254 308
#
# _framework density 16.124969
#
# number of rings (size 3 to 8) (size 9 to 14) (size 15 to 20)
#    0.000    2.500    1.250    3.000    0.000    7.500 
#    0.000    2.500    0.000    0.000    0.000    0.875 
#    0.000    6.000    0.000    0.000    0.000    0.000 
#
# Total GULP energy -356482.397473 kJ/mol
# GULP energy per Si atom -5570.037461 kJ/mol
# Density = 1.608827 g / cm^3
# Si number density = 16.124969 Si / 1000 Ang^3
#
#
#
# Elastic Constant Matrix: (Units=GPa)
#
#
# Indices 1 2 3 4 5 6 
#
# 1 101.8826 52.1951 41.3784 0.0000 0.0000 0.0000
# 2 52.1951 88.6395 39.5092 0.0000 0.0000 0.0000
# 3 41.3784 39.5092 39.4328 0.0000 0.0000 0.0000
# 4 0.0000 0.0000 0.0000 19.8551 0.0000 0.0000
# 5 0.0000 0.0000 0.0000 0.0000 29.1964 0.0000
# 6 0.0000 0.0000 0.0000 0.0000 0.0000 8.6714
#
#
#
# Elastic Compliance Matrix: (Units=1/GPa)
#
#
# Indices 1 2 3 4 5 6 
#
# 1 0.017821 -0.003901 -0.014792 0.000000 0.000000 0.000000
# 2 -0.003901 0.021240 -0.017188 0.000000 0.000000 0.000000
# 3 -0.014792 -0.017188 0.058103 0.000000 0.000000 0.000000
# 4 0.000000 0.000000 0.000000 0.050365 0.000000 0.000000
# 5 0.000000 0.000000 0.000000 0.000000 0.034251 0.000000
# 6 0.000000 0.000000 0.000000 0.000000 0.000000 0.115322
#
#
# Mechanical properties :
#
#
# Convention : Reuss Voigt Hill
#
# Bulk Modulus (GPa) = 39.36653 55.12448 47.24550
# Shear Modulus (GPa) = 13.25100 18.00272 15.62686
#
# Velocity S-wave (km/s) = 2.86976 3.34496 3.11643
# Velocity P-wave (km/s) = 5.95375 7.01273 6.50482
#
# Compressibility (1/GPa) = 0.02540229
#
# Stress axis : x y z
#
# Youngs Moduli (GPa) = 56.11275 47.08193 17.21090
#
# Poissons Ratio (x) = 0.18365 0.25459
# Poissons Ratio (y) = 0.21887 0.29582
# Poissons Ratio (z) = 0.83004 0.80923
#
# Static dielectric constant tensor:
#      x y z
#    x 1.563500 0.000000 0.000000 
#    y 0.000000 1.556380 0.000000 
#    z 0.000000 0.000000 1.545710 
# 
# From -- ./inp_files/8735.got.cif
#   From: 2010.05.17/outbox.ucp.g08.bks.cvg/sg57_5_cif.got.tgz:8735.got - 2010.06.11 16:39:23.
