data_PCOD9440183
_publ_section_title
;
Structure prediction by ZEFSAII (Michael W. Deem and Ramdas Pophale) SiO2 
 PCOD9440183
Probable space group: P B C M
;
_chemical_formula_sum "Si O2"
_cell_formula_units_Z 40
_cell_length_a 8.069597
_cell_length_b 9.927276
_cell_length_c 21.343887
_cell_angle_alpha 90.000000
_cell_angle_beta 90.000000
_cell_angle_gamma 90.000000
_cell_volume 1709.839933
_symmetry_space_group_name_H-M "P B C M"
_symmetry_group_IT_number 57
_symmetry_cell_setting 'orthorhombic'
loop_
_space_group_symop_operation_xyz
x,y,z
-x,-y,1/2+z
x,1/2-y,-z
-x,1/2+y,1/2-z
-x,-y,-z
x,y,1/2-z
-x,1/2+y,z
x,1/2-y,1/2+z
loop_
_atom_site_type_symbol
_atom_site_label
_atom_site_fract_x
_atom_site_fract_y
_atom_site_fract_z
Si Si1 0.389753 0.777918 0.177236
Si Si2 0.369978 0.388177 0.503265
Si Si3 0.979461 0.246403 0.677958
Si Si4 0.697076 0.588431 0.140857
Si Si5 0.038244 0.124517 0.954864
O O1 0.430919 0.786395 0.250000
O O2 0.540482 0.690007 0.149674
O O3 0.211039 0.702424 0.171248
O O4 0.358438 0.934954 0.157336
O O5 0.467463 0.250000 0.500000
O O6 0.500000 0.500000 0.500000
O O7 0.271197 0.408265 0.567061
O O8 0.237231 0.381787 0.449023
O O9 0.988564 0.190387 0.750000
O O10 0.134333 0.350749 0.671577
O O11 0.985879 0.147165 0.617107
O O12 0.989830 0.250000 0.000000
O O13 0.000000 0.000000 0.000000
#
# Coordination Sequence:
#
# PCOD9440183 Si02
#       5
#     8   8   8   8   8
#     4  11  26  45  73 110 149 200 252 312 391 460
#     4  11  23  43  68 102 141 185 245 298 370 442
#     4  11  25  46  74 109 150 197 250 315 382 461
#     4  12  24  48  75 109 154 197 254 320 382 463
#     4  11  24  46  70 101 144 190 245 304 374 447
#
# _framework density 23.394005
#
# number of rings (size 3 to 8) (size 9 to 14) (size 15 to 20)
#    0.000    0.800    4.000    4.200    0.000    4.000 
#    0.000    2.000    0.000    0.000    0.000    0.000 
#    0.000    0.000    0.000    0.000    0.000    0.000 
#
# Total GULP energy -222895.175884 kJ/mol
# GULP energy per Si atom -5572.379397 kJ/mol
# Density = 2.334076 g / cm^3
# Si number density = 23.394005 Si / 1000 Ang^3
#
#
#
# Elastic Constant Matrix: (Units=GPa)
#
#
# Indices 1 2 3 4 5 6 
#
# 1 143.7142 70.0542 52.1254 0.0000 0.0000 0.0000
# 2 70.0542 137.6686 23.2593 0.0000 0.0000 0.0000
# 3 52.1254 23.2593 137.9973 0.0000 0.0000 0.0000
# 4 0.0000 0.0000 0.0000 29.9852 0.0000 0.0000
# 5 0.0000 0.0000 0.0000 0.0000 43.9338 0.0000
# 6 0.0000 0.0000 0.0000 0.0000 0.0000 53.7985
#
#
#
# Elastic Compliance Matrix: (Units=1/GPa)
#
#
# Indices 1 2 3 4 5 6 
#
# 1 0.010421 -0.004774 -0.003132 0.000000 0.000000 0.000000
# 2 -0.004774 0.009664 0.000174 0.000000 0.000000 0.000000
# 3 -0.003132 0.000174 0.008400 0.000000 0.000000 0.000000
# 4 0.000000 0.000000 0.000000 0.033350 0.000000 0.000000
# 5 0.000000 0.000000 0.000000 0.000000 0.022761 0.000000
# 6 0.000000 0.000000 0.000000 0.000000 0.000000 0.018588
#
#
# Mechanical properties :
#
#
# Convention : Reuss Voigt Hill
#
# Bulk Modulus (GPa) = 76.79005 78.91754 77.85379
# Shear Modulus (GPa) = 40.65469 43.80626 42.23048
#
# Velocity S-wave (km/s) = 4.17325 4.33198 4.25335
# Velocity P-wave (km/s) = 7.49114 7.66999 7.58109
#
# Compressibility (1/GPa) = 0.01302252
#
# Stress axis : x y z
#
# Youngs Moduli (GPa) = 95.95854 103.48155 119.04663
#
# Poissons Ratio (x) = 0.49400 0.37282
# Poissons Ratio (y) = 0.45809 -0.02076
# Poissons Ratio (z) = 0.30052 -0.01805
#
# Static dielectric constant tensor:
#      x y z
#    x 1.940610 0.000000 0.000000 
#    y 0.000000 2.035790 0.000000 
#    z 0.000000 0.000000 1.847030 
# 
# From -- ./inp_files/28251.got.cif
#   From: 2010.05.17/outbox.cif.g08.bks.cpg/sg57_15_cif.got.tgz:28251.got - 2010.06.03 13:58:18.
