data_PCOD9440802
_publ_section_title
;
Structure prediction by ZEFSAII (Michael W. Deem and Ramdas Pophale) SiO2 
 PCOD9440802
Probable space group: P N N M
;
_chemical_formula_sum "Si O2"
_cell_formula_units_Z 64
_cell_length_a 8.766695
_cell_length_b 22.647403
_cell_length_c 17.822316
_cell_angle_alpha 90.000000
_cell_angle_beta 90.000000
_cell_angle_gamma 90.000000
_cell_volume 3538.493851
_symmetry_space_group_name_H-M "P N N M"
_symmetry_group_IT_number 58
_symmetry_cell_setting 'orthorhombic'
loop_
_space_group_symop_operation_xyz
x,y,z
-x,-y,z
1/2+x,1/2-y,1/2-z
1/2-x,1/2+y,1/2-z
-x,-y,-z
x,y,-z
1/2-x,1/2+y,1/2+z
1/2+x,1/2-y,1/2+z
loop_
_atom_site_type_symbol
_atom_site_label
_atom_site_fract_x
_atom_site_fract_y
_atom_site_fract_z
Si Si1 0.020101 0.118820 0.763053
Si Si2 0.266422 0.954234 0.772897
Si Si3 0.473108 0.866276 0.699822
Si Si4 0.416357 0.893449 0.083811
Si Si5 0.311478 0.086104 0.173081
Si Si6 0.735244 0.325322 0.848525
Si Si7 0.498395 0.757265 0.916731
Si Si8 0.798433 0.223533 0.273763
O O1 0.142934 0.112938 0.829594
O O2 0.124650 0.126143 0.689222
O O3 0.907367 0.063728 0.759410
O O4 0.913513 0.176514 0.764615
O O5 0.368378 0.924800 0.706772
O O6 0.315744 0.921423 0.850304
O O7 0.296710 0.022488 0.787606
O O8 0.582338 0.874627 0.772357
O O9 0.598702 0.853216 0.636024
O O10 0.356229 0.812147 0.707694
O O11 0.588862 0.917003 0.098359
O O12 0.426820 0.822553 0.091148
O O13 0.364552 0.908206 0.000000
O O14 0.636500 0.290840 0.909507
O O15 0.761878 0.275188 0.784290
O O16 0.617810 0.745253 0.849599
O O17 0.568251 0.753991 0.000000
#
# Coordination Sequence:
#
# PCOD9440802 Si02
#       8
#     8   8   8   8   8   8   8   8
#     4   9  18  29  45  70  94 119 154 192 245 294
#     4  10  18  30  47  68  96 123 157 207 248 280
#     4   9  17  27  45  70  90 114 152 191 236 284
#     4  10  20  32  45  62  89 129 172 205 239 287
#     4  10  18  30  47  68  96 123 157 207 248 280
#     4  10  17  29  50  72  97 126 159 199 246 299
#     4  10  20  33  48  71 103 135 165 202 249 297
#     4  10  17  29  50  72  97 126 159 199 246 299
#
# _framework density 18.086790000000001
#
# number of rings (size 3 to 8) (size 9 to 14) (size 15 to 20)
#    0.000    2.250    0.000    7.875    0.000    1.000 
#    0.000    1.250    0.000    6.000    0.000    0.000 
#    0.000  236.000    0.000    0.000    0.000    0.000 
#
# Total GULP energy -356448.888981 kJ/mol
# GULP energy per Si atom -5569.513890 kJ/mol
# Density = 1.804562 g / cm^3
# Si number density = 18.086790 Si / 1000 Ang^3
#
#
#
# Elastic Constant Matrix: (Units=GPa)
#
#
# Indices 1 2 3 4 5 6 
#
# 1 106.0028 23.7297 9.8543 0.0000 0.0000 0.0000
# 2 23.7297 74.6448 24.2403 0.0000 0.0000 0.0000
# 3 9.8543 24.2403 43.2246 0.0000 0.0000 0.0000
# 4 0.0000 0.0000 0.0000 10.8682 0.0000 0.0000
# 5 0.0000 0.0000 0.0000 0.0000 13.5983 0.0000
# 6 0.0000 0.0000 0.0000 0.0000 0.0000 26.6584
#
#
#
# Elastic Compliance Matrix: (Units=1/GPa)
#
#
# Indices 1 2 3 4 5 6 
#
# 1 0.010170 -0.003032 -0.000618 0.000000 0.000000 0.000000
# 2 -0.003032 0.017284 -0.009001 0.000000 0.000000 0.000000
# 3 -0.000618 -0.009001 0.028324 0.000000 0.000000 0.000000
# 4 0.000000 0.000000 0.000000 0.092012 0.000000 0.000000
# 5 0.000000 0.000000 0.000000 0.000000 0.073539 0.000000
# 6 0.000000 0.000000 0.000000 0.000000 0.000000 0.037512
#
#
# Mechanical properties :
#
#
# Convention : Reuss Voigt Hill
#
# Bulk Modulus (GPa) = 32.81475 37.72454 35.26964
# Shear Modulus (GPa) = 16.98939 21.29483 19.14211
#
# Velocity S-wave (km/s) = 3.06817 3.43500 3.25675
# Velocity P-wave (km/s) = 5.54381 6.05270 5.80383
#
# Compressibility (1/GPa) = 0.03047410
#
# Stress axis : x y z
#
# Youngs Moduli (GPa) = 98.32847 57.85723 35.30591
#
# Poissons Ratio (x) = 0.17544 0.02182
# Poissons Ratio (y) = 0.29817 0.31781
# Poissons Ratio (z) = 0.06077 0.52080
#
# Static dielectric constant tensor:
#      x y z
#    x 1.683600 0.000000 0.000000 
#    y 0.000000 1.658070 0.000000 
#    z 0.000000 0.000000 1.625010 
# 
# From -- ./inp_files/29205.got.cif
#   From: 2010.05.17/outbox.cif.g08.bks.cpg/sg58_15_cif.got.tgz:29205.got - 2010.06.03 14:20:14.
