data_PCOD9440088
_publ_section_title
;
Structure prediction by ZEFSAII (Michael W. Deem and Ramdas Pophale) SiO2 
 PCOD9440088
Probable space group: P B C M
;
_chemical_formula_sum "Si O2"
_cell_formula_units_Z 56
_cell_length_a 14.060309
_cell_length_b 10.150622
_cell_length_c 15.725822
_cell_angle_alpha 90.000000
_cell_angle_beta 90.000000
_cell_angle_gamma 90.000000
_cell_volume 2244.403184
_symmetry_space_group_name_H-M "P B C M"
_symmetry_group_IT_number 57
_symmetry_cell_setting 'orthorhombic'
loop_
_space_group_symop_operation_xyz
x,y,z
-x,-y,1/2+z
x,1/2-y,-z
-x,1/2+y,1/2-z
-x,-y,-z
x,y,1/2-z
-x,1/2+y,z
x,1/2-y,1/2+z
loop_
_atom_site_type_symbol
_atom_site_label
_atom_site_fract_x
_atom_site_fract_y
_atom_site_fract_z
Si Si1 0.705353 0.040245 0.343604
Si Si2 0.077774 0.580361 0.397084
Si Si3 0.077774 0.919640 0.102916
Si Si4 0.577707 0.388379 0.000000
Si Si5 0.705353 0.459756 0.343604
Si Si6 0.282330 0.249999 0.598865
Si Si7 0.934889 0.750000 0.353348
O O1 0.676385 0.082864 0.250000
O O2 0.688924 0.883756 0.355025
O O3 0.817569 0.069559 0.355592
O O4 0.645594 0.102585 0.418732
O O5 0.088134 0.579163 0.500000
O O6 0.956073 0.585653 0.376121
O O7 0.057272 0.750000 0.377667
O O8 0.182431 0.930441 0.144408
O O9 0.956073 0.914347 0.123879
O O10 0.526100 0.250000 0.000000
O O11 0.500000 0.500000 0.000000
O O12 0.645594 0.397416 0.081268
O O13 0.676385 0.417137 0.250000
O O14 0.688925 0.616245 0.355025
O O15 0.309552 0.250000 0.500000
O O16 0.167902 0.249999 0.602117
O O17 0.927460 0.750000 0.250000
#
# Coordination Sequence:
#
# PCOD9440088 Si02
#       7
#     8   8   8   8   8   8   8
#     4  12  26  47  78 115 156 203 259 318 387 463
#     4  11  22  38  60  96 147 207 257 304 360 429
#     4  11  22  38  60  96 147 207 257 304 360 429
#     4  12  32  60  89 118 150 191 248 323 404 476
#     4  12  26  47  78 115 156 203 259 318 387 463
#     4  12  22  42  70 109 158 216 266 315 375 450
#     4  12  24  34  56  98 151 211 268 316 366 434
#
# _framework density 24.950952999999998
#
# number of rings (size 3 to 8) (size 9 to 14) (size 15 to 20)
#    0.000    0.286    5.714    3.429    4.000    2.286 
#    0.000    0.000    0.000    0.000    0.000    0.000 
#    0.000    0.000    0.000    0.000    0.000    0.000 
#
# Total GULP energy -313370.392396 kJ/mol
# GULP energy per Si atom -5595.899864 kJ/mol
# Density = 2.489416 g / cm^3
# Si number density = 24.950953 Si / 1000 Ang^3
#
#
#
# Elastic Constant Matrix: (Units=GPa)
#
#
# Indices 1 2 3 4 5 6 
#
# 1 97.2495 54.5831 64.7796 0.0000 0.0000 0.0000
# 2 54.5831 208.1309 39.3876 0.0000 0.0000 0.0000
# 3 64.7796 39.3876 241.2079 0.0000 0.0000 0.0000
# 4 0.0000 0.0000 0.0000 -17.7110 0.0000 0.0000
# 5 0.0000 0.0000 0.0000 0.0000 -3.3194 0.0000
# 6 0.0000 0.0000 0.0000 0.0000 0.0000 32.1851
#
#
#
# Elastic Compliance Matrix: (Units=1/GPa)
#
#
# Indices 1 2 3 4 5 6 
#
# 1 0.014235 -0.003106 -0.003316 0.000000 0.000000 0.000000
# 2 -0.003106 0.005635 -0.000086 0.000000 0.000000 0.000000
# 3 -0.003316 -0.000086 0.005050 0.000000 0.000000 0.000000
# 4 0.000000 0.000000 0.000000 -0.056462 0.000000 0.000000
# 5 0.000000 0.000000 0.000000 0.000000 -0.301255 0.000000
# 6 0.000000 0.000000 0.000000 0.000000 0.000000 0.031070
#
#
# Mechanical properties :
#
#
# Convention : Reuss Voigt Hill
#
# Bulk Modulus (GPa) = 83.99606 96.00986 90.00296
# Shear Modulus (GPa) = -17.55971 28.08678 5.26354
#
# Velocity S-wave (km/s) = -2.65574 3.35876 1.45401
# Velocity P-wave (km/s) = 4.93291 7.32152 6.24252
#
# Compressibility (1/GPa) = 0.01190532
#
# Stress axis : x y z
#
# Youngs Moduli (GPa) = 70.25144 177.44875 198.00540
#
# Poissons Ratio (x) = 0.55108 0.65654
# Poissons Ratio (y) = 0.21817 0.01706
# Poissons Ratio (z) = 0.23294 0.01529
#
# Static dielectric constant tensor:
#      x y z
#    x 1.875800 0.000000 0.000000 
#    y 0.000000 2.286400 0.000000 
#    z 0.000000 0.000000 1.835360 
# 
# From -- ./inp_files/18560.got.cif
#   From: 2010.05.17/outbox.cif.g08.bks.cpg/sg57_10_cif.got.tgz:18560.got - 2010.06.03 13:58:18.
