data_PCOD9440470
_publ_section_title
;
Structure prediction by ZEFSAII (Michael W. Deem and Ramdas Pophale) SiO2 
 PCOD9440470
Probable space group: P B C M
;
_chemical_formula_sum "Si O2"
_cell_formula_units_Z 64
_cell_length_a 21.000000
_cell_length_b 18.000000
_cell_length_c 9.000000
_cell_angle_alpha 90.000000
_cell_angle_beta 90.000000
_cell_angle_gamma 90.000000
_cell_volume 3402.000000
_symmetry_space_group_name_H-M "P B C M"
_symmetry_group_IT_number 57
_symmetry_cell_setting 'orthorhombic'
loop_
_space_group_symop_operation_xyz
x,y,z
-x,-y,1/2+z
x,1/2-y,-z
-x,1/2+y,1/2-z
-x,-y,-z
x,y,1/2-z
-x,1/2+y,z
x,1/2-y,1/2+z
loop_
_atom_site_type_symbol
_atom_site_label
_atom_site_fract_x
_atom_site_fract_y
_atom_site_fract_z
Si Si1 0.778060 0.936847 0.426817
Si Si2 0.582399 0.069459 0.927812
Si Si3 0.938778 0.411793 0.080222
Si Si4 0.270861 0.912769 0.071189
Si Si5 0.544796 0.600335 0.072353
Si Si6 0.923835 0.563207 0.575009
Si Si7 0.323649 0.172213 0.428590
Si Si8 0.833685 0.323553 0.924093
O O1 0.766891 0.940128 0.250000
O O2 0.851260 0.910566 0.448883
O O3 0.726087 0.885976 0.505902
O O4 0.765190 0.017300 0.498019
O O5 0.578914 0.076493 0.750000
O O6 0.654600 0.088204 0.972608
O O7 0.568498 0.983168 0.966119
O O8 0.523624 0.113851 0.998825
O O9 0.918665 0.395852 0.250000
O O10 0.012442 0.386899 0.061705
O O11 0.935650 0.499432 0.046581
O O12 0.888950 0.381257 0.962527
O O13 0.267571 0.917612 0.250000
O O14 0.231292 0.844206 0.008535
O O15 0.537358 0.603467 0.250000
O O16 0.603620 0.652113 0.028630
O O17 0.925781 0.537437 0.750000
O O18 0.306948 0.250000 0.500000
O O19 0.320223 0.172110 0.250000
O O20 0.822839 0.317731 0.750000
O O21 0.858927 0.250000 0.000000
#
# Coordination Sequence:
#
# PCOD9440470 Si02
#       8
#     8   8   8   8   8   8   8   8
#     4  11  21  35  58  88 118 153 194 240 288 344
#     4   9  18  33  55  84 114 142 182 233 283 336
#     4  10  19  34  57  84 115 150 186 234 288 339
#     4  11  21  37  59  87 119 153 192 240 291 343
#     4   9  18  34  54  80 112 146 185 233 283 337
#     4   9  19  34  55  86 118 146 188 237 283 338
#     4  11  23  40  58  82 116 154 196 240 291 352
#     4  12  25  41  59  84 116 154 198 241 293 355
#
# _framework density 18.812463000000001
#
# number of rings (size 3 to 8) (size 9 to 14) (size 15 to 20)
#    0.000    1.750    2.500    2.625    0.000    3.000 
#    0.000    1.250    0.000    1.500    0.000    0.000 
#    0.000    0.000    0.000    0.000    0.000    0.000 
#
# Total GULP energy -356692.235013 kJ/mol
# GULP energy per Si atom -5573.316172 kJ/mol
# Density = 1.876965 g / cm^3
# Si number density = 18.812463 Si / 1000 Ang^3
#
#
#
# Elastic Constant Matrix: (Units=GPa)
#
#
# Indices 1 2 3 4 5 6 
#
# 1 123.1155 -1.1293 36.0804 0.0000 0.0000 0.0000
# 2 -1.1293 22.3546 6.7880 0.0000 0.0000 0.0000
# 3 36.0804 6.7880 64.6249 0.0000 0.0000 0.0000
# 4 0.0000 0.0000 0.0000 21.4106 0.0000 0.0000
# 5 0.0000 0.0000 0.0000 0.0000 10.9007 0.0000
# 6 0.0000 0.0000 0.0000 0.0000 0.0000 3.3377
#
#
#
# Elastic Compliance Matrix: (Units=1/GPa)
#
#
# Indices 1 2 3 4 5 6 
#
# 1 0.009818 0.002232 -0.005716 0.000000 0.000000 0.000000
# 2 0.002232 0.046714 -0.006153 0.000000 0.000000 0.000000
# 3 -0.005716 -0.006153 0.019311 0.000000 0.000000 0.000000
# 4 0.000000 0.000000 0.000000 0.046706 0.000000 0.000000
# 5 0.000000 0.000000 0.000000 0.000000 0.091737 0.000000
# 6 0.000000 0.000000 0.000000 0.000000 0.000000 0.299609
#
#
# Mechanical properties :
#
#
# Convention : Reuss Voigt Hill
#
# Bulk Modulus (GPa) = 17.67720 32.61926 25.14823
# Shear Modulus (GPa) = 9.05755 18.35354 13.70555
#
# Velocity S-wave (km/s) = 2.19661 3.12686 2.70207
# Velocity P-wave (km/s) = 3.98126 5.51481 4.80955
#
# Compressibility (1/GPa) = 0.05657004
#
# Stress axis : x y z
#
# Youngs Moduli (GPa) = 101.85361 21.40663 51.78304
#
# Poissons Ratio (x) = -0.04777 0.29598
# Poissons Ratio (y) = -0.22729 0.31860
# Poissons Ratio (z) = 0.58218 0.13171
#
# Static dielectric constant tensor:
#      x y z
#    x 1.677220 0.000000 0.000000 
#    y 0.000000 1.613190 0.000000 
#    z 0.000000 0.000000 1.620950 
# 
# From -- ./inp_files/8570.got.cif
#   From: 2010.05.17/outbox.ucp.g08.bks.cvg/sg57_5_cif.got.tgz:8570.got - 2010.06.11 16:39:23.
