data_PCOD9440199
_publ_section_title
;
Structure prediction by ZEFSAII (Michael W. Deem and Ramdas Pophale) SiO2 
 PCOD9440199
Probable space group: P B C M
;
_chemical_formula_sum "Si O2"
_cell_formula_units_Z 32
_cell_length_a 6.498595
_cell_length_b 9.404812
_cell_length_c 22.997178
_cell_angle_alpha 90.000000
_cell_angle_beta 90.000000
_cell_angle_gamma 90.000000
_cell_volume 1405.543002
_symmetry_space_group_name_H-M "P B C M"
_symmetry_group_IT_number 57
_symmetry_cell_setting 'orthorhombic'
loop_
_space_group_symop_operation_xyz
x,y,z
-x,-y,1/2+z
x,1/2-y,-z
-x,1/2+y,1/2-z
-x,-y,-z
x,y,1/2-z
-x,1/2+y,z
x,1/2-y,1/2+z
loop_
_atom_site_type_symbol
_atom_site_label
_atom_site_fract_x
_atom_site_fract_y
_atom_site_fract_z
Si Si1 0.567128 0.223627 0.614119
Si Si2 0.802106 0.793322 0.183711
Si Si3 0.661589 0.553766 0.450929
Si Si4 0.954273 0.068088 0.385187
O O1 0.442053 0.225709 0.673846
O O2 0.620688 0.063398 0.599132
O O3 0.408798 0.289417 0.567301
O O4 0.759718 0.327826 0.608500
O O5 0.851434 0.827565 0.250000
O O6 0.907740 0.648201 0.162861
O O7 0.879407 0.917873 0.140278
O O8 0.500000 0.500000 0.500000
O O9 0.910780 0.558713 0.444587
#
# Coordination Sequence:
#
# PCOD9440199 Si02
#       4
#     8   8   8   8
#     4  11  23  45  65 101 139 174 233 291 340 428
#     4  11  24  42  69 101 139 186 228 286 355 416
#     4  11  24  44  71  98 137 182 233 290 358 416
#     4  11  23  45  69 100 142 178 238 294 341 431
#
# _framework density 22.767004
#
# number of rings (size 3 to 8) (size 9 to 14) (size 15 to 20)
#    0.000    1.000    5.000    1.500    0.000    3.000 
#    0.000    2.500    0.000    0.000    0.000    0.000 
#    0.000    0.000    0.000    0.000    0.000    0.000 
#
# Total GULP energy -178443.470589 kJ/mol
# GULP energy per Si atom -5576.358456 kJ/mol
# Density = 2.271519 g / cm^3
# Si number density = 22.767004 Si / 1000 Ang^3
#
#
#
# Elastic Constant Matrix: (Units=GPa)
#
#
# Indices 1 2 3 4 5 6 
#
# 1 142.7614 28.4529 48.3384 0.0000 0.0000 0.0000
# 2 28.4529 109.7630 6.0958 0.0000 0.0000 0.0000
# 3 48.3384 6.0958 64.6343 0.0000 0.0000 0.0000
# 4 0.0000 0.0000 0.0000 19.8425 0.0000 0.0000
# 5 0.0000 0.0000 0.0000 0.0000 31.6406 0.0000
# 6 0.0000 0.0000 0.0000 0.0000 0.0000 47.8886
#
#
#
# Elastic Compliance Matrix: (Units=1/GPa)
#
#
# Indices 1 2 3 4 5 6 
#
# 1 0.009864 -0.002159 -0.007173 0.000000 0.000000 0.000000
# 2 -0.002159 0.009631 0.000706 0.000000 0.000000 0.000000
# 3 -0.007173 0.000706 0.020770 0.000000 0.000000 0.000000
# 4 0.000000 0.000000 0.000000 0.050397 0.000000 0.000000
# 5 0.000000 0.000000 0.000000 0.000000 0.031605 0.000000
# 6 0.000000 0.000000 0.000000 0.000000 0.000000 0.020882
#
#
# Mechanical properties :
#
#
# Convention : Reuss Voigt Hill
#
# Bulk Modulus (GPa) = 43.45410 53.65922 48.55666
# Shear Modulus (GPa) = 29.74942 35.49244 32.62093
#
# Velocity S-wave (km/s) = 3.61874 3.95263 3.78936
# Velocity P-wave (km/s) = 6.04882 6.66716 6.36550
#
# Compressibility (1/GPa) = 0.02301279
#
# Stress axis : x y z
#
# Youngs Moduli (GPa) = 101.38152 103.83281 48.14690
#
# Poissons Ratio (x) = 0.22412 0.34537
# Poissons Ratio (y) = 0.21883 -0.03399
# Poissons Ratio (z) = 0.72724 -0.07330
#
# Static dielectric constant tensor:
#      x y z
#    x 1.992360 0.000000 0.000000 
#    y 0.000000 1.775510 0.000000 
#    z 0.000000 0.000000 1.866190 
# 
# From -- ./inp_files/23353.got.cif
#   From: 2010.05.17/outbox.cif.g08.bks.cpg/sg57_12_cif.got.tgz:23353.got - 2010.06.03 13:58:18.
