data_PCOD9440938
_publ_section_title
;
Structure prediction by ZEFSAII (Michael W. Deem and Ramdas Pophale) SiO2 
 PCOD9440938
Probable space group: P N N M
;
_chemical_formula_sum "Si O2"
_cell_formula_units_Z 56
_cell_length_a 9.608770
_cell_length_b 29.451608
_cell_length_c 13.377650
_cell_angle_alpha 90.000000
_cell_angle_beta 90.000000
_cell_angle_gamma 90.000000
_cell_volume 3785.791037
_symmetry_space_group_name_H-M "P N N M"
_symmetry_group_IT_number 58
_symmetry_cell_setting 'orthorhombic'
loop_
_space_group_symop_operation_xyz
x,y,z
-x,-y,z
1/2+x,1/2-y,1/2-z
1/2-x,1/2+y,1/2-z
-x,-y,-z
x,y,-z
1/2-x,1/2+y,1/2+z
1/2+x,1/2-y,1/2+z
loop_
_atom_site_type_symbol
_atom_site_label
_atom_site_fract_x
_atom_site_fract_y
_atom_site_fract_z
Si Si1 0.029649 0.301245 0.686948
Si Si2 0.744277 0.122040 0.119540
Si Si3 0.517925 0.340473 0.305454
Si Si4 0.008132 0.448629 0.620994
Si Si5 0.807293 0.369240 0.381999
Si Si6 0.951271 0.260405 0.115705
Si Si7 0.629543 0.291690 0.113584
O O1 0.147005 0.334914 0.645841
O O2 0.039470 0.253995 0.628635
O O3 0.885870 0.327213 0.668884
O O4 0.040575 0.288640 0.803826
O O5 0.651089 0.077954 0.143857
O O6 0.883400 0.128014 0.183150
O O7 0.773577 0.122469 0.000000
O O8 0.645708 0.364536 0.360661
O O9 0.475742 0.292536 0.357882
O O10 0.573553 0.326886 0.195646
O O11 0.001068 0.450731 0.500000
O O12 0.000000 0.500000 0.659159
O O13 0.881795 0.415631 0.653229
O O14 0.834349 0.365591 0.500000
O O15 0.789612 0.275176 0.130317
O O16 0.986918 0.268139 0.000000
O O17 0.619302 0.308264 0.000000
#
# Coordination Sequence:
#
# PCOD9440938 Si02
#       7
#     8   8   8   8   8   8   8
#     4  10  18  30  44  63  84 126 164 189 216 267
#     4  10  18  30  49  66  93 125 150 184 231 275
#     4  11  20  30  44  68  92 122 159 195 224 265
#     4   8  16  31  49  68  91 121 149 178 226 285
#     4  10  18  28  45  68  92 117 155 192 220 268
#     4  10  19  30  44  62  92 126 159 197 230 256
#     4  10  19  31  45  61  91 128 160 194 229 261
#
# _framework density 14.792153000000001
#
# number of rings (size 3 to 8) (size 9 to 14) (size 15 to 20)
#    0.000    2.143    2.857    3.429    0.000    0.000 
#    0.000    2.857    0.000    3.429    0.000    0.000 
#    0.000   21.714    0.000    0.000    0.000    0.000 
#
# Total GULP energy -311962.462036 kJ/mol
# GULP energy per Si atom -5570.758251 kJ/mol
# Density = 1.475849 g / cm^3
# Si number density = 14.792153 Si / 1000 Ang^3
#
#
#
# Elastic Constant Matrix: (Units=GPa)
#
#
# Indices 1 2 3 4 5 6 
#
# 1 68.8528 19.4526 15.9253 0.0000 0.0000 0.0000
# 2 19.4526 64.6307 24.3044 0.0000 0.0000 0.0000
# 3 15.9253 24.3044 77.4927 0.0000 0.0000 0.0000
# 4 0.0000 0.0000 0.0000 12.5326 0.0000 0.0000
# 5 0.0000 0.0000 0.0000 0.0000 20.1015 0.0000
# 6 0.0000 0.0000 0.0000 0.0000 0.0000 11.6925
#
#
#
# Elastic Compliance Matrix: (Units=1/GPa)
#
#
# Indices 1 2 3 4 5 6 
#
# 1 0.016152 -0.004096 -0.002035 0.000000 0.000000 0.000000
# 2 -0.004096 0.018580 -0.004986 0.000000 0.000000 0.000000
# 3 -0.002035 -0.004986 0.014886 0.000000 0.000000 0.000000
# 4 0.000000 0.000000 0.000000 0.079792 0.000000 0.000000
# 5 0.000000 0.000000 0.000000 0.000000 0.049748 0.000000
# 6 0.000000 0.000000 0.000000 0.000000 0.000000 0.085525
#
#
# Mechanical properties :
#
#
# Convention : Reuss Voigt Hill
#
# Bulk Modulus (GPa) = 36.51595 36.70453 36.61024
# Shear Modulus (GPa) = 16.88941 18.95158 17.92050
#
# Velocity S-wave (km/s) = 3.38269 3.58326 3.48442
# Velocity P-wave (km/s) = 6.32427 6.47974 6.40248
#
# Compressibility (1/GPa) = 0.02738530
#
# Stress axis : x y z
#
# Youngs Moduli (GPa) = 61.91336 53.82059 67.17627
#
# Poissons Ratio (x) = 0.22046 0.13667
# Poissons Ratio (y) = 0.25361 0.33491
# Poissons Ratio (z) = 0.12597 0.26833
#
# Static dielectric constant tensor:
#      x y z
#    x 1.517050 0.000000 0.000000 
#    y 0.000000 1.478450 0.000000 
#    z 0.000000 0.000000 1.491660 
# 
# From -- ./inp_files/20371.got.cif
#   From: 2010.05.17/outbox.cif.g08.bks.cpg/sg58_11_cif.got.tgz:20371.got - 2010.06.03 14:20:14.
