data_PCOD9440651
_publ_section_title
;
Structure prediction by ZEFSAII (Michael W. Deem and Ramdas Pophale) SiO2 
 PCOD9440651
Probable space group: P B C M
;
_chemical_formula_sum "Si O2"
_cell_formula_units_Z 48
_cell_length_a 9.000000
_cell_length_b 9.000000
_cell_length_c 30.000000
_cell_angle_alpha 90.000000
_cell_angle_beta 90.000000
_cell_angle_gamma 90.000000
_cell_volume 2430.000000
_symmetry_space_group_name_H-M "P B C M"
_symmetry_group_IT_number 57
_symmetry_cell_setting 'orthorhombic'
loop_
_space_group_symop_operation_xyz
x,y,z
-x,-y,1/2+z
x,1/2-y,-z
-x,1/2+y,1/2-z
-x,-y,-z
x,y,1/2-z
-x,1/2+y,z
x,1/2-y,1/2+z
loop_
_atom_site_type_symbol
_atom_site_label
_atom_site_fract_x
_atom_site_fract_y
_atom_site_fract_z
Si Si1 0.594673 0.320287 0.618825
Si Si2 0.193786 0.737536 0.198865
Si Si3 0.983249 0.981555 0.158102
Si Si4 0.206257 0.814781 0.043583
Si Si5 0.703978 0.650741 0.891968
Si Si6 0.910656 0.868927 0.934609
O O1 0.668595 0.302699 0.667227
O O2 0.688165 0.213376 0.585780
O O3 0.425532 0.265687 0.621266
O O4 0.626357 0.489172 0.601926
O O5 0.234279 0.757846 0.250000
O O6 0.078445 0.602273 0.192322
O O7 0.109362 0.879797 0.178996
O O8 0.046322 0.065290 0.114309
O O9 0.840229 0.885211 0.141887
O O10 0.061442 0.708662 0.048895
O O11 0.152505 0.985486 0.040549
O O12 0.285729 0.750000 0.000000
O O13 0.790261 0.736534 0.931499
#
# Coordination Sequence:
#
# PCOD9440651 Si02
#       6
#     8   8   8   8   8   8
#     4  11  23  42  60  91 130 164 208 252 317 381
#     4  11  22  38  63  92 125 163 208 258 309 369
#     4  11  19  39  66  89 123 160 213 257 308 360
#     4  12  23  39  64  94 128 166 210 260 314 372
#     4  11  22  39  70  88 124 174 202 257 319 366
#     4  12  19  41  65  93 121 165 215 261 308 365
#
# _framework density 19.753086
#
# number of rings (size 3 to 8) (size 9 to 14) (size 15 to 20)
#    0.000    0.667    8.333    2.000    0.000    0.000 
#    0.000    8.333    0.000    0.000    0.000    0.000 
#    0.000    0.000    0.000    0.000    0.000    0.000 
#
# Total GULP energy -268045.351560 kJ/mol
# GULP energy per Si atom -5584.278158 kJ/mol
# Density = 1.970813 g / cm^3
# Si number density = 19.753086 Si / 1000 Ang^3
#
#
#
# Elastic Constant Matrix: (Units=GPa)
#
#
# Indices 1 2 3 4 5 6 
#
# 1 52.3701 12.1051 -1.3181 0.0000 0.0000 0.0000
# 2 12.1051 85.5247 13.3515 0.0000 0.0000 0.0000
# 3 -1.3181 13.3515 46.4213 0.0000 0.0000 0.0000
# 4 0.0000 0.0000 0.0000 25.1824 0.0000 0.0000
# 5 0.0000 0.0000 0.0000 0.0000 4.2238 0.0000
# 6 0.0000 0.0000 0.0000 0.0000 0.0000 44.6879
#
#
#
# Elastic Compliance Matrix: (Units=1/GPa)
#
#
# Indices 1 2 3 4 5 6 
#
# 1 0.019832 -0.003031 0.001435 0.000000 0.000000 0.000000
# 2 -0.003031 0.012705 -0.003740 0.000000 0.000000 0.000000
# 3 0.001435 -0.003740 0.022658 0.000000 0.000000 0.000000
# 4 0.000000 0.000000 0.000000 0.039710 0.000000 0.000000
# 5 0.000000 0.000000 0.000000 0.000000 0.236756 0.000000
# 6 0.000000 0.000000 0.000000 0.000000 0.000000 0.022377
#
#
# Mechanical properties :
#
#
# Convention : Reuss Voigt Hill
#
# Bulk Modulus (GPa) = 22.46055 25.84366 24.15211
# Shear Modulus (GPa) = 13.17339 25.49732 19.33536
#
# Velocity S-wave (km/s) = 2.58525 3.59667 3.13206
# Velocity P-wave (km/s) = 4.50629 5.50997 5.03321
#
# Compressibility (1/GPa) = 0.04452251
#
# Stress axis : x y z
#
# Youngs Moduli (GPa) = 50.42467 78.70648 44.13378
#
# Poissons Ratio (x) = 0.23855 -0.06332
# Poissons Ratio (y) = 0.15283 0.16508
# Poissons Ratio (z) = -0.07235 0.29439
#
# Static dielectric constant tensor:
#      x y z
#    x 1.676700 0.000000 0.000000 
#    y 0.000000 1.718080 0.000000 
#    z 0.000000 0.000000 1.706690 
# 
# From -- ./inp_files/29467.got.cif
#   From: 2010.05.17/outbox.ucp.g08.bks.cvg/sg57_15_cif.got.tgz:29467.got - 2010.06.11 16:39:23.
