data_PCOD9440661
_publ_section_title
;
Structure prediction by ZEFSAII (Michael W. Deem and Ramdas Pophale) SiO2 
 PCOD9440661
Probable space group: P B C M
;
_chemical_formula_sum "Si O2"
_cell_formula_units_Z 40
_cell_length_a 24.000000
_cell_length_b 9.000000
_cell_length_c 9.000000
_cell_angle_alpha 90.000000
_cell_angle_beta 90.000000
_cell_angle_gamma 90.000000
_cell_volume 1944.000000
_symmetry_space_group_name_H-M "P B C M"
_symmetry_group_IT_number 57
_symmetry_cell_setting 'orthorhombic'
loop_
_space_group_symop_operation_xyz
x,y,z
-x,-y,1/2+z
x,1/2-y,-z
-x,1/2+y,1/2-z
-x,-y,-z
x,y,1/2-z
-x,1/2+y,z
x,1/2-y,1/2+z
loop_
_atom_site_type_symbol
_atom_site_label
_atom_site_fract_x
_atom_site_fract_y
_atom_site_fract_z
Si Si1 0.347015 0.250000 0.000000
Si Si2 0.541077 0.146880 0.250000
Si Si3 0.373461 0.750000 0.500000
Si Si4 0.946543 0.915813 0.568376
Si Si5 0.276722 0.979021 0.086472
Si Si6 0.829530 0.915552 0.071032
Si Si7 0.569256 0.670597 0.750000
O O1 0.388965 0.328018 0.112545
O O2 0.306488 0.138194 0.083017
O O3 0.582441 0.188976 0.117411
O O4 0.478283 0.206149 0.250000
O O5 0.532428 0.973504 0.250000
O O6 0.329101 0.872558 0.445565
O O7 0.949592 0.750000 0.500000
O O8 0.946905 0.915850 0.750000
O O9 0.886908 0.974080 0.504537
O O10 0.000000 0.000000 0.500000
O O11 0.254015 0.945531 0.250000
O O12 0.224987 0.987982 0.972993
O O13 0.835130 0.904881 0.250000
O O14 0.821340 0.750000 0.000000
#
# Coordination Sequence:
#
# PCOD9440661 Si02
#       7
#     4   4   4   8   8   8   4
#     4  12  25  42  68  96 125 168 210 268 324 404
#     4  12  28  46  68  96 128 170 211 274 325 407
#     4  12  27  46  68  92 133 168 214 272 340 398
#     4  11  22  42  69 101 143 187 235 285 339 397
#     4  12  25  43  68  96 129 172 218 272 337 398
#     4  11  23  39  67 102 137 177 228 279 332 397
#     4  12  28  44  68  96 130 162 221 262 333 397
#
# _framework density 20.576132000000001
#
# number of rings (size 3 to 8) (size 9 to 14) (size 15 to 20)
#    0.000    0.400    5.000    5.400    5.600    1.600 
#    1.800    0.000    0.000    0.000    0.000    0.000 
#    0.000    0.000    0.000    0.000    0.000    0.000 
#
# Total GULP energy -223139.036501 kJ/mol
# GULP energy per Si atom -5578.475913 kJ/mol
# Density = 2.052930 g / cm^3
# Si number density = 20.576132 Si / 1000 Ang^3
#
#
#
# Elastic Constant Matrix: (Units=GPa)
#
#
# Indices 1 2 3 4 5 6 
#
# 1 108.6845 -20.8066 13.9313 0.0000 0.0000 0.0000
# 2 -20.8066 5.1596 -8.3543 0.0000 0.0000 0.0000
# 3 13.9313 -8.3543 153.0188 0.0000 0.0000 0.0000
# 4 0.0000 0.0000 0.0000 14.7520 0.0000 0.0000
# 5 0.0000 0.0000 0.0000 0.0000 123.4085 0.0000
# 6 0.0000 0.0000 0.0000 0.0000 0.0000 35.0523
#
#
#
# Elastic Compliance Matrix: (Units=1/GPa)
#
#
# Indices 1 2 3 4 5 6 
#
# 1 0.045494 0.193894 0.006444 0.000000 0.000000 0.000000
# 2 0.193894 1.038979 0.039072 0.000000 0.000000 0.000000
# 3 0.006444 0.039072 0.008082 0.000000 0.000000 0.000000
# 4 0.000000 0.000000 0.000000 0.067787 0.000000 0.000000
# 5 0.000000 0.000000 0.000000 0.000000 0.008103 0.000000
# 6 0.000000 0.000000 0.000000 0.000000 0.000000 0.028529
#
#
# Mechanical properties :
#
#
# Convention : Reuss Voigt Hill
#
# Bulk Modulus (GPa) = 0.63639 26.26709 13.45174
# Shear Modulus (GPa) = 4.02594 53.44875 28.73735
#
# Velocity S-wave (km/s) = 1.40031 5.10220 3.74121
# Velocity P-wave (km/s) = 1.71010 6.89228 5.02135
#
# Compressibility (1/GPa) = 1.57137449
#
# Stress axis : x y z
#
# Youngs Moduli (GPa) = 21.98086 0.96248 123.73730
#
# Poissons Ratio (x) = -0.18662 -0.79736
# Poissons Ratio (y) = -4.26196 -4.83463
# Poissons Ratio (z) = -0.14164 -0.03761
#
# Static dielectric constant tensor:
#      x y z
#    x 1.662640 0.000000 0.000000 
#    y 0.000000 1.807400 0.000000 
#    z 0.000000 0.000000 1.723510 
# 
# From -- ./inp_files/9040.got.cif
#   From: 2010.05.17/outbox.ucp.g08.bks.cvg/sg57_5_cif.got.tgz:9040.got - 2010.06.11 16:39:23.
