data_PCOD9440649
_publ_section_title
;
Structure prediction by ZEFSAII (Michael W. Deem and Ramdas Pophale) SiO2 
 PCOD9440649
Probable space group: P B C M
;
_chemical_formula_sum "Si O2"
_cell_formula_units_Z 48
_cell_length_a 6.000000
_cell_length_b 15.000000
_cell_length_c 27.000000
_cell_angle_alpha 90.000000
_cell_angle_beta 90.000000
_cell_angle_gamma 90.000000
_cell_volume 2430.000000
_symmetry_space_group_name_H-M "P B C M"
_symmetry_group_IT_number 57
_symmetry_cell_setting 'orthorhombic'
loop_
_space_group_symop_operation_xyz
x,y,z
-x,-y,1/2+z
x,1/2-y,-z
-x,1/2+y,1/2-z
-x,-y,-z
x,y,1/2-z
-x,1/2+y,z
x,1/2-y,1/2+z
loop_
_atom_site_type_symbol
_atom_site_label
_atom_site_fract_x
_atom_site_fract_y
_atom_site_fract_z
Si Si1 0.000855 0.553032 0.750000
Si Si2 0.465830 0.815670 0.412576
Si Si3 0.657587 0.156163 0.337928
Si Si4 0.777020 0.750000 0.500000
Si Si5 0.927670 0.255108 0.750000
Si Si6 0.946696 0.416060 0.463052
Si Si7 0.213779 0.458268 0.361747
Si Si8 0.686422 0.875209 0.750000
O O1 0.869837 0.553091 0.803846
O O2 0.120483 0.649955 0.750000
O O3 0.156412 0.463896 0.750000
O O4 0.375292 0.736611 0.376999
O O5 0.624547 0.762246 0.451156
O O6 0.591990 0.887415 0.376684
O O7 0.294488 0.874032 0.446832
O O8 0.833642 0.195604 0.298486
O O9 0.455982 0.128061 0.300688
O O10 0.724085 0.063202 0.363874
O O11 0.932120 0.663682 0.506935
O O12 0.185733 0.280630 0.750000
O O13 0.045870 0.438900 0.407996
O O14 0.000000 0.500000 0.500000
#
# Coordination Sequence:
#
# PCOD9440649 Si02
#       8
#     4   8   8   4   4   8   8   4
#     4  12  23  46  71 101 151 185 244 290 358 427
#     4  11  26  45  71 101 140 187 232 305 360 430
#     4  11  25  42  68 100 136 183 233 279 363 418
#     4  10  26  46  70 104 134 182 236 288 362 438
#     4  11  23  43  65  95 139 183 231 289 338 429
#     4  11  27  47  75 107 141 190 239 303 369 426
#     4  11  26  44  68 109 139 186 243 291 358 437
#     4  11  24  43  64 100 138 190 225 293 346 416
#
# _framework density 19.753086
#
# number of rings (size 3 to 8) (size 9 to 14) (size 15 to 20)
#    0.000    1.000    1.667    3.000   11.667    3.333 
#    0.000    0.000    0.000    0.000    0.000    0.000 
#    0.000    0.000    0.000    0.000    0.000    0.000 
#
# Total GULP energy -267415.724524 kJ/mol
# GULP energy per Si atom -5571.160928 kJ/mol
# Density = 1.970813 g / cm^3
# Si number density = 19.753086 Si / 1000 Ang^3
#
#
#
# Elastic Constant Matrix: (Units=GPa)
#
#
# Indices 1 2 3 4 5 6 
#
# 1 63.0887 35.1957 37.7703 0.0000 0.0000 0.0000
# 2 35.1957 156.6420 50.2857 0.0000 0.0000 0.0000
# 3 37.7703 50.2857 124.9677 0.0000 0.0000 0.0000
# 4 0.0000 0.0000 0.0000 56.5616 0.0000 0.0000
# 5 0.0000 0.0000 0.0000 0.0000 22.8489 0.0000
# 6 0.0000 0.0000 0.0000 0.0000 0.0000 32.2180
#
#
#
# Elastic Compliance Matrix: (Units=1/GPa)
#
#
# Indices 1 2 3 4 5 6 
#
# 1 0.020516 -0.003008 -0.004991 0.000000 0.000000 0.000000
# 2 -0.003008 0.007772 -0.002218 0.000000 0.000000 0.000000
# 3 -0.004991 -0.002218 0.010403 0.000000 0.000000 0.000000
# 4 0.000000 0.000000 0.000000 0.017680 0.000000 0.000000
# 5 0.000000 0.000000 0.000000 0.000000 0.043766 0.000000
# 6 0.000000 0.000000 0.000000 0.000000 0.000000 0.031039
#
#
# Mechanical properties :
#
#
# Convention : Reuss Voigt Hill
#
# Bulk Modulus (GPa) = 54.77001 65.68909 60.22955
# Shear Modulus (GPa) = 31.70681 37.08882 34.39782
#
# Velocity S-wave (km/s) = 4.01079 4.33785 4.17752
# Velocity P-wave (km/s) = 7.01684 7.64307 7.33664
#
# Compressibility (1/GPa) = 0.01825817
#
# Stress axis : x y z
#
# Youngs Moduli (GPa) = 48.74137 128.66863 96.12570
#
# Poissons Ratio (x) = 0.38700 0.47973
# Poissons Ratio (y) = 0.14660 0.21323
# Poissons Ratio (z) = 0.24325 0.28542
#
# Static dielectric constant tensor:
#      x y z
#    x 1.795810 0.000000 0.000000 
#    y 0.000000 1.671390 0.000000 
#    z 0.000000 0.000000 1.672820 
# 
# From -- ./inp_files/28004.got.cif
#   From: 2010.05.17/outbox.ucp.g08.bks.cvg/sg57_15_cif.got.tgz:28004.got - 2010.06.11 16:39:23.
