data_PCOD9440665
_publ_section_title
;
Structure prediction by ZEFSAII (Michael W. Deem and Ramdas Pophale) SiO2 
 PCOD9440665
Probable space group: P N N M
;
_chemical_formula_sum "Si O2"
_cell_formula_units_Z 48
_cell_length_a 6.898319
_cell_length_b 17.543986
_cell_length_c 14.610968
_cell_angle_alpha 90.000000
_cell_angle_beta 90.000000
_cell_angle_gamma 90.000000
_cell_volume 1768.277966
_symmetry_space_group_name_H-M "P N N M"
_symmetry_group_IT_number 58
_symmetry_cell_setting 'orthorhombic'
loop_
_space_group_symop_operation_xyz
x,y,z
-x,-y,z
1/2+x,1/2-y,1/2-z
1/2-x,1/2+y,1/2-z
-x,-y,-z
x,y,-z
1/2-x,1/2+y,1/2+z
1/2+x,1/2-y,1/2+z
loop_
_atom_site_type_symbol
_atom_site_label
_atom_site_fract_x
_atom_site_fract_y
_atom_site_fract_z
Si Si1 0.412310 0.788302 0.399539
Si Si2 0.228014 0.472804 0.395129
Si Si3 0.807764 0.922975 0.253276
Si Si4 0.288654 0.962702 0.596574
Si Si5 0.581552 0.167886 0.792324
Si Si6 0.379834 0.694509 0.101607
O O1 0.362323 0.752252 0.500000
O O2 0.325241 0.873415 0.403385
O O3 0.359644 0.774767 0.291775
O O4 0.647444 0.790275 0.399351
O O5 0.282369 0.459282 0.500000
O O6 0.339657 0.544130 0.347918
O O7 0.228691 0.393910 0.336279
O O8 0.000000 0.500000 0.394491
O O9 0.598444 0.881834 0.243146
O O10 0.924039 0.866176 0.319187
O O11 0.796054 0.999170 0.314118
O O12 0.197787 0.985449 0.500000
O O13 0.500000 0.000000 0.594749
O O14 0.524760 0.225178 0.873629
O O15 0.430437 0.667983 0.000000
#
# Coordination Sequence:
#
# PCOD9440665 Si02
#       6
#     8   8   8   8   8   8
#     4   9  17  28  45  68  94 119 147 187 230 269
#     4   9  16  26  42  63  89 120 148 180 227 277
#     4  10  17  29  44  67  95 119 151 187 228 270
#     4  10  13  21  44  69  88 107 136 183 233 268
#     4  10  17  27  42  66  96 123 145 181 230 280
#     4  10  19  28  42  67  96 123 152 186 229 279
#
# _framework density 27.145053999999998
#
# number of rings (size 3 to 8) (size 9 to 14) (size 15 to 20)
#    0.000    2.333    5.000    1.500    0.000    0.667 
#    0.000    0.833    0.000    2.000    0.000    4.667 
#    0.000   17.333    0.000    0.000    0.000    0.000 
#
# Total GULP energy -267946.805787 kJ/mol
# GULP energy per Si atom -5582.225121 kJ/mol
# Density = 2.708327 g / cm^3
# Si number density = 27.145054 Si / 1000 Ang^3
#
#
#
# Elastic Constant Matrix: (Units=GPa)
#
#
# Indices 1 2 3 4 5 6 
#
# 1 106.4627 -0.6741 13.7077 0.0000 0.0000 0.0000
# 2 -0.6741 80.5221 58.7853 0.0000 0.0000 0.0000
# 3 13.7077 58.7853 220.7656 0.0000 0.0000 0.0000
# 4 0.0000 0.0000 0.0000 38.7176 0.0000 0.0000
# 5 0.0000 0.0000 0.0000 0.0000 43.9287 0.0000
# 6 0.0000 0.0000 0.0000 0.0000 0.0000 14.9380
#
#
#
# Elastic Compliance Matrix: (Units=1/GPa)
#
#
# Indices 1 2 3 4 5 6 
#
# 1 0.009495 0.000633 -0.000758 0.000000 0.000000 0.000000
# 2 0.000633 0.015458 -0.004155 0.000000 0.000000 0.000000
# 3 -0.000758 -0.004155 0.005683 0.000000 0.000000 0.000000
# 4 0.000000 0.000000 0.000000 0.025828 0.000000 0.000000
# 5 0.000000 0.000000 0.000000 0.000000 0.022764 0.000000
# 6 0.000000 0.000000 0.000000 0.000000 0.000000 0.066943
#
#
# Mechanical properties :
#
#
# Convention : Reuss Voigt Hill
#
# Bulk Modulus (GPa) = 45.30091 61.26535 53.28313
# Shear Modulus (GPa) = 30.84691 41.91229 36.37960
#
# Velocity S-wave (km/s) = 3.37467 3.93365 3.66484
# Velocity P-wave (km/s) = 5.64882 6.57648 6.13023
#
# Compressibility (1/GPa) = 0.02207461
#
# Stress axis : x y z
#
# Youngs Moduli (GPa) = 105.32331 64.69175 175.95525
#
# Poissons Ratio (x) = -0.04094 0.13339
# Poissons Ratio (y) = -0.06666 0.73117
# Poissons Ratio (z) = 0.07984 0.26882
#
# Static dielectric constant tensor:
#      x y z
#    x 2.215660 0.000000 0.000000 
#    y 0.000000 2.055530 0.000000 
#    z 0.000000 0.000000 2.187920 
# 
# From -- ./inp_files/21333.got.cif
#   From: 2010.05.17/outbox.cif.g08.bks.cpg/sg58_11_cif.got.tgz:21333.got - 2010.06.03 14:20:14.
