data_PCOD9440540
_publ_section_title
;
Structure prediction by ZEFSAII (Michael W. Deem and Ramdas Pophale) SiO2 
 PCOD9440540
Probable space group: P B C M
;
_chemical_formula_sum "Si O2"
_cell_formula_units_Z 48
_cell_length_a 30.000000
_cell_length_b 9.000000
_cell_length_c 9.000000
_cell_angle_alpha 90.000000
_cell_angle_beta 90.000000
_cell_angle_gamma 90.000000
_cell_volume 2430.000000
_symmetry_space_group_name_H-M "P B C M"
_symmetry_group_IT_number 57
_symmetry_cell_setting 'orthorhombic'
loop_
_space_group_symop_operation_xyz
x,y,z
-x,-y,1/2+z
x,1/2-y,-z
-x,1/2+y,1/2-z
-x,-y,-z
x,y,1/2-z
-x,1/2+y,z
x,1/2-y,1/2+z
loop_
_atom_site_type_symbol
_atom_site_label
_atom_site_fract_x
_atom_site_fract_y
_atom_site_fract_z
Si Si1 0.708405 0.396560 0.571874
Si Si2 0.611187 0.400287 0.428830
Si Si3 0.778511 0.904506 0.928117
Si Si4 0.864850 0.408381 0.425822
Si Si5 0.539307 0.907132 0.428141
Si Si6 0.960288 0.087795 0.572422
O O1 0.730731 0.250000 0.500000
O O2 0.703974 0.384102 0.750000
O O3 0.661222 0.406316 0.489179
O O4 0.736551 0.534619 0.518047
O O5 0.591145 0.250000 0.500000
O O6 0.608930 0.398653 0.250000
O O7 0.585067 0.532173 0.505083
O O8 0.770759 0.900944 0.750000
O O9 0.820642 0.005804 0.962626
O O10 0.789814 0.750000 0.000000
O O11 0.863486 0.250000 0.500000
O O12 0.865391 0.386581 0.250000
O O13 0.912030 0.483312 0.463711
O O14 0.532661 0.750000 0.500000
O O15 0.538595 0.909483 0.250000
O O16 0.500000 0.000000 0.500000
O O17 0.959876 0.250000 0.500000
O O18 0.965382 0.097165 0.750000
O O19 0.000000 0.000000 0.500000
#
# Coordination Sequence:
#
# PCOD9440540 Si02
#       6
#     8   8   8   8   8   8
#     4  11  22  39  62  89 118 154 194 237 285 343
#     4  11  22  40  64  92 122 157 197 242 290 344
#     4  11  23  39  57  83 115 150 189 236 287 340
#     4   9  20  37  58  81 109 144 188 232 280 338
#     4  12  25  43  64  91 123 160 201 246 295 348
#     4  10  20  36  56  82 112 147 186 231 281 337
#
# _framework density 19.753086
#
# number of rings (size 3 to 8) (size 9 to 14) (size 15 to 20)
#    0.000    1.333    0.000    7.500    0.000    4.667 
#    0.000    5.000    0.000    0.000    0.000    0.000 
#    0.000    0.000    0.000    0.000    0.000    0.000 
#
# Total GULP energy -267705.640014 kJ/mol
# GULP energy per Si atom -5577.200834 kJ/mol
# Density = 1.970813 g / cm^3
# Si number density = 19.753086 Si / 1000 Ang^3
#
#
#
# Elastic Constant Matrix: (Units=GPa)
#
#
# Indices 1 2 3 4 5 6 
#
# 1 82.8201 54.1828 57.9173 0.0000 0.0000 0.0000
# 2 54.1828 82.9006 44.1961 0.0000 0.0000 0.0000
# 3 57.9173 44.1961 143.1493 0.0000 0.0000 0.0000
# 4 0.0000 0.0000 0.0000 30.3333 0.0000 0.0000
# 5 0.0000 0.0000 0.0000 0.0000 127.7949 0.0000
# 6 0.0000 0.0000 0.0000 0.0000 0.0000 33.9460
#
#
#
# Elastic Compliance Matrix: (Units=1/GPa)
#
#
# Indices 1 2 3 4 5 6 
#
# 1 0.024777 -0.012988 -0.006015 0.000000 0.000000 0.000000
# 2 -0.012988 0.021247 -0.001305 0.000000 0.000000 0.000000
# 3 -0.006015 -0.001305 0.009822 0.000000 0.000000 0.000000
# 4 0.000000 0.000000 0.000000 0.032967 0.000000 0.000000
# 5 0.000000 0.000000 0.000000 0.000000 0.007825 0.000000
# 6 0.000000 0.000000 0.000000 0.000000 0.000000 0.029459
#
#
# Mechanical properties :
#
#
# Convention : Reuss Voigt Hill
#
# Bulk Modulus (GPa) = 65.65408 69.05138 67.35273
# Shear Modulus (GPa) = 29.10533 48.58644 38.84588
#
# Velocity S-wave (km/s) = 3.84273 4.96490 4.43942
# Velocity P-wave (km/s) = 7.27999 8.24016 7.77491
#
# Compressibility (1/GPa) = 0.01523135
#
# Stress axis : x y z
#
# Youngs Moduli (GPa) = 40.35920 47.06564 101.80915
#
# Poissons Ratio (x) = 0.61127 0.61239
# Poissons Ratio (y) = 0.52417 0.13287
# Poissons Ratio (z) = 0.24276 0.06143
#
# Static dielectric constant tensor:
#      x y z
#    x 2.123400 0.000000 0.000000 
#    y 0.000000 1.098190 0.000000 
#    z 0.000000 0.000000 1.606470 
# 
# From -- ./inp_files/10086.got.cif
#   From: 2010.05.17/outbox.ucp.g08.bks.cvg/sg57_6_cif.got.tgz:10086.got - 2010.06.11 16:39:23.
