data_PCOD9440318
_publ_section_title
;
Structure prediction by ZEFSAII (Michael W. Deem and Ramdas Pophale) SiO2 
 PCOD9440318
Probable space group: P B C M
;
_chemical_formula_sum "Si O2"
_cell_formula_units_Z 32
_cell_length_a 4.554895
_cell_length_b 8.952249
_cell_length_c 28.413324
_cell_angle_alpha 90.000000
_cell_angle_beta 90.000000
_cell_angle_gamma 90.000000
_cell_volume 1158.597446
_symmetry_space_group_name_H-M "P B C M"
_symmetry_group_IT_number 57
_symmetry_cell_setting 'orthorhombic'
loop_
_space_group_symop_operation_xyz
x,y,z
-x,-y,1/2+z
x,1/2-y,-z
-x,1/2+y,1/2-z
-x,-y,-z
x,y,1/2-z
-x,1/2+y,z
x,1/2-y,1/2+z
loop_
_atom_site_type_symbol
_atom_site_label
_atom_site_fract_x
_atom_site_fract_y
_atom_site_fract_z
Si Si1 0.311735 0.906152 0.599058
Si Si2 0.463174 0.005986 0.750000
Si Si3 0.184000 0.386904 0.531764
Si Si4 0.681909 0.821048 0.338716
Si Si5 0.116590 0.241390 0.750000
O O1 0.545998 0.958088 0.559590
O O2 0.488897 0.793884 0.632294
O O3 0.044272 0.831257 0.571587
O O4 0.202271 0.049144 0.627802
O O5 0.572898 0.840497 0.750000
O O6 0.515834 0.089310 0.799288
O O7 0.112199 0.052911 0.750000
O O8 0.287953 0.250000 0.500000
O O9 0.000000 0.500000 0.500000
O O10 0.928944 0.739405 0.305805
#
# Coordination Sequence:
#
# PCOD9440318 Si02
#       5
#     8   4   8   8   4
#     4  12  22  40  66  89 120 157 208 240 298 368
#     4   8  14  30  56  88 132 152 198 236 296 342
#     4  12  26  44  62  89 120 157 198 260 310 352
#     4   9  18  33  62  95 120 165 194 247 288 355
#     4   8  14  30  56  88 132 152 198 236 296 342
#
# _framework density 27.619603000000001
#
# number of rings (size 3 to 8) (size 9 to 14) (size 15 to 20)
#    1.500    0.000    2.500    4.500    0.000    0.000 
#    0.000    0.000    0.000   36.000    0.000    0.000 
#    0.000    0.000    0.000    0.000    0.000    0.000 
#
# Total GULP energy -178322.634300 kJ/mol
# GULP energy per Si atom -5572.582322 kJ/mol
# Density = 2.755674 g / cm^3
# Si number density = 27.619603 Si / 1000 Ang^3
#
#
#
# Elastic Constant Matrix: (Units=GPa)
#
#
# Indices 1 2 3 4 5 6 
#
# 1 77.5359 -3.2941 42.3351 0.0000 0.0000 0.0000
# 2 -3.2941 94.0493 46.9864 0.0000 0.0000 0.0000
# 3 42.3351 46.9864 160.3800 0.0000 0.0000 0.0000
# 4 0.0000 0.0000 0.0000 59.2875 0.0000 0.0000
# 5 0.0000 0.0000 0.0000 0.0000 22.5964 0.0000
# 6 0.0000 0.0000 0.0000 0.0000 0.0000 21.0093
#
#
#
# Elastic Compliance Matrix: (Units=1/GPa)
#
#
# Indices 1 2 3 4 5 6 
#
# 1 0.015800 0.003089 -0.005076 0.000000 0.000000 0.000000
# 2 0.003089 0.013060 -0.004642 0.000000 0.000000 0.000000
# 3 -0.005076 -0.004642 0.008935 0.000000 0.000000 0.000000
# 4 0.000000 0.000000 0.000000 0.016867 0.000000 0.000000
# 5 0.000000 0.000000 0.000000 0.000000 0.044255 0.000000
# 6 0.000000 0.000000 0.000000 0.000000 0.000000 0.047598
#
#
# Mechanical properties :
#
#
# Convention : Reuss Voigt Hill
#
# Bulk Modulus (GPa) = 40.75255 56.00222 48.37739
# Shear Modulus (GPa) = 29.77082 36.97450 33.37266
#
# Velocity S-wave (km/s) = 3.28668 3.66280 3.47983
# Velocity P-wave (km/s) = 5.40278 6.18130 5.80510
#
# Compressibility (1/GPa) = 0.02453834
#
# Stress axis : x y z
#
# Youngs Moduli (GPa) = 63.29181 76.57084 111.92152
#
# Poissons Ratio (x) = -0.23654 0.56808
# Poissons Ratio (y) = -0.19552 0.51949
# Poissons Ratio (z) = 0.32125 0.35541
#
# Static dielectric constant tensor:
#      x y z
#    x 2.417350 0.000000 0.000000 
#    y 0.000000 2.080620 0.000000 
#    z 0.000000 0.000000 2.173760 
# 
# From -- ./inp_files/28993.got.cif
#   From: 2010.05.17/outbox.cif.g08.bks.cpg/sg57_15_cif.got.tgz:28993.got - 2010.06.03 13:58:18.
