data_PCOD9440576
_publ_section_title
;
Structure prediction by ZEFSAII (Michael W. Deem and Ramdas Pophale) SiO2 
 PCOD9440576
Probable space group: P B C M
;
_chemical_formula_sum "Si O2"
_cell_formula_units_Z 40
_cell_length_a 9.000000
_cell_length_b 9.000000
_cell_length_c 24.000000
_cell_angle_alpha 90.000000
_cell_angle_beta 90.000000
_cell_angle_gamma 90.000000
_cell_volume 1944.000000
_symmetry_space_group_name_H-M "P B C M"
_symmetry_group_IT_number 57
_symmetry_cell_setting 'orthorhombic'
loop_
_space_group_symop_operation_xyz
x,y,z
-x,-y,1/2+z
x,1/2-y,-z
-x,1/2+y,1/2-z
-x,-y,-z
x,y,1/2-z
-x,1/2+y,z
x,1/2-y,1/2+z
loop_
_atom_site_type_symbol
_atom_site_label
_atom_site_fract_x
_atom_site_fract_y
_atom_site_fract_z
Si Si1 0.781323 0.252913 0.250000
Si Si2 0.204085 0.769330 0.566896
Si Si3 0.960898 0.978454 0.934087
Si Si4 0.567439 0.171878 0.852313
Si Si5 0.918436 0.580869 0.250000
Si Si6 0.278637 0.351135 0.857323
O O1 0.668218 0.259236 0.197524
O O2 0.879401 0.405065 0.250000
O O3 0.907192 0.124662 0.250000
O O4 0.210020 0.750000 0.500000
O O5 0.097347 0.635403 0.587499
O O6 0.364280 0.745465 0.592178
O O7 0.117440 0.915239 0.586683
O O8 0.825679 0.870335 0.913041
O O9 0.000000 0.000000 0.000000
O O10 0.393771 0.214291 0.851176
O O11 0.613779 0.997780 0.853614
O O12 0.835499 0.642732 0.305370
#
# Coordination Sequence:
#
# PCOD9440576 Si02
#       6
#     4   8   8   8   4   8
#     4  10  21  36  56  80 108 140 177 222 264 314
#     4   9  18  34  53  75 104 136 175 220 262 312
#     4   9  18  34  54  76 102 137 179 221 263 314
#     4  10  21  36  53  78 110 140 173 219 268 315
#     4  10  21  36  56  82 108 142 185 222 262 316
#     4  10  21  36  54  80 111 142 179 220 267 320
#
# _framework density 20.576132000000001
#
# number of rings (size 3 to 8) (size 9 to 14) (size 15 to 20)
#    0.000    2.400    0.000    1.800    0.000    3.200 
#    0.000   12.000    0.000    0.000    0.000    0.000 
#    0.000    0.000    0.000    0.000    0.000    0.000 
#
# Total GULP energy -222908.016457 kJ/mol
# GULP energy per Si atom -5572.700411 kJ/mol
# Density = 2.052930 g / cm^3
# Si number density = 20.576132 Si / 1000 Ang^3
#
#
#
# Elastic Constant Matrix: (Units=GPa)
#
#
# Indices 1 2 3 4 5 6 
#
# 1 70.8219 2.7493 29.3628 0.0000 0.0000 0.0000
# 2 2.7493 11.3106 5.5671 0.0000 0.0000 0.0000
# 3 29.3628 5.5671 64.3940 0.0000 0.0000 0.0000
# 4 0.0000 0.0000 0.0000 16.8505 0.0000 0.0000
# 5 0.0000 0.0000 0.0000 0.0000 36.6936 0.0000
# 6 0.0000 0.0000 0.0000 0.0000 0.0000 47.4355
#
#
#
# Elastic Compliance Matrix: (Units=1/GPa)
#
#
# Indices 1 2 3 4 5 6 
#
# 1 0.017413 -0.000339 -0.007911 0.000000 0.000000 0.000000
# 2 -0.000339 0.092349 -0.007829 0.000000 0.000000 0.000000
# 3 -0.007911 -0.007829 0.019813 0.000000 0.000000 0.000000
# 4 0.000000 0.000000 0.000000 0.059346 0.000000 0.000000
# 5 0.000000 0.000000 0.000000 0.000000 0.027253 0.000000
# 6 0.000000 0.000000 0.000000 0.000000 0.000000 0.021081
#
#
# Mechanical properties :
#
#
# Convention : Reuss Voigt Hill
#
# Bulk Modulus (GPa) = 10.26513 24.65387 17.45950
# Shear Modulus (GPa) = 16.56259 27.45239 22.00749
#
# Velocity S-wave (km/s) = 2.84023 3.65661 3.27397
# Velocity P-wave (km/s) = 3.96932 5.46219 4.77447
#
# Compressibility (1/GPa) = 0.09741720
#
# Stress axis : x y z
#
# Youngs Moduli (GPa) = 57.42882 10.82850 50.47079
#
# Poissons Ratio (x) = 0.00367 0.39926
# Poissons Ratio (y) = 0.01947 0.39515
# Poissons Ratio (z) = 0.45430 0.08478
#
# Static dielectric constant tensor:
#      x y z
#    x 1.700470 0.000000 0.000000 
#    y 0.000000 1.794460 0.000000 
#    z 0.000000 0.000000 1.792400 
# 
# From -- ./inp_files/26563.got.cif
#   From: 2010.05.17/outbox.ucp.g08.bks.cvg/sg57_14_cif.got.tgz:26563.got - 2010.06.11 16:39:23.
