data_PCOD9440185
_publ_section_title
;
Structure prediction by ZEFSAII (Michael W. Deem and Ramdas Pophale) SiO2 
 PCOD9440185
Probable space group: P B C M
;
_chemical_formula_sum "Si O2"
_cell_formula_units_Z 48
_cell_length_a 11.115898
_cell_length_b 9.152210
_cell_length_c 22.726632
_cell_angle_alpha 90.000000
_cell_angle_beta 90.000000
_cell_angle_gamma 90.000000
_cell_volume 2312.094653
_symmetry_space_group_name_H-M "P B C M"
_symmetry_group_IT_number 57
_symmetry_cell_setting 'orthorhombic'
loop_
_space_group_symop_operation_xyz
x,y,z
-x,-y,1/2+z
x,1/2-y,-z
-x,1/2+y,1/2-z
-x,-y,-z
x,y,1/2-z
-x,1/2+y,z
x,1/2-y,1/2+z
loop_
_atom_site_type_symbol
_atom_site_label
_atom_site_fract_x
_atom_site_fract_y
_atom_site_fract_z
Si Si1 0.332502 0.484591 0.750000
Si Si2 0.457171 0.872108 0.956391
Si Si3 0.556631 0.666270 0.750000
Si Si4 0.084598 0.684213 0.181207
Si Si5 0.702088 0.976316 0.356645
Si Si6 0.725381 0.792708 0.933250
Si Si7 0.145828 0.502288 0.643503
O O1 0.416625 0.626717 0.750000
O O2 0.412766 0.337704 0.750000
O O3 0.248059 0.485076 0.693241
O O4 0.371581 0.933403 0.905883
O O5 0.580642 0.810393 0.928286
O O6 0.403068 0.750000 0.000000
O O7 0.500000 0.000000 0.000000
O O8 0.615492 0.590570 0.692925
O O9 0.073558 0.726183 0.250000
O O10 0.198055 0.578207 0.172407
O O11 0.966706 0.597325 0.161548
O O12 0.105287 0.830478 0.143912
O O13 0.761244 0.838205 0.389863
O O14 0.793486 0.939165 0.915010
O O15 0.750153 0.750000 0.000000
#
# Coordination Sequence:
#
# PCOD9440185 Si02
#       7
#     4   8   4   8   8   8   8
#     4  12  26  43  73  98 152 181 230 292 352 437
#     4  11  23  43  71 101 140 193 238 288 357 429
#     4  12  28  41  65 112 144 177 230 288 370 411
#     4  12  26  46  74 103 141 188 240 288 365 426
#     4  12  25  43  69 102 145 183 233 293 354 428
#     4  11  24  46  69 101 140 189 238 297 352 425
#     4  12  26  47  73 103 139 188 240 296 351 422
#
# _framework density 20.760396
#
# number of rings (size 3 to 8) (size 9 to 14) (size 15 to 20)
#    0.000    0.333    7.500    2.000    4.667    0.000 
#    0.000    4.167    0.000    0.000    0.000    0.000 
#    0.000    0.000    0.000    0.000    0.000    0.000 
#
# Total GULP energy -268742.129971 kJ/mol
# GULP energy per Si atom -5598.794374 kJ/mol
# Density = 2.071314 g / cm^3
# Si number density = 20.760396 Si / 1000 Ang^3
#
#
#
# Elastic Constant Matrix: (Units=GPa)
#
#
# Indices 1 2 3 4 5 6 
#
# 1 65.8811 16.3978 6.0690 0.0000 0.0000 0.0000
# 2 16.3978 93.2857 -6.9714 0.0000 0.0000 0.0000
# 3 6.0690 -6.9714 54.5929 0.0000 0.0000 0.0000
# 4 0.0000 0.0000 0.0000 42.5836 0.0000 0.0000
# 5 0.0000 0.0000 0.0000 0.0000 8.6551 0.0000
# 6 0.0000 0.0000 0.0000 0.0000 0.0000 35.4729
#
#
#
# Elastic Compliance Matrix: (Units=1/GPa)
#
#
# Indices 1 2 3 4 5 6 
#
# 1 0.016125 -0.002997 -0.002175 0.000000 0.000000 0.000000
# 2 -0.002997 0.011380 0.001786 0.000000 0.000000 0.000000
# 3 -0.002175 0.001786 0.018787 0.000000 0.000000 0.000000
# 4 0.000000 0.000000 0.000000 0.023483 0.000000 0.000000
# 5 0.000000 0.000000 0.000000 0.000000 0.115539 0.000000
# 6 0.000000 0.000000 0.000000 0.000000 0.000000 0.028191
#
#
# Mechanical properties :
#
#
# Convention : Reuss Voigt Hill
#
# Bulk Modulus (GPa) = 25.30324 27.19451 26.24887
# Shear Modulus (GPa) = 21.41779 30.55994 25.98886
#
# Velocity S-wave (km/s) = 3.21544 3.84087 3.54199
# Velocity P-wave (km/s) = 5.09903 5.72690 5.42206
#
# Compressibility (1/GPa) = 0.03952063
#
# Stress axis : x y z
#
# Youngs Moduli (GPa) = 62.01462 87.87283 53.22735
#
# Poissons Ratio (x) = 0.26336 0.11579
# Poissons Ratio (y) = 0.18586 -0.09509
# Poissons Ratio (z) = 0.13490 -0.15698
#
# Static dielectric constant tensor:
#      x y z
#    x 1.724830 0.000000 0.000000 
#    y 0.000000 1.770580 0.000000 
#    z 0.000000 0.000000 1.723900 
# 
# From -- ./inp_files/27130.got.cif
#   From: 2010.05.17/outbox.cif.g08.bks.cpg/sg57_14_cif.got.tgz:27130.got - 2010.06.03 13:58:18.
