data_PCOD9440527
_publ_section_title
;
Structure prediction by ZEFSAII (Michael W. Deem and Ramdas Pophale) SiO2 
 PCOD9440527
Probable space group: P B C M
;
_chemical_formula_sum "Si O2"
_cell_formula_units_Z 48
_cell_length_a 30.000000
_cell_length_b 9.000000
_cell_length_c 9.000000
_cell_angle_alpha 90.000000
_cell_angle_beta 90.000000
_cell_angle_gamma 90.000000
_cell_volume 2430.000000
_symmetry_space_group_name_H-M "P B C M"
_symmetry_group_IT_number 57
_symmetry_cell_setting 'orthorhombic'
loop_
_space_group_symop_operation_xyz
x,y,z
-x,-y,1/2+z
x,1/2-y,-z
-x,1/2+y,1/2-z
-x,-y,-z
x,y,1/2-z
-x,1/2+y,z
x,1/2-y,1/2+z
loop_
_atom_site_type_symbol
_atom_site_label
_atom_site_fract_x
_atom_site_fract_y
_atom_site_fract_z
Si Si1 0.722058 0.093792 0.072577
Si Si2 0.361532 0.087442 0.928081
Si Si3 0.120909 0.894961 0.083345
Si Si4 0.964774 0.599146 0.415312
Si Si5 0.460717 0.410461 0.426499
Si Si6 0.192498 0.407657 0.425702
O O1 0.720818 0.115113 0.250000
O O2 0.675002 0.029472 0.019471
O O3 0.758132 0.966499 0.041573
O O4 0.733806 0.250000 0.000000
O O5 0.356664 0.105857 0.750000
O O6 0.411226 0.028728 0.957164
O O7 0.355974 0.250000 0.000000
O O8 0.135927 0.857891 0.250000
O O9 0.081114 0.011072 0.091503
O O10 0.104206 0.750000 0.000000
O O11 0.160102 0.968657 0.991087
O O12 0.957357 0.750000 0.500000
O O13 0.981423 0.630640 0.250000
O O14 0.000000 0.500000 0.500000
O O15 0.461071 0.250000 0.500000
O O16 0.500000 0.500000 0.500000
O O17 0.466600 0.400821 0.250000
O O18 0.183715 0.250000 0.500000
O O19 0.186425 0.394534 0.250000
#
# Coordination Sequence:
#
# PCOD9440527 Si02
#       6
#     8   8   8   8   8   8
#     4  10  22  38  56  82 113 145 184 229 278 332
#     4   9  19  36  56  79 107 141 182 226 274 330
#     4  11  24  41  62  89 121 156 194 238 287 339
#     4  11  24  41  63  90 121 157 197 242 290 342
#     4  10  20  35  55  79 109 144 183 228 278 332
#     4  11  23  39  61  87 116 151 191 235 283 337
#
# _framework density 19.753086
#
# number of rings (size 3 to 8) (size 9 to 14) (size 15 to 20)
#    0.000    1.667    0.000    4.000    0.000   10.000 
#    0.000    1.667    0.000    0.000    0.000    0.000 
#    0.000    0.000    0.000    0.000    0.000    0.000 
#
# Total GULP energy -268017.081468 kJ/mol
# GULP energy per Si atom -5583.689197 kJ/mol
# Density = 1.970813 g / cm^3
# Si number density = 19.753086 Si / 1000 Ang^3
#
#
#
# Elastic Constant Matrix: (Units=GPa)
#
#
# Indices 1 2 3 4 5 6 
#
# 1 59.7833 7.9691 44.5264 0.0000 0.0000 0.0000
# 2 7.9691 71.9723 36.9462 0.0000 0.0000 0.0000
# 3 44.5264 36.9462 59.5970 0.0000 0.0000 0.0000
# 4 0.0000 0.0000 0.0000 28.8681 0.0000 0.0000
# 5 0.0000 0.0000 0.0000 0.0000 6.8583 0.0000
# 6 0.0000 0.0000 0.0000 0.0000 0.0000 35.7328
#
#
#
# Elastic Compliance Matrix: (Units=1/GPa)
#
#
# Indices 1 2 3 4 5 6 
#
# 1 0.053591 0.021444 -0.053333 0.000000 0.000000 0.000000
# 2 0.021444 0.028961 -0.033975 0.000000 0.000000 0.000000
# 3 -0.053333 -0.033975 0.077688 0.000000 0.000000 0.000000
# 4 0.000000 0.000000 0.000000 0.034640 0.000000 0.000000
# 5 0.000000 0.000000 0.000000 0.000000 0.145809 0.000000
# 6 0.000000 0.000000 0.000000 0.000000 0.000000 0.027986
#
#
# Mechanical properties :
#
#
# Convention : Reuss Voigt Hill
#
# Bulk Modulus (GPa) = 35.07347 41.13734 38.10541
# Shear Modulus (GPa) = 9.80573 21.08588 15.44580
#
# Velocity S-wave (km/s) = 2.23045 3.27076 2.79936
# Velocity P-wave (km/s) = 4.94244 5.92747 5.45722
#
# Compressibility (1/GPa) = 0.02851158
#
# Stress axis : x y z
#
# Youngs Moduli (GPa) = 18.65991 34.52964 12.87197
#
# Poissons Ratio (x) = -0.74046 0.68650
# Poissons Ratio (y) = -0.40015 0.43733
# Poissons Ratio (z) = 0.99519 1.17315
#
# Static dielectric constant tensor:
#      x y z
#    x 1.558520 0.000000 0.000000 
#    y 0.000000 1.642960 0.000000 
#    z 0.000000 0.000000 1.717610 
# 
# From -- ./inp_files/9927.got.cif
#   From: 2010.05.17/outbox.ucp.g08.bks.cvg/sg57_5_cif.got.tgz:9927.got - 2010.06.11 16:39:23.
