data_PCOD9440532
_publ_section_title
;
Structure prediction by ZEFSAII (Michael W. Deem and Ramdas Pophale) SiO2 
 PCOD9440532
Probable space group: P B C M
;
_chemical_formula_sum "Si O2"
_cell_formula_units_Z 56
_cell_length_a 21.000000
_cell_length_b 15.000000
_cell_length_c 9.000000
_cell_angle_alpha 90.000000
_cell_angle_beta 90.000000
_cell_angle_gamma 90.000000
_cell_volume 2835.000000
_symmetry_space_group_name_H-M "P B C M"
_symmetry_group_IT_number 57
_symmetry_cell_setting 'orthorhombic'
loop_
_space_group_symop_operation_xyz
x,y,z
-x,-y,1/2+z
x,1/2-y,-z
-x,1/2+y,1/2-z
-x,-y,-z
x,y,1/2-z
-x,1/2+y,z
x,1/2-y,1/2+z
loop_
_atom_site_type_symbol
_atom_site_label
_atom_site_fract_x
_atom_site_fract_y
_atom_site_fract_z
Si Si1 0.143667 0.338707 0.075734
Si Si2 0.987346 0.903213 0.571366
Si Si3 0.598966 0.655102 0.072995
Si Si4 0.202022 0.528761 0.422164
Si Si5 0.547578 0.154741 0.428501
Si Si6 0.886756 0.335673 0.074156
Si Si7 0.346316 0.513667 0.427212
O O1 0.130079 0.323314 0.250000
O O2 0.189940 0.423277 0.064704
O O3 0.169946 0.250000 0.000000
O O4 0.078295 0.364550 0.992174
O O5 0.986406 0.907712 0.750000
O O6 0.046666 0.846816 0.511659
O O7 0.000000 0.000000 0.500000
O O8 0.603034 0.661789 0.250000
O O9 0.525410 0.631309 0.032339
O O10 0.613039 0.750000 0.000000
O O11 0.643606 0.578504 0.010946
O O12 0.186051 0.552917 0.250000
O O13 0.155508 0.579181 0.533141
O O14 0.275423 0.549989 0.451568
O O15 0.561749 0.250000 0.500000
O O16 0.550834 0.162350 0.250000
O O17 0.598871 0.081852 0.476158
O O18 0.895776 0.326866 0.250000
O O19 0.854017 0.250000 0.000000
O O20 0.352996 0.498745 0.250000
#
# Coordination Sequence:
#
# PCOD9440532 Si02
#       7
#     8   8   8   8   8   8   8
#     4  11  23  40  62  87 118 155 197 245 297 354
#     4  12  23  39  64  93 123 153 192 243 300 355
#     4  10  20  35  57  86 117 153 194 243 294 350
#     4  10  23  42  61  84 119 159 200 246 294 349
#     4   9  19  35  57  85 118 152 193 241 296 350
#     4  12  25  42  65  90 120 158 199 245 297 353
#     4  10  21  38  59  85 118 156 195 243 295 348
#
# _framework density 19.753086
#
# number of rings (size 3 to 8) (size 9 to 14) (size 15 to 20)
#    0.000    1.429    1.429    4.286    0.000    3.429 
#    0.000    2.857    0.000    0.000    0.000    0.000 
#    0.000    0.000    0.000    0.000    0.000    0.000 
#
# Total GULP energy -312985.037289 kJ/mol
# GULP energy per Si atom -5589.018523 kJ/mol
# Density = 1.970813 g / cm^3
# Si number density = 19.753086 Si / 1000 Ang^3
#
#
#
# Elastic Constant Matrix: (Units=GPa)
#
#
# Indices 1 2 3 4 5 6 
#
# 1 23.4791 1.0688 16.6830 0.0000 0.0000 0.0000
# 2 1.0688 59.3205 23.6623 0.0000 0.0000 0.0000
# 3 16.6830 23.6623 93.0230 0.0000 0.0000 0.0000
# 4 0.0000 0.0000 0.0000 36.4387 0.0000 0.0000
# 5 0.0000 0.0000 0.0000 0.0000 12.1185 0.0000
# 6 0.0000 0.0000 0.0000 0.0000 0.0000 -14.2806
#
#
#
# Elastic Compliance Matrix: (Units=1/GPa)
#
#
# Indices 1 2 3 4 5 6 
#
# 1 0.049266 0.002935 -0.009582 0.000000 0.000000 0.000000
# 2 0.002935 0.018936 -0.005343 0.000000 0.000000 0.000000
# 3 -0.009582 -0.005343 0.013828 0.000000 0.000000 0.000000
# 4 0.000000 0.000000 0.000000 0.027443 0.000000 0.000000
# 5 0.000000 0.000000 0.000000 0.000000 0.082518 0.000000
# 6 0.000000 0.000000 0.000000 0.000000 0.000000 -0.070025
#
#
# Mechanical properties :
#
#
# Convention : Reuss Voigt Hill
#
# Bulk Modulus (GPa) = 17.22698 28.73899 22.98298
# Shear Modulus (GPa) = 30.24872 15.81591 23.03231
#
# Velocity S-wave (km/s) = 3.91748 2.83270 3.41839
# Velocity P-wave (km/s) = 5.40392 5.02788 5.21929
#
# Compressibility (1/GPa) = 0.05804849
#
# Stress axis : x y z
#
# Youngs Moduli (GPa) = 20.29803 52.80953 72.31912
#
# Poissons Ratio (x) = -0.15497 0.69296
# Poissons Ratio (y) = -0.05956 0.38640
# Poissons Ratio (z) = 0.19449 0.28216
#
# Static dielectric constant tensor:
#      x y z
#    x 1.696060 0.000000 0.000000 
#    y 0.000000 1.756510 0.000000 
#    z 0.000000 0.000000 1.651390 
# 
# From -- ./inp_files/8058.got.cif
#   From: 2010.05.17/outbox.ucp.g08.bks.cvg/sg57_5_cif.got.tgz:8058.got - 2010.06.11 16:39:23.
