data_PCOD9440189
_publ_section_title
;
Structure prediction by ZEFSAII (Michael W. Deem and Ramdas Pophale) SiO2 
 PCOD9440189
Probable space group: P B C M
;
_chemical_formula_sum "Si O2"
_cell_formula_units_Z 32
_cell_length_a 10.915238
_cell_length_b 13.298743
_cell_length_c 9.928518
_cell_angle_alpha 90.000000
_cell_angle_beta 90.000000
_cell_angle_gamma 90.000000
_cell_volume 1441.213198
_symmetry_space_group_name_H-M "P B C M"
_symmetry_group_IT_number 57
_symmetry_cell_setting 'orthorhombic'
loop_
_space_group_symop_operation_xyz
x,y,z
-x,-y,1/2+z
x,1/2-y,-z
-x,1/2+y,1/2-z
-x,-y,-z
x,y,1/2-z
-x,1/2+y,z
x,1/2-y,1/2+z
loop_
_atom_site_type_symbol
_atom_site_label
_atom_site_fract_x
_atom_site_fract_y
_atom_site_fract_z
Si Si1 0.300840 0.301698 0.250000
Si Si2 0.862194 0.895539 0.472246
Si Si3 0.560541 0.371476 0.250000
Si Si4 0.891653 0.121551 0.102802
Si Si5 0.329552 0.750000 0.500000
Si Si6 0.716076 0.577521 0.250000
O O1 0.217499 0.322330 0.119814
O O2 0.414006 0.378297 0.250000
O O3 0.349024 0.186968 0.250000
O O4 0.799229 0.920289 0.615791
O O5 0.000061 0.858714 0.497611
O O6 0.873647 0.002115 0.398370
O O7 0.596968 0.308412 0.116204
O O8 0.370153 0.979110 0.250000
O O9 0.931679 0.156970 0.250000
O O10 0.763292 0.171074 0.067376
#
# Coordination Sequence:
#
# PCOD9440189 Si02
#       6
#     4   8   4   8   4   4
#     4  12  30  48  73 107 150 202 247 307 367 436
#     4  11  25  45  73 109 146 191 243 304 375 429
#     4  12  30  50  73 107 150 198 255 299 362 456
#     4  11  23  43  74 111 150 184 237 307 370 444
#     4  12  26  46  74 108 144 200 238 298 378 446
#     4  12  26  48  70 110 144 188 254 304 363 442
#
# _framework density 22.203516
#
# number of rings (size 3 to 8) (size 9 to 14) (size 15 to 20)
#    0.000    0.500    6.250    0.750    7.000    4.000 
#    0.000    0.000    0.000    0.000    0.000    0.000 
#    0.000    0.000    0.000    0.000    0.000    0.000 
#
# Total GULP energy -179079.066382 kJ/mol
# GULP energy per Si atom -5596.220824 kJ/mol
# Density = 2.215298 g / cm^3
# Si number density = 22.203516 Si / 1000 Ang^3
#
#
#
# Elastic Constant Matrix: (Units=GPa)
#
#
# Indices 1 2 3 4 5 6 
#
# 1 87.7818 14.1197 40.4213 0.0000 0.0000 0.0000
# 2 14.1197 114.1217 26.0848 0.0000 0.0000 0.0000
# 3 40.4213 26.0848 145.4401 0.0000 0.0000 0.0000
# 4 0.0000 0.0000 0.0000 30.9963 0.0000 0.0000
# 5 0.0000 0.0000 0.0000 0.0000 -24.5461 0.0000
# 6 0.0000 0.0000 0.0000 0.0000 0.0000 23.2150
#
#
#
# Elastic Compliance Matrix: (Units=1/GPa)
#
#
# Indices 1 2 3 4 5 6 
#
# 1 0.013138 -0.000825 -0.003503 0.000000 0.000000 0.000000
# 2 -0.000825 0.009189 -0.001419 0.000000 0.000000 0.000000
# 3 -0.003503 -0.001419 0.008104 0.000000 0.000000 0.000000
# 4 0.000000 0.000000 0.000000 0.032262 0.000000 0.000000
# 5 0.000000 0.000000 0.000000 0.000000 -0.040740 0.000000
# 6 0.000000 0.000000 0.000000 0.000000 0.000000 0.043076
#
#
# Mechanical properties :
#
#
# Convention : Reuss Voigt Hill
#
# Bulk Modulus (GPa) = 52.80765 56.51059 54.65912
# Shear Modulus (GPa) = 60.36136 23.71422 42.03779
#
# Velocity S-wave (km/s) = 5.21963 3.27163 4.35592
# Velocity P-wave (km/s) = 7.75636 6.30697 7.06891
#
# Compressibility (1/GPa) = 0.01893665
#
# Stress axis : x y z
#
# Youngs Moduli (GPa) = 76.11645 108.82676 123.39848
#
# Poissons Ratio (x) = 0.08975 0.43231
# Poissons Ratio (y) = 0.06277 0.17508
# Poissons Ratio (z) = 0.26667 0.15441
#
# Static dielectric constant tensor:
#      x y z
#    x 1.757000 0.000000 0.000000 
#    y 0.000000 1.842510 0.000000 
#    z 0.000000 0.000000 1.809290 
# 
# From -- ./inp_files/2444.got.cif
#   From: 2010.05.17/outbox.cif.g08.bks.cpg/sg57_2_cif.got.tgz:2444.got - 2010.06.03 13:58:18.
