data_PCOD9440218
_publ_section_title
;
Structure prediction by ZEFSAII (Michael W. Deem and Ramdas Pophale) SiO2 
 PCOD9440218
Probable space group: P B C M
;
_chemical_formula_sum "Si O2"
_cell_formula_units_Z 36
_cell_length_a 5.408878
_cell_length_b 12.957690
_cell_length_c 24.613600
_cell_angle_alpha 90.000000
_cell_angle_beta 90.000000
_cell_angle_gamma 90.000000
_cell_volume 1725.082661
_symmetry_space_group_name_H-M "P B C M"
_symmetry_group_IT_number 57
_symmetry_cell_setting 'orthorhombic'
loop_
_space_group_symop_operation_xyz
x,y,z
-x,-y,1/2+z
x,1/2-y,-z
-x,1/2+y,1/2-z
-x,-y,-z
x,y,1/2-z
-x,1/2+y,z
x,1/2-y,1/2+z
loop_
_atom_site_type_symbol
_atom_site_label
_atom_site_fract_x
_atom_site_fract_y
_atom_site_fract_z
Si Si1 0.349754 0.429971 0.541784
Si Si2 0.030942 0.250000 0.500000
Si Si3 0.697841 0.440618 0.145960
Si Si4 0.720161 0.282793 0.606457
Si Si5 0.816988 0.459761 0.812716
O O1 0.500000 0.500000 0.500000
O O2 0.176455 0.357122 0.506096
O O3 0.246952 0.507325 0.587168
O O4 0.505918 0.347949 0.577201
O O5 0.882178 0.246199 0.555767
O O6 0.645416 0.319818 0.138122
O O7 0.447082 0.490201 0.170418
O O8 0.947145 0.465293 0.179231
O O9 0.852165 0.361671 0.647560
O O10 0.803968 0.428232 0.750000
#
# Coordination Sequence:
#
# PCOD9440218 Si02
#       5
#     8   4   8   8   8
#     4  11  24  41  65 104 147 184 229 280 349 424
#     4  12  22  40  70 102 140 192 226 288 352 430
#     4  11  25  45  71 101 137 184 231 292 350 421
#     4  11  26  42  68 106 139 184 239 287 354 424
#     4  11  26  48  71 100 137 184 241 300 356 415
#
# _framework density 20.868565
#
# number of rings (size 3 to 8) (size 9 to 14) (size 15 to 20)
#    0.000    0.889    2.222    4.000    9.333    3.556 
#    0.000    0.000    0.000    0.000    0.000    0.000 
#    0.000    0.000    0.000    0.000    0.000    0.000 
#
# Total GULP energy -201128.659703 kJ/mol
# GULP energy per Si atom -5586.907214 kJ/mol
# Density = 2.082107 g / cm^3
# Si number density = 20.868565 Si / 1000 Ang^3
#
#
#
# Elastic Constant Matrix: (Units=GPa)
#
#
# Indices 1 2 3 4 5 6 
#
# 1 78.4971 25.4514 30.3058 0.0000 0.0000 0.0000
# 2 25.4514 101.0477 31.9753 0.0000 0.0000 0.0000
# 3 30.3058 31.9753 123.8410 0.0000 0.0000 0.0000
# 4 0.0000 0.0000 0.0000 15.2957 0.0000 0.0000
# 5 0.0000 0.0000 0.0000 0.0000 24.3303 0.0000
# 6 0.0000 0.0000 0.0000 0.0000 0.0000 34.3873
#
#
#
# Elastic Compliance Matrix: (Units=1/GPa)
#
#
# Indices 1 2 3 4 5 6 
#
# 1 0.014764 -0.002805 -0.002889 0.000000 0.000000 0.000000
# 2 -0.002805 0.011310 -0.002234 0.000000 0.000000 0.000000
# 3 -0.002889 -0.002234 0.009359 0.000000 0.000000 0.000000
# 4 0.000000 0.000000 0.000000 0.065378 0.000000 0.000000
# 5 0.000000 0.000000 0.000000 0.000000 0.041101 0.000000
# 6 0.000000 0.000000 0.000000 0.000000 0.000000 0.029080
#
#
# Mechanical properties :
#
#
# Convention : Reuss Voigt Hill
#
# Bulk Modulus (GPa) = 51.07833 53.20564 52.14199
# Shear Modulus (GPa) = 25.85692 29.17955 27.51823
#
# Velocity S-wave (km/s) = 3.52381 3.74338 3.63525
# Velocity P-wave (km/s) = 6.40981 6.65092 6.53148
#
# Compressibility (1/GPa) = 0.01957778
#
# Stress axis : x y z
#
# Youngs Moduli (GPa) = 67.73251 88.42080 106.85393
#
# Poissons Ratio (x) = 0.24798 0.30869
# Poissons Ratio (y) = 0.18996 0.23869
# Poissons Ratio (z) = 0.19567 0.19751
#
# Static dielectric constant tensor:
#      x y z
#    x 1.766420 0.000000 0.000000 
#    y 0.000000 0.573410 0.000000 
#    z 0.000000 0.000000 1.768210 
# 
# From -- ./inp_files/26017.got.cif
#   From: 2010.05.17/outbox.cif.g08.bks.cpg/sg57_14_cif.got.tgz:26017.got - 2010.06.03 13:58:18.
