data_PCOD9440302
_publ_section_title
;
Structure prediction by ZEFSAII (Michael W. Deem and Ramdas Pophale) SiO2 
 PCOD9440302
Probable space group: P B C M
;
_chemical_formula_sum "Si O2"
_cell_formula_units_Z 32
_cell_length_a 7.963816
_cell_length_b 9.376522
_cell_length_c 16.865804
_cell_angle_alpha 90.000000
_cell_angle_beta 90.000000
_cell_angle_gamma 90.000000
_cell_volume 1259.418427
_symmetry_space_group_name_H-M "P B C M"
_symmetry_group_IT_number 57
_symmetry_cell_setting 'orthorhombic'
loop_
_space_group_symop_operation_xyz
x,y,z
-x,-y,1/2+z
x,1/2-y,-z
-x,1/2+y,1/2-z
-x,-y,-z
x,y,1/2-z
-x,1/2+y,z
x,1/2-y,1/2+z
loop_
_atom_site_type_symbol
_atom_site_label
_atom_site_fract_x
_atom_site_fract_y
_atom_site_fract_z
Si Si1 0.884202 0.285718 0.658252
Si Si2 0.878471 0.572295 0.562665
Si Si3 0.528352 0.380782 0.339493
Si Si4 0.417514 0.154833 0.440964
O O1 0.939647 0.294210 0.750000
O O2 0.847664 0.444544 0.625477
O O3 0.710734 0.195244 0.656798
O O4 0.021640 0.201720 0.605303
O O5 0.727607 0.613341 0.502674
O O6 0.000000 0.500000 0.500000
O O7 0.497692 0.428629 0.250000
O O8 0.394068 0.262177 0.366929
O O9 0.525569 0.512132 0.399197
O O10 0.536169 0.250000 0.500000
#
# Coordination Sequence:
#
# PCOD9440302 Si02
#       4
#     8   8   8   8
#     4  11  26  49  76 112 159 207 259 324 400 473
#     4  12  25  47  77 113 151 204 265 327 387 462
#     4  11  27  50  76 112 162 208 256 323 399 475
#     4  12  27  47  78 115 152 205 267 322 387 470
#
# _framework density 25.408553999999999
#
# number of rings (size 3 to 8) (size 9 to 14) (size 15 to 20)
#    0.000    0.500    2.500    4.500    7.000    0.000 
#    0.000    2.500    0.000    0.000    0.000    0.000 
#    0.000    0.000    0.000    0.000    0.000    0.000 
#
# Total GULP energy -178979.388776 kJ/mol
# GULP energy per Si atom -5593.105899 kJ/mol
# Density = 2.535072 g / cm^3
# Si number density = 25.408554 Si / 1000 Ang^3
#
#
#
# Elastic Constant Matrix: (Units=GPa)
#
#
# Indices 1 2 3 4 5 6 
#
# 1 114.4681 47.7346 84.3206 0.0000 0.0000 0.0000
# 2 47.7346 218.2143 104.0841 0.0000 0.0000 0.0000
# 3 84.3206 104.0841 215.2013 0.0000 0.0000 0.0000
# 4 0.0000 0.0000 0.0000 61.5474 0.0000 0.0000
# 5 0.0000 0.0000 0.0000 0.0000 40.7364 0.0000
# 6 0.0000 0.0000 0.0000 0.0000 0.0000 28.8956
#
#
#
# Elastic Compliance Matrix: (Units=1/GPa)
#
#
# Indices 1 2 3 4 5 6 
#
# 1 0.012324 -0.000510 -0.004582 0.000000 0.000000 0.000000
# 2 -0.000510 0.005978 -0.002691 0.000000 0.000000 0.000000
# 3 -0.004582 -0.002691 0.007744 0.000000 0.000000 0.000000
# 4 0.000000 0.000000 0.000000 0.016248 0.000000 0.000000
# 5 0.000000 0.000000 0.000000 0.000000 0.024548 0.000000
# 6 0.000000 0.000000 0.000000 0.000000 0.000000 0.034607
#
#
# Mechanical properties :
#
#
# Convention : Reuss Voigt Hill
#
# Bulk Modulus (GPa) = 95.43341 113.35137 104.39239
# Shear Modulus (GPa) = 41.49056 47.01885 44.25471
#
# Velocity S-wave (km/s) = 4.04535 4.30643 4.17793
# Velocity P-wave (km/s) = 7.71109 8.33279 8.02796
#
# Compressibility (1/GPa) = 0.01047851
#
# Stress axis : x y z
#
# Youngs Moduli (GPa) = 81.14155 167.27959 129.13484
#
# Poissons Ratio (x) = 0.08538 0.59170
# Poissons Ratio (y) = 0.04141 0.34755
# Poissons Ratio (z) = 0.37179 0.45021
#
# Static dielectric constant tensor:
#      x y z
#    x 2.150110 0.000000 0.000000 
#    y 0.000000 2.226390 0.000000 
#    z 0.000000 0.000000 2.009570 
# 
# From -- ./inp_files/15591.got.cif
#   From: 2010.05.17/outbox.cif.g08.bks.cpg/sg57_8_cif.got.tgz:15591.got - 2010.06.03 13:58:18.
