data_PCOD9440347
_publ_section_title
;
Structure prediction by ZEFSAII (Michael W. Deem and Ramdas Pophale) SiO2 
 PCOD9440347
Probable space group: P B C M
;
_chemical_formula_sum "Si O2"
_cell_formula_units_Z 40
_cell_length_a 4.803024
_cell_length_b 9.426309
_cell_length_c 34.844171
_cell_angle_alpha 90.000000
_cell_angle_beta 90.000000
_cell_angle_gamma 90.000000
_cell_volume 1577.562468
_symmetry_space_group_name_H-M "P B C M"
_symmetry_group_IT_number 57
_symmetry_cell_setting 'orthorhombic'
loop_
_space_group_symop_operation_xyz
x,y,z
-x,-y,1/2+z
x,1/2-y,-z
-x,1/2+y,1/2-z
-x,-y,-z
x,y,1/2-z
-x,1/2+y,z
x,1/2-y,1/2+z
loop_
_atom_site_type_symbol
_atom_site_label
_atom_site_fract_x
_atom_site_fract_y
_atom_site_fract_z
Si Si1 0.163041 0.909263 0.421515
Si Si2 0.122587 0.170787 0.130023
Si Si3 0.351611 0.034518 0.750000
Si Si4 0.659354 0.614562 0.974292
Si Si5 0.373727 0.656365 0.182813
Si Si6 0.966697 0.226375 0.250000
O O1 0.436384 0.845392 0.441293
O O2 0.014937 0.798063 0.393471
O O3 0.935007 0.944053 0.454107
O O4 0.236608 0.050865 0.398480
O O5 0.369731 0.214774 0.158651
O O6 0.867475 0.104900 0.154265
O O7 0.473811 0.968912 0.788851
O O8 0.053326 0.944845 0.750000
O O9 0.257777 0.195897 0.750000
O O10 0.730780 0.750000 0.000000
O O11 0.500000 0.500000 0.000000
O O12 0.207026 0.761091 0.211665
#
# Coordination Sequence:
#
# PCOD9440347 Si02
#       6
#     8   8   4   8   8   4
#     4  12  26  43  70 103 140 180 234 280 348 431
#     4  12  24  46  66 100 144 186 226 284 360 415
#     4   8  20  42  70 100 135 178 252 286 346 410
#     4  12  24  45  72 101 135 179 230 288 344 405
#     4   9  24  41  72  95 139 186 230 293 353 405
#     4   8  20  42  70 100 135 178 252 288 344 410
#
# _framework density 25.355574000000001
#
# number of rings (size 3 to 8) (size 9 to 14) (size 15 to 20)
#    1.200    0.000    0.000    6.000    2.800    3.200 
#    0.000    2.000    0.000    0.000    0.000    0.000 
#    0.000    0.000    0.000    0.000    0.000    0.000 
#
# Total GULP energy -223964.853709 kJ/mol
# GULP energy per Si atom -5599.121343 kJ/mol
# Density = 2.529786 g / cm^3
# Si number density = 25.355574 Si / 1000 Ang^3
#
#
#
# Elastic Constant Matrix: (Units=GPa)
#
#
# Indices 1 2 3 4 5 6 
#
# 1 104.7670 -27.3241 35.1070 0.0000 0.0000 0.0000
# 2 -27.3241 60.7534 23.4271 0.0000 0.0000 0.0000
# 3 35.1070 23.4271 116.2667 0.0000 0.0000 0.0000
# 4 0.0000 0.0000 0.0000 9.2002 0.0000 0.0000
# 5 0.0000 0.0000 0.0000 0.0000 10.2203 0.0000
# 6 0.0000 0.0000 0.0000 0.0000 0.0000 34.0497
#
#
#
# Elastic Compliance Matrix: (Units=1/GPa)
#
#
# Indices 1 2 3 4 5 6 
#
# 1 0.013689 0.008404 -0.005827 0.000000 0.000000 0.000000
# 2 0.008404 0.023006 -0.007173 0.000000 0.000000 0.000000
# 3 -0.005827 -0.007173 0.011806 0.000000 0.000000 0.000000
# 4 0.000000 0.000000 0.000000 0.108693 0.000000 0.000000
# 5 0.000000 0.000000 0.000000 0.000000 0.097845 0.000000
# 6 0.000000 0.000000 0.000000 0.000000 0.000000 0.029369
#
#
# Mechanical properties :
#
#
# Convention : Reuss Voigt Hill
#
# Bulk Modulus (GPa) = 25.43997 38.24524 31.84261
# Shear Modulus (GPa) = 16.30244 27.39917 21.85080
#
# Velocity S-wave (km/s) = 2.53840 3.29081 2.93879
# Velocity P-wave (km/s) = 4.31815 5.43650 4.90927
#
# Compressibility (1/GPa) = 0.03930822
#
# Stress axis : x y z
#
# Youngs Moduli (GPa) = 73.04991 43.46776 84.70521
#
# Poissons Ratio (x) = -0.36529 0.49356
# Poissons Ratio (y) = -0.61389 0.60759
# Poissons Ratio (z) = 0.42565 0.31179
#
# Static dielectric constant tensor:
#      x y z
#    x 1.978180 0.000000 0.000000 
#    y 0.000000 1.955970 0.000000 
#    z 0.000000 0.000000 2.056130 
# 
# From -- ./inp_files/27834.got.cif
#   From: 2010.05.17/outbox.cif.g08.bks.cpg/sg57_14_cif.got.tgz:27834.got - 2010.06.03 13:58:18.
