data_PCOD9440362
_publ_section_title
;
Structure prediction by ZEFSAII (Michael W. Deem and Ramdas Pophale) SiO2 
 PCOD9440362
Probable space group: P B C M
;
_chemical_formula_sum "Si O2"
_cell_formula_units_Z 40
_cell_length_a 5.307732
_cell_length_b 17.983953
_cell_length_c 17.786506
_cell_angle_alpha 90.000000
_cell_angle_beta 90.000000
_cell_angle_gamma 90.000000
_cell_volume 1697.793194
_symmetry_space_group_name_H-M "P B C M"
_symmetry_group_IT_number 57
_symmetry_cell_setting 'orthorhombic'
loop_
_space_group_symop_operation_xyz
x,y,z
-x,-y,1/2+z
x,1/2-y,-z
-x,1/2+y,1/2-z
-x,-y,-z
x,y,1/2-z
-x,1/2+y,z
x,1/2-y,1/2+z
loop_
_atom_site_type_symbol
_atom_site_label
_atom_site_fract_x
_atom_site_fract_y
_atom_site_fract_z
Si Si1 0.412360 0.666571 0.838230
Si Si2 0.757397 0.199973 0.435671
Si Si3 0.950472 0.919107 0.661326
Si Si4 0.379810 0.075351 0.029839
Si Si5 0.910116 0.919824 0.112731
O O1 0.390532 0.681466 0.750000
O O2 0.397304 0.742846 0.884159
O O3 0.672726 0.624276 0.854107
O O4 0.172357 0.616609 0.862659
O O5 0.890705 0.250000 0.500000
O O6 0.566716 0.144139 0.477337
O O7 0.927668 0.151700 0.379872
O O8 0.928792 0.909739 0.750000
O O9 0.689092 0.930242 0.617088
O O10 0.095767 0.995364 0.641319
O O11 0.133118 0.083916 0.977303
O O12 0.500000 0.000000 0.000000
#
# Coordination Sequence:
#
# PCOD9440362 Si02
#       5
#     8   8   8   8   8
#     4  12  27  49  78 117 163 206 258 327 403 470
#     4  12  27  48  76 110 155 210 261 323 396 477
#     4  12  28  48  79 115 156 204 267 336 398 470
#     4  12  26  50  79 110 153 207 269 324 388 482
#     4  12  26  51  81 116 156 212 264 321 394 480
#
# _framework density 23.559996000000002
#
# number of rings (size 3 to 8) (size 9 to 14) (size 15 to 20)
#    0.000    0.000    4.000    5.400    2.800    2.400 
#    0.000    0.000    0.000    0.000    0.000    0.000 
#    0.000    0.000    0.000    0.000    0.000    0.000 
#
# Total GULP energy -224288.273087 kJ/mol
# GULP energy per Si atom -5607.206827 kJ/mol
# Density = 2.350637 g / cm^3
# Si number density = 23.559996 Si / 1000 Ang^3
#
#
#
# Elastic Constant Matrix: (Units=GPa)
#
#
# Indices 1 2 3 4 5 6 
#
# 1 98.7564 55.2784 34.1181 0.0000 0.0000 0.0000
# 2 55.2784 177.8441 68.7583 0.0000 0.0000 0.0000
# 3 34.1181 68.7583 205.6814 0.0000 0.0000 0.0000
# 4 0.0000 0.0000 0.0000 22.4903 0.0000 0.0000
# 5 0.0000 0.0000 0.0000 0.0000 32.2592 0.0000
# 6 0.0000 0.0000 0.0000 0.0000 0.0000 31.1760
#
#
#
# Elastic Compliance Matrix: (Units=1/GPa)
#
#
# Indices 1 2 3 4 5 6 
#
# 1 0.012397 -0.003512 -0.000882 0.000000 0.000000 0.000000
# 2 -0.003512 0.007453 -0.001909 0.000000 0.000000 0.000000
# 3 -0.000882 -0.001909 0.005646 0.000000 0.000000 0.000000
# 4 0.000000 0.000000 0.000000 0.044464 0.000000 0.000000
# 5 0.000000 0.000000 0.000000 0.000000 0.030999 0.000000
# 6 0.000000 0.000000 0.000000 0.000000 0.000000 0.032076
#
#
# Mechanical properties :
#
#
# Convention : Reuss Voigt Hill
#
# Bulk Modulus (GPa) = 77.58407 88.73239 83.15823
# Shear Modulus (GPa) = 33.34747 38.79358 36.07053
#
# Velocity S-wave (km/s) = 3.76630 4.06222 3.91705
# Velocity P-wave (km/s) = 7.20522 7.72957 7.47200
#
# Compressibility (1/GPa) = 0.01288924
#
# Stress axis : x y z
#
# Youngs Moduli (GPa) = 80.66732 134.18295 177.10632
#
# Poissons Ratio (x) = 0.47126 0.15625
# Poissons Ratio (y) = 0.28331 0.33805
# Poissons Ratio (z) = 0.07117 0.25612
#
# Static dielectric constant tensor:
#      x y z
#    x 1.934970 0.000000 0.000000 
#    y 0.000000 1.883350 0.000000 
#    z 0.000000 0.000000 1.890900 
# 
# From -- ./inp_files/19991.got.cif
#   From: 2010.05.17/outbox.cif.g08.bks.cpg/sg57_10_cif.got.tgz:19991.got - 2010.06.03 13:58:18.
