data_PCOD9440733
_publ_section_title
;
Structure prediction by ZEFSAII (Michael W. Deem and Ramdas Pophale) SiO2 
 PCOD9440733
Probable space group: P N N M
;
_chemical_formula_sum "Si O2"
_cell_formula_units_Z 56
_cell_length_a 18.097392
_cell_length_b 23.266619
_cell_length_c 8.990521
_cell_angle_alpha 90.000000
_cell_angle_beta 90.000000
_cell_angle_gamma 90.000000
_cell_volume 3785.594845
_symmetry_space_group_name_H-M "P N N M"
_symmetry_group_IT_number 58
_symmetry_cell_setting 'orthorhombic'
loop_
_space_group_symop_operation_xyz
x,y,z
-x,-y,z
1/2+x,1/2-y,1/2-z
1/2-x,1/2+y,1/2-z
-x,-y,-z
x,y,-z
1/2-x,1/2+y,1/2+z
1/2+x,1/2-y,1/2+z
loop_
_atom_site_type_symbol
_atom_site_label
_atom_site_fract_x
_atom_site_fract_y
_atom_site_fract_z
Si Si1 0.919949 0.276677 0.322752
Si Si2 0.376101 0.345116 0.319896
Si Si3 0.499083 0.565523 0.318958
Si Si4 0.926192 0.719686 0.823935
Si Si5 0.276438 0.183835 0.671546
Si Si6 0.630122 0.349379 0.321719
Si Si7 0.217459 0.315852 0.671303
O O1 0.918207 0.274711 0.500000
O O2 0.905802 0.212798 0.256320
O O3 0.852871 0.315406 0.260956
O O4 0.999592 0.295782 0.262903
O O5 0.380202 0.336848 0.500000
O O6 0.428302 0.398035 0.278147
O O7 0.289471 0.352155 0.282471
O O8 0.500000 0.500000 0.266216
O O9 0.497566 0.564518 0.500000
O O10 0.427016 0.601643 0.272504
O O11 0.906319 0.786783 0.791420
O O12 0.855086 0.683561 0.771493
O O13 0.937789 0.714733 0.000000
O O14 0.288375 0.168342 0.500000
O O15 0.209590 0.148589 0.744084
O O16 0.247812 0.250152 0.675049
O O17 0.639813 0.352753 0.500000
O O18 0.198424 0.328996 0.500000
#
# Coordination Sequence:
#
# PCOD9440733 Si02
#       7
#     8   8   8   8   8   8   8
#     4  11  19  26  40  61  84 110 141 172 209 255
#     4   9  16  29  43  58  82 112 144 179 214 247
#     4   9  16  27  45  66  86 113 150 186 216 246
#     4  10  17  26  40  58  83 111 140 172 208 251
#     4   9  17  28  41  57  80 109 140 172 211 255
#     4   9  16  27  42  59  82 111 145 180 212 247
#     4   8  15  25  38  56  79 106 138 172 207 249
#
# _framework density 14.792918999999999
#
# number of rings (size 3 to 8) (size 9 to 14) (size 15 to 20)
#    0.000    2.714    1.429    3.000    0.000    4.000 
#    0.000    0.000    0.000    1.714    0.000    0.000 
#    0.000    1.143    0.000   13.429    0.000    2.571 
#
# Total GULP energy -311886.642088 kJ/mol
# GULP energy per Si atom -5569.404323 kJ/mol
# Density = 1.475925 g / cm^3
# Si number density = 14.792919 Si / 1000 Ang^3
#
#
#
# Elastic Constant Matrix: (Units=GPa)
#
#
# Indices 1 2 3 4 5 6 
#
# 1 151.7511 48.9040 59.5859 0.0000 0.0000 0.0000
# 2 48.9040 52.7946 15.6004 0.0000 0.0000 0.0000
# 3 59.5859 15.6004 53.7649 0.0000 0.0000 0.0000
# 4 0.0000 0.0000 0.0000 8.1568 0.0000 0.0000
# 5 0.0000 0.0000 0.0000 0.0000 26.9230 0.0000
# 6 0.0000 0.0000 0.0000 0.0000 0.0000 13.0097
#
#
#
# Elastic Compliance Matrix: (Units=1/GPa)
#
#
# Indices 1 2 3 4 5 6 
#
# 1 0.015383 -0.010076 -0.014125 0.000000 0.000000 0.000000
# 2 -0.010076 0.027317 0.003240 0.000000 0.000000 0.000000
# 3 -0.014125 0.003240 0.033314 0.000000 0.000000 0.000000
# 4 0.000000 0.000000 0.000000 0.122598 0.000000 0.000000
# 5 0.000000 0.000000 0.000000 0.000000 0.037143 0.000000
# 6 0.000000 0.000000 0.000000 0.000000 0.000000 0.076865
#
#
# Mechanical properties :
#
#
# Convention : Reuss Voigt Hill
#
# Bulk Modulus (GPa) = 29.33173 56.27679 42.80426
# Shear Modulus (GPa) = 13.66476 18.56591 16.11533
#
# Velocity S-wave (km/s) = 3.04260 3.54652 3.30418
# Velocity P-wave (km/s) = 5.67578 7.40919 6.59964
#
# Compressibility (1/GPa) = 0.03409277
#
# Stress axis : x y z
#
# Youngs Moduli (GPa) = 65.00700 36.60732 30.01779
#
# Poissons Ratio (x) = 0.36884 0.42400
# Poissons Ratio (y) = 0.65498 -0.09726
# Poissons Ratio (z) = 0.91822 -0.11861
#
# Static dielectric constant tensor:
#      x y z
#    x 1.511390 0.000000 0.000000 
#    y 0.000000 1.461950 0.000000 
#    z 0.000000 0.000000 1.493060 
# 
# From -- ./inp_files/8156.got.cif
#   From: 2010.05.17/outbox.cif.g08.bks.cpg/sg58_5_cif.got.tgz:8156.got - 2010.06.03 14:20:14.
