data_PCOD9440368
_publ_section_title
;
Structure prediction by ZEFSAII (Michael W. Deem and Ramdas Pophale) SiO2 
 PCOD9440368
Probable space group: P B C M
;
_chemical_formula_sum "Si O2"
_cell_formula_units_Z 64
_cell_length_a 5.753097
_cell_length_b 17.577965
_cell_length_c 23.749132
_cell_angle_alpha 90.000000
_cell_angle_beta 90.000000
_cell_angle_gamma 90.000000
_cell_volume 2401.695992
_symmetry_space_group_name_H-M "P B C M"
_symmetry_group_IT_number 57
_symmetry_cell_setting 'orthorhombic'
loop_
_space_group_symop_operation_xyz
x,y,z
-x,-y,1/2+z
x,1/2-y,-z
-x,1/2+y,1/2-z
-x,-y,-z
x,y,1/2-z
-x,1/2+y,z
x,1/2-y,1/2+z
loop_
_atom_site_type_symbol
_atom_site_label
_atom_site_fract_x
_atom_site_fract_y
_atom_site_fract_z
Si Si1 0.166491 0.385441 0.813200
Si Si2 0.615587 0.160881 0.984521
Si Si3 0.238263 0.848192 0.315278
Si Si4 0.530384 0.502640 0.809048
Si Si5 0.884918 0.663092 0.520920
Si Si6 0.631477 0.480393 0.933427
Si Si7 0.258506 0.210762 0.817810
Si Si8 0.884855 0.535994 0.431186
O O1 0.056266 0.392981 0.750000
O O2 0.424731 0.418662 0.805788
O O3 0.185085 0.297615 0.829154
O O4 0.087948 0.435748 0.866476
O O5 0.860263 0.151106 0.952546
O O6 0.624696 0.106036 0.040493
O O7 0.369841 0.145885 0.953416
O O8 0.609732 0.250000 0.000000
O O9 0.221236 0.821695 0.250000
O O10 0.476569 0.807509 0.338301
O O11 0.972487 0.836424 0.336671
O O12 0.321162 0.935954 0.313624
O O13 0.654139 0.521302 0.750000
O O14 0.651702 0.500241 0.867913
O O15 0.881323 0.750000 0.500000
O O16 0.880624 0.615210 0.463686
O O17 0.886149 0.508459 0.951112
O O18 0.363205 0.503582 0.944644
O O19 0.276453 0.201465 0.750000
#
# Coordination Sequence:
#
# PCOD9440368 Si02
#       8
#     8   8   8   8   8   8   8   8
#     4   9  18  31  47  67  91 121 155 190 228 267
#     4   8  13  22  36  53  76 109 137 164 209 264
#     4   9  18  32  47  62  83 115 154 190 223 263
#     4   9  18  31  47  67  91 121 155 190 228 267
#     4   8  13  22  36  53  76 109 137 164 209 264
#     4   9  17  27  39  59  86 114 140 176 219 263
#     4   9  18  32  47  62  83 115 154 190 223 263
#     4   9  17  27  39  59  86 114 140 176 219 263
#
# _framework density 26.647836000000002
#
# number of rings (size 3 to 8) (size 9 to 14) (size 15 to 20)
#    0.000    3.250    0.000    0.000    0.000    4.500 
#    0.000    7.500    0.000    0.000    0.000    0.000 
#    0.000    0.000    0.000  171.000    0.000    4.750 
#
# Total GULP energy -356456.796355 kJ/mol
# GULP energy per Si atom -5569.637443 kJ/mol
# Density = 2.658718 g / cm^3
# Si number density = 26.647836 Si / 1000 Ang^3
#
#
#
# Elastic Constant Matrix: (Units=GPa)
#
#
# Indices 1 2 3 4 5 6 
#
# 1 265.5038 41.0797 21.7925 0.0000 0.0000 0.0000
# 2 41.0797 101.7566 46.2914 0.0000 0.0000 0.0000
# 3 21.7925 46.2914 90.8621 0.0000 0.0000 0.0000
# 4 0.0000 0.0000 0.0000 12.8366 0.0000 0.0000
# 5 0.0000 0.0000 0.0000 0.0000 -12.8468 0.0000
# 6 0.0000 0.0000 0.0000 0.0000 0.0000 24.0096
#
#
#
# Elastic Compliance Matrix: (Units=1/GPa)
#
#
# Indices 1 2 3 4 5 6 
#
# 1 0.004020 -0.001541 -0.000179 0.000000 0.000000 0.000000
# 2 -0.001541 0.013383 -0.006449 0.000000 0.000000 0.000000
# 3 -0.000179 -0.006449 0.014334 0.000000 0.000000 0.000000
# 4 0.000000 0.000000 0.000000 0.077902 0.000000 0.000000
# 5 0.000000 0.000000 0.000000 0.000000 -0.077840 0.000000
# 6 0.000000 0.000000 0.000000 0.000000 0.000000 0.041650
#
#
# Mechanical properties :
#
#
# Convention : Reuss Voigt Hill
#
# Bulk Modulus (GPa) = 64.93863 75.16106 70.04984
# Shear Modulus (GPa) = 52.67623 28.06381 40.37002
#
# Velocity S-wave (km/s) = 4.45089 3.24873 3.89645
# Velocity P-wave (km/s) = 7.12994 6.50683 6.82550
#
# Compressibility (1/GPa) = 0.01539915
#
# Stress axis : x y z
#
# Youngs Moduli (GPa) = 248.78162 74.72000 69.76443
#
# Poissons Ratio (x) = 0.11517 0.01247
# Poissons Ratio (y) = 0.38347 0.44989
# Poissons Ratio (z) = 0.04447 0.48184
#
# Static dielectric constant tensor:
#      x y z
#    x 2.125760 0.000000 0.000000 
#    y 0.000000 2.101960 0.000000 
#    z 0.000000 0.000000 2.344130 
# 
# From -- ./inp_files/29268.got.cif
#   From: 2010.05.17/outbox.cif.g08.bks.cpg/sg57_15_cif.got.tgz:29268.got - 2010.06.03 13:58:18.
