data_PCOD9440297
_publ_section_title
;
Structure prediction by ZEFSAII (Michael W. Deem and Ramdas Pophale) SiO2 
 PCOD9440297
Probable space group: P B C M
;
_chemical_formula_sum "Si O2"
_cell_formula_units_Z 32
_cell_length_a 5.013234
_cell_length_b 9.070433
_cell_length_c 24.920035
_cell_angle_alpha 90.000000
_cell_angle_beta 90.000000
_cell_angle_gamma 90.000000
_cell_volume 1133.168893
_symmetry_space_group_name_H-M "P B C M"
_symmetry_group_IT_number 57
_symmetry_cell_setting 'orthorhombic'
loop_
_space_group_symop_operation_xyz
x,y,z
-x,-y,1/2+z
x,1/2-y,-z
-x,1/2+y,1/2-z
-x,-y,-z
x,y,1/2-z
-x,1/2+y,z
x,1/2-y,1/2+z
loop_
_atom_site_type_symbol
_atom_site_label
_atom_site_fract_x
_atom_site_fract_y
_atom_site_fract_z
Si Si1 0.170620 0.667192 0.250000
Si Si2 0.260740 0.121819 0.592714
Si Si3 0.530659 0.065911 0.750000
Si Si4 0.149441 0.406739 0.655304
Si Si5 0.104744 0.750000 0.500000
Si Si6 0.500000 0.000000 0.000000
O O1 0.234557 0.494243 0.250000
O O2 0.017658 0.695315 0.196244
O O3 0.437580 0.760868 0.250000
O O4 0.298929 0.279159 0.621883
O O5 0.100251 0.168271 0.539008
O O6 0.071158 0.007806 0.624803
O O7 0.529815 0.062634 0.564138
O O8 0.663836 0.003445 0.804948
O O9 0.295117 0.875967 0.521778
#
# Coordination Sequence:
#
# PCOD9440297 Si02
#       6
#     4   8   4   8   4   4
#     4  11  26  46  75 123 151 203 258 322 399 518
#     4  12  26  51  72 112 154 213 264 339 395 466
#     4  11  26  46  75 117 153 195 260 314 395 516
#     4  11  26  49  77 106 162 203 253 329 410 469
#     4  12  28  48  72 108 154 198 274 334 384 474
#     4  12  28  46  76 106 148 208 270 318 404 474
#
# _framework density 28.23939
#
# number of rings (size 3 to 8) (size 9 to 14) (size 15 to 20)
#    0.000    0.500    5.000    1.500    7.000    4.000 
#    0.000    0.000    0.000    0.000    0.000    0.000 
#    0.000    0.000    0.000    0.000    0.000    0.000 
#
# Total GULP energy -178365.569860 kJ/mol
# GULP energy per Si atom -5573.924058 kJ/mol
# Density = 2.817512 g / cm^3
# Si number density = 28.239390 Si / 1000 Ang^3
#
#
#
# Elastic Constant Matrix: (Units=GPa)
#
#
# Indices 1 2 3 4 5 6 
#
# 1 23.8490 0.0795 -12.4973 0.0000 0.0000 0.0000
# 2 0.0795 119.0294 42.4739 0.0000 0.0000 0.0000
# 3 -12.4973 42.4739 139.0043 0.0000 0.0000 0.0000
# 4 0.0000 0.0000 0.0000 24.5881 0.0000 0.0000
# 5 0.0000 0.0000 0.0000 0.0000 54.0773 0.0000
# 6 0.0000 0.0000 0.0000 0.0000 0.0000 28.0921
#
#
#
# Elastic Compliance Matrix: (Units=1/GPa)
#
#
# Indices 1 2 3 4 5 6 
#
# 1 0.044283 -0.001628 0.004479 0.000000 0.000000 0.000000
# 2 -0.001628 0.009489 -0.003046 0.000000 0.000000 0.000000
# 3 0.004479 -0.003046 0.008527 0.000000 0.000000 0.000000
# 4 0.000000 0.000000 0.000000 0.040670 0.000000 0.000000
# 5 0.000000 0.000000 0.000000 0.000000 0.018492 0.000000
# 6 0.000000 0.000000 0.000000 0.000000 0.000000 0.035597
#
#
# Mechanical properties :
#
#
# Convention : Reuss Voigt Hill
#
# Bulk Modulus (GPa) = 16.15258 37.99944 27.07601
# Shear Modulus (GPa) = 28.07647 38.13995 33.10821
#
# Velocity S-wave (km/s) = 3.15656 3.67903 3.42777
# Velocity P-wave (km/s) = 4.36090 5.61537 5.02742
#
# Compressibility (1/GPa) = 0.06190960
#
# Stress axis : x y z
#
# Youngs Moduli (GPa) = 22.58211 105.38247 117.26943
#
# Poissons Ratio (x) = 0.17153 -0.52521
# Poissons Ratio (y) = 0.03676 0.35719
# Poissons Ratio (z) = -0.10114 0.32098
#
# Static dielectric constant tensor:
#      x y z
#    x 2.546840 0.000000 0.000000 
#    y 0.000000 1.354040 0.000000 
#    z 0.000000 0.000000 2.324710 
# 
# From -- ./inp_files/29004.got.cif
#   From: 2010.05.17/outbox.cif.g08.bks.cpg/sg57_15_cif.got.tgz:29004.got - 2010.06.03 13:58:18.
