data_PCOD9440919
_publ_section_title
;
Structure prediction by ZEFSAII (Michael W. Deem and Ramdas Pophale) SiO2 
 PCOD9440919
Probable space group: P N N M
;
_chemical_formula_sum "Si O2"
_cell_formula_units_Z 48
_cell_length_a 16.940590
_cell_length_b 12.810899
_cell_length_c 14.151965
_cell_angle_alpha 90.000000
_cell_angle_beta 90.000000
_cell_angle_gamma 90.000000
_cell_volume 3071.318706
_symmetry_space_group_name_H-M "P N N M"
_symmetry_group_IT_number 58
_symmetry_cell_setting 'orthorhombic'
loop_
_space_group_symop_operation_xyz
x,y,z
-x,-y,z
1/2+x,1/2-y,1/2-z
1/2-x,1/2+y,1/2-z
-x,-y,-z
x,y,-z
1/2-x,1/2+y,1/2+z
1/2+x,1/2-y,1/2+z
loop_
_atom_site_type_symbol
_atom_site_label
_atom_site_fract_x
_atom_site_fract_y
_atom_site_fract_z
Si Si1 0.500073 0.682043 0.276645
Si Si2 0.210627 0.319187 0.108229
Si Si3 0.835409 0.068130 0.264620
Si Si4 0.532029 0.114539 0.610221
Si Si5 0.572299 0.416670 0.893412
Si Si6 0.642490 0.412493 0.610111
O O1 0.585932 0.633260 0.261187
O O2 0.502182 0.795455 0.323010
O O3 0.455969 0.675490 0.175485
O O4 0.443640 0.611166 0.343920
O O5 0.270451 0.359628 0.186965
O O6 0.126856 0.378225 0.117724
O O7 0.189300 0.196907 0.118560
O O8 0.240010 0.335479 0.000000
O O9 0.858431 0.980241 0.342324
O O10 0.816077 0.002908 0.170463
O O11 0.512900 0.138293 0.500000
O O12 0.500000 0.000000 0.632208
O O13 0.500000 0.500000 0.895667
O O14 0.590362 0.385240 0.000000
O O15 0.634568 0.437922 0.500000
#
# Coordination Sequence:
#
# PCOD9440919 Si02
#       6
#     8   8   8   8   8   8
#     4   9  17  28  46  71  93 119 155 192 234 280
#     4   9  18  32  48  67  94 125 156 192 231 274
#     4  10  18  27  47  74  93 117 153 194 237 275
#     4   9  18  33  51  68  90 125 164 196 229 275
#     4   8  14  25  41  64  92 117 146 184 224 271
#     4   9  18  32  48  68  97 128 154 187 235 285
#
# _framework density 15.628466
#
# number of rings (size 3 to 8) (size 9 to 14) (size 15 to 20)
#    0.000    3.000    0.000    3.500    0.000    4.000 
#    0.000    0.000    0.000   10.500    0.000    0.000 
#    0.000    0.000    0.000    0.000    0.000    0.000 
#
# Total GULP energy -267239.553453 kJ/mol
# GULP energy per Si atom -5567.490697 kJ/mol
# Density = 1.559290 g / cm^3
# Si number density = 15.628466 Si / 1000 Ang^3
#
#
#
# Elastic Constant Matrix: (Units=GPa)
#
#
# Indices 1 2 3 4 5 6 
#
# 1 50.7797 37.6350 44.7911 0.0000 0.0000 0.0000
# 2 37.6350 80.9128 64.0941 0.0000 0.0000 0.0000
# 3 44.7911 64.0941 140.9238 0.0000 0.0000 0.0000
# 4 0.0000 0.0000 0.0000 31.7081 0.0000 0.0000
# 5 0.0000 0.0000 0.0000 0.0000 20.7102 0.0000
# 6 0.0000 0.0000 0.0000 0.0000 0.0000 13.1336
#
#
#
# Elastic Compliance Matrix: (Units=1/GPa)
#
#
# Indices 1 2 3 4 5 6 
#
# 1 0.032483 -0.010833 -0.005397 0.000000 0.000000 0.000000
# 2 -0.010833 0.022932 -0.006987 0.000000 0.000000 0.000000
# 3 -0.005397 -0.006987 0.011989 0.000000 0.000000 0.000000
# 4 0.000000 0.000000 0.000000 0.031538 0.000000 0.000000
# 5 0.000000 0.000000 0.000000 0.000000 0.048285 0.000000
# 6 0.000000 0.000000 0.000000 0.000000 0.000000 0.076141
#
#
# Mechanical properties :
#
#
# Convention : Reuss Voigt Hill
#
# Bulk Modulus (GPa) = 47.68781 62.85075 55.26928
# Shear Modulus (GPa) = 18.06411 21.51679 19.79045
#
# Velocity S-wave (km/s) = 3.40346 3.71451 3.56238
# Velocity P-wave (km/s) = 6.78413 7.66157 7.23616
#
# Compressibility (1/GPa) = 0.02096972
#
# Stress axis : x y z
#
# Youngs Moduli (GPa) = 30.78573 43.60654 83.40938
#
# Poissons Ratio (x) = 0.47241 0.45016
# Poissons Ratio (y) = 0.33351 0.58275
# Poissons Ratio (z) = 0.16615 0.30466
#
# Static dielectric constant tensor:
#      x y z
#    x 1.516660 0.000000 0.000000 
#    y 0.000000 1.513040 0.000000 
#    z 0.000000 0.000000 1.538880 
# 
# From -- ./inp_files/15605.got.cif
#   From: 2010.05.17/outbox.cif.g08.bks.cpg/sg58_8_cif.got.tgz:15605.got - 2010.06.03 14:20:14.
