data_PCOD9440606
_publ_section_title
;
Structure prediction by ZEFSAII (Michael W. Deem and Ramdas Pophale) SiO2 
 PCOD9440606
Probable space group: P B C M
;
_chemical_formula_sum "Si O2"
_cell_formula_units_Z 48
_cell_length_a 12.000000
_cell_length_b 12.000000
_cell_length_c 18.000000
_cell_angle_alpha 90.000000
_cell_angle_beta 90.000000
_cell_angle_gamma 90.000000
_cell_volume 2592.000000
_symmetry_space_group_name_H-M "P B C M"
_symmetry_group_IT_number 57
_symmetry_cell_setting 'orthorhombic'
loop_
_space_group_symop_operation_xyz
x,y,z
-x,-y,1/2+z
x,1/2-y,-z
-x,1/2+y,1/2-z
-x,-y,-z
x,y,1/2-z
-x,1/2+y,z
x,1/2-y,1/2+z
loop_
_atom_site_type_symbol
_atom_site_label
_atom_site_fract_x
_atom_site_fract_y
_atom_site_fract_z
Si Si1 0.344302 0.471335 0.583204
Si Si2 0.394811 0.486399 0.093974
Si Si3 0.268468 0.225973 0.917350
Si Si4 0.834552 0.124991 0.662574
Si Si5 0.054983 0.058113 0.926092
Si Si6 0.795899 0.112634 0.164297
O O1 0.474228 0.490934 0.603814
O O2 0.353592 0.486205 0.492903
O O3 0.287394 0.353361 0.610749
O O4 0.264154 0.563640 0.618476
O O5 0.348809 0.365305 0.120654
O O6 0.326871 0.580268 0.137136
O O7 0.147037 0.162083 0.928440
O O8 0.312109 0.250000 0.000000
O O9 0.834335 0.094227 0.750000
O O10 0.817767 0.257187 0.656935
O O11 0.951604 0.095673 0.624138
O O12 0.121853 0.959611 0.886054
O O13 0.000000 0.000000 0.000000
O O14 0.810898 0.080155 0.250000
#
# Coordination Sequence:
#
# PCOD9440606 Si02
#       6
#     8   8   8   8   8   8
#     4  10  21  38  62  93 122 154 204 257 301 359
#     4   9  20  38  64  90 119 159 199 253 306 355
#     4   9  19  36  58  91 120 148 198 250 304 360
#     4  11  25  40  59  88 126 163 202 247 304 371
#     4  11  23  39  65  89 118 163 205 259 305 358
#     4  10  23  42  60  86 124 163 203 247 303 370
#
# _framework density 18.518519000000001
#
# number of rings (size 3 to 8) (size 9 to 14) (size 15 to 20)
#    0.000    2.000    0.000    3.500    7.000    2.667 
#    0.000    3.333    0.000    0.000    0.000    0.000 
#    0.000    0.000    0.000    0.000    0.000    0.000 
#
# Total GULP energy -267204.622029 kJ/mol
# GULP energy per Si atom -5566.762959 kJ/mol
# Density = 1.847637 g / cm^3
# Si number density = 18.518519 Si / 1000 Ang^3
#
#
#
# Elastic Constant Matrix: (Units=GPa)
#
#
# Indices 1 2 3 4 5 6 
#
# 1 117.2618 47.4738 38.4476 0.0000 0.0000 0.0000
# 2 47.4738 89.7489 44.0125 0.0000 0.0000 0.0000
# 3 38.4476 44.0125 50.2869 0.0000 0.0000 0.0000
# 4 0.0000 0.0000 0.0000 29.0443 0.0000 0.0000
# 5 0.0000 0.0000 0.0000 0.0000 16.2638 0.0000
# 6 0.0000 0.0000 0.0000 0.0000 0.0000 25.8453
#
#
#
# Elastic Compliance Matrix: (Units=1/GPa)
#
#
# Indices 1 2 3 4 5 6 
#
# 1 0.011886 -0.003207 -0.006280 0.000000 0.000000 0.000000
# 2 -0.003207 0.020386 -0.015390 0.000000 0.000000 0.000000
# 3 -0.006280 -0.015390 0.038158 0.000000 0.000000 0.000000
# 4 0.000000 0.000000 0.000000 0.034430 0.000000 0.000000
# 5 0.000000 0.000000 0.000000 0.000000 0.061486 0.000000
# 6 0.000000 0.000000 0.000000 0.000000 0.000000 0.038692
#
#
# Mechanical properties :
#
#
# Convention : Reuss Voigt Hill
#
# Bulk Modulus (GPa) = 48.37078 57.46282 52.91680
# Shear Modulus (GPa) = 19.10702 22.72159 20.91430
#
# Velocity S-wave (km/s) = 3.21562 3.50661 3.36426
# Velocity P-wave (km/s) = 6.32170 6.89147 6.61272
#
# Compressibility (1/GPa) = 0.02067364
#
# Stress axis : x y z
#
# Youngs Moduli (GPa) = 84.13601 49.05315 26.20716
#
# Poissons Ratio (x) = 0.15732 0.16459
# Poissons Ratio (y) = 0.26984 0.40334
# Poissons Ratio (z) = 0.52839 0.75494
#
# Static dielectric constant tensor:
#      x y z
#    x 1.650970 0.000000 0.000000 
#    y 0.000000 1.688690 0.000000 
#    z 0.000000 0.000000 1.656940 
# 
# From -- ./inp_files/21848.got.cif
#   From: 2010.05.17/outbox.ucp.g08.bks.cvg/sg57_11_cif.got.tgz:21848.got - 2010.06.11 16:39:23.
