data_PCOD9440481
_publ_section_title
;
Structure prediction by ZEFSAII (Michael W. Deem and Ramdas Pophale) SiO2 
 PCOD9440481
Probable space group: P B C M
;
_chemical_formula_sum "Si O2"
_cell_formula_units_Z 64
_cell_length_a 15.000000
_cell_length_b 12.000000
_cell_length_c 18.000000
_cell_angle_alpha 90.000000
_cell_angle_beta 90.000000
_cell_angle_gamma 90.000000
_cell_volume 3240.000000
_symmetry_space_group_name_H-M "P B C M"
_symmetry_group_IT_number 57
_symmetry_cell_setting 'orthorhombic'
loop_
_space_group_symop_operation_xyz
x,y,z
-x,-y,1/2+z
x,1/2-y,-z
-x,1/2+y,1/2-z
-x,-y,-z
x,y,1/2-z
-x,1/2+y,z
x,1/2-y,1/2+z
loop_
_atom_site_type_symbol
_atom_site_label
_atom_site_fract_x
_atom_site_fract_y
_atom_site_fract_z
Si Si1 0.183624 0.565373 0.163130
Si Si2 0.239297 0.969241 0.334618
Si Si3 0.097742 0.165428 0.837604
Si Si4 0.278263 0.215371 0.340153
Si Si5 0.375087 0.683528 0.603925
Si Si6 0.096716 0.696096 0.659695
Si Si7 0.341787 0.575400 0.052639
Si Si8 0.571501 0.839016 0.432703
O O1 0.215897 0.562888 0.250000
O O2 0.111649 0.467044 0.157646
O O3 0.145656 0.687423 0.146725
O O4 0.256546 0.540858 0.100734
O O5 0.214626 0.997931 0.250000
O O6 0.275215 0.086020 0.365337
O O7 0.314218 0.873439 0.334764
O O8 0.153471 0.908782 0.369423
O O9 0.094768 0.194068 0.750000
O O10 0.185165 0.228842 0.864942
O O11 0.003146 0.198723 0.870346
O O12 0.286964 0.222798 0.250000
O O13 0.357108 0.283359 0.378143
O O14 0.332330 0.630317 0.528585
O O15 0.376983 0.817362 0.599320
O O16 0.476656 0.646934 0.606448
O O17 0.093210 0.684658 0.750000
O O18 0.398504 0.462906 0.043916
O O19 0.559616 0.750000 0.500000
#
# Coordination Sequence:
#
# PCOD9440481 Si02
#       8
#     8   8   8   8   8   8   8   8
#     4  10  19  35  59  88 119 151 193 240 284 338
#     4  10  21  38  58  86 120 152 191 238 290 345
#     4   9  18  33  54  85 118 150 189 234 281 334
#     4  10  22  38  57  85 120 152 186 236 293 340
#     4  11  24  39  61  84 112 151 195 240 291 343
#     4   9  18  31  55  85 115 153 190 229 281 336
#     4  11  22  39  60  85 114 150 197 240 289 337
#     4  12  24  40  63  83 113 151 197 238 285 352
#
# _framework density 19.753086
#
# number of rings (size 3 to 8) (size 9 to 14) (size 15 to 20)
#    0.000    1.750    3.750    1.125    3.500    0.500 
#    0.000    0.000    0.000    2.250    0.000    0.000 
#    0.000    0.000    0.000    0.000    0.000    0.000 
#
# Total GULP energy -356594.037595 kJ/mol
# GULP energy per Si atom -5571.781837 kJ/mol
# Density = 1.970813 g / cm^3
# Si number density = 19.753086 Si / 1000 Ang^3
#
#
#
# Elastic Constant Matrix: (Units=GPa)
#
#
# Indices 1 2 3 4 5 6 
#
# 1 95.3922 4.5070 17.9316 0.0000 0.0000 0.0000
# 2 4.5070 91.1330 4.2128 0.0000 0.0000 0.0000
# 3 17.9316 4.2128 -0.3908 0.0000 0.0000 0.0000
# 4 0.0000 0.0000 0.0000 14.5331 0.0000 0.0000
# 5 0.0000 0.0000 0.0000 0.0000 -518.3572 0.0000
# 6 0.0000 0.0000 0.0000 0.0000 0.0000 16.9152
#
#
#
# Elastic Compliance Matrix: (Units=1/GPa)
#
#
# Indices 1 2 3 4 5 6 
#
# 1 0.001583 -0.002294 0.047922 0.000000 0.000000 0.000000
# 2 -0.002294 0.010646 0.009526 0.000000 0.000000 0.000000
# 3 0.047922 0.009526 -0.257327 0.000000 0.000000 0.000000
# 4 0.000000 0.000000 0.000000 0.068808 0.000000 0.000000
# 5 0.000000 0.000000 0.000000 0.000000 -0.001929 0.000000
# 6 0.000000 0.000000 0.000000 0.000000 0.000000 0.059118
#
#
# Mechanical properties :
#
#
# Convention : Reuss Voigt Hill
#
# Bulk Modulus (GPa) = -7.41892 26.60415 9.59262
# Shear Modulus (GPa) = -18.22573 -86.74957 -52.48765
#
# Velocity S-wave (km/s) = -3.04086 -6.63418 -5.16038
# Velocity P-wave (km/s) = 4.01161 6.72202 5.53528
#
# Compressibility (1/GPa) = -0.13479052
#
# Stress axis : x y z
#
# Youngs Moduli (GPa) = 631.62204 93.93148 -3.88611
#
# Poissons Ratio (x) = 0.21544 0.18623
# Poissons Ratio (y) = 1.44868 0.03702
# Poissons Ratio (z) = -30.26833 -0.89475
#
# Static dielectric constant tensor:
#      x y z
#    x 1.721450 0.000000 0.000000 
#    y 0.000000 1.702540 0.000000 
#    z 0.000000 0.000000 1.724150 
# 
# From -- ./inp_files/22659.got.cif
#   From: 2010.05.17/outbox.ucp.g08.bks.cvg/sg57_12_cif.got.tgz:22659.got - 2010.06.11 16:39:23.
