data_PCOD9440405
_publ_section_title
;
Structure prediction by ZEFSAII (Michael W. Deem and Ramdas Pophale) SiO2 
 PCOD9440405
Probable space group: P B C M
;
_chemical_formula_sum "Si O2"
_cell_formula_units_Z 64
_cell_length_a 15.000000
_cell_length_b 24.000000
_cell_length_c 9.000000
_cell_angle_alpha 90.000000
_cell_angle_beta 90.000000
_cell_angle_gamma 90.000000
_cell_volume 3240.000000
_symmetry_space_group_name_H-M "P B C M"
_symmetry_group_IT_number 57
_symmetry_cell_setting 'orthorhombic'
loop_
_space_group_symop_operation_xyz
x,y,z
-x,-y,1/2+z
x,1/2-y,-z
-x,1/2+y,1/2-z
-x,-y,-z
x,y,1/2-z
-x,1/2+y,z
x,1/2-y,1/2+z
loop_
_atom_site_type_symbol
_atom_site_label
_atom_site_fract_x
_atom_site_fract_y
_atom_site_fract_z
Si Si1 0.074629 0.370235 0.070905
Si Si2 0.894422 0.104653 0.070724
Si Si3 0.867321 0.513895 0.423594
Si Si4 0.704750 0.128739 0.569179
Si Si5 0.397750 0.107272 0.430093
Si Si6 0.448468 0.692833 0.429010
Si Si7 0.344578 0.508328 0.921092
Si Si8 0.238475 0.308930 0.930007
O O1 0.072507 0.368690 0.250000
O O2 0.105566 0.430862 0.010658
O O3 0.145267 0.326988 0.003207
O O4 0.977442 0.362463 0.998895
O O5 0.894692 0.104986 0.250000
O O6 0.802285 0.127632 0.003030
O O7 0.901052 0.041248 0.007617
O O8 0.897177 0.515314 0.250000
O O9 0.759763 0.509463 0.419978
O O10 0.710646 0.128685 0.750000
O O11 0.645089 0.178010 0.505535
O O12 0.657479 0.070653 0.517016
O O13 0.395739 0.102680 0.250000
O O14 0.483012 0.143654 0.469154
O O15 0.395305 0.044216 0.491139
O O16 0.310408 0.143222 0.469209
O O17 0.482397 0.750000 0.500000
O O18 0.441954 0.696642 0.250000
O O19 0.374384 0.513951 0.750000
O O20 0.232419 0.305772 0.750000
O O21 0.266305 0.250000 0.000000
#
# Coordination Sequence:
#
# PCOD9440405 Si02
#       8
#     8   8   8   8   8   8   8   8
#     4  12  23  36  55  84 118 157 204 247 293 352
#     4  11  22  37  58  86 119 155 198 245 297 353
#     4  10  18  33  56  84 121 161 198 241 293 349
#     4  10  21  39  62  88 121 157 198 247 303 360
#     4   9  18  35  61  90 120 156 196 242 297 357
#     4  11  23  40  63  88 117 154 202 251 299 354
#     4   8  15  31  57  87 120 157 192 233 294 357
#     4  11  22  39  60  84 118 160 203 250 303 357
#
# _framework density 19.753086
#
# number of rings (size 3 to 8) (size 9 to 14) (size 15 to 20)
#    0.000    1.750    1.250    5.250    0.000    0.500 
#    0.000    2.500    0.000    0.000    0.000    0.000 
#    0.000    0.000    0.000    0.000    0.000    0.000 
#
# Total GULP energy -357427.622925 kJ/mol
# GULP energy per Si atom -5584.806608 kJ/mol
# Density = 1.970813 g / cm^3
# Si number density = 19.753086 Si / 1000 Ang^3
#
#
#
# Elastic Constant Matrix: (Units=GPa)
#
#
# Indices 1 2 3 4 5 6 
#
# 1 63.6753 25.3265 23.4700 0.0000 0.0000 0.0000
# 2 25.3265 30.2784 10.6593 0.0000 0.0000 0.0000
# 3 23.4700 10.6593 120.5878 0.0000 0.0000 0.0000
# 4 0.0000 0.0000 0.0000 29.6046 0.0000 0.0000
# 5 0.0000 0.0000 0.0000 0.0000 21.6407 0.0000
# 6 0.0000 0.0000 0.0000 0.0000 0.0000 22.8262
#
#
#
# Elastic Compliance Matrix: (Units=1/GPa)
#
#
# Indices 1 2 3 4 5 6 
#
# 1 0.024583 -0.019485 -0.003062 0.000000 0.000000 0.000000
# 2 -0.019485 0.049531 -0.000586 0.000000 0.000000 0.000000
# 3 -0.003062 -0.000586 0.008941 0.000000 0.000000 0.000000
# 4 0.000000 0.000000 0.000000 0.033779 0.000000 0.000000
# 5 0.000000 0.000000 0.000000 0.000000 0.046209 0.000000
# 6 0.000000 0.000000 0.000000 0.000000 0.000000 0.043809
#
#
# Mechanical properties :
#
#
# Convention : Reuss Voigt Hill
#
# Bulk Modulus (GPa) = 27.18204 37.05034 32.11619
# Shear Modulus (GPa) = 18.84079 25.15334 21.99707
#
# Velocity S-wave (km/s) = 3.09174 3.57233 3.34069
# Velocity P-wave (km/s) = 5.15130 5.98438 5.58340
#
# Compressibility (1/GPa) = 0.03678899
#
# Stress axis : x y z
#
# Youngs Moduli (GPa) = 40.67782 20.18926 111.85023
#
# Poissons Ratio (x) = 0.39338 0.34252
# Poissons Ratio (y) = 0.79260 0.06554
# Poissons Ratio (z) = 0.12457 0.01183
#
# Static dielectric constant tensor:
#      x y z
#    x 1.728690 0.000000 0.000000 
#    y 0.000000 1.721020 0.000000 
#    z 0.000000 0.000000 1.647290 
# 
# From -- ./inp_files/5563.got.cif
#   From: 2010.05.17/outbox.ucp.g08.bks.cvg/sg57_3_cif.got.tgz:5563.got - 2010.06.11 16:39:23.
