data_PCOD9440289
_publ_section_title
;
Structure prediction by ZEFSAII (Michael W. Deem and Ramdas Pophale) SiO2 
 PCOD9440289
Probable space group: P B C M
;
_chemical_formula_sum "Si O2"
_cell_formula_units_Z 40
_cell_length_a 23.691093
_cell_length_b 8.817816
_cell_length_c 9.060980
_cell_angle_alpha 90.000000
_cell_angle_beta 90.000000
_cell_angle_gamma 90.000000
_cell_volume 1892.872238
_symmetry_space_group_name_H-M "P B C M"
_symmetry_group_IT_number 57
_symmetry_cell_setting 'orthorhombic'
loop_
_space_group_symop_operation_xyz
x,y,z
-x,-y,1/2+z
x,1/2-y,-z
-x,1/2+y,1/2-z
-x,-y,-z
x,y,1/2-z
-x,1/2+y,z
x,1/2-y,1/2+z
loop_
_atom_site_type_symbol
_atom_site_label
_atom_site_fract_x
_atom_site_fract_y
_atom_site_fract_z
Si Si1 0.361537 0.250000 0.000000
Si Si2 0.562339 0.222365 0.250000
Si Si3 0.358894 0.750000 0.500000
Si Si4 0.948072 0.086750 0.425090
Si Si5 0.280537 0.010996 0.419407
Si Si6 0.829681 0.584264 0.925705
Si Si7 0.563393 0.906873 0.750000
O O1 0.315950 0.382168 0.031227
O O2 0.402448 0.333546 0.885533
O O3 0.598135 0.168201 0.110282
O O4 0.500124 0.155429 0.250000
O O5 0.562423 0.408630 0.250000
O O6 0.317605 0.639386 0.585935
O O7 0.942185 0.250000 0.500000
O O8 0.958179 0.103106 0.250000
O O9 0.890449 0.992680 0.445619
O O10 0.000000 0.000000 0.500000
O O11 0.277669 0.072003 0.250000
O O12 0.219107 0.992574 0.488750
O O13 0.818326 0.593441 0.750000
O O14 0.829299 0.750000 0.000000
#
# Coordination Sequence:
#
# PCOD9440289 Si02
#       7
#     4   4   4   8   8   8   4
#     4  12  23  46  68  96 131 172 220 278 338 412
#     4  12  28  48  66 100 128 172 221 280 341 422
#     4  12  25  48  68  94 137 168 226 280 350 408
#     4  11  25  46  73 107 147 195 244 294 354 410
#     4  12  26  46  68 101 135 180 231 283 343 417
#     4  11  26  44  70 107 143 187 236 287 345 408
#     4  12  28  46  68  98 132 168 225 276 343 416
#
# _framework density 21.131907999999999
#
# number of rings (size 3 to 8) (size 9 to 14) (size 15 to 20)
#    0.000    0.400    5.000    2.400    7.000    6.400 
#    0.000    0.000    0.000    0.000    0.000    0.000 
#    0.000    0.000    0.000    0.000    0.000    0.000 
#
# Total GULP energy -223448.656972 kJ/mol
# GULP energy per Si atom -5586.216424 kJ/mol
# Density = 2.108381 g / cm^3
# Si number density = 21.131908 Si / 1000 Ang^3
#
#
#
# Elastic Constant Matrix: (Units=GPa)
#
#
# Indices 1 2 3 4 5 6 
#
# 1 174.7190 27.4945 75.9204 0.0000 0.0000 0.0000
# 2 27.4945 46.7178 22.6132 0.0000 0.0000 0.0000
# 3 75.9204 22.6132 107.6982 0.0000 0.0000 0.0000
# 4 0.0000 0.0000 0.0000 30.4012 0.0000 0.0000
# 5 0.0000 0.0000 0.0000 0.0000 33.7910 0.0000
# 6 0.0000 0.0000 0.0000 0.0000 0.0000 36.5957
#
#
#
# Elastic Compliance Matrix: (Units=1/GPa)
#
#
# Indices 1 2 3 4 5 6 
#
# 1 0.008473 -0.002333 -0.005483 0.000000 0.000000 0.000000
# 2 -0.002333 0.024469 -0.003493 0.000000 0.000000 0.000000
# 3 -0.005483 -0.003493 0.013884 0.000000 0.000000 0.000000
# 4 0.000000 0.000000 0.000000 0.032893 0.000000 0.000000
# 5 0.000000 0.000000 0.000000 0.000000 0.029594 0.000000
# 6 0.000000 0.000000 0.000000 0.000000 0.000000 0.027326
#
#
# Mechanical properties :
#
#
# Convention : Reuss Voigt Hill
#
# Bulk Modulus (GPa) = 41.30927 64.57679 52.94303
# Shear Modulus (GPa) = 29.88170 33.69804 31.78987
#
# Velocity S-wave (km/s) = 3.76447 3.99764 3.88281
# Velocity P-wave (km/s) = 6.20369 7.20648 6.72381
#
# Compressibility (1/GPa) = 0.02420764
#
# Stress axis : x y z
#
# Youngs Moduli (GPa) = 118.01949 40.86834 72.02490
#
# Poissons Ratio (x) = 0.09533 0.39493
# Poissons Ratio (y) = 0.27528 0.25161
# Poissons Ratio (z) = 0.64714 0.14277
#
# Static dielectric constant tensor:
#      x y z
#    x 1.717060 0.000000 0.000000 
#    y 0.000000 1.785010 0.000000 
#    z 0.000000 0.000000 1.893810 
# 
# From -- ./inp_files/9042.got.cif
#   From: 2010.05.17/outbox.cif.g08.bks.cpg/sg57_5_cif.got.tgz:9042.got - 2010.06.03 13:58:18.
