data_PCOD9440151
_publ_section_title
;
Structure prediction by ZEFSAII (Michael W. Deem and Ramdas Pophale) SiO2 
 PCOD9440151
Probable space group: P B C M
;
_chemical_formula_sum "Si O2"
_cell_formula_units_Z 52
_cell_length_a 9.537138
_cell_length_b 11.055905
_cell_length_c 28.356973
_cell_angle_alpha 90.000000
_cell_angle_beta 90.000000
_cell_angle_gamma 90.000000
_cell_volume 2990.007205
_symmetry_space_group_name_H-M "P B C M"
_symmetry_group_IT_number 57
_symmetry_cell_setting 'orthorhombic'
loop_
_space_group_symop_operation_xyz
x,y,z
-x,-y,1/2+z
x,1/2-y,-z
-x,1/2+y,1/2-z
-x,-y,-z
x,y,1/2-z
-x,1/2+y,z
x,1/2-y,1/2+z
loop_
_atom_site_type_symbol
_atom_site_label
_atom_site_fract_x
_atom_site_fract_y
_atom_site_fract_z
Si Si1 0.121538 0.398235 0.804058
Si Si2 0.721825 0.250000 0.000000
Si Si3 0.281608 0.103847 0.102796
Si Si4 0.558285 0.050379 0.049534
Si Si5 0.097835 0.119158 0.804461
Si Si6 0.217080 0.378625 0.097380
Si Si7 0.067822 0.939781 0.453990
O O1 0.170363 0.401945 0.750000
O O2 0.244576 0.407908 0.842184
O O3 0.054384 0.262242 0.810802
O O4 0.018150 0.513212 0.810375
O O5 0.624063 0.320397 0.963271
O O6 0.822903 0.159702 0.971917
O O7 0.430261 0.054492 0.085877
O O8 0.273518 0.244392 0.089647
O O9 0.156981 0.036342 0.075324
O O10 0.683544 0.970118 0.069943
O O11 0.500000 0.000000 0.000000
O O12 0.147232 0.109418 0.750000
O O13 0.207886 0.097779 0.846497
O O14 0.059172 0.388482 0.077286
O O15 0.000000 0.000000 0.500000
#
# Coordination Sequence:
#
# PCOD9440151 Si02
#       7
#     8   4   8   8   8   8   8
#     4   9  18  36  61  91 121 153 195 246 301 355
#     4  12  24  38  60  82 120 156 200 248 292 348
#     4  11  23  39  59  86 118 159 195 238 300 357
#     4  12  24  41  57  83 119 164 199 238 295 360
#     4   9  18  34  60  90 120 151 194 249 302 350
#     4  11  23  39  61  86 118 154 197 247 298 349
#     4  12  22  38  58  87 113 150 201 248 290 341
#
# _framework density 17.391262000000001
#
# number of rings (size 3 to 8) (size 9 to 14) (size 15 to 20)
#    0.000    1.231    4.615    1.846    0.000    1.231 
#    0.000    0.769    0.000    0.000    0.000    1.077 
#    0.000    0.000    0.000    0.000    0.000    0.000 
#
# Total GULP energy -290056.914733 kJ/mol
# GULP energy per Si atom -5578.017591 kJ/mol
# Density = 1.735168 g / cm^3
# Si number density = 17.391262 Si / 1000 Ang^3
#
#
#
# Elastic Constant Matrix: (Units=GPa)
#
#
# Indices 1 2 3 4 5 6 
#
# 1 74.6968 24.5061 33.0307 0.0000 0.0000 0.0000
# 2 24.5061 76.4264 40.3646 0.0000 0.0000 0.0000
# 3 33.0307 40.3646 96.3798 0.0000 0.0000 0.0000
# 4 0.0000 0.0000 0.0000 30.3116 0.0000 0.0000
# 5 0.0000 0.0000 0.0000 0.0000 24.8880 0.0000
# 6 0.0000 0.0000 0.0000 0.0000 0.0000 29.4026
#
#
#
# Elastic Compliance Matrix: (Units=1/GPa)
#
#
# Indices 1 2 3 4 5 6 
#
# 1 0.016270 -0.002917 -0.004354 0.000000 0.000000 0.000000
# 2 -0.002917 0.017324 -0.006256 0.000000 0.000000 0.000000
# 3 -0.004354 -0.006256 0.014488 0.000000 0.000000 0.000000
# 4 0.000000 0.000000 0.000000 0.032991 0.000000 0.000000
# 5 0.000000 0.000000 0.000000 0.000000 0.040180 0.000000
# 6 0.000000 0.000000 0.000000 0.000000 0.000000 0.034011
#
#
# Mechanical properties :
#
#
# Convention : Reuss Voigt Hill
#
# Bulk Modulus (GPa) = 47.55686 49.25620 48.40653
# Shear Modulus (GPa) = 26.40949 26.89387 26.65168
#
# Velocity S-wave (km/s) = 3.90108 3.93670 3.91893
# Velocity P-wave (km/s) = 6.90622 7.00338 6.95497
#
# Compressibility (1/GPa) = 0.02102746
#
# Stress axis : x y z
#
# Youngs Moduli (GPa) = 61.46302 57.72416 69.02411
#
# Poissons Ratio (x) = 0.16840 0.30054
# Poissons Ratio (y) = 0.17931 0.43178
# Poissons Ratio (z) = 0.26762 0.36109
#
# Static dielectric constant tensor:
#      x y z
#    x 1.551670 0.000000 0.000000 
#    y 0.000000 1.623300 0.000000 
#    z 0.000000 0.000000 1.600830 
# 
# From -- ./inp_files/28326.got.cif
#   From: 2010.05.17/outbox.cif.g08.bks.cpg/sg57_15_cif.got.tgz:28326.got - 2010.06.03 13:58:18.
