data_PCOD9440452
_publ_section_title
;
Structure prediction by ZEFSAII (Michael W. Deem and Ramdas Pophale) SiO2 
 PCOD9440452
Probable space group: P B C M
;
_chemical_formula_sum "Si O2"
_cell_formula_units_Z 64
_cell_length_a 12.000000
_cell_length_b 30.000000
_cell_length_c 9.000000
_cell_angle_alpha 90.000000
_cell_angle_beta 90.000000
_cell_angle_gamma 90.000000
_cell_volume 3240.000000
_symmetry_space_group_name_H-M "P B C M"
_symmetry_group_IT_number 57
_symmetry_cell_setting 'orthorhombic'
loop_
_space_group_symop_operation_xyz
x,y,z
-x,-y,1/2+z
x,1/2-y,-z
-x,1/2+y,1/2-z
-x,-y,-z
x,y,1/2-z
-x,1/2+y,z
x,1/2-y,1/2+z
loop_
_atom_site_type_symbol
_atom_site_label
_atom_site_fract_x
_atom_site_fract_y
_atom_site_fract_z
Si Si1 0.730011 0.202328 0.424011
Si Si2 0.786130 0.971621 0.420541
Si Si3 0.333968 0.117331 0.925365
Si Si4 0.989609 0.561451 0.417059
Si Si5 0.760899 0.071505 0.424449
Si Si6 0.863188 0.655964 0.083700
Si Si7 0.408659 0.635440 0.922309
Si Si8 0.944021 0.201864 0.575569
O O1 0.722393 0.250000 0.500000
O O2 0.745279 0.206026 0.250000
O O3 0.621574 0.175877 0.470557
O O4 0.838928 0.178595 0.495101
O O5 0.813095 0.961939 0.250000
O O6 0.706200 0.932018 0.470656
O O7 0.903466 0.970942 0.503703
O O8 0.730722 0.019452 0.428583
O O9 0.308100 0.124328 0.750000
O O10 0.464677 0.121609 0.942483
O O11 0.261382 0.150531 0.024819
O O12 0.011358 0.545178 0.250000
O O13 0.919936 0.607276 0.410308
O O14 0.111078 0.572717 0.479263
O O15 0.756920 0.086862 0.250000
O O16 0.675969 0.097512 0.526187
O O17 0.869980 0.675380 0.250000
O O18 0.938979 0.680826 0.965389
O O19 0.389985 0.647468 0.750000
O O20 0.946897 0.250000 0.500000
O O21 0.924514 0.204027 0.750000
#
# Coordination Sequence:
#
# PCOD9440452 Si02
#       8
#     8   8   8   8   8   8   8   8
#     4  11  22  39  62  87 115 143 175 217 268 326
#     4   9  18  33  53  76 105 143 183 226 277 329
#     4   9  20  38  55  74 105 145 190 237 279 323
#     4   9  18  31  49  75 106 138 174 222 275 330
#     4  10  20  33  51  78 111 144 180 226 279 330
#     4  10  19  33  54  79 107 142 184 226 273 326
#     4  11  23  38  56  79 108 145 189 232 276 326
#     4  11  21  35  57  86 118 147 176 214 265 324
#
# _framework density 19.753086
#
# number of rings (size 3 to 8) (size 9 to 14) (size 15 to 20)
#    0.000    2.000    0.000    4.875    0.000    4.000 
#    0.000    0.625    0.000    3.000    0.000    0.000 
#    0.000    0.000    0.000    0.000    0.000    0.000 
#
# Total GULP energy -356767.844097 kJ/mol
# GULP energy per Si atom -5574.497564 kJ/mol
# Density = 1.970813 g / cm^3
# Si number density = 19.753086 Si / 1000 Ang^3
#
#
#
# Elastic Constant Matrix: (Units=GPa)
#
#
# Indices 1 2 3 4 5 6 
#
# 1 79.9956 29.2944 55.0714 0.0000 0.0000 0.0000
# 2 29.2944 41.2925 29.3548 0.0000 0.0000 0.0000
# 3 55.0714 29.3548 106.6326 0.0000 0.0000 0.0000
# 4 0.0000 0.0000 0.0000 115.2428 0.0000 0.0000
# 5 0.0000 0.0000 0.0000 0.0000 21.4722 0.0000
# 6 0.0000 0.0000 0.0000 0.0000 0.0000 14.5421
#
#
#
# Elastic Compliance Matrix: (Units=1/GPa)
#
#
# Indices 1 2 3 4 5 6 
#
# 1 0.021959 -0.009345 -0.008769 0.000000 0.000000 0.000000
# 2 -0.009345 0.034087 -0.004557 0.000000 0.000000 0.000000
# 3 -0.008769 -0.004557 0.015161 0.000000 0.000000 0.000000
# 4 0.000000 0.000000 0.000000 0.008677 0.000000 0.000000
# 5 0.000000 0.000000 0.000000 0.000000 0.046572 0.000000
# 6 0.000000 0.000000 0.000000 0.000000 0.000000 0.068766
#
#
# Mechanical properties :
#
#
# Convention : Reuss Voigt Hill
#
# Bulk Modulus (GPa) = 38.66159 50.59575 44.62867
# Shear Modulus (GPa) = 20.06526 37.86475 28.96501
#
# Velocity S-wave (km/s) = 3.19063 4.38299 3.83345
# Velocity P-wave (km/s) = 5.76094 7.16128 6.49893
#
# Compressibility (1/GPa) = 0.02586546
#
# Stress axis : x y z
#
# Youngs Moduli (GPa) = 45.53851 29.33657 65.95796
#
# Poissons Ratio (x) = 0.27416 0.57835
# Poissons Ratio (y) = 0.42557 0.30059
# Poissons Ratio (z) = 0.39930 0.13370
#
# Static dielectric constant tensor:
#      x y z
#    x 1.706970 0.000000 0.000000 
#    y 0.000000 1.801220 0.000000 
#    z 0.000000 0.000000 1.709050 
# 
# From -- ./inp_files/3865.got.cif
#   From: 2010.05.17/outbox.ucp.g08.bks.cvg/sg57_2_cif.got.tgz:3865.got - 2010.06.11 16:39:23.
