data_PCOD9440068
_publ_section_title
;
Structure prediction by ZEFSAII (Michael W. Deem and Ramdas Pophale) SiO2 
 PCOD9440068
Probable space group: P B C M
;
_chemical_formula_sum "Si O2"
_cell_formula_units_Z 64
_cell_length_a 22.899118
_cell_length_b 18.672654
_cell_length_c 7.771840
_cell_angle_alpha 90.000000
_cell_angle_beta 90.000000
_cell_angle_gamma 90.000000
_cell_volume 3323.140139
_symmetry_space_group_name_H-M "P B C M"
_symmetry_group_IT_number 57
_symmetry_cell_setting 'orthorhombic'
loop_
_space_group_symop_operation_xyz
x,y,z
-x,-y,1/2+z
x,1/2-y,-z
-x,1/2+y,1/2-z
-x,-y,-z
x,y,1/2-z
-x,1/2+y,z
x,1/2-y,1/2+z
loop_
_atom_site_type_symbol
_atom_site_label
_atom_site_fract_x
_atom_site_fract_y
_atom_site_fract_z
Si Si1 0.997154 0.415515 0.956778
Si Si2 0.129070 0.585356 0.454824
Si Si3 0.743950 0.101875 0.460565
Si Si4 0.624713 0.329946 0.956311
Si Si5 0.435852 0.973325 0.956861
Si Si6 0.318549 0.043346 0.956271
Si Si7 0.763951 0.667793 0.047446
Si Si8 0.875930 0.583025 0.040393
O O1 0.995745 0.407934 0.750000
O O2 0.934146 0.389395 0.024496
O O3 0.060337 0.387893 0.016579
O O4 0.000000 0.500000 0.000000
O O5 0.128504 0.598383 0.250000
O O6 0.190341 0.616156 0.522938
O O7 0.131259 0.499271 0.481749
O O8 0.745285 0.103016 0.250000
O O9 0.691002 0.153114 0.517121
O O10 0.723521 0.021890 0.513765
O O11 0.626337 0.335453 0.750000
O O12 0.582458 0.393754 0.018893
O O13 0.606490 0.250000 0.000000
O O14 0.432711 0.971680 0.750000
O O15 0.383756 0.025552 0.018802
O O16 0.500000 0.000000 0.000000
O O17 0.319653 0.039298 0.750000
O O18 0.291245 0.118782 0.003196
O O19 0.771190 0.664773 0.250000
O O20 0.822290 0.630296 0.973701
O O21 0.757564 0.750000 0.000000
O O22 0.876000 0.581574 0.250000
#
# Coordination Sequence:
#
# PCOD9440068 Si02
#       8
#     8   8   8   8   8   8   8   8
#     4   8  14  23  37  60  87 113 146 189 239 290
#     4   9  14  23  44  68  87 118 157 192 239 297
#     4   8  14  26  47  71  95 123 157 196 237 284
#     4   9  18  33  51  75 105 134 163 197 236 279
#     4   9  19  35  57  82 107 135 165 200 239 282
#     4   9  17  33  53  72  97 126 159 202 244 286
#     4  11  22  33  47  67  93 129 169 211 258 302
#     4   9  17  28  40  60  92 120 150 203 254 291
#
# _framework density 19.258891999999999
#
# number of rings (size 3 to 8) (size 9 to 14) (size 15 to 20)
#    0.000    3.000    1.250    1.875    0.000    1.500 
#    0.000    3.125    0.000    2.250    0.000    0.000 
#    0.000    0.000    0.000    0.000    0.000    0.000 
#
# Total GULP energy -356422.506770 kJ/mol
# GULP energy per Si atom -5569.101668 kJ/mol
# Density = 1.921506 g / cm^3
# Si number density = 19.258892 Si / 1000 Ang^3
#
#
#
# Elastic Constant Matrix: (Units=GPa)
#
#
# Indices 1 2 3 4 5 6 
#
# 1 179.6576 62.1575 7.4986 0.0000 0.0000 0.0000
# 2 62.1575 84.6518 -1.3682 0.0000 0.0000 0.0000
# 3 7.4986 -1.3682 24.7716 0.0000 0.0000 0.0000
# 4 0.0000 0.0000 0.0000 14.2504 0.0000 0.0000
# 5 0.0000 0.0000 0.0000 0.0000 10.1386 0.0000
# 6 0.0000 0.0000 0.0000 0.0000 0.0000 17.1674
#
#
#
# Elastic Compliance Matrix: (Units=1/GPa)
#
#
# Indices 1 2 3 4 5 6 
#
# 1 0.007628 -0.005643 -0.002621 0.000000 0.000000 0.000000
# 2 -0.005643 0.015999 0.002592 0.000000 0.000000 0.000000
# 3 -0.002621 0.002592 0.041305 0.000000 0.000000 0.000000
# 4 0.000000 0.000000 0.000000 0.070174 0.000000 0.000000
# 5 0.000000 0.000000 0.000000 0.000000 0.098633 0.000000
# 6 0.000000 0.000000 0.000000 0.000000 0.000000 0.058250
#
#
# Mechanical properties :
#
#
# Convention : Reuss Voigt Hill
#
# Bulk Modulus (GPa) = 18.66101 47.29519 32.97810
# Shear Modulus (GPa) = 15.56687 23.03084 19.29885
#
# Velocity S-wave (km/s) = 2.84614 3.46186 3.16899
# Velocity P-wave (km/s) = 4.52894 6.37105 5.52727
#
# Compressibility (1/GPa) = 0.05358765
#
# Stress axis : x y z
#
# Youngs Moduli (GPa) = 131.09559 62.50474 24.20999
#
# Poissons Ratio (x) = 0.35274 0.06345
# Poissons Ratio (y) = 0.73983 -0.06275
# Poissons Ratio (z) = 0.34357 -0.16201
#
# Static dielectric constant tensor:
#      x y z
#    x 1.740090 0.000000 0.000000 
#    y 0.000000 1.624610 0.000000 
#    z 0.000000 0.000000 1.701000 
# 
# From -- ./inp_files/9557.got.cif
#   From: 2010.05.17/outbox.cif.g08.bks.cpg/sg57_5_cif.got.tgz:9557.got - 2010.06.03 13:58:18.
