data_PCOD9440150
_publ_section_title
;
Structure prediction by ZEFSAII (Michael W. Deem and Ramdas Pophale) SiO2 
 PCOD9440150
Probable space group: P B C M
;
_chemical_formula_sum "Si O2"
_cell_formula_units_Z 40
_cell_length_a 9.889822
_cell_length_b 22.683838
_cell_length_c 8.915502
_cell_angle_alpha 90.000000
_cell_angle_beta 90.000000
_cell_angle_gamma 90.000000
_cell_volume 2000.095874
_symmetry_space_group_name_H-M "P B C M"
_symmetry_group_IT_number 57
_symmetry_cell_setting 'orthorhombic'
loop_
_space_group_symop_operation_xyz
x,y,z
-x,-y,1/2+z
x,1/2-y,-z
-x,1/2+y,1/2-z
-x,-y,-z
x,y,1/2-z
-x,1/2+y,z
x,1/2-y,1/2+z
loop_
_atom_site_type_symbol
_atom_site_label
_atom_site_fract_x
_atom_site_fract_y
_atom_site_fract_z
Si Si1 0.208336 0.138714 0.427271
Si Si2 0.852621 0.513484 0.929203
Si Si3 0.050232 0.692706 0.924613
Si Si4 0.509496 0.186318 0.427852
Si Si5 0.282679 0.596368 0.925677
O O1 0.189788 0.128370 0.250000
O O2 0.196961 0.076801 0.513234
O O3 0.087492 0.178676 0.489304
O O4 0.352537 0.169380 0.450220
O O5 0.864089 0.513034 0.750000
O O6 0.750166 0.463268 0.986289
O O7 0.000000 0.500000 0.000000
O O8 0.023712 0.703910 0.750000
O O9 0.148752 0.637014 0.936240
O O10 0.115520 0.750000 0.000000
O O11 0.536707 0.250000 0.500000
O O12 0.537403 0.188504 0.250000
O O13 0.598913 0.135478 0.503750
O O14 0.308279 0.584311 0.750000
#
# Coordination Sequence:
#
# PCOD9440150 Si02
#       5
#     8   8   8   8   8
#     4  11  24  42  66  94 128 170 217 267 322 383
#     4  12  24  41  67  97 132 169 213 268 324 383
#     4  11  23  38  61  92 125 164 214 267 321 382
#     4  11  25  44  66  95 131 173 217 266 323 384
#     4  11  24  42  66  95 128 170 217 266 322 383
#
# _framework density 19.999040999999998
#
# number of rings (size 3 to 8) (size 9 to 14) (size 15 to 20)
#    0.000    0.800    2.000    5.400    0.000    9.600 
#    0.000    0.000    0.000    0.000    0.000    0.000 
#    0.000    0.000    0.000    0.000    0.000    0.000 
#
# Total GULP energy -223927.133610 kJ/mol
# GULP energy per Si atom -5598.178340 kJ/mol
# Density = 1.995352 g / cm^3
# Si number density = 19.999041 Si / 1000 Ang^3
#
#
#
# Elastic Constant Matrix: (Units=GPa)
#
#
# Indices 1 2 3 4 5 6 
#
# 1 55.3030 -8.9310 45.6626 0.0000 0.0000 0.0000
# 2 -8.9310 95.0989 37.8896 0.0000 0.0000 0.0000
# 3 45.6626 37.8896 134.8358 0.0000 0.0000 0.0000
# 4 0.0000 0.0000 0.0000 41.7399 0.0000 0.0000
# 5 0.0000 0.0000 0.0000 0.0000 -8.6230 0.0000
# 6 0.0000 0.0000 0.0000 0.0000 0.0000 21.9391
#
#
#
# Elastic Compliance Matrix: (Units=1/GPa)
#
#
# Indices 1 2 3 4 5 6 
#
# 1 0.029213 0.007528 -0.012009 0.000000 0.000000 0.000000
# 2 0.007528 0.013781 -0.006422 0.000000 0.000000 0.000000
# 3 -0.012009 -0.006422 0.013288 0.000000 0.000000 0.000000
# 4 0.000000 0.000000 0.000000 0.023958 0.000000 0.000000
# 5 0.000000 0.000000 0.000000 0.000000 -0.115970 0.000000
# 6 0.000000 0.000000 0.000000 0.000000 0.000000 0.045581
#
#
# Mechanical properties :
#
#
# Convention : Reuss Voigt Hill
#
# Bulk Modulus (GPa) = 29.00491 48.27557 38.64024
# Shear Modulus (GPa) = 115.87941 25.05229 70.46585
#
# Velocity S-wave (km/s) = 7.62025 3.54315 5.94231
# Velocity P-wave (km/s) = 9.58953 6.39765 8.15135
#
# Compressibility (1/GPa) = 0.03447693
#
# Stress axis : x y z
#
# Youngs Moduli (GPa) = 34.23117 72.56381 75.25731
#
# Poissons Ratio (x) = -0.54626 0.90373
# Poissons Ratio (y) = -0.25769 0.48329
# Poissons Ratio (z) = 0.41107 0.46600
#
# Static dielectric constant tensor:
#      x y z
#    x 1.691000 0.000000 0.000000 
#    y 0.000000 1.771240 0.000000 
#    z 0.000000 0.000000 1.672450 
# 
# From -- ./inp_files/1510.got.cif
#   From: 2010.05.17/outbox.cif.g08.bks.cpg/sg57_1_cif.got.tgz:1510.got - 2010.06.03 13:58:18.
