data_PCOD9440384
_publ_section_title
;
Structure prediction by ZEFSAII (Michael W. Deem and Ramdas Pophale) SiO2 
 PCOD9440384
Probable space group: P B C M
;
_chemical_formula_sum "Si O2"
_cell_formula_units_Z 64
_cell_length_a 5.236143
_cell_length_b 28.080995
_cell_length_c 22.145682
_cell_angle_alpha 90.000000
_cell_angle_beta 90.000000
_cell_angle_gamma 90.000000
_cell_volume 3256.214833
_symmetry_space_group_name_H-M "P B C M"
_symmetry_group_IT_number 57
_symmetry_cell_setting 'orthorhombic'
loop_
_space_group_symop_operation_xyz
x,y,z
-x,-y,1/2+z
x,1/2-y,-z
-x,1/2+y,1/2-z
-x,-y,-z
x,y,1/2-z
-x,1/2+y,z
x,1/2-y,1/2+z
loop_
_atom_site_type_symbol
_atom_site_label
_atom_site_fract_x
_atom_site_fract_y
_atom_site_fract_z
Si Si1 0.698722 0.641638 0.177917
Si Si2 0.944913 0.058740 0.316859
Si Si3 0.797086 0.303844 0.676207
Si Si4 0.958599 0.054019 0.817327
Si Si5 0.306615 0.139537 0.677363
Si Si6 0.701287 0.469947 0.433812
Si Si7 0.792914 0.465263 0.937805
Si Si8 0.197376 0.805654 0.176317
O O1 0.685651 0.648416 0.250000
O O2 0.791835 0.587058 0.171418
O O3 0.936758 0.673316 0.155836
O O4 0.436034 0.663260 0.154915
O O5 0.848572 0.074865 0.250000
O O6 0.779768 0.065539 0.376985
O O7 0.977603 0.001912 0.312841
O O8 0.801717 0.304047 0.750000
O O9 0.765662 0.249022 0.657932
O O10 0.865394 0.069089 0.750000
O O11 0.202882 0.086192 0.833207
O O12 0.762100 0.057390 0.872258
O O13 0.320927 0.143187 0.750000
O O14 0.074347 0.173413 0.656915
O O15 0.573421 0.160309 0.654995
O O16 0.424570 0.494145 0.432619
O O17 0.739532 0.442236 0.496969
O O18 0.924089 0.510861 0.437914
O O19 0.196297 0.806063 0.250000
#
# Coordination Sequence:
#
# PCOD9440384 Si02
#       8
#     8   8   8   8   8   8   8   8
#     4   9  17  27  40  61  87 115 149 185 223 273
#     4   9  18  31  47  69  99 131 158 188 231 282
#     4   9  16  27  42  59  83 115 148 186 232 274
#     4   9  18  31  47  69  99 131 158 188 231 282
#     4   9  17  27  40  61  87 115 149 185 223 273
#     4   9  18  32  48  65  88 122 162 198 228 262
#     4   9  18  32  48  65  88 122 162 198 228 262
#     4   9  16  27  42  59  83 115 148 186 232 274
#
# _framework density 19.654724000000002
#
# number of rings (size 3 to 8) (size 9 to 14) (size 15 to 20)
#    0.000    3.000    0.000    0.750    0.000    7.500 
#    0.000    7.500    0.000    0.000    0.000    0.000 
#    0.000    6.000    0.000    0.000    0.000    0.000 
#
# Total GULP energy -356417.071033 kJ/mol
# GULP energy per Si atom -5569.016735 kJ/mol
# Density = 1.960999 g / cm^3
# Si number density = 19.654724 Si / 1000 Ang^3
#
#
#
# Elastic Constant Matrix: (Units=GPa)
#
#
# Indices 1 2 3 4 5 6 
#
# 1 93.2987 31.8917 4.1517 0.0000 0.0000 0.0000
# 2 31.8917 112.6335 -3.8558 0.0000 0.0000 0.0000
# 3 4.1517 -3.8558 98.7818 0.0000 0.0000 0.0000
# 4 0.0000 0.0000 0.0000 2.3468 0.0000 0.0000
# 5 0.0000 0.0000 0.0000 0.0000 3.8973 0.0000
# 6 0.0000 0.0000 0.0000 0.0000 0.0000 21.6752
#
#
#
# Elastic Compliance Matrix: (Units=1/GPa)
#
#
# Indices 1 2 3 4 5 6 
#
# 1 0.011906 -0.003393 -0.000633 0.000000 0.000000 0.000000
# 2 -0.003393 0.009857 0.000527 0.000000 0.000000 0.000000
# 3 -0.000633 0.000527 0.010171 0.000000 0.000000 0.000000
# 4 0.000000 0.000000 0.000000 0.426117 0.000000 0.000000
# 5 0.000000 0.000000 0.000000 0.000000 0.256590 0.000000
# 6 0.000000 0.000000 0.000000 0.000000 0.000000 0.046136
#
#
# Mechanical properties :
#
#
# Convention : Reuss Voigt Hill
#
# Bulk Modulus (GPa) = 40.10090 41.00990 40.55540
# Shear Modulus (GPa) = 6.44259 23.75227 15.09743
#
# Velocity S-wave (km/s) = 1.81246 3.48009 2.77453
# Velocity P-wave (km/s) = 4.98267 6.08757 5.56262
#
# Compressibility (1/GPa) = 0.02493710
#
# Stress axis : x y z
#
# Youngs Moduli (GPa) = 83.98994 101.44990 98.32357
#
# Poissons Ratio (x) = 0.34420 0.06222
# Poissons Ratio (y) = 0.28497 -0.05185
# Poissons Ratio (z) = 0.05315 -0.05350
#
# Static dielectric constant tensor:
#      x y z
#    x 1.728260 0.000000 0.000000 
#    y 0.000000 1.720980 0.000000 
#    z 0.000000 0.000000 1.735840 
# 
# From -- ./inp_files/26422.got.cif
#   From: 2010.05.17/outbox.cif.g08.bks.cpg/sg57_14_cif.got.tgz:26422.got - 2010.06.03 13:58:18.
