data_PCOD9440006
_publ_section_title
;
Structure prediction by ZEFSAII (Michael W. Deem and Ramdas Pophale) SiO2 
 PCOD9440006
Probable space group: P B C M
;
_chemical_formula_sum "Si O2"
_cell_formula_units_Z 48
_cell_length_a 10.363675
_cell_length_b 11.696023
_cell_length_c 18.630355
_cell_angle_alpha 90.000000
_cell_angle_beta 90.000000
_cell_angle_gamma 90.000000
_cell_volume 2258.255774
_symmetry_space_group_name_H-M "P B C M"
_symmetry_group_IT_number 57
_symmetry_cell_setting 'orthorhombic'
loop_
_space_group_symop_operation_xyz
x,y,z
-x,-y,1/2+z
x,1/2-y,-z
-x,1/2+y,1/2-z
-x,-y,-z
x,y,1/2-z
-x,1/2+y,z
x,1/2-y,1/2+z
loop_
_atom_site_type_symbol
_atom_site_label
_atom_site_fract_x
_atom_site_fract_y
_atom_site_fract_z
Si Si1 0.651078 0.204594 0.670342
Si Si2 0.370365 0.314976 0.829728
Si Si3 0.701264 0.940402 0.333958
Si Si4 0.554388 0.490497 0.420624
Si Si5 0.016343 0.512730 0.337697
Si Si6 0.057832 0.759487 0.333664
O O1 0.651693 0.145609 0.750000
O O2 0.521945 0.279661 0.671381
O O3 0.788362 0.265216 0.665207
O O4 0.632351 0.121424 0.603033
O O5 0.336961 0.359845 0.750000
O O6 0.359388 0.404743 0.893135
O O7 0.295454 0.197140 0.841564
O O8 0.685927 0.965185 0.250000
O O9 0.574892 0.983467 0.373044
O O10 0.835192 0.991215 0.358475
O O11 0.500000 0.500000 0.500000
O O12 0.004995 0.516339 0.250000
O O13 0.987120 0.643947 0.362333
O O14 0.953214 0.391160 0.361424
O O15 0.016863 0.768116 0.250000
#
# Coordination Sequence:
#
# PCOD9440006 Si02
#       6
#     8   8   8   8   8   8
#     4   9  18  32  50  73 101 135 173 213 260 316
#     4   9  17  31  51  72  97 132 170 210 259 316
#     4   9  18  32  50  73 102 136 173 212 259 315
#     4  11  21  31  48  75 105 135 172 218 266 313
#     4   9  17  30  50  78 107 135 171 219 271 318
#     4   9  17  29  48  74 104 136 173 219 268 317
#
# _framework density 21.255343
#
# number of rings (size 3 to 8) (size 9 to 14) (size 15 to 20)
#    0.000    2.667    0.000    3.500    0.000    6.667 
#    0.000    5.000    0.000    1.000    0.000    2.333 
#    0.000    0.000    0.000    0.000    0.000    0.000 
#
# Total GULP energy -267289.816136 kJ/mol
# GULP energy per Si atom -5568.537836 kJ/mol
# Density = 2.120697 g / cm^3
# Si number density = 21.255343 Si / 1000 Ang^3
#
#
#
# Elastic Constant Matrix: (Units=GPa)
#
#
# Indices 1 2 3 4 5 6 
#
# 1 30.0087 4.1611 -13.1297 0.0000 0.0000 0.0000
# 2 4.1611 120.3989 34.3908 0.0000 0.0000 0.0000
# 3 -13.1297 34.3908 46.9899 0.0000 0.0000 0.0000
# 4 0.0000 0.0000 0.0000 -25.0662 0.0000 0.0000
# 5 0.0000 0.0000 0.0000 0.0000 7.4692 0.0000
# 6 0.0000 0.0000 0.0000 0.0000 0.0000 14.6206
#
#
#
# Elastic Compliance Matrix: (Units=1/GPa)
#
#
# Indices 1 2 3 4 5 6 
#
# 1 0.041070 -0.005939 0.015822 0.000000 0.000000 0.000000
# 2 -0.005939 0.011360 -0.009973 0.000000 0.000000 0.000000
# 3 0.015822 -0.009973 0.033001 0.000000 0.000000 0.000000
# 4 0.000000 0.000000 0.000000 -0.039894 0.000000 0.000000
# 5 0.000000 0.000000 0.000000 0.000000 0.133883 0.000000
# 6 0.000000 0.000000 0.000000 0.000000 0.000000 0.068397
#
#
# Mechanical properties :
#
#
# Convention : Reuss Voigt Hill
#
# Bulk Modulus (GPa) = 11.73014 27.58242 19.65628
# Shear Modulus (GPa) = 18.08883 10.86973 14.47928
#
# Velocity S-wave (km/s) = 2.92040 2.26384 2.61283
# Velocity P-wave (km/s) = 4.11124 4.45401 4.28605
#
# Compressibility (1/GPa) = 0.08525047
#
# Stress axis : x y z
#
# Youngs Moduli (GPa) = 24.34884 88.03006 30.30185
#
# Poissons Ratio (x) = 0.52279 -0.47943
# Poissons Ratio (y) = 0.14460 0.30221
# Poissons Ratio (z) = -0.38525 0.87795
#
# Static dielectric constant tensor:
#      x y z
#    x 1.778680 0.000000 0.000000 
#    y 0.000000 1.910450 0.000000 
#    z 0.000000 0.000000 1.713260 
# 
# From -- ./inp_files/21815.got.cif
#   From: 2010.05.17/outbox.cif.g08.bks.cpg/sg57_11_cif.got.tgz:21815.got - 2010.06.03 13:58:18.
