data_PCOD9440820
_publ_section_title
;
Structure prediction by ZEFSAII (Michael W. Deem and Ramdas Pophale) SiO2 
 PCOD9440820
Probable space group: P N N M
;
_chemical_formula_sum "Si O2"
_cell_formula_units_Z 48
_cell_length_a 8.584518
_cell_length_b 13.558019
_cell_length_c 18.474506
_cell_angle_alpha 90.000000
_cell_angle_beta 90.000000
_cell_angle_gamma 90.000000
_cell_volume 2150.230353
_symmetry_space_group_name_H-M "P N N M"
_symmetry_group_IT_number 58
_symmetry_cell_setting 'orthorhombic'
loop_
_space_group_symop_operation_xyz
x,y,z
-x,-y,z
1/2+x,1/2-y,1/2-z
1/2-x,1/2+y,1/2-z
-x,-y,-z
x,y,-z
1/2-x,1/2+y,1/2+z
1/2+x,1/2-y,1/2+z
loop_
_atom_site_type_symbol
_atom_site_label
_atom_site_fract_x
_atom_site_fract_y
_atom_site_fract_z
Si Si1 0.181072 0.484982 0.500000
Si Si2 0.897473 0.611350 0.000000
Si Si3 0.392625 0.402407 0.382185
Si Si4 0.336761 0.616323 0.161183
Si Si5 0.888376 0.819365 0.000000
Si Si6 0.833015 0.114943 0.715044
Si Si7 0.655045 0.435307 0.000000
Si Si8 0.998537 0.615043 0.837714
O O1 0.243047 0.426613 0.430417
O O2 0.272226 0.589191 0.500000
O O3 0.000000 0.500000 0.500000
O O4 0.990435 0.612305 0.074981
O O5 0.211728 0.482159 0.000000
O O6 0.805234 0.714601 0.000000
O O7 0.500000 0.500000 0.379011
O O8 0.499502 0.328798 0.429540
O O9 0.343283 0.381846 0.301152
O O10 0.501160 0.658342 0.188504
O O11 0.334676 0.499297 0.184573
O O12 0.167331 0.656416 0.185764
O O13 0.339561 0.623370 0.074463
O O14 0.667155 0.157961 0.688584
O O15 0.500000 0.500000 0.000000
O O16 0.000000 0.500000 0.813224
#
# Coordination Sequence:
#
# PCOD9440820 Si02
#       8
#     4   4   8   8   4   8   4   8
#     4   9  19  36  64  85 101 127 194 255 285 336
#     4  12  19  34  56  76 122 153 186 237 266 341
#     4   9  17  36  59  79 103 140 181 232 288 344
#     4  10  18  28  48  83 111 141 192 230 272 328
#     4   9  22  37  59  80 103 159 191 218 303 344
#     4  10  17  30  53  81 112 136 181 240 281 323
#     4  12  17  30  51  81 118 157 191 232 268 332
#     4  10  19  30  51  83 110 147 191 220 270 332
#
# _framework density 22.323191000000001
#
# number of rings (size 3 to 8) (size 9 to 14) (size 15 to 20)
#    0.000    2.000    6.667    1.750    0.000    2.000 
#    0.000    0.000   18.333    0.000    0.000    0.000 
#    0.000    0.000    0.000    0.000    0.000    0.000 
#
# Total GULP energy -267870.086302 kJ/mol
# GULP energy per Si atom -5580.626798 kJ/mol
# Density = 2.227238 g / cm^3
# Si number density = 22.323191 Si / 1000 Ang^3
#
#
#
# Elastic Constant Matrix: (Units=GPa)
#
#
# Indices 1 2 3 4 5 6 
#
# 1 243.8631 5.1813 78.4089 0.0000 0.0000 0.0000
# 2 5.1813 44.1071 10.1983 0.0000 0.0000 0.0000
# 3 78.4089 10.1983 168.1443 0.0000 0.0000 0.0000
# 4 0.0000 0.0000 0.0000 -5.8063 0.0000 0.0000
# 5 0.0000 0.0000 0.0000 0.0000 -2.1567 0.0000
# 6 0.0000 0.0000 0.0000 0.0000 0.0000 4.8434
#
#
#
# Elastic Compliance Matrix: (Units=1/GPa)
#
#
# Indices 1 2 3 4 5 6 
#
# 1 0.004824 -0.000047 -0.002247 0.000000 0.000000 0.000000
# 2 -0.000047 0.022995 -0.001373 0.000000 0.000000 0.000000
# 3 -0.002247 -0.001373 0.007078 0.000000 0.000000 0.000000
# 4 0.000000 0.000000 0.000000 -0.172227 0.000000 0.000000
# 5 0.000000 0.000000 0.000000 0.000000 -0.463670 0.000000
# 6 0.000000 0.000000 0.000000 0.000000 0.000000 0.206466
#
#
# Mechanical properties :
#
#
# Convention : Reuss Voigt Hill
#
# Bulk Modulus (GPa) = 36.27907 71.52129 53.90018
# Shear Modulus (GPa) = -13.22706 23.53114 5.15204
#
# Velocity S-wave (km/s) = -2.43683 3.25023 1.52084
# Velocity P-wave (km/s) = 2.89301 6.79661 5.22319
#
# Compressibility (1/GPa) = 0.02756410
#
# Stress axis : x y z
#
# Youngs Moduli (GPa) = 207.29532 43.48769 141.27885
#
# Poissons Ratio (x) = 0.00205 0.31741
# Poissons Ratio (y) = 0.00979 0.19393
# Poissons Ratio (z) = 0.46573 0.05969
#
# Static dielectric constant tensor:
#      x y z
#    x 1.862330 0.000000 0.000000 
#    y 0.000000 1.886020 0.000000 
#    z 0.000000 0.000000 1.812140 
# 
# From -- ./inp_files/25355.got.cif
#   From: 2010.05.17/outbox.cif.g08.bks.cpg/sg58_13_cif.got.tgz:25355.got - 2010.06.03 14:20:14.
