data_PCOD9440634
_publ_section_title
;
Structure prediction by ZEFSAII (Michael W. Deem and Ramdas Pophale) SiO2 
 PCOD9440634
Probable space group: P B C M
;
_chemical_formula_sum "Si O2"
_cell_formula_units_Z 48
_cell_length_a 9.000000
_cell_length_b 30.000000
_cell_length_c 9.000000
_cell_angle_alpha 90.000000
_cell_angle_beta 90.000000
_cell_angle_gamma 90.000000
_cell_volume 2430.000000
_symmetry_space_group_name_H-M "P B C M"
_symmetry_group_IT_number 57
_symmetry_cell_setting 'orthorhombic'
loop_
_space_group_symop_operation_xyz
x,y,z
-x,-y,1/2+z
x,1/2-y,-z
-x,1/2+y,1/2-z
-x,-y,-z
x,y,1/2-z
-x,1/2+y,z
x,1/2-y,1/2+z
loop_
_atom_site_type_symbol
_atom_site_label
_atom_site_fract_x
_atom_site_fract_y
_atom_site_fract_z
Si Si1 0.778755 0.796680 0.572508
Si Si2 0.434138 0.704413 0.074942
Si Si3 0.133212 0.023697 0.923414
Si Si4 0.277375 0.874255 0.420360
Si Si5 0.928210 0.619542 0.574131
Si Si6 0.376188 0.970512 0.425794
O O1 0.826298 0.750000 0.500000
O O2 0.787188 0.793496 0.750000
O O3 0.605654 0.804090 0.528450
O O4 0.874416 0.837619 0.513739
O O5 0.433762 0.710214 0.250000
O O6 0.383733 0.750000 0.000000
O O7 0.330817 0.664097 0.027478
O O8 0.108358 0.028272 0.750000
O O9 0.154513 0.074393 0.977436
O O10 0.251495 0.987513 0.965030
O O11 0.000000 0.000000 0.000000
O O12 0.289140 0.858296 0.250000
O O13 0.381848 0.917420 0.435721
O O14 0.105407 0.887600 0.443412
O O15 0.899601 0.626638 0.750000
O O16 0.353112 0.980689 0.250000
O O17 0.500000 0.000000 0.500000
#
# Coordination Sequence:
#
# PCOD9440634 Si02
#       6
#     8   8   8   8   8   8
#     4  10  22  40  62  90 119 152 195 244 296 354
#     4  10  22  40  62  89 118 153 196 243 297 355
#     4  11  22  40  63  89 122 164 204 248 301 355
#     4  10  22  41  61  85 120 159 198 243 296 354
#     4  10  22  40  61  87 119 158 199 241 296 355
#     4  11  24  42  61  89 124 162 206 253 302 359
#
# _framework density 19.753086
#
# number of rings (size 3 to 8) (size 9 to 14) (size 15 to 20)
#    0.000    1.667    1.667    2.000    2.333    6.000 
#    0.000    0.000    0.000    0.000    0.000    0.000 
#    0.000    0.000    0.000    0.000    0.000    0.000 
#
# Total GULP energy -267305.808170 kJ/mol
# GULP energy per Si atom -5568.871004 kJ/mol
# Density = 1.970813 g / cm^3
# Si number density = 19.753086 Si / 1000 Ang^3
#
#
#
# Elastic Constant Matrix: (Units=GPa)
#
#
# Indices 1 2 3 4 5 6 
#
# 1 -14.3695 -18.3775 1.0124 0.0000 0.0000 0.0000
# 2 -18.3775 88.1101 47.1984 0.0000 0.0000 0.0000
# 3 1.0124 47.1984 42.0008 0.0000 0.0000 0.0000
# 4 0.0000 0.0000 0.0000 36.9560 0.0000 0.0000
# 5 0.0000 0.0000 0.0000 0.0000 24.8652 0.0000
# 6 0.0000 0.0000 0.0000 0.0000 0.0000 15.2309
#
#
#
# Elastic Compliance Matrix: (Units=1/GPa)
#
#
# Indices 1 2 3 4 5 6 
#
# 1 -0.039599 -0.022035 0.025716 0.000000 0.000000 0.000000
# 2 -0.022035 0.016252 -0.017732 0.000000 0.000000 0.000000
# 3 0.025716 -0.017732 0.043116 0.000000 0.000000 0.000000
# 4 0.000000 0.000000 0.000000 0.027059 0.000000 0.000000
# 5 0.000000 0.000000 0.000000 0.000000 0.040217 0.000000
# 6 0.000000 0.000000 0.000000 0.000000 0.000000 0.065656
#
#
# Mechanical properties :
#
#
# Convention : Reuss Voigt Hill
#
# Bulk Modulus (GPa) = -120.00969 19.48979 -50.25995
# Shear Modulus (GPa) = 28.08577 21.13761 24.61169
#
# Velocity S-wave (km/s) = 3.77482 3.27477 3.53365
# Velocity P-wave (km/s) = 6.47207 4.91803 2.97496
#
# Compressibility (1/GPa) = -0.00833266
#
# Stress axis : x y z
#
# Youngs Moduli (GPa) = -25.25320 61.52966 23.19326
#
# Poissons Ratio (x) = 1.35580 -0.59644
# Poissons Ratio (y) = -0.55645 0.41127
# Poissons Ratio (z) = 0.64942 1.09107
#
# Static dielectric constant tensor:
#      x y z
#    x 1.616420 0.000000 0.000000 
#    y 0.000000 1.886110 0.000000 
#    z 0.000000 0.000000 1.608730 
# 
# From -- ./inp_files/2125.got.cif
#   From: 2010.05.17/outbox.ucp.g08.bks.cvg/sg57_2_cif.got.tgz:2125.got - 2010.06.11 16:39:23.
