data_PCOD9440910
_publ_section_title
;
Structure prediction by ZEFSAII (Michael W. Deem and Ramdas Pophale) SiO2 
 PCOD9440910
Probable space group: P N N M
;
_chemical_formula_sum "Si O2"
_cell_formula_units_Z 64
_cell_length_a 18.222986
_cell_length_b 14.885317
_cell_length_c 13.455495
_cell_angle_alpha 90.000000
_cell_angle_beta 90.000000
_cell_angle_gamma 90.000000
_cell_volume 3649.869264
_symmetry_space_group_name_H-M "P N N M"
_symmetry_group_IT_number 58
_symmetry_cell_setting 'orthorhombic'
loop_
_space_group_symop_operation_xyz
x,y,z
-x,-y,z
1/2+x,1/2-y,1/2-z
1/2-x,1/2+y,1/2-z
-x,-y,-z
x,y,-z
1/2-x,1/2+y,1/2+z
1/2+x,1/2-y,1/2+z
loop_
_atom_site_type_symbol
_atom_site_label
_atom_site_fract_x
_atom_site_fract_y
_atom_site_fract_z
Si Si1 0.578060 0.043865 0.617568
Si Si2 0.796123 0.764606 0.617720
Si Si3 0.927711 0.722224 0.763031
Si Si4 0.057702 0.791924 0.880068
Si Si5 0.191154 0.906629 0.119092
Si Si6 0.161716 0.627475 0.814182
Si Si7 0.551935 0.085194 0.110545
Si Si8 0.309479 0.040015 0.881786
O O1 0.572887 0.053793 0.500000
O O2 0.595547 0.140974 0.663458
O O3 0.500000 0.000000 0.651973
O O4 0.637061 0.969560 0.647157
O O5 0.816363 0.763998 0.500000
O O6 0.862858 0.763062 0.695986
O O7 0.746839 0.675762 0.638110
O O8 0.739450 0.844262 0.640114
O O9 0.972648 0.662704 0.683346
O O10 0.980404 0.787837 0.823736
O O11 0.110968 0.873869 0.847898
O O12 0.102357 0.700906 0.851212
O O13 0.048777 0.792778 0.000000
O O14 0.231156 0.998020 0.150486
O O15 0.186486 0.913495 0.000000
O O16 0.168349 0.617616 0.694756
O O17 0.500000 0.000000 0.114916
O O18 0.631683 0.041526 0.129953
O O19 0.552463 0.121831 0.000000
O O20 0.309955 0.062858 0.000000
#
# Coordination Sequence:
#
# PCOD9440910 Si02
#       8
#     8   8   8   8   8   8   8   8
#     4  11  20  30  48  77 111 139 169 212 263 321
#     4  10  20  33  50  73 102 140 181 214 251 313
#     4  12  19  30  48  75 105 136 168 215 261 311
#     4  10  20  32  50  76 106 138 173 217 265 316
#     4   8  15  31  51  70  96 132 174 213 250 303
#     4  11  19  33  52  76 107 140 173 211 262 313
#     4  10  18  27  42  70 104 132 158 194 247 311
#     4  10  18  31  50  73 100 132 172 213 256 311
#
# _framework density 17.534876000000001
#
# number of rings (size 3 to 8) (size 9 to 14) (size 15 to 20)
#    0.000    1.750    3.750    3.750    0.000    0.000 
#    0.000    1.875    0.000    0.750    0.000    8.750 
#    0.000    0.000    0.000    0.000    0.000    0.000 
#
# Total GULP energy -356528.648945 kJ/mol
# GULP energy per Si atom -5570.760140 kJ/mol
# Density = 1.749497 g / cm^3
# Si number density = 17.534876 Si / 1000 Ang^3
#
#
#
# Elastic Constant Matrix: (Units=GPa)
#
#
# Indices 1 2 3 4 5 6 
#
# 1 97.7474 25.7079 35.7125 0.0000 0.0000 0.0000
# 2 25.7079 17.1515 10.2595 0.0000 0.0000 0.0000
# 3 35.7125 10.2595 98.8937 0.0000 0.0000 0.0000
# 4 0.0000 0.0000 0.0000 10.6522 0.0000 0.0000
# 5 0.0000 0.0000 0.0000 0.0000 24.5892 0.0000
# 6 0.0000 0.0000 0.0000 0.0000 0.0000 30.3721
#
#
#
# Elastic Compliance Matrix: (Units=1/GPa)
#
#
# Indices 1 2 3 4 5 6 
#
# 1 0.018263 -0.024978 -0.004004 0.000000 0.000000 0.000000
# 2 -0.024978 0.096325 -0.000973 0.000000 0.000000 0.000000
# 3 -0.004004 -0.000973 0.011659 0.000000 0.000000 0.000000
# 4 0.000000 0.000000 0.000000 0.093877 0.000000 0.000000
# 5 0.000000 0.000000 0.000000 0.000000 0.040668 0.000000
# 6 0.000000 0.000000 0.000000 0.000000 0.000000 0.032925
#
#
# Mechanical properties :
#
#
# Convention : Reuss Voigt Hill
#
# Bulk Modulus (GPa) = 15.07467 39.68359 27.37913
# Shear Modulus (GPa) = 13.30715 22.59690 17.95202
#
# Velocity S-wave (km/s) = 2.75780 3.59372 3.20314
# Velocity P-wave (km/s) = 4.33084 6.31665 5.41555
#
# Compressibility (1/GPa) = 0.06633644
#
# Stress axis : x y z
#
# Youngs Moduli (GPa) = 54.75676 10.38154 85.77363
#
# Poissons Ratio (x) = 0.25931 0.34341
# Poissons Ratio (y) = 1.36773 0.08344
# Poissons Ratio (z) = 0.21923 0.01010
#
# Static dielectric constant tensor:
#      x y z
#    x 1.662870 0.000000 0.000000 
#    y 0.000000 1.598050 0.000000 
#    z 0.000000 0.000000 1.630320 
# 
# From -- ./inp_files/23045.got.cif
#   From: 2010.05.17/outbox.cif.g08.bks.cpg/sg58_12_cif.got.tgz:23045.got - 2010.06.03 14:20:14.
