data_PCOD9440585
_publ_section_title
;
Structure prediction by ZEFSAII (Michael W. Deem and Ramdas Pophale) SiO2 
 PCOD9440585
Probable space group: P B C M
;
_chemical_formula_sum "Si O2"
_cell_formula_units_Z 64
_cell_length_a 18.000000
_cell_length_b 21.000000
_cell_length_c 9.000000
_cell_angle_alpha 90.000000
_cell_angle_beta 90.000000
_cell_angle_gamma 90.000000
_cell_volume 3402.000000
_symmetry_space_group_name_H-M "P B C M"
_symmetry_group_IT_number 57
_symmetry_cell_setting 'orthorhombic'
loop_
_space_group_symop_operation_xyz
x,y,z
-x,-y,1/2+z
x,1/2-y,-z
-x,1/2+y,1/2-z
-x,-y,-z
x,y,1/2-z
-x,1/2+y,z
x,1/2-y,1/2+z
loop_
_atom_site_type_symbol
_atom_site_label
_atom_site_fract_x
_atom_site_fract_y
_atom_site_fract_z
Si Si1 0.333264 0.568295 0.427125
Si Si2 0.409147 0.314739 0.079431
Si Si3 0.089053 0.185821 0.573037
Si Si4 0.832221 0.571835 0.420388
Si Si5 0.074151 0.815928 0.570967
Si Si6 0.588245 0.314905 0.078810
Si Si7 0.170387 0.927086 0.071726
Si Si8 0.653640 0.561657 0.421929
O O1 0.325856 0.568988 0.250000
O O2 0.383585 0.625424 0.485789
O O3 0.253132 0.576040 0.505220
O O4 0.364877 0.500848 0.483296
O O5 0.383285 0.316971 0.250000
O O6 0.498762 0.314315 0.080117
O O7 0.383656 0.250000 0.000000
O O8 0.382404 0.375847 0.990015
O O9 0.122231 0.250000 0.500000
O O10 0.080800 0.193265 0.750000
O O11 0.136403 0.124133 0.531013
O O12 0.008966 0.177845 0.494570
O O13 0.853827 0.587823 0.250000
O O14 0.857564 0.499573 0.452897
O O15 0.742867 0.569983 0.426773
O O16 0.104051 0.750000 0.500000
O O17 0.073471 0.812781 0.750000
O O18 0.121030 0.875105 0.510727
O O19 0.613897 0.318311 0.250000
O O20 0.613882 0.250000 0.000000
O O21 0.172042 0.916785 0.250000
O O22 0.632287 0.552384 0.250000
#
# Coordination Sequence:
#
# PCOD9440585 Si02
#       8
#     8   8   8   8   8   8   8   8
#     4  11  22  37  58  84 113 146 185 228 277 330
#     4  10  21  37  58  83 112 146 185 230 278 331
#     4  11  22  37  58  82 111 146 184 227 274 325
#     4   9  20  38  58  81 110 144 182 226 273 323
#     4  11  22  38  59  83 113 146 184 228 274 326
#     4  10  21  38  58  82 112 146 185 229 278 329
#     4  10  21  39  60  83 113 146 183 227 275 327
#     4  10  21  38  59  82 112 148 186 230 277 327
#
# _framework density 18.812463000000001
#
# number of rings (size 3 to 8) (size 9 to 14) (size 15 to 20)
#    0.000    1.750    0.000    6.375    0.000    6.500 
#    0.000    2.500    0.000    0.000    0.000    0.000 
#    0.000    0.000    0.000    0.000    0.000    0.000 
#
# Total GULP energy -357505.119589 kJ/mol
# GULP energy per Si atom -5586.017494 kJ/mol
# Density = 1.876965 g / cm^3
# Si number density = 18.812463 Si / 1000 Ang^3
#
#
#
# Elastic Constant Matrix: (Units=GPa)
#
#
# Indices 1 2 3 4 5 6 
#
# 1 5.6859 28.2075 25.3264 0.0000 0.0000 0.0000
# 2 28.2075 144.6372 81.5767 0.0000 0.0000 0.0000
# 3 25.3264 81.5767 181.0113 0.0000 0.0000 0.0000
# 4 0.0000 0.0000 0.0000 38.6196 0.0000 0.0000
# 5 0.0000 0.0000 0.0000 0.0000 27.4806 0.0000
# 6 0.0000 0.0000 0.0000 0.0000 0.0000 29.1175
#
#
#
# Elastic Compliance Matrix: (Units=1/GPa)
#
#
# Indices 1 2 3 4 5 6 
#
# 1 -2.118492 0.329805 0.147777 0.000000 0.000000 0.000000
# 2 0.329805 -0.042074 -0.027184 0.000000 0.000000 0.000000
# 3 0.147777 -0.027184 -0.002901 0.000000 0.000000 0.000000
# 4 0.000000 0.000000 0.000000 0.025894 0.000000 0.000000
# 5 0.000000 0.000000 0.000000 0.000000 0.036389 0.000000
# 6 0.000000 0.000000 0.000000 0.000000 0.000000 0.034344
#
#
# Mechanical properties :
#
#
# Convention : Reuss Voigt Hill
#
# Bulk Modulus (GPa) = -0.79197 66.83951 33.02377
# Shear Modulus (GPa) = -1.47557 32.12514 15.32478
#
# Velocity S-wave (km/s) = -0.88660 4.13686 2.85723
# Velocity P-wave (km/s) = 1.21243 7.64360 5.33642
#
# Compressibility (1/GPa) = -1.26266899
#
# Stress axis : x y z
#
# Youngs Moduli (GPa) = -0.47203 -23.76784 -344.71131
#
# Poissons Ratio (x) = 7.83876 50.94046
# Poissons Ratio (y) = 0.15568 -9.37051
# Poissons Ratio (z) = 0.06976 -0.64610
#
# Static dielectric constant tensor:
#      x y z
#    x 1.645350 0.000000 0.000000 
#    y 0.000000 1.650380 0.000000 
#    z 0.000000 0.000000 1.639110 
# 
# From -- ./inp_files/7161.got.cif
#   From: 2010.05.17/outbox.ucp.g08.bks.cvg/sg57_4_cif.got.tgz:7161.got - 2010.06.11 16:39:23.
