data_PCOD9440992
_publ_section_title
;
Structure prediction by ZEFSAII (Michael W. Deem and Ramdas Pophale) SiO2 
 PCOD9440992
Probable space group: P N N M
;
_chemical_formula_sum "Si O2"
_cell_formula_units_Z 64
_cell_length_a 20.900635
_cell_length_b 7.049862
_cell_length_c 20.514544
_cell_angle_alpha 90.000000
_cell_angle_beta 90.000000
_cell_angle_gamma 90.000000
_cell_volume 3022.748154
_symmetry_space_group_name_H-M "P N N M"
_symmetry_group_IT_number 58
_symmetry_cell_setting 'orthorhombic'
loop_
_space_group_symop_operation_xyz
x,y,z
-x,-y,z
1/2+x,1/2-y,1/2-z
1/2-x,1/2+y,1/2-z
-x,-y,-z
x,y,-z
1/2-x,1/2+y,1/2+z
1/2+x,1/2-y,1/2+z
loop_
_atom_site_type_symbol
_atom_site_label
_atom_site_fract_x
_atom_site_fract_y
_atom_site_fract_z
Si Si1 0.206003 0.897485 0.207319
Si Si2 0.740541 0.088721 0.927967
Si Si3 0.912050 0.176524 0.290266
Si Si4 0.628712 0.606210 0.071657
Si Si5 0.590391 0.178435 0.071110
Si Si6 0.551180 0.225481 0.211992
Si Si7 0.725829 0.139567 0.572475
Si Si8 0.329790 0.838320 0.294394
O O1 0.225211 0.826642 0.135541
O O2 0.149849 0.789134 0.245556
O O3 0.270118 0.904611 0.250456
O O4 0.180477 0.111168 0.201282
O O5 0.664309 0.113698 0.922562
O O6 0.757775 0.865229 0.926527
O O7 0.759212 0.161454 0.000000
O O8 0.894962 0.219690 0.365708
O O9 0.977334 0.274052 0.267952
O O10 0.927271 0.948854 0.290624
O O11 0.591635 0.408397 0.068334
O O12 0.703314 0.553078 0.082158
O O13 0.624225 0.698699 0.000000
O O14 0.556620 0.141632 0.139339
O O15 0.566059 0.114204 0.000000
O O16 0.602927 0.130818 0.259293
O O17 0.702115 0.094603 0.500000
O O18 0.679641 0.092262 0.631904
#
# Coordination Sequence:
#
# PCOD9440992 Si02
#       8
#     8   8   8   8   8   8   8   8
#     4  10  18  29  47  67  87 114 147 183 219 257
#     4   9  17  28  43  64  89 115 142 176 219 261
#     4   9  17  28  42  63  90 117 145 179 219 258
#     4   9  16  26  42  64  88 114 145 177 209 253
#     4   9  16  26  42  64  88 114 145 177 209 253
#     4   9  17  28  42  63  90 117 145 179 219 258
#     4   9  17  28  43  64  89 115 142 176 219 261
#     4  10  18  29  47  67  87 114 147 183 219 257
#
# _framework density 21.172785999999999
#
# number of rings (size 3 to 8) (size 9 to 14) (size 15 to 20)
#    0.000    2.750    2.500    0.000    0.000    0.500 
#    0.000    2.500    0.000    3.750    0.000    8.750 
#    0.000    0.000    0.000    8.500    0.000    9.000 
#
# Total GULP energy -357510.705270 kJ/mol
# GULP energy per Si atom -5586.104770 kJ/mol
# Density = 2.112460 g / cm^3
# Si number density = 21.172786 Si / 1000 Ang^3
#
#
#
# Elastic Constant Matrix: (Units=GPa)
#
#
# Indices 1 2 3 4 5 6 
#
# 1 130.4324 15.7761 90.0237 0.0000 0.0000 0.0000
# 2 15.7761 68.1115 15.1343 0.0000 0.0000 0.0000
# 3 90.0237 15.1343 162.6735 0.0000 0.0000 0.0000
# 4 0.0000 0.0000 0.0000 9.8588 0.0000 0.0000
# 5 0.0000 0.0000 0.0000 0.0000 18.4773 0.0000
# 6 0.0000 0.0000 0.0000 0.0000 0.0000 13.2538
#
#
#
# Elastic Compliance Matrix: (Units=1/GPa)
#
#
# Indices 1 2 3 4 5 6 
#
# 1 0.012533 -0.001390 -0.006806 0.000000 0.000000 0.000000
# 2 -0.001390 0.015146 -0.000640 0.000000 0.000000 0.000000
# 3 -0.006806 -0.000640 0.009973 0.000000 0.000000 0.000000
# 4 0.000000 0.000000 0.000000 0.101432 0.000000 0.000000
# 5 0.000000 0.000000 0.000000 0.000000 0.054120 0.000000
# 6 0.000000 0.000000 0.000000 0.000000 0.000000 0.075450
#
#
# Mechanical properties :
#
#
# Convention : Reuss Voigt Hill
#
# Bulk Modulus (GPa) = 50.05168 67.00953 58.53060
# Shear Modulus (GPa) = 17.06563 24.33688 20.70126
#
# Velocity S-wave (km/s) = 2.84212 3.39402 3.13026
# Velocity P-wave (km/s) = 5.87036 6.86125 6.38506
#
# Compressibility (1/GPa) = 0.01997935
#
# Stress axis : x y z
#
# Youngs Moduli (GPa) = 79.79208 66.02407 100.26740
#
# Poissons Ratio (x) = 0.09181 0.68244
# Poissons Ratio (y) = 0.11095 0.06413
# Poissons Ratio (z) = 0.54308 0.04223
#
# Static dielectric constant tensor:
#      x y z
#    x 1.720000 0.000000 0.000000 
#    y 0.000000 1.861400 0.000000 
#    z 0.000000 0.000000 1.774420 
# 
# From -- ./inp_files/16613.got.cif
#   From: 2010.05.17/outbox.cif.g08.bks.cpg/sg58_9_cif.got.tgz:16613.got - 2010.06.03 14:20:14.
