data_PCOD9440371
_publ_section_title
;
Structure prediction by ZEFSAII (Michael W. Deem and Ramdas Pophale) SiO2 
 PCOD9440371
Probable space group: P B C M
;
_chemical_formula_sum "Si O2"
_cell_formula_units_Z 56
_cell_length_a 16.874746
_cell_length_b 25.617763
_cell_length_c 7.538935
_cell_angle_alpha 90.000000
_cell_angle_beta 90.000000
_cell_angle_gamma 90.000000
_cell_volume 3259.030665
_symmetry_space_group_name_H-M "P B C M"
_symmetry_group_IT_number 57
_symmetry_cell_setting 'orthorhombic'
loop_
_space_group_symop_operation_xyz
x,y,z
-x,-y,1/2+z
x,1/2-y,-z
-x,1/2+y,1/2-z
-x,-y,-z
x,y,1/2-z
-x,1/2+y,z
x,1/2-y,1/2+z
loop_
_atom_site_type_symbol
_atom_site_label
_atom_site_fract_x
_atom_site_fract_y
_atom_site_fract_z
Si Si1 0.037836 0.056784 0.037499
Si Si2 0.585598 0.308946 0.963005
Si Si3 0.803344 0.986847 0.962332
Si Si4 0.121250 0.900160 0.536097
Si Si5 0.375259 0.489789 0.535185
Si Si6 0.485658 0.584938 0.460558
Si Si7 0.233511 0.691198 0.037501
O O1 0.042770 0.063444 0.250000
O O2 0.969727 0.095837 0.970365
O O3 0.127785 0.052114 0.969002
O O4 0.000000 0.000000 0.000000
O O5 0.588801 0.313870 0.750000
O O6 0.533929 0.357498 0.030978
O O7 0.676229 0.313950 0.030641
O O8 0.557720 0.250000 0.000000
O O9 0.799825 0.979806 0.750000
O O10 0.714020 0.981504 0.030378
O O11 0.834408 0.045548 0.995224
O O12 0.117264 0.896282 0.750000
O O13 0.173558 0.852331 0.468169
O O14 0.374437 0.487889 0.750000
O O15 0.411026 0.546261 0.486677
O O16 0.438048 0.446498 0.468964
O O17 0.498416 0.590020 0.250000
O O18 0.237608 0.684824 0.250000
O O19 0.206703 0.750000 0.000000
#
# Coordination Sequence:
#
# PCOD9440371 Si02
#       7
#     8   8   8   8   8   8   8
#     4   8  14  24  37  54  76  99 123 150 178 213
#     4   9  17  28  41  56  75  99 127 160 194 228
#     4   9  16  25  38  58  81 102 125 153 186 222
#     4   9  16  26  40  56  76 103 130 154 183 221
#     4   9  17  27  40  59  82 106 130 158 192 232
#     4   9  17  29  42  57  79 105 132 160 193 233
#     4   9  17  27  38  54  74  96 124 155 186 221
#
# _framework density 17.183022999999999
#
# number of rings (size 3 to 8) (size 9 to 14) (size 15 to 20)
#    0.000    3.143    0.000    0.857    0.000    2.857 
#    0.000    2.857    0.000    0.000    0.000    1.000 
#    0.000    0.000    0.000    0.000    0.000    0.000 
#
# Total GULP energy -311829.791890 kJ/mol
# GULP energy per Si atom -5568.389141 kJ/mol
# Density = 1.714391 g / cm^3
# Si number density = 17.183023 Si / 1000 Ang^3
#
#
#
# Elastic Constant Matrix: (Units=GPa)
#
#
# Indices 1 2 3 4 5 6 
#
# 1 126.4093 59.2237 0.4689 0.0000 0.0000 0.0000
# 2 59.2237 110.0381 -0.1612 0.0000 0.0000 0.0000
# 3 0.4689 -0.1612 41.0403 0.0000 0.0000 0.0000
# 4 0.0000 0.0000 0.0000 7.8482 0.0000 0.0000
# 5 0.0000 0.0000 0.0000 0.0000 5.5887 0.0000
# 6 0.0000 0.0000 0.0000 0.0000 0.0000 21.1694
#
#
#
# Elastic Compliance Matrix: (Units=1/GPa)
#
#
# Indices 1 2 3 4 5 6 
#
# 1 0.010579 -0.005694 -0.000143 0.000000 0.000000 0.000000
# 2 -0.005694 0.012152 0.000113 0.000000 0.000000 0.000000
# 3 -0.000143 0.000113 0.024368 0.000000 0.000000 0.000000
# 4 0.000000 0.000000 0.000000 0.127418 0.000000 0.000000
# 5 0.000000 0.000000 0.000000 0.000000 0.178932 0.000000
# 6 0.000000 0.000000 0.000000 0.000000 0.000000 0.047238
#
#
# Mechanical properties :
#
#
# Convention : Reuss Voigt Hill
#
# Bulk Modulus (GPa) = 28.04963 44.06115 36.05539
# Shear Modulus (GPa) = 11.79189 21.45169 16.62179
#
# Velocity S-wave (km/s) = 2.62248 3.53714 3.11358
# Velocity P-wave (km/s) = 5.05266 6.50997 5.82705
#
# Compressibility (1/GPa) = 0.03565109
#
# Stress axis : x y z
#
# Youngs Moduli (GPa) = 94.52698 82.28783 41.03678
#
# Poissons Ratio (x) = 0.46854 0.00588
# Poissons Ratio (y) = 0.53823 -0.00463
# Poissons Ratio (z) = 0.01354 -0.00928
#
# Static dielectric constant tensor:
#      x y z
#    x 1.624810 0.000000 0.000000 
#    y 0.000000 1.566500 0.000000 
#    z 0.000000 0.000000 1.613570 
# 
# From -- ./inp_files/7321.got.cif
#   From: 2010.05.17/outbox.cif.g08.bks.cpg/sg57_4_cif.got.tgz:7321.got - 2010.06.03 13:58:18.
