data_PCOD9440440
_publ_section_title
;
Structure prediction by ZEFSAII (Michael W. Deem and Ramdas Pophale) SiO2 
 PCOD9440440
Probable space group: P B C M
;
_chemical_formula_sum "Si O2"
_cell_formula_units_Z 56
_cell_length_a 21.000000
_cell_length_b 15.000000
_cell_length_c 9.000000
_cell_angle_alpha 90.000000
_cell_angle_beta 90.000000
_cell_angle_gamma 90.000000
_cell_volume 2835.000000
_symmetry_space_group_name_H-M "P B C M"
_symmetry_group_IT_number 57
_symmetry_cell_setting 'orthorhombic'
loop_
_space_group_symop_operation_xyz
x,y,z
-x,-y,1/2+z
x,1/2-y,-z
-x,1/2+y,1/2-z
-x,-y,-z
x,y,1/2-z
-x,1/2+y,z
x,1/2-y,1/2+z
loop_
_atom_site_type_symbol
_atom_site_label
_atom_site_fract_x
_atom_site_fract_y
_atom_site_fract_z
Si Si1 0.850723 0.038647 0.429129
Si Si2 0.622122 0.019794 0.078837
Si Si3 0.736765 0.155976 0.421798
Si Si4 0.987025 0.096109 0.071834
Si Si5 0.889342 0.660695 0.928897
Si Si6 0.524975 0.157941 0.426867
Si Si7 0.627392 0.658750 0.075519
O O1 0.845387 0.030230 0.250000
O O2 0.789923 0.090172 0.488590
O O3 0.911732 0.102369 0.455980
O O4 0.860327 0.935578 0.478336
O O5 0.610359 0.992034 0.250000
O O6 0.672403 0.099711 0.076775
O O7 0.559448 0.068858 0.015364
O O8 0.649141 0.934205 0.994605
O O9 0.731340 0.250000 0.500000
O O10 0.753946 0.172891 0.250000
O O11 0.997835 0.097778 0.250000
O O12 0.037876 0.156230 0.987832
O O13 0.000000 0.000000 0.000000
O O14 0.887988 0.665705 0.750000
O O15 0.859797 0.750000 0.000000
O O16 0.548216 0.250000 0.500000
O O17 0.537068 0.162223 0.250000
O O18 0.449248 0.154286 0.449203
O O19 0.639848 0.662313 0.250000
O O20 0.650678 0.750000 0.000000
#
# Coordination Sequence:
#
# PCOD9440440 Si02
#       7
#     8   8   8   8   8   8   8
#     4   8  17  34  53  73 102 138 172 208 254 303
#     4  10  20  34  53  76 105 137 171 211 256 301
#     4  10  21  38  57  77 102 134 171 213 256 302
#     4   9  16  29  49  73 102 134 168 207 251 300
#     4  10  19  32  51  76 105 136 171 212 258 310
#     4   9  18  31  49  77 107 137 170 209 255 303
#     4  10  20  34  53  76 105 136 170 210 255 307
#
# _framework density 19.753086
#
# number of rings (size 3 to 8) (size 9 to 14) (size 15 to 20)
#    0.000    2.571    0.000    3.000    0.000    2.286 
#    0.000    6.429    0.000    1.714    0.000    0.000 
#    0.000    0.000    0.000    0.000    0.000    0.000 
#
# Total GULP energy -311910.838523 kJ/mol
# GULP energy per Si atom -5569.836402 kJ/mol
# Density = 1.970813 g / cm^3
# Si number density = 19.753086 Si / 1000 Ang^3
#
#
#
# Elastic Constant Matrix: (Units=GPa)
#
#
# Indices 1 2 3 4 5 6 
#
# 1 21.0135 10.6076 12.0438 0.0000 0.0000 0.0000
# 2 10.6076 147.5799 36.9223 0.0000 0.0000 0.0000
# 3 12.0438 36.9223 40.1578 0.0000 0.0000 0.0000
# 4 0.0000 0.0000 0.0000 35.6955 0.0000 0.0000
# 5 0.0000 0.0000 0.0000 0.0000 12.4154 0.0000
# 6 0.0000 0.0000 0.0000 0.0000 0.0000 19.7970
#
#
#
# Elastic Compliance Matrix: (Units=1/GPa)
#
#
# Indices 1 2 3 4 5 6 
#
# 1 0.057473 0.000236 -0.017453 0.000000 0.000000 0.000000
# 2 0.000236 0.008801 -0.008163 0.000000 0.000000 0.000000
# 3 -0.017453 -0.008163 0.037641 0.000000 0.000000 0.000000
# 4 0.000000 0.000000 0.000000 0.028015 0.000000 0.000000
# 5 0.000000 0.000000 0.000000 0.000000 0.080545 0.000000
# 6 0.000000 0.000000 0.000000 0.000000 0.000000 0.050513
#
#
# Mechanical properties :
#
#
# Convention : Reuss Voigt Hill
#
# Bulk Modulus (GPa) = 18.81312 36.43315 27.62313
# Shear Modulus (GPa) = 15.08443 23.52675 19.30559
#
# Velocity S-wave (km/s) = 2.76642 3.45489 3.12964
# Velocity P-wave (km/s) = 4.44398 5.86510 5.20328
#
# Compressibility (1/GPa) = 0.05315440
#
# Stress axis : x y z
#
# Youngs Moduli (GPa) = 17.39949 113.61997 26.56654
#
# Poissons Ratio (x) = -0.02677 0.46368
# Poissons Ratio (y) = -0.00410 0.21686
# Poissons Ratio (z) = 0.30368 0.92746
#
# Static dielectric constant tensor:
#      x y z
#    x 1.773070 0.000000 0.000000 
#    y 0.000000 1.693590 0.000000 
#    z 0.000000 0.000000 1.673560 
# 
# From -- ./inp_files/8025.got.cif
#   From: 2010.05.17/outbox.ucp.g08.bks.cvg/sg57_5_cif.got.tgz:8025.got - 2010.06.11 16:39:23.
