data_PCOD9440999
_publ_section_title
;
Structure prediction by ZEFSAII (Michael W. Deem and Ramdas Pophale) SiO2 
 PCOD9440999
Probable space group: P N N M
;
_chemical_formula_sum "Si O2"
_cell_formula_units_Z 64
_cell_length_a 15.544857
_cell_length_b 13.948564
_cell_length_c 19.215457
_cell_angle_alpha 90.000000
_cell_angle_beta 90.000000
_cell_angle_gamma 90.000000
_cell_volume 4166.457426
_symmetry_space_group_name_H-M "P N N M"
_symmetry_group_IT_number 58
_symmetry_cell_setting 'orthorhombic'
loop_
_space_group_symop_operation_xyz
x,y,z
-x,-y,z
1/2+x,1/2-y,1/2-z
1/2-x,1/2+y,1/2-z
-x,-y,-z
x,y,-z
1/2-x,1/2+y,1/2+z
1/2+x,1/2-y,1/2+z
loop_
_atom_site_type_symbol
_atom_site_label
_atom_site_fract_x
_atom_site_fract_y
_atom_site_fract_z
Si Si1 0.294348 0.289603 0.916721
Si Si2 0.559479 0.647864 0.188092
Si Si3 0.941786 0.411859 0.920387
Si Si4 0.660905 0.357025 0.654115
Si Si5 0.902300 0.041103 0.079609
Si Si6 0.873350 0.932674 0.304431
Si Si7 0.749525 0.991777 0.423122
Si Si8 0.034316 0.781148 0.838391
O O1 0.383437 0.306846 0.873753
O O2 0.234075 0.210931 0.878661
O O3 0.248510 0.393746 0.911286
O O4 0.305493 0.269414 0.000000
O O5 0.459948 0.622686 0.172380
O O6 0.599074 0.543667 0.209497
O O7 0.556377 0.712671 0.256966
O O8 0.845152 0.449759 0.921993
O O9 0.949978 0.320874 0.871896
O O10 0.000000 0.500000 0.896540
O O11 0.968116 0.386785 0.000000
O O12 0.655074 0.457529 0.612755
O O13 0.666592 0.384726 0.735631
O O14 0.566040 0.308572 0.649080
O O15 0.908318 0.138139 0.123394
O O16 0.878115 0.059937 0.000000
O O17 0.000000 0.000000 0.080420
O O18 0.806264 0.939710 0.366149
O O19 0.787909 0.977838 0.500000
#
# Coordination Sequence:
#
# PCOD9440999 Si02
#       8
#     8   8   8   8   8   8   8   8
#     4  10  20  32  48  72 101 131 162 202 254 305
#     4   9  18  32  49  71  97 125 165 207 250 298
#     4  10  20  32  47  69  99 133 165 199 240 293
#     4  10  18  29  47  70  99 127 156 199 250 300
#     4   9  16  26  43  68  95 123 154 188 233 293
#     4   9  17  32  50  69  96 129 162 208 255 289
#     4   9  19  33  48  69  96 129 167 202 241 294
#     4  10  18  30  47  69  95 129 162 196 244 293
#
# _framework density 15.360772000000001
#
# number of rings (size 3 to 8) (size 9 to 14) (size 15 to 20)
#    0.000    2.500    1.250    1.500    1.750    3.000 
#    0.000    2.500    0.000    0.000    0.000    0.000 
#    0.000    0.500    0.000    0.375    0.000    0.000 
#
# Total GULP energy -356465.070755 kJ/mol
# GULP energy per Si atom -5569.766731 kJ/mol
# Density = 1.532581 g / cm^3
# Si number density = 15.360772 Si / 1000 Ang^3
#
#
#
# Elastic Constant Matrix: (Units=GPa)
#
#
# Indices 1 2 3 4 5 6 
#
# 1 58.4207 47.6066 60.5174 0.0000 0.0000 0.0000
# 2 47.6066 91.6857 69.4882 0.0000 0.0000 0.0000
# 3 60.5174 69.4882 112.9782 0.0000 0.0000 0.0000
# 4 0.0000 0.0000 0.0000 23.2173 0.0000 0.0000
# 5 0.0000 0.0000 0.0000 0.0000 16.3596 0.0000
# 6 0.0000 0.0000 0.0000 0.0000 0.0000 21.8922
#
#
#
# Elastic Compliance Matrix: (Units=1/GPa)
#
#
# Indices 1 2 3 4 5 6 
#
# 1 0.042015 -0.008914 -0.017023 0.000000 0.000000 0.000000
# 2 -0.008914 0.022322 -0.008954 0.000000 0.000000 0.000000
# 3 -0.017023 -0.008954 0.023477 0.000000 0.000000 0.000000
# 4 0.000000 0.000000 0.000000 0.043071 0.000000 0.000000
# 5 0.000000 0.000000 0.000000 0.000000 0.061126 0.000000
# 6 0.000000 0.000000 0.000000 0.000000 0.000000 0.045678
#
#
# Mechanical properties :
#
#
# Convention : Reuss Voigt Hill
#
# Bulk Modulus (GPa) = 55.45915 68.70101 62.08008
# Shear Modulus (GPa) = 15.94980 17.99197 16.97088
#
# Velocity S-wave (km/s) = 3.22583 3.42613 3.32749
# Velocity P-wave (km/s) = 7.07513 7.77645 7.43407
#
# Compressibility (1/GPa) = 0.01803129
#
# Stress axis : x y z
#
# Youngs Moduli (GPa) = 23.80083 44.79919 42.59477
#
# Poissons Ratio (x) = 0.39935 0.72509
# Poissons Ratio (y) = 0.21217 0.38140
# Poissons Ratio (z) = 0.40516 0.40114
#
# Static dielectric constant tensor:
#      x y z
#    x 1.496950 0.000000 0.000000 
#    y 0.000000 1.495740 0.000000 
#    z 0.000000 0.000000 1.520430 
# 
# From -- ./inp_files/27008.got.cif
#   From: 2010.05.17/outbox.cif.g08.bks.cpg/sg58_14_cif.got.tgz:27008.got - 2010.06.03 14:20:14.
