data_PCOD9440987
_publ_section_title
;
Structure prediction by ZEFSAII (Michael W. Deem and Ramdas Pophale) SiO2 
 PCOD9440987
Probable space group: P N N M
;
_chemical_formula_sum "Si O2"
_cell_formula_units_Z 64
_cell_length_a 17.426111
_cell_length_b 20.793125
_cell_length_c 7.333988
_cell_angle_alpha 90.000000
_cell_angle_beta 90.000000
_cell_angle_gamma 90.000000
_cell_volume 2657.421446
_symmetry_space_group_name_H-M "P N N M"
_symmetry_group_IT_number 58
_symmetry_cell_setting 'orthorhombic'
loop_
_space_group_symop_operation_xyz
x,y,z
-x,-y,z
1/2+x,1/2-y,1/2-z
1/2-x,1/2+y,1/2-z
-x,-y,-z
x,y,-z
1/2-x,1/2+y,1/2+z
1/2+x,1/2-y,1/2+z
loop_
_atom_site_type_symbol
_atom_site_label
_atom_site_fract_x
_atom_site_fract_y
_atom_site_fract_z
Si Si1 0.944895 0.145251 0.211977
Si Si2 0.722209 0.886857 0.222888
Si Si3 0.114441 0.136324 0.206856
Si Si4 0.849876 0.517895 0.722410
Si Si5 0.168515 0.276518 0.712692
Si Si6 0.533302 0.117323 0.212832
Si Si7 0.781206 0.118071 0.223170
Si Si8 0.600417 0.791487 0.220892
O O1 0.868378 0.111938 0.287480
O O2 0.925372 0.221297 0.217864
O O3 0.029529 0.132462 0.290468
O O4 0.949216 0.126938 0.000000
O O5 0.809207 0.895088 0.288953
O O6 0.682957 0.819626 0.276302
O O7 0.668386 0.945817 0.277959
O O8 0.724833 0.886909 0.000000
O O9 0.138381 0.211595 0.198893
O O10 0.108672 0.111506 0.000000
O O11 0.852996 0.519101 0.500000
O O12 0.927422 0.552752 0.786719
O O13 0.776944 0.561751 0.775236
O O14 0.179594 0.261396 0.500000
O O15 0.101571 0.330118 0.721204
O O16 0.243081 0.314381 0.783528
O O17 0.460360 0.154880 0.286569
O O18 0.514820 0.104070 0.000000
O O19 0.781428 0.119941 0.000000
O O20 0.597473 0.789541 0.000000
#
# Coordination Sequence:
#
# PCOD9440987 Si02
#       8
#     8   8   8   8   8   8   8   8
#     4  10  19  30  44  66  94 121 148 179 219 267
#     4   9  18  29  42  64  93 121 144 181 231 266
#     4  10  19  29  41  63  95 120 142 177 223 270
#     4   8  14  27  44  63  90 118 147 184 225 260
#     4   9  15  27  46  65  85 111 147 183 218 259
#     4   8  14  24  42  67  89 110 140 181 219 257
#     4   8  15  27  45  65  85 114 151 187 215 253
#     4  10  18  29  46  70  96 114 143 187 226 267
#
# _framework density 24.083497999999999
#
# number of rings (size 3 to 8) (size 9 to 14) (size 15 to 20)
#    0.000    3.000    1.250    2.250    0.000    0.500 
#    0.000    3.125    0.000    3.750    0.000   11.375 
#    0.000    2.000    0.000    0.000    0.000    0.000 
#
# Total GULP energy -357271.677268 kJ/mol
# GULP energy per Si atom -5582.369957 kJ/mol
# Density = 2.402868 g / cm^3
# Si number density = 24.083498 Si / 1000 Ang^3
#
#
#
# Elastic Constant Matrix: (Units=GPa)
#
#
# Indices 1 2 3 4 5 6 
#
# 1 54.3892 -34.7309 1.8292 0.0000 0.0000 0.0000
# 2 -34.7309 36.8498 -9.5728 0.0000 0.0000 0.0000
# 3 1.8292 -9.5728 91.3700 0.0000 0.0000 0.0000
# 4 0.0000 0.0000 0.0000 26.1762 0.0000 0.0000
# 5 0.0000 0.0000 0.0000 0.0000 -6.6298 0.0000
# 6 0.0000 0.0000 0.0000 0.0000 0.0000 34.5311
#
#
#
# Elastic Compliance Matrix: (Units=1/GPa)
#
#
# Indices 1 2 3 4 5 6 
#
# 1 0.047454 0.045723 0.003840 0.000000 0.000000 0.000000
# 2 0.045723 0.071951 0.006623 0.000000 0.000000 0.000000
# 3 0.003840 0.006623 0.011562 0.000000 0.000000 0.000000
# 4 0.000000 0.000000 0.000000 0.038203 0.000000 0.000000
# 5 0.000000 0.000000 0.000000 0.000000 -0.150835 0.000000
# 6 0.000000 0.000000 0.000000 0.000000 0.000000 0.028959
#
#
# Mechanical properties :
#
#
# Convention : Reuss Voigt Hill
#
# Bulk Modulus (GPa) = 4.10950 10.85110 7.48030
# Shear Modulus (GPa) = 311.83184 25.82106 168.82645
#
# Velocity S-wave (km/s) = 11.39125 3.27792 8.38169
# Velocity P-wave (km/s) = 13.21833 4.34071 9.83783
#
# Compressibility (1/GPa) = 0.24333833
#
# Stress axis : x y z
#
# Youngs Moduli (GPa) = 21.07320 13.89830 86.49379
#
# Poissons Ratio (x) = -0.63547 -0.33217
# Poissons Ratio (y) = -0.96352 -0.57285
# Poissons Ratio (z) = -0.08093 -0.09205
#
# Static dielectric constant tensor:
#      x y z
#    x 1.953960 0.000000 0.000000 
#    y 0.000000 1.878610 0.000000 
#    z 0.000000 0.000000 2.034960 
# 
# From -- ./inp_files/8246.got.cif
#   From: 2010.05.17/outbox.cif.g08.bks.cpg/sg58_5_cif.got.tgz:8246.got - 2010.06.03 14:20:14.
