data_PCOD9440162
_publ_section_title
;
Structure prediction by ZEFSAII (Michael W. Deem and Ramdas Pophale) SiO2 
 PCOD9440162
Probable space group: P B C M
;
_chemical_formula_sum "Si O2"
_cell_formula_units_Z 40
_cell_length_a 15.176241
_cell_length_b 8.604640
_cell_length_c 16.642576
_cell_angle_alpha 90.000000
_cell_angle_beta 90.000000
_cell_angle_gamma 90.000000
_cell_volume 2173.288933
_symmetry_space_group_name_H-M "P B C M"
_symmetry_group_IT_number 57
_symmetry_cell_setting 'orthorhombic'
loop_
_space_group_symop_operation_xyz
x,y,z
-x,-y,1/2+z
x,1/2-y,-z
-x,1/2+y,1/2-z
-x,-y,-z
x,y,1/2-z
-x,1/2+y,z
x,1/2-y,1/2+z
loop_
_atom_site_type_symbol
_atom_site_label
_atom_site_fract_x
_atom_site_fract_y
_atom_site_fract_z
Si Si1 0.402421 0.566163 0.011543
Si Si2 0.259207 0.361848 0.923757
Si Si3 0.097924 0.018854 0.843617
Si Si4 0.292921 0.450984 0.155990
Si Si5 0.915784 0.608459 0.343983
O O1 0.367058 0.522290 0.099933
O O2 0.401372 0.750000 0.000000
O O3 0.500000 0.500000 0.000000
O O4 0.335069 0.478830 0.951103
O O5 0.290292 0.235819 0.857522
O O6 0.170360 0.442837 0.892768
O O7 0.239009 0.250000 0.000000
O O8 0.098967 0.969318 0.750000
O O9 0.196635 0.986993 0.873644
O O10 0.086827 0.204601 0.845627
O O11 0.009493 0.945584 0.878821
O O12 0.302484 0.484142 0.250000
O O13 0.908959 0.558835 0.250000
#
# Coordination Sequence:
#
# PCOD9440162 Si02
#       5
#     8   8   8   8   8
#     4  11  23  41  60  80 109 142 174 222 285 333
#     4   9  18  34  55  77 106 141 179 222 273 321
#     4   8  15  27  47  73 106 142 177 217 262 306
#     4   9  18  37  60  82 108 145 187 225 263 318
#     4   9  16  29  48  74 106 142 178 216 260 312
#
# _framework density 18.405283000000001
#
# number of rings (size 3 to 8) (size 9 to 14) (size 15 to 20)
#    0.000    2.800    0.000    3.600    0.000    1.600 
#    0.000   19.000    0.000    0.000    0.000    0.000 
#    0.000    0.000    0.000    0.000    0.000    0.000 
#
# Total GULP energy -222865.603015 kJ/mol
# GULP energy per Si atom -5571.640075 kJ/mol
# Density = 1.836339 g / cm^3
# Si number density = 18.405283 Si / 1000 Ang^3
#
#
#
# Elastic Constant Matrix: (Units=GPa)
#
#
# Indices 1 2 3 4 5 6 
#
# 1 189.6615 58.3652 76.2008 0.0000 0.0000 0.0000
# 2 58.3652 54.7036 28.7441 0.0000 0.0000 0.0000
# 3 76.2008 28.7441 57.4914 0.0000 0.0000 0.0000
# 4 0.0000 0.0000 0.0000 16.9571 0.0000 0.0000
# 5 0.0000 0.0000 0.0000 0.0000 33.5310 0.0000
# 6 0.0000 0.0000 0.0000 0.0000 0.0000 35.1806
#
#
#
# Elastic Compliance Matrix: (Units=1/GPa)
#
#
# Indices 1 2 3 4 5 6 
#
# 1 0.012742 -0.006403 -0.013688 0.000000 0.000000 0.000000
# 2 -0.006403 0.028012 -0.005518 0.000000 0.000000 0.000000
# 3 -0.013688 -0.005518 0.038295 0.000000 0.000000 0.000000
# 4 0.000000 0.000000 0.000000 0.058972 0.000000 0.000000
# 5 0.000000 0.000000 0.000000 0.000000 0.029823 0.000000
# 6 0.000000 0.000000 0.000000 0.000000 0.000000 0.028425
#
#
# Mechanical properties :
#
#
# Convention : Reuss Voigt Hill
#
# Bulk Modulus (GPa) = 35.93133 69.83075 52.88104
# Shear Modulus (GPa) = 19.47314 26.37016 22.92165
#
# Velocity S-wave (km/s) = 3.25625 3.78927 3.53283
# Velocity P-wave (km/s) = 5.80536 7.56094 6.74055
#
# Compressibility (1/GPa) = 0.02783086
#
# Stress axis : x y z
#
# Youngs Moduli (GPa) = 78.47869 35.69958 26.11312
#
# Poissons Ratio (x) = 0.22858 0.35743
# Poissons Ratio (y) = 0.50250 0.14410
# Poissons Ratio (z) = 1.07419 0.19700
#
# Static dielectric constant tensor:
#      x y z
#    x 1.658000 0.000000 0.000000 
#    y 0.000000 1.624010 0.000000 
#    z 0.000000 0.000000 1.666810 
# 
# From -- ./inp_files/18203.got.cif
#   From: 2010.05.17/outbox.cif.g08.bks.cpg/sg57_10_cif.got.tgz:18203.got - 2010.06.03 13:58:18.
