data_PCOD9440904
_publ_section_title
;
Structure prediction by ZEFSAII (Michael W. Deem and Ramdas Pophale) SiO2 
 PCOD9440904
Probable space group: P N N M
;
_chemical_formula_sum "Si O2"
_cell_formula_units_Z 64
_cell_length_a 26.990072
_cell_length_b 18.937890
_cell_length_c 8.885581
_cell_angle_alpha 90.000000
_cell_angle_beta 90.000000
_cell_angle_gamma 90.000000
_cell_volume 4541.731574
_symmetry_space_group_name_H-M "P N N M"
_symmetry_group_IT_number 58
_symmetry_cell_setting 'orthorhombic'
loop_
_space_group_symop_operation_xyz
x,y,z
-x,-y,z
1/2+x,1/2-y,1/2-z
1/2-x,1/2+y,1/2-z
-x,-y,-z
x,y,-z
1/2-x,1/2+y,1/2+z
1/2+x,1/2-y,1/2+z
loop_
_atom_site_type_symbol
_atom_site_label
_atom_site_fract_x
_atom_site_fract_y
_atom_site_fract_z
Si Si1 0.200604 0.199307 0.677600
Si Si2 0.290998 0.281020 0.821915
Si Si3 0.355595 0.154813 0.821561
Si Si4 0.351310 0.835968 0.181139
Si Si5 0.054563 0.574928 0.820677
Si Si6 0.449069 0.921133 0.180854
Si Si7 0.759262 0.579290 0.821749
Si Si8 0.752514 0.426386 0.321089
O O1 0.197678 0.186873 0.500000
O O2 0.249443 0.244586 0.719570
O O3 0.157290 0.253895 0.723650
O O4 0.209790 0.125497 0.759858
O O5 0.340774 0.236693 0.795434
O O6 0.285222 0.364240 0.796110
O O7 0.278416 0.268522 0.000000
O O8 0.401552 0.126699 0.727982
O O9 0.305978 0.109532 0.784660
O O10 0.365438 0.145263 0.000000
O O11 0.405007 0.867121 0.216930
O O12 0.308840 0.883725 0.257172
O O13 0.344450 0.840672 0.000000
O O14 0.064413 0.498165 0.746614
O O15 0.001623 0.598488 0.753789
O O16 0.051486 0.567865 0.000000
O O17 0.454056 0.926201 0.000000
O O18 0.750563 0.504077 0.747064
O O19 0.765101 0.570250 0.000000
O O20 0.749445 0.429712 0.500000
#
# Coordination Sequence:
#
# PCOD9440904 Si02
#       8
#     8   8   8   8   8   8   8   8
#     4   9  16  27  42  60  81 104 134 171 205 237
#     4   8  16  29  42  58  81 108 137 167 201 243
#     4   9  17  30  44  56  77 111 143 167 198 242
#     4   9  18  30  44  61  81 108 140 171 204 245
#     4  11  21  30  41  61  84 104 135 177 210 234
#     4  10  19  32  46  58  78 110 141 167 203 246
#     4  10  18  27  42  63  85 110 139 171 205 239
#     4  10  19  29  41  59  84 113 142 169 200 242
#
# _framework density 14.091540999999999
#
# number of rings (size 3 to 8) (size 9 to 14) (size 15 to 20)
#    0.000    2.500    0.000    4.875    0.000    7.500 
#    0.000    0.000    0.000    0.000    0.000    0.000 
#    0.000    1.000    0.000   11.500    0.000    4.500 
#
# Total GULP energy -356487.860123 kJ/mol
# GULP energy per Si atom -5570.122814 kJ/mol
# Density = 1.405947 g / cm^3
# Si number density = 14.091541 Si / 1000 Ang^3
#
#
#
# Elastic Constant Matrix: (Units=GPa)
#
#
# Indices 1 2 3 4 5 6 
#
# 1 76.6890 52.3605 40.0020 0.0000 0.0000 0.0000
# 2 52.3605 111.0799 45.7329 0.0000 0.0000 0.0000
# 3 40.0020 45.7329 53.5323 0.0000 0.0000 0.0000
# 4 0.0000 0.0000 0.0000 20.6181 0.0000 0.0000
# 5 0.0000 0.0000 0.0000 0.0000 17.1835 0.0000
# 6 0.0000 0.0000 0.0000 0.0000 0.0000 24.0598
#
#
#
# Elastic Compliance Matrix: (Units=1/GPa)
#
#
# Indices 1 2 3 4 5 6 
#
# 1 0.023694 -0.005984 -0.012593 0.000000 0.000000 0.000000
# 2 -0.005984 0.015398 -0.008683 0.000000 0.000000 0.000000
# 3 -0.012593 -0.008683 0.035509 0.000000 0.000000 0.000000
# 4 0.000000 0.000000 0.000000 0.048501 0.000000 0.000000
# 5 0.000000 0.000000 0.000000 0.000000 0.058195 0.000000
# 6 0.000000 0.000000 0.000000 0.000000 0.000000 0.041563
#
#
# Mechanical properties :
#
#
# Convention : Reuss Voigt Hill
#
# Bulk Modulus (GPa) = 49.80053 57.49909 53.64981
# Shear Modulus (GPa) = 17.60098 19.25268 18.42683
#
# Velocity S-wave (km/s) = 3.53802 3.70030 3.62007
# Velocity P-wave (km/s) = 7.21856 7.69083 7.45843
#
# Compressibility (1/GPa) = 0.02008011
#
# Stress axis : x y z
#
# Youngs Moduli (GPa) = 42.20438 64.94242 28.16211
#
# Poissons Ratio (x) = 0.38862 0.35465
# Poissons Ratio (y) = 0.25256 0.24454
# Poissons Ratio (z) = 0.53149 0.56391
#
# Static dielectric constant tensor:
#      x y z
#    x 1.451510 0.000000 0.000000 
#    y 0.000000 1.477960 0.000000 
#    z 0.000000 0.000000 1.471110 
# 
# From -- ./inp_files/10548.got.cif
#   From: 2010.05.17/outbox.cif.g08.bks.cpg/sg58_6_cif.got.tgz:10548.got - 2010.06.03 14:20:14.
