data_PCOD9440038
_publ_section_title
;
Structure prediction by ZEFSAII (Michael W. Deem and Ramdas Pophale) SiO2 
 PCOD9440038
Probable space group: P B C M
;
_chemical_formula_sum "Si O2"
_cell_formula_units_Z 48
_cell_length_a 9.790963
_cell_length_b 8.762541
_cell_length_c 27.533636
_cell_angle_alpha 90.000000
_cell_angle_beta 90.000000
_cell_angle_gamma 90.000000
_cell_volume 2362.212912
_symmetry_space_group_name_H-M "P B C M"
_symmetry_group_IT_number 57
_symmetry_cell_setting 'orthorhombic'
loop_
_space_group_symop_operation_xyz
x,y,z
-x,-y,1/2+z
x,1/2-y,-z
-x,1/2+y,1/2-z
-x,-y,-z
x,y,1/2-z
-x,1/2+y,z
x,1/2-y,1/2+z
loop_
_atom_site_type_symbol
_atom_site_label
_atom_site_fract_x
_atom_site_fract_y
_atom_site_fract_z
Si Si1 0.168144 0.848462 0.650289
Si Si2 0.299152 0.710454 0.555554
Si Si3 0.590074 0.556068 0.652952
Si Si4 0.512288 0.963071 0.556305
Si Si5 0.948138 0.044146 0.694033
Si Si6 0.660491 0.615182 0.306492
O O1 0.201627 0.780016 0.596919
O O2 0.106353 0.712337 0.682087
O O3 0.308585 0.921727 0.670078
O O4 0.060879 0.986452 0.656048
O O5 0.254844 0.750000 0.500000
O O6 0.335976 0.532312 0.565890
O O7 0.448219 0.794021 0.560484
O O8 0.587250 0.544163 0.594848
O O9 0.633919 0.721653 0.669608
O O10 0.439337 0.510730 0.670463
O O11 0.500000 0.000000 0.500000
O O12 0.999109 0.038379 0.750000
O O13 0.816731 0.935107 0.689633
O O14 0.625565 0.626909 0.250000
#
# Coordination Sequence:
#
# PCOD9440038 Si02
#       6
#     8   8   8   8   8   8
#     4  11  23  39  60  83 113 151 196 244 289 347
#     4   9  18  34  58  88 120 153 188 231 286 347
#     4  11  21  36  59  87 116 147 187 241 292 340
#     4   9  17  31  54  84 116 147 180 221 274 337
#     4  11  24  41  59  80 111 155 199 240 293 354
#     4  11  23  37  56  84 116 149 189 237 293 351
#
# _framework density 20.319928000000001
#
# number of rings (size 3 to 8) (size 9 to 14) (size 15 to 20)
#    0.000    1.667    0.000    6.000    0.000    5.333 
#    0.000    0.833    0.000    2.000    0.000    0.000 
#    0.000    0.000    0.000    0.000    0.000    0.000 
#
# Total GULP energy -267465.382585 kJ/mol
# GULP energy per Si atom -5572.195471 kJ/mol
# Density = 2.027368 g / cm^3
# Si number density = 20.319928 Si / 1000 Ang^3
#
#
#
# Elastic Constant Matrix: (Units=GPa)
#
#
# Indices 1 2 3 4 5 6 
#
# 1 49.8998 -3.9877 19.5213 0.0000 0.0000 0.0000
# 2 -3.9877 44.3768 12.9062 0.0000 0.0000 0.0000
# 3 19.5213 12.9062 54.5586 0.0000 0.0000 0.0000
# 4 0.0000 0.0000 0.0000 30.9473 0.0000 0.0000
# 5 0.0000 0.0000 0.0000 0.0000 26.4120 0.0000
# 6 0.0000 0.0000 0.0000 0.0000 0.0000 26.3426
#
#
#
# Elastic Compliance Matrix: (Units=1/GPa)
#
#
# Indices 1 2 3 4 5 6 
#
# 1 0.024317 0.005064 -0.009899 0.000000 0.000000 0.000000
# 2 0.005064 0.025254 -0.007786 0.000000 0.000000 0.000000
# 3 -0.009899 -0.007786 0.023713 0.000000 0.000000 0.000000
# 4 0.000000 0.000000 0.000000 0.032313 0.000000 0.000000
# 5 0.000000 0.000000 0.000000 0.000000 0.037862 0.000000
# 6 0.000000 0.000000 0.000000 0.000000 0.000000 0.037961
#
#
# Mechanical properties :
#
#
# Convention : Reuss Voigt Hill
#
# Bulk Modulus (GPa) = 20.81494 22.85718 21.83606
# Shear Modulus (GPa) = 22.45426 24.76673 23.61049
#
# Velocity S-wave (km/s) = 3.32781 3.49498 3.41242
# Velocity P-wave (km/s) = 5.00316 5.24972 5.12792
#
# Compressibility (1/GPa) = 0.04804241
#
# Stress axis : x y z
#
# Youngs Moduli (GPa) = 41.12296 39.59809 42.17177
#
# Poissons Ratio (x) = -0.20053 0.41745
# Poissons Ratio (y) = -0.20825 0.32834
# Poissons Ratio (z) = 0.40707 0.30831
#
# Static dielectric constant tensor:
#      x y z
#    x 1.719290 0.000000 0.000000 
#    y 0.000000 1.804020 0.000000 
#    z 0.000000 0.000000 1.734180 
# 
# From -- ./inp_files/29441.got.cif
#   From: 2010.05.17/outbox.cif.g08.bks.cpg/sg57_15_cif.got.tgz:29441.got - 2010.06.03 13:58:18.
