data_PCOD9440619
_publ_section_title
;
Structure prediction by ZEFSAII (Michael W. Deem and Ramdas Pophale) SiO2 
 PCOD9440619
Probable space group: P B C M
;
_chemical_formula_sum "Si O2"
_cell_formula_units_Z 64
_cell_length_a 12.000000
_cell_length_b 15.000000
_cell_length_c 18.000000
_cell_angle_alpha 90.000000
_cell_angle_beta 90.000000
_cell_angle_gamma 90.000000
_cell_volume 3240.000000
_symmetry_space_group_name_H-M "P B C M"
_symmetry_group_IT_number 57
_symmetry_cell_setting 'orthorhombic'
loop_
_space_group_symop_operation_xyz
x,y,z
-x,-y,1/2+z
x,1/2-y,-z
-x,1/2+y,1/2-z
-x,-y,-z
x,y,1/2-z
-x,1/2+y,z
x,1/2-y,1/2+z
loop_
_atom_site_type_symbol
_atom_site_label
_atom_site_fract_x
_atom_site_fract_y
_atom_site_fract_z
Si Si1 0.596226 0.391138 0.338180
Si Si2 0.214458 0.401534 0.053226
Si Si3 0.920977 0.965119 0.666725
Si Si4 0.188724 0.766791 0.336485
Si Si5 0.315420 0.080845 0.110739
Si Si6 0.146994 0.591859 0.395566
Si Si7 0.043827 0.628639 0.555465
Si Si8 0.594185 0.730295 0.587093
O O1 0.573847 0.396930 0.250000
O O2 0.712138 0.337241 0.347995
O O3 0.617167 0.490886 0.369344
O O4 0.500576 0.332409 0.377523
O O5 0.199920 0.493310 0.099299
O O6 0.290318 0.325755 0.090280
O O7 0.088041 0.367570 0.039898
O O8 0.275498 0.421913 0.975268
O O9 0.923955 0.003001 0.750000
O O10 0.801764 0.918798 0.655408
O O11 0.032866 0.908918 0.652576
O O12 0.932002 0.040883 0.604338
O O13 0.156786 0.769473 0.250000
O O14 0.224205 0.667429 0.360248
O O15 0.089766 0.792990 0.392773
O O16 0.384227 0.172108 0.122380
O O17 0.110918 0.617506 0.479290
O O18 0.568985 0.750000 0.500000
#
# Coordination Sequence:
#
# PCOD9440619 Si02
#       8
#     8   8   8   8   8   8   8   8
#     4  11  25  46  65  89 129 173 222 270 324 389
#     4  10  21  41  63  97 133 163 213 272 321 386
#     4  11  20  35  59  91 130 170 213 256 315 386
#     4  11  24  39  60  94 130 172 221 270 325 388
#     4  11  21  41  68  92 124 169 218 265 328 392
#     4  11  21  36  61  96 133 174 211 258 325 391
#     4  11  20  37  64  94 131 172 213 259 321 387
#     4  10  26  43  68  99 127 164 222 279 327 382
#
# _framework density 19.753086
#
# number of rings (size 3 to 8) (size 9 to 14) (size 15 to 20)
#    0.000    1.250    3.750    2.250    1.750    7.000 
#    0.000    5.000    0.000    0.000    0.000    0.000 
#    0.000    0.000    0.000    0.000    0.000    0.000 
#
# Total GULP energy -357544.813750 kJ/mol
# GULP energy per Si atom -5586.637715 kJ/mol
# Density = 1.970813 g / cm^3
# Si number density = 19.753086 Si / 1000 Ang^3
#
#
#
# Elastic Constant Matrix: (Units=GPa)
#
#
# Indices 1 2 3 4 5 6 
#
# 1 76.1869 57.1674 37.7584 0.0000 0.0000 0.0000
# 2 57.1674 157.2972 46.1240 0.0000 0.0000 0.0000
# 3 37.7584 46.1240 81.6041 0.0000 0.0000 0.0000
# 4 0.0000 0.0000 0.0000 -51.3054 0.0000 0.0000
# 5 0.0000 0.0000 0.0000 0.0000 19.7707 0.0000
# 6 0.0000 0.0000 0.0000 0.0000 0.0000 29.2371
#
#
#
# Elastic Compliance Matrix: (Units=1/GPa)
#
#
# Indices 1 2 3 4 5 6 
#
# 1 0.020435 -0.005579 -0.006302 0.000000 0.000000 0.000000
# 2 -0.005579 0.009143 -0.002587 0.000000 0.000000 0.000000
# 3 -0.006302 -0.002587 0.016632 0.000000 0.000000 0.000000
# 4 0.000000 0.000000 0.000000 -0.019491 0.000000 0.000000
# 5 0.000000 0.000000 0.000000 0.000000 0.050580 0.000000
# 6 0.000000 0.000000 0.000000 0.000000 0.000000 0.034203
#
#
# Mechanical properties :
#
#
# Convention : Reuss Voigt Hill
#
# Bulk Modulus (GPa) = 57.88521 66.35419 62.11970
# Shear Modulus (GPa) = 34.20052 11.14304 22.67178
#
# Velocity S-wave (km/s) = 4.16553 2.37769 3.39153
# Velocity P-wave (km/s) = 7.24593 6.41893 6.84493
#
# Compressibility (1/GPa) = 0.01727557
#
# Stress axis : x y z
#
# Youngs Moduli (GPa) = 48.93534 109.36793 60.12394
#
# Poissons Ratio (x) = 0.61015 0.37891
# Poissons Ratio (y) = 0.27301 0.15552
# Poissons Ratio (z) = 0.30840 0.28290
#
# Static dielectric constant tensor:
#      x y z
#    x 1.687730 0.000000 0.000000 
#    y 0.000000 1.748680 0.000000 
#    z 0.000000 0.000000 1.688500 
# 
# From -- ./inp_files/22035.got.cif
#   From: 2010.05.17/outbox.ucp.g08.bks.cvg/sg57_12_cif.got.tgz:22035.got - 2010.06.11 16:39:23.
