data_PCOD9440118
_publ_section_title
;
Structure prediction by ZEFSAII (Michael W. Deem and Ramdas Pophale) SiO2 
 PCOD9440118
Probable space group: P B C M
;
_chemical_formula_sum "Si O2"
_cell_formula_units_Z 56
_cell_length_a 6.102844
_cell_length_b 20.451565
_cell_length_c 20.915444
_cell_angle_alpha 90.000000
_cell_angle_beta 90.000000
_cell_angle_gamma 90.000000
_cell_volume 2610.513262
_symmetry_space_group_name_H-M "P B C M"
_symmetry_group_IT_number 57
_symmetry_cell_setting 'orthorhombic'
loop_
_space_group_symop_operation_xyz
x,y,z
-x,-y,1/2+z
x,1/2-y,-z
-x,1/2+y,1/2-z
-x,-y,-z
x,y,1/2-z
-x,1/2+y,z
x,1/2-y,1/2+z
loop_
_atom_site_type_symbol
_atom_site_label
_atom_site_fract_x
_atom_site_fract_y
_atom_site_fract_z
Si Si1 0.363274 0.031151 0.750000
Si Si2 0.709005 0.747007 0.326627
Si Si3 0.061568 0.379462 0.869815
Si Si4 0.622407 0.614503 0.877430
Si Si5 0.751335 0.328667 0.450264
Si Si6 0.883276 0.929073 0.004522
Si Si7 0.863393 0.529893 0.250000
Si Si8 0.331707 0.689438 0.414772
O O1 0.367780 0.072329 0.685386
O O2 0.609863 0.997423 0.750000
O O3 0.109310 0.003668 0.750000
O O4 0.681450 0.755069 0.250000
O O5 0.744405 0.816915 0.360684
O O6 0.501557 0.713659 0.362271
O O7 0.887724 0.692392 0.342277
O O8 0.807288 0.371668 0.889735
O O9 0.120237 0.428042 0.814101
O O10 0.183651 0.404370 0.933822
O O11 0.376769 0.637110 0.893319
O O12 0.707474 0.574317 0.938688
O O13 0.589597 0.325025 0.512623
O O14 0.809548 0.255116 0.430299
O O15 0.946549 0.373560 0.472790
O O16 0.000000 0.000000 0.000000
#
# Coordination Sequence:
#
# PCOD9440118 Si02
#       8
#     4   8   8   8   8   8   4   8
#     4  12  30  51  73 102 150 200 248 294 370 442
#     4  11  22  40  65 103 136 182 244 303 384 436
#     4  11  24  42  69 103 140 188 241 308 366 442
#     4  11  24  45  70  99 139 186 245 309 370 441
#     4   9  20  40  65  98 132 176 230 303 365 433
#     4  11  24  42  66 100 137 188 249 297 373 438
#     4  12  30  51  73 102 152 202 244 302 364 446
#     4   9  20  38  65  97 136 174 228 302 374 428
#
# _framework density 21.451720000000002
#
# number of rings (size 3 to 8) (size 9 to 14) (size 15 to 20)
#    0.000    1.429    1.429    2.571    7.000    3.429 
#    0.000    0.000    0.000    0.000    0.000    0.000 
#    0.000    0.000    0.000    0.000    0.000    0.000 
#
# Total GULP energy -311882.624229 kJ/mol
# GULP energy per Si atom -5569.332576 kJ/mol
# Density = 2.140289 g / cm^3
# Si number density = 21.451720 Si / 1000 Ang^3
#
#
#
# Elastic Constant Matrix: (Units=GPa)
#
#
# Indices 1 2 3 4 5 6 
#
# 1 45.0844 20.8998 24.0870 0.0000 0.0000 0.0000
# 2 20.8998 63.1635 33.5133 0.0000 0.0000 0.0000
# 3 24.0870 33.5133 144.9025 0.0000 0.0000 0.0000
# 4 0.0000 0.0000 0.0000 94.3762 0.0000 0.0000
# 5 0.0000 0.0000 0.0000 0.0000 44.2953 0.0000
# 6 0.0000 0.0000 0.0000 0.0000 0.0000 20.6754
#
#
#
# Elastic Compliance Matrix: (Units=1/GPa)
#
#
# Indices 1 2 3 4 5 6 
#
# 1 0.027144 -0.007509 -0.002775 0.000000 0.000000 0.000000
# 2 -0.007509 0.020124 -0.003406 0.000000 0.000000 0.000000
# 3 -0.002775 -0.003406 0.008150 0.000000 0.000000 0.000000
# 4 0.000000 0.000000 0.000000 0.010596 0.000000 0.000000
# 5 0.000000 0.000000 0.000000 0.000000 0.022576 0.000000
# 6 0.000000 0.000000 0.000000 0.000000 0.000000 0.048367
#
#
# Mechanical properties :
#
#
# Convention : Reuss Voigt Hill
#
# Bulk Modulus (GPa) = 35.66671 45.57229 40.61950
# Shear Modulus (GPa) = 28.78796 43.51273 36.15034
#
# Velocity S-wave (km/s) = 3.66729 4.50867 4.10957
# Velocity P-wave (km/s) = 5.88172 6.95660 6.44162
#
# Compressibility (1/GPa) = 0.02803735
#
# Stress axis : x y z
#
# Youngs Moduli (GPa) = 36.83999 49.69261 122.69471
#
# Poissons Ratio (x) = 0.37314 0.34054
# Poissons Ratio (y) = 0.27663 0.41790
# Poissons Ratio (z) = 0.10225 0.16925
#
# Static dielectric constant tensor:
#      x y z
#    x 1.860720 0.000000 0.000000 
#    y 0.000000 1.803050 0.000000 
#    z 0.000000 0.000000 1.765180 
# 
# From -- ./inp_files/26319.got.cif
#   From: 2010.05.17/outbox.cif.g08.bks.cpg/sg57_14_cif.got.tgz:26319.got - 2010.06.03 13:58:18.
