data_PCOD9440166
_publ_section_title
;
Structure prediction by ZEFSAII (Michael W. Deem and Ramdas Pophale) SiO2 
 PCOD9440166
Probable space group: P B C M
;
_chemical_formula_sum "Si O2"
_cell_formula_units_Z 64
_cell_length_a 22.784628
_cell_length_b 9.090259
_cell_length_c 15.050177
_cell_angle_alpha 90.000000
_cell_angle_beta 90.000000
_cell_angle_gamma 90.000000
_cell_volume 3117.165114
_symmetry_space_group_name_H-M "P B C M"
_symmetry_group_IT_number 57
_symmetry_cell_setting 'orthorhombic'
loop_
_space_group_symop_operation_xyz
x,y,z
-x,-y,1/2+z
x,1/2-y,-z
-x,1/2+y,1/2-z
-x,-y,-z
x,y,1/2-z
-x,1/2+y,z
x,1/2-y,1/2+z
loop_
_atom_site_type_symbol
_atom_site_label
_atom_site_fract_x
_atom_site_fract_y
_atom_site_fract_z
Si Si1 0.936914 0.576528 0.998520
Si Si2 0.476611 0.869731 0.434445
Si Si3 0.280666 0.548208 0.351386
Si Si4 0.677811 0.603232 0.011432
Si Si5 0.426247 0.147590 0.353152
Si Si6 0.144398 0.942244 0.643412
Si Si7 0.869962 0.397623 0.351206
Si Si8 0.269976 0.604307 0.845948
O O1 0.899929 0.541445 0.910226
O O2 0.944702 0.750000 0.000000
O O3 0.900441 0.506684 0.080472
O O4 0.000000 0.500000 0.000000
O O5 0.444859 0.750000 0.500000
O O6 0.524698 0.766669 0.385403
O O7 0.500000 0.000000 0.500000
O O8 0.444267 0.974225 0.363670
O O9 0.286699 0.496529 0.250000
O O10 0.327075 0.470074 0.415175
O O11 0.212577 0.525756 0.380949
O O12 0.285995 0.724346 0.351676
O O13 0.716355 0.750000 0.000000
O O14 0.624371 0.658702 0.072644
O O15 0.705562 0.478881 0.071049
O O16 0.411788 0.176339 0.250000
O O17 0.141350 0.956525 0.750000
O O18 0.125926 0.774047 0.621627
O O19 0.892505 0.414753 0.250000
O O20 0.799826 0.417289 0.347624
O O21 0.291859 0.548273 0.750000
#
# Coordination Sequence:
#
# PCOD9440166 Si02
#       8
#     8   8   8   8   8   8   8   8
#     4  12  25  38  55  82 117 157 200 248 302 361
#     4   9  19  39  64  88 115 151 196 244 294 348
#     4   9  20  39  63  88 117 158 204 243 292 357
#     4  12  24  36  54  88 128 159 187 239 303 357
#     4  11  23  41  64  90 120 159 204 251 303 360
#     4   9  19  39  64  87 113 151 199 252 303 357
#     4   9  19  38  63  86 112 149 194 244 299 355
#     4   9  19  38  62  87 116 154 197 239 289 359
#
# _framework density 20.531475
#
# number of rings (size 3 to 8) (size 9 to 14) (size 15 to 20)
#    0.000    2.000    0.000    5.625    0.000    7.000 
#    0.000    2.500    0.000    2.250    0.000    0.000 
#    0.000    0.000    0.000    0.000    0.000    0.000 
#
# Total GULP energy -356824.279029 kJ/mol
# GULP energy per Si atom -5575.379360 kJ/mol
# Density = 2.048474 g / cm^3
# Si number density = 20.531475 Si / 1000 Ang^3
#
#
#
# Elastic Constant Matrix: (Units=GPa)
#
#
# Indices 1 2 3 4 5 6 
#
# 1 34.7472 42.9396 39.8761 0.0000 0.0000 0.0000
# 2 42.9396 98.1719 53.3725 0.0000 0.0000 0.0000
# 3 39.8761 53.3725 116.1858 0.0000 0.0000 0.0000
# 4 0.0000 0.0000 0.0000 -15.8467 0.0000 0.0000
# 5 0.0000 0.0000 0.0000 0.0000 1805.3577 0.0000
# 6 0.0000 0.0000 0.0000 0.0000 0.0000 22.6515
#
#
#
# Elastic Compliance Matrix: (Units=1/GPa)
#
#
# Indices 1 2 3 4 5 6 
#
# 1 0.077938 -0.026054 -0.014781 0.000000 0.000000 0.000000
# 2 -0.026054 0.022286 -0.001296 0.000000 0.000000 0.000000
# 3 -0.014781 -0.001296 0.014275 0.000000 0.000000 0.000000
# 4 0.000000 0.000000 0.000000 -0.063105 0.000000 0.000000
# 5 0.000000 0.000000 0.000000 0.000000 0.000554 0.000000
# 6 0.000000 0.000000 0.000000 0.000000 0.000000 0.044147
#
#
# Mechanical properties :
#
#
# Convention : Reuss Voigt Hill
#
# Bulk Modulus (GPa) = 33.06993 57.94237 45.50615
# Shear Modulus (GPa) = 26.25539 369.96028 198.10784
#
# Velocity S-wave (km/s) = 3.57989 13.43812 9.83358
# Velocity P-wave (km/s) = 5.76450 16.40304 12.29409
#
# Compressibility (1/GPa) = 0.03023895
#
# Stress axis : x y z
#
# Youngs Moduli (GPa) = 12.83066 44.87034 70.05201
#
# Poissons Ratio (x) = 1.16904 1.03543
# Poissons Ratio (y) = 0.33429 0.09078
# Poissons Ratio (z) = 0.18965 0.05815
#
# Static dielectric constant tensor:
#      x y z
#    x 1.759970 0.000000 0.000000 
#    y 0.000000 1.742050 0.000000 
#    z 0.000000 0.000000 1.761170 
# 
# From -- ./inp_files/19546.got.cif
#   From: 2010.05.17/outbox.cif.g08.bks.cpg/sg57_10_cif.got.tgz:19546.got - 2010.06.03 13:58:18.
