data_PCOD9440201
_publ_section_title
;
Structure prediction by ZEFSAII (Michael W. Deem and Ramdas Pophale) SiO2 
 PCOD9440201
Probable space group: P B C M
;
_chemical_formula_sum "Si O2"
_cell_formula_units_Z 32
_cell_length_a 9.667311
_cell_length_b 16.035624
_cell_length_c 10.143670
_cell_angle_alpha 90.000000
_cell_angle_beta 90.000000
_cell_angle_gamma 90.000000
_cell_volume 1572.485562
_symmetry_space_group_name_H-M "P B C M"
_symmetry_group_IT_number 57
_symmetry_cell_setting 'orthorhombic'
loop_
_space_group_symop_operation_xyz
x,y,z
-x,-y,1/2+z
x,1/2-y,-z
-x,1/2+y,1/2-z
-x,-y,-z
x,y,1/2-z
-x,1/2+y,z
x,1/2-y,1/2+z
loop_
_atom_site_type_symbol
_atom_site_label
_atom_site_fract_x
_atom_site_fract_y
_atom_site_fract_z
Si Si1 0.445948 0.741035 0.750000
Si Si2 0.788507 0.940527 0.525891
Si Si3 0.915422 0.400247 0.901327
Si Si4 0.443056 0.067989 0.250000
Si Si5 0.735824 0.250000 0.000000
Si Si6 0.347329 0.408539 0.250000
O O1 0.483739 0.840394 0.750000
O O2 0.360738 0.719018 0.618523
O O3 0.574512 0.679355 0.750000
O O4 0.658738 0.938747 0.623971
O O5 0.740758 0.911599 0.382841
O O6 0.920657 0.890128 0.578706
O O7 0.852020 0.032443 0.502235
O O8 0.891406 0.426979 0.750000
O O9 0.832623 0.317582 0.932104
O O10 0.550718 0.990390 0.250000
#
# Coordination Sequence:
#
# PCOD9440201 Si02
#       6
#     4   8   8   4   4   4
#     4  12  26  42  68 102 138 174 228 276 328 416
#     4  11  24  43  71  96 132 180 224 274 340 393
#     4  11  23  45  69  99 134 170 227 284 327 401
#     4  12  24  44  68 100 144 176 220 278 334 402
#     4  12  24  44  70  96 134 176 216 278 340 388
#     4  12  24  42  66 100 134 184 224 268 338 404
#
# _framework density 20.349948000000001
#
# number of rings (size 3 to 8) (size 9 to 14) (size 15 to 20)
#    0.000    0.500    3.750    5.250    0.000    3.000 
#    0.000    0.000    0.000    0.000    0.000    0.000 
#    0.000    0.000    0.000    0.000    0.000    0.000 
#
# Total GULP energy -178886.272257 kJ/mol
# GULP energy per Si atom -5590.196008 kJ/mol
# Density = 2.030363 g / cm^3
# Si number density = 20.349948 Si / 1000 Ang^3
#
#
#
# Elastic Constant Matrix: (Units=GPa)
#
#
# Indices 1 2 3 4 5 6 
#
# 1 68.6651 14.0263 24.0913 0.0000 0.0000 0.0000
# 2 14.0263 45.8845 -10.6274 0.0000 0.0000 0.0000
# 3 24.0913 -10.6274 123.8826 0.0000 0.0000 0.0000
# 4 0.0000 0.0000 0.0000 13.5410 0.0000 0.0000
# 5 0.0000 0.0000 0.0000 0.0000 50.0985 0.0000
# 6 0.0000 0.0000 0.0000 0.0000 0.0000 57.8867
#
#
#
# Elastic Compliance Matrix: (Units=1/GPa)
#
#
# Indices 1 2 3 4 5 6 
#
# 1 0.017176 -0.006146 -0.003867 0.000000 0.000000 0.000000
# 2 -0.006146 0.024435 0.003291 0.000000 0.000000 0.000000
# 3 -0.003867 0.003291 0.009107 0.000000 0.000000 0.000000
# 4 0.000000 0.000000 0.000000 0.073850 0.000000 0.000000
# 5 0.000000 0.000000 0.000000 0.000000 0.019961 0.000000
# 6 0.000000 0.000000 0.000000 0.000000 0.000000 0.017275
#
#
# Mechanical properties :
#
#
# Convention : Reuss Voigt Hill
#
# Bulk Modulus (GPa) = 26.82902 32.60141 29.71521
# Shear Modulus (GPa) = 26.64224 38.36802 32.50513
#
# Velocity S-wave (km/s) = 3.62222 4.34684 4.00097
# Velocity P-wave (km/s) = 5.54134 6.42250 5.99812
#
# Compressibility (1/GPa) = 0.03727308
#
# Stress axis : x y z
#
# Youngs Moduli (GPa) = 58.22136 40.92491 109.81038
#
# Poissons Ratio (x) = 0.25153 0.42468
# Poissons Ratio (y) = 0.35784 -0.36143
# Poissons Ratio (z) = 0.22517 -0.13470
#
# Static dielectric constant tensor:
#      x y z
#    x 1.733470 0.000000 0.000000 
#    y 0.000000 1.738220 0.000000 
#    z 0.000000 0.000000 1.700230 
# 
# From -- ./inp_files/11379.got.cif
#   From: 2010.05.17/outbox.cif.g08.bks.cpg/sg57_6_cif.got.tgz:11379.got - 2010.06.03 13:58:18.
