data_PCOD9440123
_publ_section_title
;
Structure prediction by ZEFSAII (Michael W. Deem and Ramdas Pophale) SiO2 
 PCOD9440123
Probable space group: P B C M
;
_chemical_formula_sum "Si O2"
_cell_formula_units_Z 48
_cell_length_a 16.665042
_cell_length_b 9.933677
_cell_length_c 14.563201
_cell_angle_alpha 90.000000
_cell_angle_beta 90.000000
_cell_angle_gamma 90.000000
_cell_volume 2410.867213
_symmetry_space_group_name_H-M "P B C M"
_symmetry_group_IT_number 57
_symmetry_cell_setting 'orthorhombic'
loop_
_space_group_symop_operation_xyz
x,y,z
-x,-y,1/2+z
x,1/2-y,-z
-x,1/2+y,1/2-z
-x,-y,-z
x,y,1/2-z
-x,1/2+y,z
x,1/2-y,1/2+z
loop_
_atom_site_type_symbol
_atom_site_label
_atom_site_fract_x
_atom_site_fract_y
_atom_site_fract_z
Si Si1 0.018452 0.373013 0.563542
Si Si2 0.154308 0.795078 0.640983
Si Si3 0.335691 0.387134 0.945251
Si Si4 0.415584 0.723044 0.250000
Si Si5 0.176683 0.480435 0.856642
Si Si6 0.422200 0.450648 0.750000
Si Si7 0.681925 0.369721 0.928378
O O1 0.045764 0.250000 0.500000
O O2 0.089423 0.415464 0.631188
O O3 0.000000 0.500000 0.500000
O O4 0.934796 0.331324 0.609757
O O5 0.159308 0.806746 0.750000
O O6 0.171778 0.638528 0.617269
O O7 0.224251 0.885804 0.597818
O O8 0.242074 0.405998 0.918421
O O9 0.379291 0.409472 0.846783
O O10 0.351565 0.250000 0.000000
O O11 0.354276 0.502963 0.019511
O O12 0.495799 0.634134 0.250000
O O13 0.429318 0.885305 0.250000
O O14 0.364422 0.678647 0.338386
O O15 0.201419 0.474707 0.750000
O O16 0.677294 0.250000 0.000000
#
# Coordination Sequence:
#
# PCOD9440123 Si02
#       7
#     8   8   8   4   8   4   8
#     4  12  23  39  59  95 136 176 234 289 342 410
#     4  11  22  41  68  97 135 184 240 294 342 417
#     4  12  27  47  76 107 147 190 235 296 359 425
#     4  12  28  48  78 113 146 186 235 296 351 430
#     4  11  22  42  68  95 137 185 236 292 355 410
#     4  12  28  52  76 109 152 184 233 296 359 422
#     4  12  23  46  77 105 136 190 245 280 351 431
#
# _framework density 19.909848
#
# number of rings (size 3 to 8) (size 9 to 14) (size 15 to 20)
#    0.000    0.333    6.667    2.500    2.333    1.333 
#    0.000    1.667    0.000    0.000    0.000    0.000 
#    0.000    0.000    0.000    0.000    0.000    0.000 
#
# Total GULP energy -268340.964736 kJ/mol
# GULP energy per Si atom -5590.436765 kJ/mol
# Density = 1.986453 g / cm^3
# Si number density = 19.909848 Si / 1000 Ang^3
#
#
#
# Elastic Constant Matrix: (Units=GPa)
#
#
# Indices 1 2 3 4 5 6 
#
# 1 94.7493 16.6521 54.5355 0.0000 0.0000 0.0000
# 2 16.6521 108.0731 55.8521 0.0000 0.0000 0.0000
# 3 54.5355 55.8521 145.6398 0.0000 0.0000 0.0000
# 4 0.0000 0.0000 0.0000 33.3609 0.0000 0.0000
# 5 0.0000 0.0000 0.0000 0.0000 29.4583 0.0000
# 6 0.0000 0.0000 0.0000 0.0000 0.0000 16.6038
#
#
#
# Elastic Compliance Matrix: (Units=1/GPa)
#
#
# Indices 1 2 3 4 5 6 
#
# 1 0.013492 0.000664 -0.005307 0.000000 0.000000 0.000000
# 2 0.000664 0.011573 -0.004687 0.000000 0.000000 0.000000
# 3 -0.005307 -0.004687 0.010651 0.000000 0.000000 0.000000
# 4 0.000000 0.000000 0.000000 0.029975 0.000000 0.000000
# 5 0.000000 0.000000 0.000000 0.000000 0.033946 0.000000
# 6 0.000000 0.000000 0.000000 0.000000 0.000000 0.060227
#
#
# Mechanical properties :
#
#
# Convention : Reuss Voigt Hill
#
# Bulk Modulus (GPa) = 58.63002 66.94906 62.78954
# Shear Modulus (GPa) = 27.14316 30.64610 28.89463
#
# Velocity S-wave (km/s) = 3.69630 3.92758 3.81369
# Velocity P-wave (km/s) = 6.90858 7.36661 7.14127
#
# Compressibility (1/GPa) = 0.01705611
#
# Stress axis : x y z
#
# Youngs Moduli (GPa) = 74.11859 86.40980 93.89144
#
# Poissons Ratio (x) = -0.05734 0.49824
# Poissons Ratio (y) = -0.04918 0.44003
# Poissons Ratio (z) = 0.39332 0.40497
#
# Static dielectric constant tensor:
#      x y z
#    x 1.738140 0.000000 0.000000 
#    y 0.000000 1.722310 0.000000 
#    z 0.000000 0.000000 1.656260 
# 
# From -- ./inp_files/19010.got.cif
#   From: 2010.05.17/outbox.cif.g08.bks.cpg/sg57_10_cif.got.tgz:19010.got - 2010.06.03 13:58:18.
