data_PCOD9440967
_publ_section_title
;
Structure prediction by ZEFSAII (Michael W. Deem and Ramdas Pophale) SiO2 
 PCOD9440967
Probable space group: P N N M
;
_chemical_formula_sum "Si O2"
_cell_formula_units_Z 56
_cell_length_a 19.981738
_cell_length_b 19.918176
_cell_length_c 7.730520
_cell_angle_alpha 90.000000
_cell_angle_beta 90.000000
_cell_angle_gamma 90.000000
_cell_volume 3076.745215
_symmetry_space_group_name_H-M "P N N M"
_symmetry_group_IT_number 58
_symmetry_cell_setting 'orthorhombic'
loop_
_space_group_symop_operation_xyz
x,y,z
-x,-y,z
1/2+x,1/2-y,1/2-z
1/2-x,1/2+y,1/2-z
-x,-y,-z
x,y,-z
1/2-x,1/2+y,1/2+z
1/2+x,1/2-y,1/2+z
loop_
_atom_site_type_symbol
_atom_site_label
_atom_site_fract_x
_atom_site_fract_y
_atom_site_fract_z
Si Si1 0.158315 0.231780 0.707644
Si Si2 0.265051 0.343208 0.710964
Si Si3 0.800709 0.523200 0.704183
Si Si4 0.520597 0.206753 0.292532
Si Si5 0.549038 0.056954 0.703690
Si Si6 0.765042 0.372692 0.208824
Si Si7 0.627371 0.761303 0.711436
O O1 0.161543 0.231208 0.500000
O O2 0.203101 0.295534 0.765001
O O3 0.082098 0.243849 0.756442
O O4 0.197655 0.165435 0.768431
O O5 0.266812 0.343021 0.500000
O O6 0.249078 0.418395 0.769267
O O7 0.332365 0.305196 0.767653
O O8 0.808756 0.533530 0.500000
O O9 0.874375 0.534190 0.780894
O O10 0.774226 0.448616 0.734014
O O11 0.515419 0.202255 0.500000
O O12 0.538030 0.131954 0.224294
O O13 0.448445 0.231052 0.227512
O O14 0.532764 0.061848 0.500000
O O15 0.500000 0.000000 0.778724
O O16 0.827296 0.325352 0.262701
O O17 0.765029 0.372831 0.000000
O O18 0.626797 0.760777 0.500000
#
# Coordination Sequence:
#
# PCOD9440967 Si02
#       7
#     8   8   8   8   8   8   8
#     4   9  17  32  51  68  92 128 163 195 238 294
#     4   8  15  29  48  68  91 124 161 194 234 287
#     4  11  20  30  48  73  99 125 156 203 251 284
#     4  10  18  28  48  74  95 120 157 206 241 271
#     4  10  20  32  46  68 101 137 165 188 229 296
#     4   9  18  33  52  69  92 130 168 196 231 290
#     4   8  15  30  50  69  91 124 165 197 230 283
#
# _framework density 18.201051
#
# number of rings (size 3 to 8) (size 9 to 14) (size 15 to 20)
#    0.000    2.714    1.429    3.000    0.000    3.143 
#    0.000    2.143    0.000    3.429    0.000    6.000 
#    0.000    0.000    0.000    0.000    0.000    0.000 
#
# Total GULP energy -312239.512051 kJ/mol
# GULP energy per Si atom -5575.705572 kJ/mol
# Density = 1.815962 g / cm^3
# Si number density = 18.201051 Si / 1000 Ang^3
#
#
#
# Elastic Constant Matrix: (Units=GPa)
#
#
# Indices 1 2 3 4 5 6 
#
# 1 148.5744 98.0673 -1.4537 0.0000 0.0000 0.0000
# 2 98.0673 110.6845 -14.5142 0.0000 0.0000 0.0000
# 3 -1.4537 -14.5142 19.1581 0.0000 0.0000 0.0000
# 4 0.0000 0.0000 0.0000 15.4478 0.0000 0.0000
# 5 0.0000 0.0000 0.0000 0.0000 14.4478 0.0000
# 6 0.0000 0.0000 0.0000 0.0000 0.0000 22.8170
#
#
#
# Elastic Compliance Matrix: (Units=1/GPa)
#
#
# Indices 1 2 3 4 5 6 
#
# 1 0.018468 -0.017964 -0.012208 0.000000 0.000000 0.000000
# 2 -0.017964 0.027505 0.019474 0.000000 0.000000 0.000000
# 3 -0.012208 0.019474 0.066025 0.000000 0.000000 0.000000
# 4 0.000000 0.000000 0.000000 0.064734 0.000000 0.000000
# 5 0.000000 0.000000 0.000000 0.000000 0.069215 0.000000
# 6 0.000000 0.000000 0.000000 0.000000 0.000000 0.043827
#
#
# Mechanical properties :
#
#
# Convention : Reuss Voigt Hill
#
# Bulk Modulus (GPa) = 11.03729 49.17954 30.10841
# Shear Modulus (GPa) = 14.64688 23.63038 19.13863
#
# Velocity S-wave (km/s) = 2.83985 3.60710 3.24622
# Velocity P-wave (km/s) = 4.10247 6.66536 5.53431
#
# Compressibility (1/GPa) = 0.09060198
#
# Stress axis : x y z
#
# Youngs Moduli (GPa) = 54.14631 36.35741 15.14589
#
# Poissons Ratio (x) = 0.65313 0.18490
# Poissons Ratio (y) = 0.97269 -0.29496
# Poissons Ratio (z) = 0.66103 -0.70804
#
# Static dielectric constant tensor:
#      x y z
#    x 1.615730 0.000000 0.000000 
#    y 0.000000 1.631370 0.000000 
#    z 0.000000 0.000000 1.682130 
# 
# From -- ./inp_files/8113.got.cif
#   From: 2010.05.17/outbox.cif.g08.bks.cpg/sg58_5_cif.got.tgz:8113.got - 2010.06.03 14:20:14.
