data_PCOD9440415
_publ_section_title
;
Structure prediction by ZEFSAII (Michael W. Deem and Ramdas Pophale) SiO2 
 PCOD9440415
Probable space group: P B C M
;
_chemical_formula_sum "Si O2"
_cell_formula_units_Z 64
_cell_length_a 18.000000
_cell_length_b 21.000000
_cell_length_c 9.000000
_cell_angle_alpha 90.000000
_cell_angle_beta 90.000000
_cell_angle_gamma 90.000000
_cell_volume 3402.000000
_symmetry_space_group_name_H-M "P B C M"
_symmetry_group_IT_number 57
_symmetry_cell_setting 'orthorhombic'
loop_
_space_group_symop_operation_xyz
x,y,z
-x,-y,1/2+z
x,1/2-y,-z
-x,1/2+y,1/2-z
-x,-y,-z
x,y,1/2-z
-x,1/2+y,z
x,1/2-y,1/2+z
loop_
_atom_site_type_symbol
_atom_site_label
_atom_site_fract_x
_atom_site_fract_y
_atom_site_fract_z
Si Si1 0.047377 0.180300 0.425086
Si Si2 0.303057 0.416227 0.428593
Si Si3 0.689881 0.393374 0.580595
Si Si4 0.826039 0.004745 0.081462
Si Si5 0.798829 0.309623 0.416418
Si Si6 0.067528 0.588942 0.916913
Si Si7 0.783254 0.817794 0.574152
Si Si8 0.580680 0.009430 0.928431
O O1 0.036733 0.250000 0.500000
O O2 0.033560 0.188145 0.250000
O O3 0.132108 0.157235 0.446387
O O4 0.993267 0.127259 0.491688
O O5 0.310260 0.422251 0.250000
O O6 0.225161 0.448662 0.478288
O O7 0.286719 0.347026 0.487540
O O8 0.369026 0.451570 0.510866
O O9 0.666591 0.381790 0.750000
O O10 0.761858 0.440389 0.586792
O O11 0.725050 0.332906 0.500021
O O12 0.624842 0.428687 0.490659
O O13 0.848378 0.990907 0.250000
O O14 0.897336 0.026463 0.991054
O O15 0.832744 0.250000 0.500000
O O16 0.779458 0.291384 0.250000
O O17 0.860797 0.364162 0.411097
O O18 0.041684 0.576773 0.750000
O O19 0.791449 0.750000 0.500000
O O20 0.769065 0.817388 0.750000
O O21 0.577449 0.010861 0.750000
O O22 0.500000 0.000000 0.000000
#
# Coordination Sequence:
#
# PCOD9440415 Si02
#       8
#     8   8   8   8   8   8   8   8
#     4  10  20  33  49  69  97 132 175 224 274 320
#     4  10  20  36  58  83 109 138 172 213 259 310
#     4   9  17  31  49  71 100 133 168 208 250 294
#     4   8  16  30  48  70  99 133 168 208 257 307
#     4  10  19  29  43  67  97 134 176 216 256 303
#     4  10  19  29  45  69  98 132 174 221 268 313
#     4  10  21  37  57  80 104 136 176 220 266 314
#     4  11  21  35  57  85 113 138 166 202 245 297
#
# _framework density 18.812463000000001
#
# number of rings (size 3 to 8) (size 9 to 14) (size 15 to 20)
#    0.000    2.250    0.000    4.500    0.000    7.500 
#    0.000    0.625    0.000    0.750    0.000    5.250 
#    0.000    0.000    0.000    0.000    0.000    0.000 
#
# Total GULP energy -356474.380799 kJ/mol
# GULP energy per Si atom -5569.912200 kJ/mol
# Density = 1.876965 g / cm^3
# Si number density = 18.812463 Si / 1000 Ang^3
#
#
#
# Elastic Constant Matrix: (Units=GPa)
#
#
# Indices 1 2 3 4 5 6 
#
# 1 63.9162 40.7300 73.6466 0.0000 0.0000 0.0000
# 2 40.7300 -1.7502 17.2512 0.0000 0.0000 0.0000
# 3 73.6466 17.2512 107.3284 0.0000 0.0000 0.0000
# 4 0.0000 0.0000 0.0000 17.6445 0.0000 0.0000
# 5 0.0000 0.0000 0.0000 0.0000 20.0355 0.0000
# 6 0.0000 0.0000 0.0000 0.0000 0.0000 14.2730
#
#
#
# Elastic Compliance Matrix: (Units=1/GPa)
#
#
# Indices 1 2 3 4 5 6 
#
# 1 0.005052 0.032271 -0.008654 0.000000 0.000000 0.000000
# 2 0.032271 -0.014946 -0.019741 0.000000 0.000000 0.000000
# 3 -0.008654 -0.019741 0.018428 0.000000 0.000000 0.000000
# 4 0.000000 0.000000 0.000000 0.056675 0.000000 0.000000
# 5 0.000000 0.000000 0.000000 0.000000 0.049911 0.000000
# 6 0.000000 0.000000 0.000000 0.000000 0.000000 0.070062
#
#
# Mechanical properties :
#
#
# Convention : Reuss Voigt Hill
#
# Bulk Modulus (GPa) = 61.40177 48.08335 54.74256
# Shear Modulus (GPa) = 27.34349 12.91505 20.12927
#
# Velocity S-wave (km/s) = 3.81659 2.62299 3.27463
# Velocity P-wave (km/s) = 7.22022 5.89815 6.59241
#
# Compressibility (1/GPa) = 0.01628617
#
# Stress axis : x y z
#
# Youngs Moduli (GPa) = 197.94449 -66.90642 54.26461
#
# Poissons Ratio (x) = 2.15915 0.46958
# Poissons Ratio (y) = -6.38791 1.07126
# Poissons Ratio (z) = 1.71293 -1.32083
#
# Static dielectric constant tensor:
#      x y z
#    x 1.625680 0.000000 0.000000 
#    y 0.000000 1.821650 0.000000 
#    z 0.000000 0.000000 1.616910 
# 
# From -- ./inp_files/7219.got.cif
#   From: 2010.05.17/outbox.ucp.g08.bks.cvg/sg57_4_cif.got.tgz:7219.got - 2010.06.11 16:39:23.
