data_PCOD9440380
_publ_section_title
;
Structure prediction by ZEFSAII (Michael W. Deem and Ramdas Pophale) SiO2 
 PCOD9440380
Probable space group: P B C M
;
_chemical_formula_sum "Si O2"
_cell_formula_units_Z 36
_cell_length_a 9.549318
_cell_length_b 8.264919
_cell_length_c 18.661465
_cell_angle_alpha 90.000000
_cell_angle_beta 90.000000
_cell_angle_gamma 90.000000
_cell_volume 1472.843804
_symmetry_space_group_name_H-M "P B C M"
_symmetry_group_IT_number 57
_symmetry_cell_setting 'orthorhombic'
loop_
_space_group_symop_operation_xyz
x,y,z
-x,-y,1/2+z
x,1/2-y,-z
-x,1/2+y,1/2-z
-x,-y,-z
x,y,1/2-z
-x,1/2+y,z
x,1/2-y,1/2+z
loop_
_atom_site_type_symbol
_atom_site_label
_atom_site_fract_x
_atom_site_fract_y
_atom_site_fract_z
Si Si1 0.472049 0.176809 0.365049
Si Si2 0.213919 0.127615 0.837410
Si Si3 0.383019 0.750000 0.000000
Si Si4 0.972920 0.575450 0.166884
Si Si5 0.286185 0.876176 0.143161
O O1 0.370053 0.334077 0.362476
O O2 0.517359 0.149253 0.446859
O O3 0.619541 0.226486 0.329279
O O4 0.378745 0.033038 0.335556
O O5 0.216859 0.127831 0.750000
O O6 0.119984 0.280386 0.863931
O O7 0.124089 0.973670 0.863460
O O8 0.294014 0.647136 0.943005
O O9 0.995327 0.614277 0.250000
O O10 0.870201 0.418044 0.165185
#
# Coordination Sequence:
#
# PCOD9440380 Si02
#       5
#     8   8   4   8   8
#     4   9  18  31  50  71  95 125 158 195 235 277
#     4   9  18  33  50  71  98 125 155 194 236 281
#     4   8  18  32  50  68  98 124 156 198 234 276
#     4   9  18  33  50  71  98 125 155 194 236 281
#     4   9  18  31  50  71  95 125 158 195 235 277
#
# _framework density 24.442511
#
# number of rings (size 3 to 8) (size 9 to 14) (size 15 to 20)
#    1.333    1.778    0.000    0.667    0.000    2.667 
#    0.000    1.111    0.000    5.333    0.000    0.000 
#    0.000    0.000    0.000    0.000    0.000    0.000 
#
# Total GULP energy -200562.672039 kJ/mol
# GULP energy per Si atom -5571.185334 kJ/mol
# Density = 2.438688 g / cm^3
# Si number density = 24.442511 Si / 1000 Ang^3
#
#
#
# Elastic Constant Matrix: (Units=GPa)
#
#
# Indices 1 2 3 4 5 6 
#
# 1 145.0071 27.0167 -4.4968 0.0000 0.0000 0.0000
# 2 27.0167 40.1850 4.5340 0.0000 0.0000 0.0000
# 3 -4.4968 4.5340 82.1335 0.0000 0.0000 0.0000
# 4 0.0000 0.0000 0.0000 16.2966 0.0000 0.0000
# 5 0.0000 0.0000 0.0000 0.0000 19.8500 0.0000
# 6 0.0000 0.0000 0.0000 0.0000 0.0000 47.8479
#
#
#
# Elastic Compliance Matrix: (Units=1/GPa)
#
#
# Indices 1 2 3 4 5 6 
#
# 1 0.007927 -0.005412 0.000733 0.000000 0.000000 0.000000
# 2 -0.005412 0.028736 -0.001883 0.000000 0.000000 0.000000
# 3 0.000733 -0.001883 0.012319 0.000000 0.000000 0.000000
# 4 0.000000 0.000000 0.000000 0.061362 0.000000 0.000000
# 5 0.000000 0.000000 0.000000 0.000000 0.050378 0.000000
# 6 0.000000 0.000000 0.000000 0.000000 0.000000 0.020900
#
#
# Mechanical properties :
#
#
# Convention : Reuss Voigt Hill
#
# Bulk Modulus (GPa) = 27.88742 35.71483 31.80113
# Shear Modulus (GPa) = 24.18969 32.81702 28.50335
#
# Velocity S-wave (km/s) = 3.14929 3.66815 3.41858
# Velocity P-wave (km/s) = 4.96571 5.70824 5.34987
#
# Compressibility (1/GPa) = 0.03585846
#
# Stress axis : x y z
#
# Youngs Moduli (GPa) = 126.14610 34.79947 81.17317
#
# Poissons Ratio (x) = 0.18834 -0.05948
# Poissons Ratio (y) = 0.68274 0.15282
# Poissons Ratio (z) = -0.09244 0.06552
#
# Static dielectric constant tensor:
#      x y z
#    x 1.939600 0.000000 0.000000 
#    y 0.000000 2.101350 0.000000 
#    z 0.000000 0.000000 1.867510 
# 
# From -- ./inp_files/27024.got.cif
#   From: 2010.05.17/outbox.cif.g08.bks.cpg/sg57_14_cif.got.tgz:27024.got - 2010.06.03 13:58:18.
