data_PCOD9440039
_publ_section_title
;
Structure prediction by ZEFSAII (Michael W. Deem and Ramdas Pophale) SiO2 
 PCOD9440039
Probable space group: P B C M
;
_chemical_formula_sum "Si O2"
_cell_formula_units_Z 64
_cell_length_a 11.612980
_cell_length_b 16.333961
_cell_length_c 17.121204
_cell_angle_alpha 90.000000
_cell_angle_beta 90.000000
_cell_angle_gamma 90.000000
_cell_volume 3247.652058
_symmetry_space_group_name_H-M "P B C M"
_symmetry_group_IT_number 57
_symmetry_cell_setting 'orthorhombic'
loop_
_space_group_symop_operation_xyz
x,y,z
-x,-y,1/2+z
x,1/2-y,-z
-x,1/2+y,1/2-z
-x,-y,-z
x,y,1/2-z
-x,1/2+y,z
x,1/2-y,1/2+z
loop_
_atom_site_type_symbol
_atom_site_label
_atom_site_fract_x
_atom_site_fract_y
_atom_site_fract_z
Si Si1 0.301543 0.263127 0.841467
Si Si2 0.929421 0.196063 0.336084
Si Si3 0.118271 0.136720 0.431267
Si Si4 0.069846 0.971657 0.342381
Si Si5 0.174021 0.401725 0.108908
Si Si6 0.722513 0.431869 0.841656
Si Si7 0.432139 0.780671 0.845499
Si Si8 0.751454 0.155768 0.660896
O O1 0.295043 0.283041 0.750000
O O2 0.232276 0.329645 0.890679
O O3 0.241997 0.174869 0.854590
O O4 0.435477 0.266646 0.864792
O O5 0.987097 0.189264 0.250000
O O6 0.850143 0.275433 0.334427
O O7 0.018861 0.200167 0.406174
O O8 0.840068 0.121281 0.344240
O O9 0.141923 0.121642 0.520864
O O10 0.071970 0.054792 0.390326
O O11 0.085076 0.986585 0.250000
O O12 0.180170 0.920497 0.373588
O O13 0.948545 0.924491 0.351550
O O14 0.253076 0.483270 0.114870
O O15 0.700780 0.451164 0.750000
O O16 0.624121 0.367865 0.869522
O O17 0.419969 0.780266 0.750000
O O18 0.355593 0.704144 0.875510
O O19 0.718425 0.132830 0.750000
#
# Coordination Sequence:
#
# PCOD9440039 Si02
#       8
#     8   8   8   8   8   8   8   8
#     4  11  23  41  63  85 113 156 207 250 295 352
#     4   9  16  31  58  85 115 154 196 239 296 353
#     4  12  24  37  55  84 129 158 189 243 305 353
#     4  11  21  36  60  90 122 155 198 242 294 358
#     4  12  24  38  59  87 126 158 198 241 300 367
#     4   9  17  34  62  89 112 148 198 248 294 349
#     4   8  17  37  63  87 109 143 202 260 296 335
#     4   8  16  32  58  88 111 141 193 254 295 337
#
# _framework density 19.706544999999998
#
# number of rings (size 3 to 8) (size 9 to 14) (size 15 to 20)
#    0.000    2.000    1.250    5.250    0.000    1.000 
#    2.250    0.625    2.750    0.000    0.000    0.000 
#    0.000    0.000    0.000    0.000    0.000    0.000 
#
# Total GULP energy -357054.284866 kJ/mol
# GULP energy per Si atom -5578.973201 kJ/mol
# Density = 1.966169 g / cm^3
# Si number density = 19.706545 Si / 1000 Ang^3
#
#
#
# Elastic Constant Matrix: (Units=GPa)
#
#
# Indices 1 2 3 4 5 6 
#
# 1 94.8131 13.0786 11.9869 0.0000 0.0000 0.0000
# 2 13.0786 39.5162 4.6541 0.0000 0.0000 0.0000
# 3 11.9869 4.6541 44.0545 0.0000 0.0000 0.0000
# 4 0.0000 0.0000 0.0000 13.0895 0.0000 0.0000
# 5 0.0000 0.0000 0.0000 0.0000 -18.5002 0.0000
# 6 0.0000 0.0000 0.0000 0.0000 0.0000 26.0114
#
#
#
# Elastic Compliance Matrix: (Units=1/GPa)
#
#
# Indices 1 2 3 4 5 6 
#
# 1 0.011367 -0.003441 -0.002729 0.000000 0.000000 0.000000
# 2 -0.003441 0.026666 -0.001881 0.000000 0.000000 0.000000
# 3 -0.002729 -0.001881 0.023641 0.000000 0.000000 0.000000
# 4 0.000000 0.000000 0.000000 0.076397 0.000000 0.000000
# 5 0.000000 0.000000 0.000000 0.000000 -0.054053 0.000000
# 6 0.000000 0.000000 0.000000 0.000000 0.000000 0.038445
#
#
# Mechanical properties :
#
#
# Convention : Reuss Voigt Hill
#
# Bulk Modulus (GPa) = 21.94343 26.42480 24.18411
# Shear Modulus (GPa) = 32.51949 14.03110 23.27529
#
# Velocity S-wave (km/s) = 4.06666 2.67123 3.44043
# Velocity P-wave (km/s) = 5.76277 4.79085 5.29914
#
# Compressibility (1/GPa) = 0.04557174
#
# Stress axis : x y z
#
# Youngs Moduli (GPa) = 87.97614 37.50051 42.30026
#
# Poissons Ratio (x) = 0.12902 0.11545
# Poissons Ratio (y) = 0.30269 0.07957
# Poissons Ratio (z) = 0.24012 0.07054
#
# Static dielectric constant tensor:
#      x y z
#    x 1.700340 0.000000 0.000000 
#    y 0.000000 1.740650 0.000000 
#    z 0.000000 0.000000 1.689470 
# 
# From -- ./inp_files/22057.got.cif
#   From: 2010.05.17/outbox.cif.g08.bks.cpg/sg57_12_cif.got.tgz:22057.got - 2010.06.03 13:58:18.
