data_PCOD9440312
_publ_section_title
;
Structure prediction by ZEFSAII (Michael W. Deem and Ramdas Pophale) SiO2 
 PCOD9440312
Probable space group: P B C M
;
_chemical_formula_sum "Si O2"
_cell_formula_units_Z 40
_cell_length_a 4.837353
_cell_length_b 17.445377
_cell_length_c 22.044397
_cell_angle_alpha 90.000000
_cell_angle_beta 90.000000
_cell_angle_gamma 90.000000
_cell_volume 1860.314467
_symmetry_space_group_name_H-M "P B C M"
_symmetry_group_IT_number 57
_symmetry_cell_setting 'orthorhombic'
loop_
_space_group_symop_operation_xyz
x,y,z
-x,-y,1/2+z
x,1/2-y,-z
-x,1/2+y,1/2-z
-x,-y,-z
x,y,1/2-z
-x,1/2+y,z
x,1/2-y,1/2+z
loop_
_atom_site_type_symbol
_atom_site_label
_atom_site_fract_x
_atom_site_fract_y
_atom_site_fract_z
Si Si1 0.485645 0.252451 0.430232
Si Si2 0.972671 0.162536 0.873459
Si Si3 0.968989 0.998825 0.675754
Si Si4 0.786612 0.691854 0.250000
Si Si5 0.707087 0.281840 0.250000
Si Si6 0.489077 0.898941 0.643798
O O1 0.399334 0.250000 0.500000
O O2 0.237882 0.286432 0.389495
O O3 0.556063 0.165921 0.407431
O O4 0.744987 0.310238 0.422531
O O5 0.812304 0.181267 0.811134
O O6 0.059770 0.075686 0.859627
O O7 0.925987 0.008751 0.750000
O O8 0.695506 0.971351 0.639439
O O9 0.203918 0.935012 0.666192
O O10 0.112115 0.703333 0.250000
O O11 0.662169 0.647896 0.306376
O O12 0.620492 0.772281 0.250000
#
# Coordination Sequence:
#
# PCOD9440312 Si02
#       6
#     8   8   8   4   4   8
#     4  12  27  47  68  91 128 185 235 264 300 378
#     4  12  24  43  67  98 134 165 214 274 331 390
#     4  12  24  39  64 105 138 161 198 269 353 401
#     4  12  20  34  64  98 134 160 210 272 328 388
#     4  12  20  36  64 102 124 160 208 278 336 382
#     4  12  23  39  64  95 132 167 213 267 323 391
#
# _framework density 21.501743000000001
#
# number of rings (size 3 to 8) (size 9 to 14) (size 15 to 20)
#    0.000    0.000    7.000    4.200    0.000    0.000 
#    0.000    6.000    0.000    0.000    0.000    0.000 
#    0.000    0.000    0.000    0.000    0.000    0.000 
#
# Total GULP energy -223122.406457 kJ/mol
# GULP energy per Si atom -5578.060161 kJ/mol
# Density = 2.145280 g / cm^3
# Si number density = 21.501743 Si / 1000 Ang^3
#
#
#
# Elastic Constant Matrix: (Units=GPa)
#
#
# Indices 1 2 3 4 5 6 
#
# 1 94.2138 20.5143 -7.0984 0.0000 0.0000 0.0000
# 2 20.5143 102.6012 40.2000 0.0000 0.0000 0.0000
# 3 -7.0984 40.2000 84.1811 0.0000 0.0000 0.0000
# 4 0.0000 0.0000 0.0000 15.2560 0.0000 0.0000
# 5 0.0000 0.0000 0.0000 0.0000 19.2536 0.0000
# 6 0.0000 0.0000 0.0000 0.0000 0.0000 29.7874
#
#
#
# Elastic Compliance Matrix: (Units=1/GPa)
#
#
# Indices 1 2 3 4 5 6 
#
# 1 0.011525 -0.003303 0.002549 0.000000 0.000000 0.000000
# 2 -0.003303 0.012937 -0.006456 0.000000 0.000000 0.000000
# 3 0.002549 -0.006456 0.015177 0.000000 0.000000 0.000000
# 4 0.000000 0.000000 0.000000 0.065548 0.000000 0.000000
# 5 0.000000 0.000000 0.000000 0.000000 0.051938 0.000000
# 6 0.000000 0.000000 0.000000 0.000000 0.000000 0.033571
#
#
# Mechanical properties :
#
#
# Convention : Reuss Voigt Hill
#
# Bulk Modulus (GPa) = 39.65294 43.13645 41.39469
# Shear Modulus (GPa) = 23.41661 28.01808 25.71735
#
# Velocity S-wave (km/s) = 3.30367 3.61371 3.46216
# Velocity P-wave (km/s) = 5.74752 6.12513 5.93933
#
# Compressibility (1/GPa) = 0.02521881
#
# Stress axis : x y z
#
# Youngs Moduli (GPa) = 86.76421 77.30027 65.88800
#
# Poissons Ratio (x) = 0.25534 -0.16797
# Poissons Ratio (y) = 0.28661 0.42539
# Poissons Ratio (z) = -0.22119 0.49907
#
# Static dielectric constant tensor:
#      x y z
#    x 1.791610 0.000000 0.000000 
#    y 0.000000 1.982690 0.000000 
#    z 0.000000 0.000000 1.768440 
# 
# From -- ./inp_files/23594.got.cif
#   From: 2010.05.17/outbox.cif.g08.bks.cpg/sg57_12_cif.got.tgz:23594.got - 2010.06.03 13:58:18.
