data_PCOD9440516
_publ_section_title
;
Structure prediction by ZEFSAII (Michael W. Deem and Ramdas Pophale) SiO2 
 PCOD9440516
Probable space group: P B C M
;
_chemical_formula_sum "Si O2"
_cell_formula_units_Z 56
_cell_length_a 21.000000
_cell_length_b 15.000000
_cell_length_c 9.000000
_cell_angle_alpha 90.000000
_cell_angle_beta 90.000000
_cell_angle_gamma 90.000000
_cell_volume 2835.000000
_symmetry_space_group_name_H-M "P B C M"
_symmetry_group_IT_number 57
_symmetry_cell_setting 'orthorhombic'
loop_
_space_group_symop_operation_xyz
x,y,z
-x,-y,1/2+z
x,1/2-y,-z
-x,1/2+y,1/2-z
-x,-y,-z
x,y,1/2-z
-x,1/2+y,z
x,1/2-y,1/2+z
loop_
_atom_site_type_symbol
_atom_site_label
_atom_site_fract_x
_atom_site_fract_y
_atom_site_fract_z
Si Si1 0.865902 0.977136 0.576502
Si Si2 0.381550 0.843400 0.428148
Si Si3 0.357836 0.472410 0.428392
Si Si4 0.028947 0.342903 0.571662
Si Si5 0.121717 0.657544 0.073539
Si Si6 0.746435 0.845941 0.924362
Si Si7 0.531584 0.657775 0.927374
O O1 0.874919 0.001227 0.750000
O O2 0.929673 0.927235 0.520305
O O3 0.811151 0.903016 0.567288
O O4 0.848836 0.066769 0.489346
O O5 0.359743 0.750000 0.500000
O O6 0.374490 0.840841 0.250000
O O7 0.457162 0.852277 0.465231
O O8 0.350029 0.931307 0.496553
O O9 0.354511 0.480477 0.250000
O O10 0.306095 0.403581 0.489806
O O11 0.425590 0.426660 0.469887
O O12 0.051385 0.250000 0.500000
O O13 0.036300 0.336832 0.750000
O O14 0.954045 0.351535 0.538079
O O15 0.129132 0.663151 0.250000
O O16 0.144078 0.750000 0.000000
O O17 0.729595 0.835888 0.750000
O O18 0.753470 0.750000 0.000000
O O19 0.536182 0.667585 0.750000
O O20 0.555089 0.750000 0.000000
#
# Coordination Sequence:
#
# PCOD9440516 Si02
#       7
#     8   8   8   8   8   8   8
#     4  10  21  37  56  79 110 145 184 227 272 321
#     4  10  20  36  57  83 114 146 182 226 275 329
#     4  11  22  37  57  82 112 148 188 229 274 325
#     4   9  18  32  52  81 113 145 179 221 271 325
#     4  10  20  34  55  82 112 144 180 222 272 326
#     4  11  24  41  60  83 111 145 184 228 273 321
#     4   9  19  33  53  82 114 147 182 223 273 327
#
# _framework density 19.753086
#
# number of rings (size 3 to 8) (size 9 to 14) (size 15 to 20)
#    0.000    2.000    0.000    3.429    0.000    5.143 
#    0.000    0.714    0.000    3.429    0.000    0.000 
#    0.000    0.000    0.000    0.000    0.000    0.000 
#
# Total GULP energy -312854.332309 kJ/mol
# GULP energy per Si atom -5586.684506 kJ/mol
# Density = 1.970813 g / cm^3
# Si number density = 19.753086 Si / 1000 Ang^3
#
#
#
# Elastic Constant Matrix: (Units=GPa)
#
#
# Indices 1 2 3 4 5 6 
#
# 1 13.7308 16.3230 18.1242 0.0000 0.0000 0.0000
# 2 16.3230 177.0247 62.4564 0.0000 0.0000 0.0000
# 3 18.1242 62.4564 62.3204 0.0000 0.0000 0.0000
# 4 0.0000 0.0000 0.0000 42.6358 0.0000 0.0000
# 5 0.0000 0.0000 0.0000 0.0000 19.1223 0.0000
# 6 0.0000 0.0000 0.0000 0.0000 0.0000 23.2012
#
#
#
# Elastic Compliance Matrix: (Units=1/GPa)
#
#
# Indices 1 2 3 4 5 6 
#
# 1 0.118621 0.001908 -0.036410 0.000000 0.000000 0.000000
# 2 0.001908 0.008770 -0.009344 0.000000 0.000000 0.000000
# 3 -0.036410 -0.009344 0.035999 0.000000 0.000000 0.000000
# 4 0.000000 0.000000 0.000000 0.023454 0.000000 0.000000
# 5 0.000000 0.000000 0.000000 0.000000 0.052295 0.000000
# 6 0.000000 0.000000 0.000000 0.000000 0.000000 0.043101
#
#
# Mechanical properties :
#
#
# Convention : Reuss Voigt Hill
#
# Bulk Modulus (GPa) = 13.21035 49.65371 31.43203
# Shear Modulus (GPa) = 12.65299 27.40334 20.02817
#
# Velocity S-wave (km/s) = 2.53367 3.72868 3.18768
# Velocity P-wave (km/s) = 3.90661 6.61280 5.43096
#
# Compressibility (1/GPa) = 0.07569823
#
# Stress axis : x y z
#
# Youngs Moduli (GPa) = 8.43024 114.03137 27.77853
#
# Poissons Ratio (x) = -0.21759 1.01142
# Poissons Ratio (y) = -0.01609 0.25955
# Poissons Ratio (z) = 0.30695 1.06546
#
# Static dielectric constant tensor:
#      x y z
#    x 1.728710 0.000000 0.000000 
#    y 0.000000 1.673440 0.000000 
#    z 0.000000 0.000000 1.664420 
# 
# From -- ./inp_files/8024.got.cif
#   From: 2010.05.17/outbox.ucp.g08.bks.cvg/sg57_5_cif.got.tgz:8024.got - 2010.06.11 16:39:23.
