data_PCOD9440685
_publ_section_title
;
Structure prediction by ZEFSAII (Michael W. Deem and Ramdas Pophale) SiO2 
 PCOD9440685
Probable space group: P N N M
;
_chemical_formula_sum "Si O2"
_cell_formula_units_Z 52
_cell_length_a 26.691858
_cell_length_b 5.508333
_cell_length_c 14.383228
_cell_angle_alpha 90.000000
_cell_angle_beta 90.000000
_cell_angle_gamma 90.000000
_cell_volume 2114.732101
_symmetry_space_group_name_H-M "P N N M"
_symmetry_group_IT_number 58
_symmetry_cell_setting 'orthorhombic'
loop_
_space_group_symop_operation_xyz
x,y,z
-x,-y,z
1/2+x,1/2-y,1/2-z
1/2-x,1/2+y,1/2-z
-x,-y,-z
x,y,-z
1/2-x,1/2+y,1/2+z
1/2+x,1/2-y,1/2+z
loop_
_atom_site_type_symbol
_atom_site_label
_atom_site_fract_x
_atom_site_fract_y
_atom_site_fract_z
Si Si1 0.384909 0.856501 0.352254
Si Si2 0.556172 0.586159 0.160653
Si Si3 0.143414 0.864904 0.191325
Si Si4 0.596645 0.092923 0.867256
Si Si5 0.968949 0.746141 0.000000
Si Si6 0.212438 0.402708 0.364294
Si Si7 0.761670 0.106737 0.331892
O O1 0.351424 0.616136 0.363284
O O2 0.400677 0.883379 0.244705
O O3 0.433028 0.787852 0.411769
O O4 0.359977 0.120330 0.369642
O O5 0.500000 0.500000 0.183255
O O6 0.590776 0.614305 0.252522
O O7 0.576806 0.355573 0.103222
O O8 0.564511 0.850493 0.112870
O O9 0.185839 0.871391 0.272071
O O10 0.654975 0.073620 0.893182
O O11 0.000000 0.500000 0.000000
O O12 0.000000 0.000000 0.000000
O O13 0.239714 0.649367 0.390576
O O14 0.220738 0.398403 0.250798
O O15 0.235169 0.142287 0.387955
#
# Coordination Sequence:
#
# PCOD9440685 Si02
#       7
#     8   8   8   8   4   8   8
#     4  10  20  31  46  53  70  91 116 158 204 245
#     4  10  18  25  36  51  69  92 121 147 174 213
#     4  10  17  31  44  60  75  94 117 149 195 249
#     4  10  17  30  40  56  73  91 117 148 190 239
#     4  12  26  40  46  58  70  92 136 186 228 256
#     4  10  16  25  41  62  80  96 110 135 175 238
#     4  10  16  25  42  61  81  95 110 133 177 241
#
# _framework density 24.589404999999999
#
# number of rings (size 3 to 8) (size 9 to 14) (size 15 to 20)
#    0.000    1.846    6.154    1.385    0.000    7.385 
#    0.000    0.000    0.000    0.000    0.000    0.000 
#    0.000    0.000    0.000    0.000    0.000    0.000 
#
# Total GULP energy -289999.663188 kJ/mol
# GULP energy per Si atom -5576.916600 kJ/mol
# Density = 2.453344 g / cm^3
# Si number density = 24.589405 Si / 1000 Ang^3
#
#
#
# Elastic Constant Matrix: (Units=GPa)
#
#
# Indices 1 2 3 4 5 6 
#
# 1 143.4923 40.6284 23.6485 0.0000 0.0000 0.0000
# 2 40.6284 311.7809 12.2231 0.0000 0.0000 0.0000
# 3 23.6485 12.2231 74.7927 0.0000 0.0000 0.0000
# 4 0.0000 0.0000 0.0000 -88.7475 0.0000 0.0000
# 5 0.0000 0.0000 0.0000 0.0000-2629.5084 0.0000
# 6 0.0000 0.0000 0.0000 0.0000 0.0000 41.9343
#
#
#
# Elastic Compliance Matrix: (Units=1/GPa)
#
#
# Indices 1 2 3 4 5 6 
#
# 1 0.007596 -0.000901 -0.002254 0.000000 0.000000 0.000000
# 2 -0.000901 0.003335 -0.000260 0.000000 0.000000 0.000000
# 3 -0.002254 -0.000260 0.014126 0.000000 0.000000 0.000000
# 4 0.000000 0.000000 0.000000 -0.011268 0.000000 0.000000
# 5 0.000000 0.000000 0.000000 0.000000 -0.000380 0.000000
# 6 0.000000 0.000000 0.000000 0.000000 0.000000 0.023847
#
#
# Mechanical properties :
#
#
# Convention : Reuss Voigt Hill
#
# Bulk Modulus (GPa) = 54.87036 75.89621 65.38328
# Shear Modulus (GPa) = 99.67785 -505.02661 -202.67438
#
# Velocity S-wave (km/s) = 6.37377 -14.34677 -9.08859
# Velocity P-wave (km/s) = 8.74812 15.60472 9.13722
#
# Compressibility (1/GPa) = 0.01822478
#
# Stress axis : x y z
#
# Youngs Moduli (GPa) = 131.65201 299.84649 70.79352
#
# Poissons Ratio (x) = 0.27029 0.15959
# Poissons Ratio (y) = 0.11868 0.01841
# Poissons Ratio (z) = 0.29679 0.07796
#
# Static dielectric constant tensor:
#      x y z
#    x 1.919930 0.000000 0.000000 
#    y 0.000000 2.081860 0.000000 
#    z 0.000000 0.000000 1.929410 
# 
# From -- ./inp_files/27714.got.cif
#   From: 2010.05.17/outbox.cif.g08.bks.cpg/sg58_14_cif.got.tgz:27714.got - 2010.06.03 14:20:14.
