data_PCOD9440365
_publ_section_title
;
Structure prediction by ZEFSAII (Michael W. Deem and Ramdas Pophale) SiO2 
 PCOD9440365
Probable space group: P B C M
;
_chemical_formula_sum "Si O2"
_cell_formula_units_Z 24
_cell_length_a 4.932727
_cell_length_b 8.802743
_cell_length_c 20.018297
_cell_angle_alpha 90.000000
_cell_angle_beta 90.000000
_cell_angle_gamma 90.000000
_cell_volume 869.225045
_symmetry_space_group_name_H-M "P B C M"
_symmetry_group_IT_number 57
_symmetry_cell_setting 'orthorhombic'
loop_
_space_group_symop_operation_xyz
x,y,z
-x,-y,1/2+z
x,1/2-y,-z
-x,1/2+y,1/2-z
-x,-y,-z
x,y,1/2-z
-x,1/2+y,z
x,1/2-y,1/2+z
loop_
_atom_site_type_symbol
_atom_site_label
_atom_site_fract_x
_atom_site_fract_y
_atom_site_fract_z
Si Si1 0.252281 0.021032 0.049121
Si Si2 0.580152 0.707491 0.635392
Si Si3 0.381011 0.085146 0.250000
Si Si4 0.970128 0.652546 0.750000
O O1 0.262002 0.189673 0.080850
O O2 0.338257 0.891986 0.103977
O O3 0.500000 0.000000 0.000000
O O4 0.000000 0.000000 0.000000
O O5 0.485185 0.841601 0.685248
O O6 0.795123 0.616650 0.682551
O O7 0.079084 0.166077 0.250000
O O8 0.730620 0.415635 0.250000
#
# Coordination Sequence:
#
# PCOD9440365 Si02
#       4
#     8   8   4   4
#     4  12  28  51  79 121 172 231 284 346 423 525
#     4   9  25  48  77 124 165 220 293 353 437 511
#     4   8  20  44  80 120 164 212 279 369 438 507
#     4   8  20  44  80 120 162 212 279 375 444 507
#
# _framework density 27.610800000000001
#
# number of rings (size 3 to 8) (size 9 to 14) (size 15 to 20)
#    2.000    0.000    0.000    1.000    4.667   10.667 
#    6.000    0.000    0.000    0.000    0.000    0.000 
#    0.000    0.000    0.000    0.000    0.000    0.000 
#
# Total GULP energy -133863.626120 kJ/mol
# GULP energy per Si atom -5577.651088 kJ/mol
# Density = 2.754796 g / cm^3
# Si number density = 27.610800 Si / 1000 Ang^3
#
#
#
# Elastic Constant Matrix: (Units=GPa)
#
#
# Indices 1 2 3 4 5 6 
#
# 1 191.8027 73.6135 89.5789 0.0000 0.0000 0.0000
# 2 73.6135 173.8546 73.5463 0.0000 0.0000 0.0000
# 3 89.5789 73.5463 197.6377 0.0000 0.0000 0.0000
# 4 0.0000 0.0000 0.0000 35.2299 0.0000 0.0000
# 5 0.0000 0.0000 0.0000 0.0000 58.6579 0.0000
# 6 0.0000 0.0000 0.0000 0.0000 0.0000 47.3734
#
#
#
# Elastic Compliance Matrix: (Units=1/GPa)
#
#
# Indices 1 2 3 4 5 6 
#
# 1 0.007136 -0.001962 -0.002504 0.000000 0.000000 0.000000
# 2 -0.001962 0.007366 -0.001852 0.000000 0.000000 0.000000
# 3 -0.002504 -0.001852 0.006884 0.000000 0.000000 0.000000
# 4 0.000000 0.000000 0.000000 0.028385 0.000000 0.000000
# 5 0.000000 0.000000 0.000000 0.000000 0.017048 0.000000
# 6 0.000000 0.000000 0.000000 0.000000 0.000000 0.021109
#
#
# Mechanical properties :
#
#
# Convention : Reuss Voigt Hill
#
# Bulk Modulus (GPa) = 114.28882 115.19697 114.74289
# Shear Modulus (GPa) = 48.31771 50.02268 49.17019
#
# Velocity S-wave (km/s) = 4.18779 4.26103 4.22457
# Velocity P-wave (km/s) = 8.05395 8.12532 8.08971
#
# Compressibility (1/GPa) = 0.00874976
#
# Stress axis : x y z
#
# Youngs Moduli (GPa) = 140.12591 135.75611 145.26558
#
# Poissons Ratio (x) = 0.26639 0.36380
# Poissons Ratio (y) = 0.27497 0.26899
# Poissons Ratio (z) = 0.35093 0.25139
#
# Static dielectric constant tensor:
#      x y z
#    x 2.068290 0.000000 0.000000 
#    y 0.000000 2.284960 0.000000 
#    z 0.000000 0.000000 2.402260 
# 
# From -- ./inp_files/25949.got.cif
#   From: 2010.05.17/outbox.cif.g08.bks.cpg/sg57_13_cif.got.tgz:25949.got - 2010.06.03 13:58:18.
