data_PCOD9440042
_publ_section_title
;
Structure prediction by ZEFSAII (Michael W. Deem and Ramdas Pophale) SiO2 
 PCOD9440042
Probable space group: P B C M
;
_chemical_formula_sum "Si O2"
_cell_formula_units_Z 48
_cell_length_a 10.212506
_cell_length_b 30.095539
_cell_length_c 7.765452
_cell_angle_alpha 90.000000
_cell_angle_beta 90.000000
_cell_angle_gamma 90.000000
_cell_volume 2386.718448
_symmetry_space_group_name_H-M "P B C M"
_symmetry_group_IT_number 57
_symmetry_cell_setting 'orthorhombic'
loop_
_space_group_symop_operation_xyz
x,y,z
-x,-y,1/2+z
x,1/2-y,-z
-x,1/2+y,1/2-z
-x,-y,-z
x,y,1/2-z
-x,1/2+y,z
x,1/2-y,1/2+z
loop_
_atom_site_type_symbol
_atom_site_label
_atom_site_fract_x
_atom_site_fract_y
_atom_site_fract_z
Si Si1 0.972101 0.625582 0.039234
Si Si2 0.472019 0.801092 0.542886
Si Si3 0.274913 0.878054 0.961954
Si Si4 0.874744 0.529490 0.044502
Si Si5 0.627355 0.472941 0.553207
Si Si6 0.231279 0.199138 0.457035
O O1 0.974058 0.625833 0.250000
O O2 0.905427 0.579336 0.985828
O O3 0.880452 0.665850 0.979782
O O4 0.123529 0.627087 0.983778
O O5 0.438910 0.750000 0.500000
O O6 0.475536 0.804373 0.750000
O O7 0.366936 0.837270 0.482247
O O8 0.620528 0.810128 0.478908
O O9 0.272664 0.878207 0.750000
O O10 0.333274 0.925223 0.026333
O O11 0.856220 0.530334 0.250000
O O12 0.749531 0.505859 0.965371
O O13 0.000000 0.500000 0.000000
O O14 0.500000 0.500000 0.500000
O O15 0.604217 0.461633 0.750000
O O16 0.200587 0.250000 0.500000
O O17 0.235306 0.194791 0.250000
#
# Coordination Sequence:
#
# PCOD9440042 Si02
#       6
#     8   8   8   8   8   8
#     4   9  18  33  55  80 105 142 183 219 267 333
#     4   9  18  33  54  76 102 138 178 221 269 323
#     4   9  18  34  55  78 106 142 183 221 267 332
#     4  11  21  37  60  84 115 152 189 230 278 333
#     4  11  23  39  58  84 115 150 191 235 281 333
#     4   9  18  33  54  77 103 136 178 221 268 324
#
# _framework density 20.111294999999998
#
# number of rings (size 3 to 8) (size 9 to 14) (size 15 to 20)
#    0.000    2.333    1.667    1.000    2.333    0.667 
#    0.000    3.333    0.000    0.000    0.000    0.000 
#    0.000    0.000    0.000    0.000    0.000    0.000 
#
# Total GULP energy -267860.406361 kJ/mol
# GULP energy per Si atom -5580.425133 kJ/mol
# Density = 2.006552 g / cm^3
# Si number density = 20.111295 Si / 1000 Ang^3
#
#
#
# Elastic Constant Matrix: (Units=GPa)
#
#
# Indices 1 2 3 4 5 6 
#
# 1 151.5904 119.0013 -16.1493 0.0000 0.0000 0.0000
# 2 119.0013 182.4255 -9.1380 0.0000 0.0000 0.0000
# 3 -16.1493 -9.1380 16.0184 0.0000 0.0000 0.0000
# 4 0.0000 0.0000 0.0000 23.8771 0.0000 0.0000
# 5 0.0000 0.0000 0.0000 0.0000 19.3391 0.0000
# 6 0.0000 0.0000 0.0000 0.0000 0.0000 32.4518
#
#
#
# Elastic Compliance Matrix: (Units=1/GPa)
#
#
# Indices 1 2 3 4 5 6 
#
# 1 0.014861 -0.009207 0.009730 0.000000 0.000000 0.000000
# 2 -0.009207 0.011347 -0.002809 0.000000 0.000000 0.000000
# 3 0.009730 -0.002809 0.070635 0.000000 0.000000 0.000000
# 4 0.000000 0.000000 0.000000 0.041881 0.000000 0.000000
# 5 0.000000 0.000000 0.000000 0.000000 0.051709 0.000000
# 6 0.000000 0.000000 0.000000 0.000000 0.000000 0.030815
#
#
# Mechanical properties :
#
#
# Convention : Reuss Voigt Hill
#
# Bulk Modulus (GPa) = 10.83756 59.71805 35.27780
# Shear Modulus (GPa) = 19.48740 32.22160 25.85450
#
# Velocity S-wave (km/s) = 3.11622 4.00705 3.58938
# Velocity P-wave (km/s) = 4.28348 7.15310 5.89555
#
# Compressibility (1/GPa) = 0.09227169
#
# Stress axis : x y z
#
# Youngs Moduli (GPa) = 67.29169 88.13101 14.15721
#
# Poissons Ratio (x) = 0.81139 -0.13775
# Poissons Ratio (y) = 0.61953 0.03977
# Poissons Ratio (z) = -0.65475 0.24755
#
# Static dielectric constant tensor:
#      x y z
#    x 1.669840 0.000000 0.000000 
#    y 0.000000 1.696500 0.000000 
#    z 0.000000 0.000000 1.758050 
# 
# From -- ./inp_files/1996.got.cif
#   From: 2010.05.17/outbox.cif.g08.bks.cpg/sg57_1_cif.got.tgz:1996.got - 2010.06.03 13:58:18.
