data_PCOD9440163
_publ_section_title
;
Structure prediction by ZEFSAII (Michael W. Deem and Ramdas Pophale) SiO2 
 PCOD9440163
Probable space group: P B C M
;
_chemical_formula_sum "Si O2"
_cell_formula_units_Z 48
_cell_length_a 12.004548
_cell_length_b 12.088564
_cell_length_c 17.264896
_cell_angle_alpha 90.000000
_cell_angle_beta 90.000000
_cell_angle_gamma 90.000000
_cell_volume 2505.442806
_symmetry_space_group_name_H-M "P B C M"
_symmetry_group_IT_number 57
_symmetry_cell_setting 'orthorhombic'
loop_
_space_group_symop_operation_xyz
x,y,z
-x,-y,1/2+z
x,1/2-y,-z
-x,1/2+y,1/2-z
-x,-y,-z
x,y,1/2-z
-x,1/2+y,z
x,1/2-y,1/2+z
loop_
_atom_site_type_symbol
_atom_site_label
_atom_site_fract_x
_atom_site_fract_y
_atom_site_fract_z
Si Si1 0.909930 0.092982 0.842408
Si Si2 0.664733 0.464911 0.659234
Si Si3 0.443610 0.978895 0.083699
Si Si4 0.242867 0.388690 0.844354
Si Si5 0.283859 0.768861 0.412827
Si Si6 0.842045 0.644632 0.655383
O O1 0.919396 0.089788 0.750000
O O2 0.819722 0.185163 0.864454
O O3 0.032778 0.120710 0.872774
O O4 0.855358 0.975591 0.865110
O O5 0.682788 0.449251 0.750000
O O6 0.545179 0.518251 0.643507
O O7 0.671315 0.346192 0.619383
O O8 0.759390 0.547939 0.628671
O O9 0.378960 0.862682 0.085849
O O10 0.352829 0.070060 0.110711
O O11 0.500000 0.000000 0.000000
O O12 0.260655 0.394756 0.750000
O O13 0.205084 0.265213 0.865186
O O14 0.245036 0.750000 0.500000
O O15 0.842954 0.642675 0.750000
#
# Coordination Sequence:
#
# PCOD9440163 Si02
#       6
#     8   8   8   8   8   8
#     4   9  19  37  63  89 118 158 202 250 304 360
#     4  11  24  39  63  92 119 157 210 255 300 367
#     4  11  23  41  61  86 122 164 201 251 311 365
#     4   9  19  37  61  89 121 158 204 250 301 364
#     4  11  23  41  61  88 124 163 201 251 311 364
#     4   9  20  37  61  94 123 155 201 255 304 355
#
# _framework density 19.158290000000001
#
# number of rings (size 3 to 8) (size 9 to 14) (size 15 to 20)
#    0.000    2.000    1.667    1.000    4.667    2.000 
#    0.000    2.500    0.000    0.000    0.000    0.000 
#    0.000    0.000    0.000    0.000    0.000    0.000 
#
# Total GULP energy -267926.662143 kJ/mol
# GULP energy per Si atom -5581.805461 kJ/mol
# Density = 1.911468 g / cm^3
# Si number density = 19.158290 Si / 1000 Ang^3
#
#
#
# Elastic Constant Matrix: (Units=GPa)
#
#
# Indices 1 2 3 4 5 6 
#
# 1 152.9279 70.8614 13.3356 0.0000 0.0000 0.0000
# 2 70.8614 112.8833 14.8971 0.0000 0.0000 0.0000
# 3 13.3356 14.8971 22.5201 0.0000 0.0000 0.0000
# 4 0.0000 0.0000 0.0000 10.7908 0.0000 0.0000
# 5 0.0000 0.0000 0.0000 0.0000 -28.7745 0.0000
# 6 0.0000 0.0000 0.0000 0.0000 0.0000 -210.4163
#
#
#
# Elastic Compliance Matrix: (Units=1/GPa)
#
#
# Indices 1 2 3 4 5 6 
#
# 1 0.009287 -0.005592 -0.001800 0.000000 0.000000 0.000000
# 2 -0.005592 0.013074 -0.005337 0.000000 0.000000 0.000000
# 3 -0.001800 -0.005337 0.049001 0.000000 0.000000 0.000000
# 4 0.000000 0.000000 0.000000 0.092672 0.000000 0.000000
# 5 0.000000 0.000000 0.000000 0.000000 -0.034753 0.000000
# 6 0.000000 0.000000 0.000000 0.000000 0.000000 -0.004752
#
#
# Mechanical properties :
#
#
# Convention : Reuss Voigt Hill
#
# Bulk Modulus (GPa) = 21.78486 54.05772 37.92129
# Shear Modulus (GPa) = 30.25030 -33.06419 -1.40694
#
# Velocity S-wave (km/s) = 3.97793 -4.15883 -0.85789
# Velocity P-wave (km/s) = 5.70037 2.28395 4.34227
#
# Compressibility (1/GPa) = 0.04590345
#
# Stress axis : x y z
#
# Youngs Moduli (GPa) = 107.67306 76.49010 20.40777
#
# Poissons Ratio (x) = 0.42777 0.03674
# Poissons Ratio (y) = 0.60216 0.10891
# Poissons Ratio (z) = 0.19384 0.40819
#
# Static dielectric constant tensor:
#      x y z
#    x 1.646080 0.000000 0.000000 
#    y 0.000000 1.515140 0.000000 
#    z 0.000000 0.000000 1.684910 
# 
# From -- ./inp_files/21823.got.cif
#   From: 2010.05.17/outbox.cif.g08.bks.cpg/sg57_11_cif.got.tgz:21823.got - 2010.06.03 13:58:18.
