data_PCOD9440008
_publ_section_title
;
Structure prediction by ZEFSAII (Michael W. Deem and Ramdas Pophale) SiO2 
 PCOD9440008
Probable space group: P B C M
;
_chemical_formula_sum "Si O2"
_cell_formula_units_Z 64
_cell_length_a 24.192702
_cell_length_b 17.976979
_cell_length_c 8.013760
_cell_angle_alpha 90.000000
_cell_angle_beta 90.000000
_cell_angle_gamma 90.000000
_cell_volume 3485.277951
_symmetry_space_group_name_H-M "P B C M"
_symmetry_group_IT_number 57
_symmetry_cell_setting 'orthorhombic'
loop_
_space_group_symop_operation_xyz
x,y,z
-x,-y,1/2+z
x,1/2-y,-z
-x,1/2+y,1/2-z
-x,-y,-z
x,y,1/2-z
-x,1/2+y,z
x,1/2-y,1/2+z
loop_
_atom_site_type_symbol
_atom_site_label
_atom_site_fract_x
_atom_site_fract_y
_atom_site_fract_z
Si Si1 0.567493 0.408117 0.546015
Si Si2 0.631203 0.945280 0.450121
Si Si3 0.677787 0.331540 0.949726
Si Si4 0.456111 0.165170 0.051753
Si Si5 0.865514 0.022546 0.050200
Si Si6 0.963782 0.571601 0.050995
Si Si7 0.063391 0.665537 0.451367
Si Si8 0.740808 0.478686 0.545582
O O1 0.565956 0.409359 0.750000
O O2 0.590698 0.488004 0.490084
O O3 0.615220 0.349875 0.494280
O O4 0.507614 0.383564 0.483773
O O5 0.632578 0.950476 0.250000
O O6 0.602020 0.869178 0.496939
O O7 0.693442 0.962988 0.508471
O O8 0.677087 0.335366 0.750000
O O9 0.717351 0.398065 0.006540
O O10 0.695714 0.250000 0.000000
O O11 0.458603 0.161100 0.250000
O O12 0.462937 0.250000 0.000000
O O13 0.862814 0.030339 0.250000
O O14 0.895169 0.099332 0.989081
O O15 0.803322 0.012149 0.986195
O O16 0.903687 0.950926 0.014215
O O17 0.960370 0.575836 0.250000
O O18 0.001357 0.640918 0.992066
O O19 0.000000 0.500000 0.000000
O O20 0.077010 0.750000 0.500000
O O21 0.063918 0.662428 0.250000
O O22 0.741913 0.480380 0.750000
#
# Coordination Sequence:
#
# PCOD9440008 Si02
#       8
#     8   8   8   8   8   8   8   8
#     4   8  16  30  48  68  92 122 156 191 235 288
#     4   9  17  33  53  70  90 122 159 195 235 283
#     4   9  16  28  44  64  92 126 158 190 227 276
#     4  11  21  32  47  70  96 121 151 194 244 293
#     4   9  17  31  49  70  93 123 160 194 226 270
#     4   9  17  30  47  69  94 123 156 191 226 264
#     4   9  18  29  44  68  99 126 150 180 220 266
#     4   8  16  31  50  67  90 125 160 189 228 278
#
# _framework density 18.362954999999999
#
# number of rings (size 3 to 8) (size 9 to 14) (size 15 to 20)
#    0.000    3.000    0.000    3.750    0.000    3.000 
#    0.000    5.000    0.000    0.750    0.000    1.750 
#    0.000    0.000    0.000    0.000    0.000    0.000 
#
# Total GULP energy -356428.592460 kJ/mol
# GULP energy per Si atom -5569.196757 kJ/mol
# Density = 1.832116 g / cm^3
# Si number density = 18.362955 Si / 1000 Ang^3
#
#
#
# Elastic Constant Matrix: (Units=GPa)
#
#
# Indices 1 2 3 4 5 6 
#
# 1 149.8721 37.8577 13.5511 0.0000 0.0000 0.0000
# 2 37.8577 36.7441 3.5032 0.0000 0.0000 0.0000
# 3 13.5511 3.5032 8.0414 0.0000 0.0000 0.0000
# 4 0.0000 0.0000 0.0000 20.1971 0.0000 0.0000
# 5 0.0000 0.0000 0.0000 0.0000 13.7251 0.0000
# 6 0.0000 0.0000 0.0000 0.0000 0.0000 14.1952
#
#
#
# Elastic Compliance Matrix: (Units=1/GPa)
#
#
# Indices 1 2 3 4 5 6 
#
# 1 0.010200 -0.009254 -0.013156 0.000000 0.000000 0.000000
# 2 -0.009254 0.036791 -0.000433 0.000000 0.000000 0.000000
# 3 -0.013156 -0.000433 0.146715 0.000000 0.000000 0.000000
# 4 0.000000 0.000000 0.000000 0.049512 0.000000 0.000000
# 5 0.000000 0.000000 0.000000 0.000000 0.072859 0.000000
# 6 0.000000 0.000000 0.000000 0.000000 0.000000 0.070446
#
#
# Mechanical properties :
#
#
# Convention : Reuss Voigt Hill
#
# Bulk Modulus (GPa) = 6.75589 33.83129 20.29359
# Shear Modulus (GPa) = 10.38311 18.93985 14.66148
#
# Velocity S-wave (km/s) = 2.38047 3.21505 2.82871
# Velocity P-wave (km/s) = 3.35300 5.67853 4.66306
#
# Compressibility (1/GPa) = 0.14801907
#
# Stress axis : x y z
#
# Youngs Moduli (GPa) = 98.04338 27.18034 6.81591
#
# Poissons Ratio (x) = 0.25154 0.08967
# Poissons Ratio (y) = 0.90733 0.00295
# Poissons Ratio (z) = 1.28989 0.01177
#
# Static dielectric constant tensor:
#      x y z
#    x 1.667680 0.000000 0.000000 
#    y 0.000000 1.617610 0.000000 
#    z 0.000000 0.000000 1.719420 
# 
# From -- ./inp_files/9547.got.cif
#   From: 2010.05.17/outbox.cif.g08.bks.cpg/sg57_5_cif.got.tgz:9547.got - 2010.06.03 13:58:18.
