data_PCOD9440816
_publ_section_title
;
Structure prediction by ZEFSAII (Michael W. Deem and Ramdas Pophale) SiO2 
 PCOD9440816
Probable space group: P N N M
;
_chemical_formula_sum "Si O2"
_cell_formula_units_Z 48
_cell_length_a 4.964040
_cell_length_b 19.885088
_cell_length_c 28.305280
_cell_angle_alpha 90.000000
_cell_angle_beta 90.000000
_cell_angle_gamma 90.000000
_cell_volume 2794.024725
_symmetry_space_group_name_H-M "P N N M"
_symmetry_group_IT_number 58
_symmetry_cell_setting 'orthorhombic'
loop_
_space_group_symop_operation_xyz
x,y,z
-x,-y,z
1/2+x,1/2-y,1/2-z
1/2-x,1/2+y,1/2-z
-x,-y,-z
x,y,-z
1/2-x,1/2+y,1/2+z
1/2+x,1/2-y,1/2+z
loop_
_atom_site_type_symbol
_atom_site_label
_atom_site_fract_x
_atom_site_fract_y
_atom_site_fract_z
Si Si1 0.098374 0.355671 0.102438
Si Si2 0.367893 0.342125 0.747880
Si Si3 0.403491 0.741273 0.898500
Si Si4 0.248546 0.956749 0.316531
Si Si5 0.371557 0.204029 0.805489
Si Si6 0.480335 0.146074 0.500000
Si Si7 0.513315 0.738014 0.000000
O O1 0.388042 0.320723 0.100464
O O2 0.114067 0.408979 0.144128
O O3 0.036025 0.386637 0.050743
O O4 0.883821 0.294656 0.110599
O O5 0.391094 0.410459 0.776700
O O6 0.388728 0.280101 0.784818
O O7 0.578568 0.325026 0.706330
O O8 0.072655 0.339180 0.726143
O O9 0.512392 0.790236 0.857999
O O10 0.430712 0.772510 0.950894
O O11 0.500000 0.000000 0.297642
O O12 0.000000 0.000000 0.337028
O O13 0.678366 0.212296 0.500000
O O14 0.174376 0.171295 0.500000
#
# Coordination Sequence:
#
# PCOD9440816 Si02
#       7
#     8   8   8   8   8   4   4
#     4  10  19  32  49  68  94 124 172 204 249 290
#     4  10  21  33  47  72  94 121 163 203 251 288
#     4  10  17  30  51  73  98 126 155 201 243 302
#     4  12  24  36  50  67  96 135 170 211 251 291
#     4  10  19  31  53  71  95 121 153 208 248 287
#     4   8  16  30  46  65  90 124 158 215 244 281
#     4   8  16  26  44  73  98 124 152 181 252 303
#
# _framework density 17.179518999999999
#
# number of rings (size 3 to 8) (size 9 to 14) (size 15 to 20)
#    0.000    2.000    1.667    3.000    4.667    0.000 
#    0.000    0.833    0.000    0.000    0.000    0.000 
#    0.000    0.000    0.000   15.000    0.000    0.000 
#
# Total GULP energy -267395.324183 kJ/mol
# GULP energy per Si atom -5570.735920 kJ/mol
# Density = 1.714042 g / cm^3
# Si number density = 17.179519 Si / 1000 Ang^3
#
#
#
# Elastic Constant Matrix: (Units=GPa)
#
#
# Indices 1 2 3 4 5 6 
#
# 1 67.7383 1.9464 -8.2786 0.0000 0.0000 0.0000
# 2 1.9464 18.8999 23.2734 0.0000 0.0000 0.0000
# 3 -8.2786 23.2734 93.2110 0.0000 0.0000 0.0000
# 4 0.0000 0.0000 0.0000 8.3213 0.0000 0.0000
# 5 0.0000 0.0000 0.0000 0.0000 17.6097 0.0000
# 6 0.0000 0.0000 0.0000 0.0000 0.0000 13.3509
#
#
#
# Elastic Compliance Matrix: (Units=1/GPa)
#
#
# Indices 1 2 3 4 5 6 
#
# 1 0.015204 -0.004662 0.002514 0.000000 0.000000 0.000000
# 2 -0.004662 0.077830 -0.019847 0.000000 0.000000 0.000000
# 3 0.002514 -0.019847 0.015907 0.000000 0.000000 0.000000
# 4 0.000000 0.000000 0.000000 0.120174 0.000000 0.000000
# 5 0.000000 0.000000 0.000000 0.000000 0.056787 0.000000
# 6 0.000000 0.000000 0.000000 0.000000 0.000000 0.074901
#
#
# Mechanical properties :
#
#
# Convention : Reuss Voigt Hill
#
# Bulk Modulus (GPa) = 15.39602 23.74795 19.57198
# Shear Modulus (GPa) = 11.72490 18.71692 15.22091
#
# Velocity S-wave (km/s) = 2.61529 3.30432 2.97979
# Velocity P-wave (km/s) = 4.25452 5.33024 4.82247
#
# Compressibility (1/GPa) = 0.06495187
#
# Stress axis : x y z
#
# Youngs Moduli (GPa) = 65.77239 12.84852 62.86475
#
# Poissons Ratio (x) = 0.05990 -0.15806
# Poissons Ratio (y) = 0.30663 1.24768
# Poissons Ratio (z) = -0.16538 0.25500
#
# Static dielectric constant tensor:
#      x y z
#    x 1.592960 0.000000 0.000000 
#    y 0.000000 1.560950 0.000000 
#    z 0.000000 0.000000 1.668170 
# 
# From -- ./inp_files/32837.got.cif
#   From: 2010.05.17/outbox.cif.g08.bks.cpg/sg58_17_cif.got.tgz:32837.got - 2010.06.03 14:20:14.
