data_PCOD9440809
_publ_section_title
;
Structure prediction by ZEFSAII (Michael W. Deem and Ramdas Pophale) SiO2 
 PCOD9440809
Probable space group: P N N M
;
_chemical_formula_sum "Si O2"
_cell_formula_units_Z 52
_cell_length_a 13.555745
_cell_length_b 5.322512
_cell_length_c 29.590189
_cell_angle_alpha 90.000000
_cell_angle_beta 90.000000
_cell_angle_gamma 90.000000
_cell_volume 2134.950347
_symmetry_space_group_name_H-M "P N N M"
_symmetry_group_IT_number 58
_symmetry_cell_setting 'orthorhombic'
loop_
_space_group_symop_operation_xyz
x,y,z
-x,-y,z
1/2+x,1/2-y,1/2-z
1/2-x,1/2+y,1/2-z
-x,-y,-z
x,y,-z
1/2-x,1/2+y,1/2+z
1/2+x,1/2-y,1/2+z
loop_
_atom_site_type_symbol
_atom_site_label
_atom_site_fract_x
_atom_site_fract_y
_atom_site_fract_z
Si Si1 0.150583 0.847514 0.622982
Si Si2 0.874926 0.811484 0.891094
Si Si3 0.293743 0.682933 0.199210
Si Si4 0.159747 0.183687 0.205466
Si Si5 0.370219 0.190676 0.552493
Si Si6 0.000000 0.500000 0.383184
Si Si7 0.368649 0.689404 0.050679
O O1 0.256172 0.719235 0.616338
O O2 0.066194 0.685950 0.646275
O O3 0.162251 0.104029 0.651271
O O4 0.110996 0.921808 0.573747
O O5 0.910317 0.806698 0.838693
O O6 0.897960 0.569858 0.922377
O O7 0.898211 0.069219 0.917016
O O8 0.218839 0.447303 0.205104
O O9 0.368778 0.670086 0.241590
O O10 0.231700 0.940716 0.198664
O O11 0.404165 0.202190 0.500000
O O12 0.250578 0.204834 0.550995
O O13 0.919860 0.614568 0.417057
O O14 0.403325 0.710836 0.000000
#
# Coordination Sequence:
#
# PCOD9440809 Si02
#       7
#     8   8   8   8   8   4   8
#     4  10  21  31  43  57  79 103 134 179 218 260
#     4  10  17  30  45  59  81 102 133 167 208 252
#     4   9  18  29  47  65  82  96 125 162 221 262
#     4   9  16  29  47  67  80  99 121 165 212 263
#     4  10  19  30  44  60  81 108 136 171 208 247
#     4  12  21  32  42  54  74 108 144 182 217 252
#     4  10  21  33  42  54  73 103 145 185 221 251
#
# _framework density 24.356536999999999
#
# number of rings (size 3 to 8) (size 9 to 14) (size 15 to 20)
#    0.000    2.154    1.538    3.923    2.154    2.462 
#    0.000    0.000    0.000    0.000    0.000    0.000 
#    0.000    0.000    0.000    0.000    0.000    0.000 
#
# Total GULP energy -290180.560173 kJ/mol
# GULP energy per Si atom -5580.395388 kJ/mol
# Density = 2.430110 g / cm^3
# Si number density = 24.356537 Si / 1000 Ang^3
#
#
#
# Elastic Constant Matrix: (Units=GPa)
#
#
# Indices 1 2 3 4 5 6 
#
# 1 48.7424 5.4612 -8.1043 0.0000 0.0000 0.0000
# 2 5.4612 149.6659 49.7572 0.0000 0.0000 0.0000
# 3 -8.1043 49.7572 165.3270 0.0000 0.0000 0.0000
# 4 0.0000 0.0000 0.0000 156.4931 0.0000 0.0000
# 5 0.0000 0.0000 0.0000 0.0000 0.5531 0.0000
# 6 0.0000 0.0000 0.0000 0.0000 0.0000 -5.8123
#
#
#
# Elastic Compliance Matrix: (Units=1/GPa)
#
#
# Indices 1 2 3 4 5 6 
#
# 1 0.020885 -0.001225 0.001392 0.000000 0.000000 0.000000
# 2 -0.001225 0.007496 -0.002316 0.000000 0.000000 0.000000
# 3 0.001392 -0.002316 0.006814 0.000000 0.000000 0.000000
# 4 0.000000 0.000000 0.000000 0.006390 0.000000 0.000000
# 5 0.000000 0.000000 0.000000 0.000000 1.807850 0.000000
# 6 0.000000 0.000000 0.000000 0.000000 0.000000 -0.172049
#
#
# Mechanical properties :
#
#
# Convention : Reuss Voigt Hill
#
# Bulk Modulus (GPa) = 32.36496 50.88484 41.62490
# Shear Modulus (GPa) = 2.95511 51.35486 27.15498
#
# Velocity S-wave (km/s) = 1.10268 4.59678 3.34263
# Velocity P-wave (km/s) = 3.86498 7.00792 5.65902
#
# Compressibility (1/GPa) = 0.03089761
#
# Stress axis : x y z
#
# Youngs Moduli (GPa) = 47.88172 133.39983 146.75782
#
# Poissons Ratio (x) = 0.16342 -0.20435
# Poissons Ratio (y) = 0.05866 0.33991
# Poissons Ratio (z) = -0.06667 0.30897
#
# Static dielectric constant tensor:
#      x y z
#    x 1.981890 0.000000 0.000000 
#    y 0.000000 2.033830 0.000000 
#    z 0.000000 0.000000 1.987530 
# 
# From -- ./inp_files/35163.got.cif
#   From: 2010.05.17/outbox.cif.g08.bks.cpg/sg58_18_cif.got.tgz:35163.got - 2010.06.03 14:20:14.
