data_PCOD9440153
_publ_section_title
;
Structure prediction by ZEFSAII (Michael W. Deem and Ramdas Pophale) SiO2 
 PCOD9440153
Probable space group: P B C M
;
_chemical_formula_sum "Si O2"
_cell_formula_units_Z 40
_cell_length_a 7.399428
_cell_length_b 9.618073
_cell_length_c 26.151684
_cell_angle_alpha 90.000000
_cell_angle_beta 90.000000
_cell_angle_gamma 90.000000
_cell_volume 1861.169288
_symmetry_space_group_name_H-M "P B C M"
_symmetry_group_IT_number 57
_symmetry_cell_setting 'orthorhombic'
loop_
_space_group_symop_operation_xyz
x,y,z
-x,-y,1/2+z
x,1/2-y,-z
-x,1/2+y,1/2-z
-x,-y,-z
x,y,1/2-z
-x,1/2+y,z
x,1/2-y,1/2+z
loop_
_atom_site_type_symbol
_atom_site_label
_atom_site_fract_x
_atom_site_fract_y
_atom_site_fract_z
Si Si1 0.705323 0.371623 0.809855
Si Si2 0.575212 0.834877 0.145367
Si Si3 0.980107 0.938400 0.056082
Si Si4 0.416185 0.383510 0.464075
Si Si5 0.950260 0.684179 0.120331
O O1 0.739210 0.391977 0.750000
O O2 0.620296 0.512613 0.833384
O O3 0.562433 0.248757 0.819318
O O4 0.891677 0.333206 0.838685
O O5 0.486225 0.838244 0.088085
O O6 0.765936 0.750906 0.141279
O O7 0.084625 0.034686 0.095593
O O8 0.764043 0.947424 0.060693
O O9 0.017329 0.780517 0.072564
O O10 0.000000 0.000000 0.000000
O O11 0.377310 0.250000 0.500000
O O12 0.500000 0.500000 0.500000
#
# Coordination Sequence:
#
# PCOD9440153 Si02
#       5
#     8   8   8   8   8
#     4  12  27  47  74 102 133 189 242 298 360 408
#     4  11  26  48  69 105 145 177 243 293 350 432
#     4  11  23  41  67 100 139 186 227 273 349 423
#     4  11  23  39  65 103 139 185 225 279 354 419
#     4  11  24  47  67 103 144 184 230 294 346 422
#
# _framework density 21.491866999999999
#
# number of rings (size 3 to 8) (size 9 to 14) (size 15 to 20)
#    0.000    0.800    4.000    4.800    5.600    1.600 
#    0.000    0.000    0.000    0.000    0.000    0.000 
#    0.000    0.000    0.000    0.000    0.000    0.000 
#
# Total GULP energy -223389.980796 kJ/mol
# GULP energy per Si atom -5584.749520 kJ/mol
# Density = 2.144295 g / cm^3
# Si number density = 21.491867 Si / 1000 Ang^3
#
#
#
# Elastic Constant Matrix: (Units=GPa)
#
#
# Indices 1 2 3 4 5 6 
#
# 1 64.7885 19.0396 20.5905 0.0000 0.0000 0.0000
# 2 19.0396 84.6090 18.9260 0.0000 0.0000 0.0000
# 3 20.5905 18.9260 133.9712 0.0000 0.0000 0.0000
# 4 0.0000 0.0000 0.0000 32.6843 0.0000 0.0000
# 5 0.0000 0.0000 0.0000 0.0000 32.3125 0.0000
# 6 0.0000 0.0000 0.0000 0.0000 0.0000 32.4077
#
#
#
# Elastic Compliance Matrix: (Units=1/GPa)
#
#
# Indices 1 2 3 4 5 6 
#
# 1 0.017109 -0.003368 -0.002154 0.000000 0.000000 0.000000
# 2 -0.003368 0.012868 -0.001300 0.000000 0.000000 0.000000
# 3 -0.002154 -0.001300 0.007979 0.000000 0.000000 0.000000
# 4 0.000000 0.000000 0.000000 0.030596 0.000000 0.000000
# 5 0.000000 0.000000 0.000000 0.000000 0.030948 0.000000
# 6 0.000000 0.000000 0.000000 0.000000 0.000000 0.030857
#
#
# Mechanical properties :
#
#
# Convention : Reuss Voigt Hill
#
# Bulk Modulus (GPa) = 41.13257 44.49788 42.81523
# Shear Modulus (GPa) = 32.87211 34.46842 33.67026
#
# Velocity S-wave (km/s) = 3.91514 4.00908 3.96239
# Velocity P-wave (km/s) = 6.29428 6.49459 6.39522
#
# Compressibility (1/GPa) = 0.02431163
#
# Stress axis : x y z
#
# Youngs Moduli (GPa) = 58.44819 77.71295 125.32938
#
# Poissons Ratio (x) = 0.26176 0.26993
# Poissons Ratio (y) = 0.19687 0.16295
# Poissons Ratio (z) = 0.12588 0.10104
#
# Static dielectric constant tensor:
#      x y z
#    x 1.898260 0.000000 0.000000 
#    y 0.000000 1.642100 0.000000 
#    z 0.000000 0.000000 1.921080 
# 
# From -- ./inp_files/26521.got.cif
#   From: 2010.05.17/outbox.cif.g08.bks.cpg/sg57_14_cif.got.tgz:26521.got - 2010.06.03 13:58:18.
