data_PCOD9440997
_publ_section_title
;
Structure prediction by ZEFSAII (Michael W. Deem and Ramdas Pophale) SiO2 
 PCOD9440997
Probable space group: P N N M
;
_chemical_formula_sum "Si O2"
_cell_formula_units_Z 56
_cell_length_a 21.128143
_cell_length_b 18.787773
_cell_length_c 9.039766
_cell_angle_alpha 90.000000
_cell_angle_beta 90.000000
_cell_angle_gamma 90.000000
_cell_volume 3588.341935
_symmetry_space_group_name_H-M "P N N M"
_symmetry_group_IT_number 58
_symmetry_cell_setting 'orthorhombic'
loop_
_space_group_symop_operation_xyz
x,y,z
-x,-y,z
1/2+x,1/2-y,1/2-z
1/2-x,1/2+y,1/2-z
-x,-y,-z
x,y,-z
1/2-x,1/2+y,1/2+z
1/2+x,1/2-y,1/2+z
loop_
_atom_site_type_symbol
_atom_site_label
_atom_site_fract_x
_atom_site_fract_y
_atom_site_fract_z
Si Si1 0.999045 0.415687 0.324641
Si Si2 0.124257 0.650009 0.822615
Si Si3 0.245917 0.574723 0.325035
Si Si4 0.741663 0.576150 0.175467
Si Si5 0.803314 0.780275 0.826470
Si Si6 0.814034 0.206871 0.825502
Si Si7 0.879098 0.648180 0.173706
O O1 0.990413 0.406051 0.500000
O O2 0.064938 0.382023 0.271729
O O3 0.000000 0.500000 0.293388
O O4 0.941146 0.379957 0.238246
O O5 0.182150 0.606838 0.747919
O O6 0.133114 0.734140 0.787708
O O7 0.128636 0.642057 0.000000
O O8 0.235168 0.565604 0.500000
O O9 0.262710 0.500126 0.251845
O O10 0.300108 0.635243 0.305853
O O11 0.691523 0.633027 0.238766
O O12 0.812405 0.608044 0.203712
O O13 0.734725 0.569902 0.000000
O O14 0.750194 0.748136 0.719686
O O15 0.865049 0.732236 0.802668
O O16 0.784798 0.766774 0.000000
O O17 0.815792 0.193085 0.000000
O O18 0.893996 0.637272 0.000000
#
# Coordination Sequence:
#
# PCOD9440997 Si02
#       7
#     8   8   8   8   8   8   8
#     4  11  23  34  45  65  92 123 158 192 225 263
#     4  10  20  33  48  66  91 124 158 190 227 273
#     4  10  18  29  47  70  96 122 150 188 230 272
#     4  10  19  30  46  69  96 124 152 185 229 275
#     4   8  16  30  46  65  90 120 150 184 230 275
#     4   9  17  29  46  67  89 116 152 190 227 270
#     4   9  18  32  47  63  88 122 156 187 221 266
#
# _framework density 15.606094000000001
#
# number of rings (size 3 to 8) (size 9 to 14) (size 15 to 20)
#    0.000    2.429    0.000    3.857    0.000    8.571 
#    0.000    0.000    0.000    0.000    0.000    1.000 
#    0.000    8.000    0.000    0.000    0.000    0.000 
#
# Total GULP energy -312027.732411 kJ/mol
# GULP energy per Si atom -5571.923793 kJ/mol
# Density = 1.557057 g / cm^3
# Si number density = 15.606094 Si / 1000 Ang^3
#
#
#
# Elastic Constant Matrix: (Units=GPa)
#
#
# Indices 1 2 3 4 5 6 
#
# 1 50.0648 45.6012 39.1067 0.0000 0.0000 0.0000
# 2 45.6012 142.1321 70.5341 0.0000 0.0000 0.0000
# 3 39.1067 70.5341 69.9380 0.0000 0.0000 0.0000
# 4 0.0000 0.0000 0.0000 27.8580 0.0000 0.0000
# 5 0.0000 0.0000 0.0000 0.0000 17.5094 0.0000
# 6 0.0000 0.0000 0.0000 0.0000 0.0000 22.1763
#
#
#
# Elastic Compliance Matrix: (Units=1/GPa)
#
#
# Indices 1 2 3 4 5 6 
#
# 1 0.036149 -0.003137 -0.017050 0.000000 0.000000 0.000000
# 2 -0.003137 0.014357 -0.012726 0.000000 0.000000 0.000000
# 3 -0.017050 -0.012726 0.036666 0.000000 0.000000 0.000000
# 4 0.000000 0.000000 0.000000 0.035896 0.000000 0.000000
# 5 0.000000 0.000000 0.000000 0.000000 0.057112 0.000000
# 6 0.000000 0.000000 0.000000 0.000000 0.000000 0.045093
#
#
# Mechanical properties :
#
#
# Convention : Reuss Voigt Hill
#
# Bulk Modulus (GPa) = 46.84246 63.62433 55.23340
# Shear Modulus (GPa) = 16.76644 20.63492 18.70068
#
# Velocity S-wave (km/s) = 3.28129 3.64020 3.46539
# Velocity P-wave (km/s) = 6.66607 7.65019 7.17502
#
# Compressibility (1/GPa) = 0.02134815
#
# Stress axis : x y z
#
# Youngs Moduli (GPa) = 27.66305 69.65065 27.27329
#
# Poissons Ratio (x) = 0.21850 0.46500
# Poissons Ratio (y) = 0.08678 0.34707
# Poissons Ratio (z) = 0.47164 0.88635
#
# Static dielectric constant tensor:
#      x y z
#    x 1.495290 0.000000 0.000000 
#    y 0.000000 1.546010 0.000000 
#    z 0.000000 0.000000 1.519280 
# 
# From -- ./inp_files/8136.got.cif
#   From: 2010.05.17/outbox.cif.g08.bks.cpg/sg58_5_cif.got.tgz:8136.got - 2010.06.03 14:20:14.
