data_PCOD9440725
_publ_section_title
;
Structure prediction by ZEFSAII (Michael W. Deem and Ramdas Pophale) SiO2 
 PCOD9440725
Probable space group: P N N M
;
_chemical_formula_sum "Si O2"
_cell_formula_units_Z 40
_cell_length_a 25.672103
_cell_length_b 6.958101
_cell_length_c 10.144015
_cell_angle_alpha 90.000000
_cell_angle_beta 90.000000
_cell_angle_gamma 90.000000
_cell_volume 1812.016123
_symmetry_space_group_name_H-M "P N N M"
_symmetry_group_IT_number 58
_symmetry_cell_setting 'orthorhombic'
loop_
_space_group_symop_operation_xyz
x,y,z
-x,-y,z
1/2+x,1/2-y,1/2-z
1/2-x,1/2+y,1/2-z
-x,-y,-z
x,y,-z
1/2-x,1/2+y,1/2+z
1/2+x,1/2-y,1/2+z
loop_
_atom_site_type_symbol
_atom_site_label
_atom_site_fract_x
_atom_site_fract_y
_atom_site_fract_z
Si Si1 0.175485 0.451804 0.000000
Si Si2 0.572710 0.170909 0.000000
Si Si3 0.542143 0.717741 0.000000
Si Si4 0.708109 0.580353 0.000000
Si Si5 0.344721 0.901927 0.787052
Si Si6 0.875383 0.142895 0.711510
Si Si7 0.858652 0.123459 0.000000
Si Si8 0.762508 0.531623 0.500000
O O1 0.235946 0.518674 0.000000
O O2 0.164220 0.343888 0.136400
O O3 0.141103 0.643715 0.000000
O O4 0.519925 0.291850 0.000000
O O5 0.608990 0.194084 0.128887
O O6 0.556071 0.946294 0.000000
O O7 0.572238 0.635910 0.126545
O O8 0.671907 0.549185 0.127820
O O9 0.724250 0.805153 0.000000
O O10 0.358774 0.130594 0.784085
O O11 0.291995 0.885404 0.871909
O O12 0.882022 0.067693 0.859107
O O13 0.798338 0.063312 0.000000
#
# Coordination Sequence:
#
# PCOD9440725 Si02
#       8
#     4   4   4   4   8   8   4   4
#     4  10  17  25  38  58  84 105 124 158 197 222
#     4   8  13  24  40  54  73 104 133 153 187 241
#     4   8  13  24  40  54  73 104 133 153 187 241
#     4   9  16  27  40  54  78 110 136 152 178 228
#     4   8  15  25  37  55  78 103 129 159 192 224
#     4   8  15  25  37  55  78 103 129 159 192 224
#     4  10  17  25  38  58  84 105 124 158 197 222
#     4   9  16  27  40  54  78 110 136 152 178 228
#
# _framework density 22.074857999999999
#
# number of rings (size 3 to 8) (size 9 to 14) (size 15 to 20)
#    0.000    3.400    0.000    3.600    0.000    0.000 
#    0.000    1.000    0.000    6.000    0.000    0.000 
#    0.000   30.400    0.000    0.000    0.000    0.000 
#
# Total GULP energy -223558.578728 kJ/mol
# GULP energy per Si atom -5588.964468 kJ/mol
# Density = 2.202461 g / cm^3
# Si number density = 22.074858 Si / 1000 Ang^3
#
#
#
# Elastic Constant Matrix: (Units=GPa)
#
#
# Indices 1 2 3 4 5 6 
#
# 1 118.4862 10.0931 83.7265 0.0000 0.0000 0.0000
# 2 10.0931 76.1997 11.2634 0.0000 0.0000 0.0000
# 3 83.7265 11.2634 244.0098 0.0000 0.0000 0.0000
# 4 0.0000 0.0000 0.0000 -0.7925 0.0000 0.0000
# 5 0.0000 0.0000 0.0000 0.0000 -0.7364 0.0000
# 6 0.0000 0.0000 0.0000 0.0000 0.0000 33.5711
#
#
#
# Elastic Compliance Matrix: (Units=1/GPa)
#
#
# Indices 1 2 3 4 5 6 
#
# 1 0.011205 -0.000922 -0.003802 0.000000 0.000000 0.000000
# 2 -0.000922 0.013289 -0.000297 0.000000 0.000000 0.000000
# 3 -0.003802 -0.000297 0.005417 0.000000 0.000000 0.000000
# 4 0.000000 0.000000 0.000000 -1.261759 0.000000 0.000000
# 5 0.000000 0.000000 0.000000 0.000000 -1.358010 0.000000
# 6 0.000000 0.000000 0.000000 0.000000 0.000000 0.029788
#
#
# Mechanical properties :
#
#
# Convention : Reuss Voigt Hill
#
# Bulk Modulus (GPa) = 50.33134 72.09577 61.21355
# Shear Modulus (GPa) = -1.96587 28.64929 13.34171
#
# Velocity S-wave (km/s) = -0.94471 3.60644 2.46109
# Velocity P-wave (km/s) = 4.65401 7.07619 5.98884
#
# Compressibility (1/GPa) = 0.01986834
#
# Stress axis : x y z
#
# Youngs Moduli (GPa) = 89.24479 75.24761 184.61924
#
# Poissons Ratio (x) = 0.06939 0.70196
# Poissons Ratio (y) = 0.08230 0.05484
# Poissons Ratio (z) = 0.33933 0.02235
#
# Static dielectric constant tensor:
#      x y z
#    x 1.737110 0.000000 0.000000 
#    y 0.000000 1.916640 0.000000 
#    z 0.000000 0.000000 1.805260 
# 
# From -- ./inp_files/2694.got.cif
#   From: 2010.05.17/outbox.cif.g08.bks.cpg/sg58_2_cif.got.tgz:2694.got - 2010.06.03 14:20:14.
