data_PCOD9440113
_publ_section_title
;
Structure prediction by ZEFSAII (Michael W. Deem and Ramdas Pophale) SiO2 
 PCOD9440113
Probable space group: P B C M
;
_chemical_formula_sum "Si O2"
_cell_formula_units_Z 48
_cell_length_a 8.925807
_cell_length_b 10.561798
_cell_length_c 24.977427
_cell_angle_alpha 90.000000
_cell_angle_beta 90.000000
_cell_angle_gamma 90.000000
_cell_volume 2354.686248
_symmetry_space_group_name_H-M "P B C M"
_symmetry_group_IT_number 57
_symmetry_cell_setting 'orthorhombic'
loop_
_space_group_symop_operation_xyz
x,y,z
-x,-y,1/2+z
x,1/2-y,-z
-x,1/2+y,1/2-z
-x,-y,-z
x,y,1/2-z
-x,1/2+y,z
x,1/2-y,1/2+z
loop_
_atom_site_type_symbol
_atom_site_label
_atom_site_fract_x
_atom_site_fract_y
_atom_site_fract_z
Si Si1 0.034509 0.088013 0.354695
Si Si2 0.105386 0.829955 0.310416
Si Si3 0.631344 0.858607 0.814671
Si Si4 0.588815 0.120174 0.519701
Si Si5 0.564220 0.124625 0.852352
Si Si6 0.074441 0.878665 0.974427
O O1 0.210438 0.117556 0.344765
O O2 0.965673 0.120064 0.412244
O O3 0.953303 0.188064 0.316320
O O4 0.020186 0.937416 0.344851
O O5 0.089197 0.874906 0.250000
O O6 0.278988 0.833950 0.326000
O O7 0.651033 0.855585 0.750000
O O8 0.557332 0.728918 0.835306
O O9 0.533377 0.982462 0.830861
O O10 0.514027 0.250000 0.500000
O O11 0.592848 0.121262 0.583944
O O12 0.750971 0.116701 0.490944
O O13 0.500000 0.000000 0.500000
O O14 0.013007 0.750000 0.000000
O O15 0.000000 0.000000 0.000000
#
# Coordination Sequence:
#
# PCOD9440113 Si02
#       6
#     8   8   8   8   8   8
#     4  11  23  40  62  91 125 163 209 261 312 373
#     4  11  22  40  61  88 123 163 205 257 314 373
#     4  11  23  42  64  94 128 165 211 264 318 381
#     4  11  24  42  62  92 127 162 207 260 312 373
#     4  11  23  41  64  91 125 165 205 257 315 373
#     4  11  23  41  63  90 124 164 208 257 310 373
#
# _framework density 20.384879999999999
#
# number of rings (size 3 to 8) (size 9 to 14) (size 15 to 20)
#    0.000    1.000    0.000   10.000    0.000    4.667 
#    0.000    3.333    0.000    0.000    0.000    0.000 
#    0.000    0.000    0.000    0.000    0.000    0.000 
#
# Total GULP energy -268186.292479 kJ/mol
# GULP energy per Si atom -5587.214427 kJ/mol
# Density = 2.033848 g / cm^3
# Si number density = 20.384880 Si / 1000 Ang^3
#
#
#
# Elastic Constant Matrix: (Units=GPa)
#
#
# Indices 1 2 3 4 5 6 
#
# 1 42.0422 34.4706 25.2519 0.0000 0.0000 0.0000
# 2 34.4706 106.8591 21.5562 0.0000 0.0000 0.0000
# 3 25.2519 21.5562 145.9892 0.0000 0.0000 0.0000
# 4 0.0000 0.0000 0.0000 39.8813 0.0000 0.0000
# 5 0.0000 0.0000 0.0000 0.0000 555.4441 0.0000
# 6 0.0000 0.0000 0.0000 0.0000 0.0000 37.5678
#
#
#
# Elastic Compliance Matrix: (Units=1/GPa)
#
#
# Indices 1 2 3 4 5 6 
#
# 1 0.035016 -0.010383 -0.004524 0.000000 0.000000 0.000000
# 2 -0.010383 0.012724 -0.000083 0.000000 0.000000 0.000000
# 3 -0.004524 -0.000083 0.007645 0.000000 0.000000 0.000000
# 4 0.000000 0.000000 0.000000 0.025074 0.000000 0.000000
# 5 0.000000 0.000000 0.000000 0.000000 0.001800 0.000000
# 6 0.000000 0.000000 0.000000 0.000000 0.000000 0.026619
#
#
# Mechanical properties :
#
#
# Convention : Reuss Voigt Hill
#
# Bulk Modulus (GPa) = 39.36131 50.82754 45.09443
# Shear Modulus (GPa) = 33.93867 140.81941 87.37904
#
# Velocity S-wave (km/s) = 4.08474 8.32047 6.55421
# Velocity P-wave (km/s) = 6.44963 10.83029 8.91327
#
# Compressibility (1/GPa) = 0.02540566
#
# Stress axis : x y z
#
# Youngs Moduli (GPa) = 28.55875 78.59097 130.81282
#
# Poissons Ratio (x) = 0.81599 0.59174
# Poissons Ratio (y) = 0.29652 0.01084
# Poissons Ratio (z) = 0.12919 0.00651
#
# Static dielectric constant tensor:
#      x y z
#    x 1.709860 0.000000 0.000000 
#    y 0.000000 1.755820 0.000000 
#    z 0.000000 0.000000 1.591440 
# 
# From -- ./inp_files/26670.got.cif
#   From: 2010.05.17/outbox.cif.g08.bks.cpg/sg57_14_cif.got.tgz:26670.got - 2010.06.03 13:58:18.
