data_PCOD9440687
_publ_section_title
;
Structure prediction by ZEFSAII (Michael W. Deem and Ramdas Pophale) SiO2 
 PCOD9440687
Probable space group: P N N M
;
_chemical_formula_sum "Si O2"
_cell_formula_units_Z 64
_cell_length_a 24.168307
_cell_length_b 19.900889
_cell_length_c 7.423189
_cell_angle_alpha 90.000000
_cell_angle_beta 90.000000
_cell_angle_gamma 90.000000
_cell_volume 3570.337114
_symmetry_space_group_name_H-M "P N N M"
_symmetry_group_IT_number 58
_symmetry_cell_setting 'orthorhombic'
loop_
_space_group_symop_operation_xyz
x,y,z
-x,-y,z
1/2+x,1/2-y,1/2-z
1/2-x,1/2+y,1/2-z
-x,-y,-z
x,y,-z
1/2-x,1/2+y,1/2+z
1/2+x,1/2-y,1/2+z
loop_
_atom_site_type_symbol
_atom_site_label
_atom_site_fract_x
_atom_site_fract_y
_atom_site_fract_z
Si Si1 0.559660 0.128945 0.288741
Si Si2 0.727292 0.637874 0.715544
Si Si3 0.662127 0.764539 0.719142
Si Si4 0.064146 0.644112 0.220058
Si Si5 0.251802 0.010145 0.714175
Si Si6 0.836334 0.715644 0.717377
Si Si7 0.226963 0.155442 0.719067
Si Si8 0.121619 0.503948 0.220266
O O1 0.551060 0.115257 0.500000
O O2 0.499082 0.146160 0.216199
O O3 0.604459 0.187925 0.272797
O O4 0.588058 0.061209 0.215087
O O5 0.728575 0.643846 0.500000
O O6 0.680897 0.690461 0.779869
O O7 0.720823 0.559854 0.756759
O O8 0.787220 0.665303 0.780072
O O9 0.660503 0.763528 0.500000
O O10 0.604605 0.796141 0.781208
O O11 0.712910 0.814115 0.767145
O O12 0.091691 0.573036 0.270581
O O13 0.064267 0.646481 0.000000
O O14 0.256820 0.018858 0.500000
O O15 0.224092 0.078767 0.782459
O O16 0.314805 0.003139 0.783006
O O17 0.835473 0.715200 0.500000
O O18 0.818388 0.790048 0.778607
O O19 0.224581 0.155697 0.500000
O O20 0.122719 0.501913 0.000000
#
# Coordination Sequence:
#
# PCOD9440687 Si02
#       8
#     8   8   8   8   8   8   8   8
#     4  10  18  26  40  64  87 108 138 173 207 237
#     4   9  17  27  41  60  83 108 136 167 204 246
#     4   8  13  24  40  59  80 106 139 172 199 232
#     4   9  15  24  40  61  84 110 142 174 199 232
#     4  10  16  25  44  65  84 107 135 169 206 242
#     4   9  17  29  42  57  81 113 142 167 197 241
#     4   8  14  25  42  61  79 105 142 172 197 238
#     4   9  15  23  36  60  89 110 132 166 200 231
#
# _framework density 17.925477999999998
#
# number of rings (size 3 to 8) (size 9 to 14) (size 15 to 20)
#    0.000    3.000    2.500    1.875    0.000    1.500 
#    0.000    0.625    0.000    3.750    0.000    0.875 
#    0.000    7.000    0.000    0.000    0.000    0.000 
#
# Total GULP energy -356833.513018 kJ/mol
# GULP energy per Si atom -5575.523641 kJ/mol
# Density = 1.788468 g / cm^3
# Si number density = 17.925478 Si / 1000 Ang^3
#
#
#
# Elastic Constant Matrix: (Units=GPa)
#
#
# Indices 1 2 3 4 5 6 
#
# 1 89.5819 64.3525 -3.4383 0.0000 0.0000 0.0000
# 2 64.3525 156.2296 -5.4902 0.0000 0.0000 0.0000
# 3 -3.4383 -5.4902 52.4738 0.0000 0.0000 0.0000
# 4 0.0000 0.0000 0.0000 10.0086 0.0000 0.0000
# 5 0.0000 0.0000 0.0000 0.0000 0.6654 0.0000
# 6 0.0000 0.0000 0.0000 0.0000 0.0000 18.3633
#
#
#
# Elastic Compliance Matrix: (Units=1/GPa)
#
#
# Indices 1 2 3 4 5 6 
#
# 1 0.015861 -0.006521 0.000357 0.000000 0.000000 0.000000
# 2 -0.006521 0.009105 0.000525 0.000000 0.000000 0.000000
# 3 0.000357 0.000525 0.019135 0.000000 0.000000 0.000000
# 4 0.000000 0.000000 0.000000 0.099914 0.000000 0.000000
# 5 0.000000 0.000000 0.000000 0.000000 1.502862 0.000000
# 6 0.000000 0.000000 0.000000 0.000000 0.000000 0.054456
#
#
# Mechanical properties :
#
#
# Convention : Reuss Voigt Hill
#
# Bulk Modulus (GPa) = 30.46452 45.45925 37.96189
# Shear Modulus (GPa) = 2.90099 21.99821 12.44960
#
# Velocity S-wave (km/s) = 1.27353 3.50695 2.63823
# Velocity P-wave (km/s) = 4.38115 6.46633 5.52304
#
# Compressibility (1/GPa) = 0.03282507
#
# Stress axis : x y z
#
# Youngs Moduli (GPa) = 63.04793 109.82666 52.25890
#
# Poissons Ratio (x) = 0.71615 -0.01866
# Poissons Ratio (y) = 0.41112 -0.02746
# Poissons Ratio (z) = -0.02251 -0.05770
#
# Static dielectric constant tensor:
#      x y z
#    x 1.592540 0.000000 0.000000 
#    y 0.000000 1.630470 0.000000 
#    z 0.000000 0.000000 1.711240 
# 
# From -- ./inp_files/8514.got.cif
#   From: 2010.05.17/outbox.cif.g08.bks.cpg/sg58_5_cif.got.tgz:8514.got - 2010.06.03 14:20:14.
