data_PCOD9440240
_publ_section_title
;
Structure prediction by ZEFSAII (Michael W. Deem and Ramdas Pophale) SiO2 
 PCOD9440240
Probable space group: P B C M
;
_chemical_formula_sum "Si O2"
_cell_formula_units_Z 32
_cell_length_a 6.597566
_cell_length_b 8.073761
_cell_length_c 26.794684
_cell_angle_alpha 90.000000
_cell_angle_beta 90.000000
_cell_angle_gamma 90.000000
_cell_volume 1427.277016
_symmetry_space_group_name_H-M "P B C M"
_symmetry_group_IT_number 57
_symmetry_cell_setting 'orthorhombic'
loop_
_space_group_symop_operation_xyz
x,y,z
-x,-y,1/2+z
x,1/2-y,-z
-x,1/2+y,1/2-z
-x,-y,-z
x,y,1/2-z
-x,1/2+y,z
x,1/2-y,1/2+z
loop_
_atom_site_type_symbol
_atom_site_label
_atom_site_fract_x
_atom_site_fract_y
_atom_site_fract_z
Si Si1 0.449708 0.757359 0.809054
Si Si2 0.764841 0.948058 0.637872
Si Si3 0.550055 0.742775 0.440969
Si Si4 0.765248 0.051933 0.112028
O O1 0.444899 0.752363 0.750000
O O2 0.317823 0.607072 0.832069
O O3 0.678814 0.793094 0.828930
O O4 0.339998 0.916091 0.834317
O O5 0.659614 0.916253 0.584175
O O6 0.999777 0.952408 0.624933
O O7 0.554632 0.750000 0.500000
O O8 0.320914 0.706954 0.421137
O O9 0.682391 0.892716 0.417873
#
# Coordination Sequence:
#
# PCOD9440240 Si02
#       4
#     8   8   8   8
#     4  11  24  43  69 101 136 177 228 283 343 413
#     4  11  24  44  68 100 139 178 227 286 344 408
#     4  11  24  43  70 102 139 181 231 286 342 409
#     4  11  24  44  69 101 140 180 227 283 342 411
#
# _framework density 22.420317000000001
#
# number of rings (size 3 to 8) (size 9 to 14) (size 15 to 20)
#    0.000    1.000    0.000    9.000    0.000    4.000 
#    0.000    3.750    0.000    4.500    0.000    0.000 
#    0.000    0.000    0.000    0.000    0.000    0.000 
#
# Total GULP energy -178241.041662 kJ/mol
# GULP energy per Si atom -5570.032552 kJ/mol
# Density = 2.236929 g / cm^3
# Si number density = 22.420317 Si / 1000 Ang^3
#
#
#
# Elastic Constant Matrix: (Units=GPa)
#
#
# Indices 1 2 3 4 5 6 
#
# 1 215.0574 69.1496 105.4752 0.0000 0.0000 0.0000
# 2 69.1496 129.5207 78.4277 0.0000 0.0000 0.0000
# 3 105.4752 78.4277 253.2618 0.0000 0.0000 0.0000
# 4 0.0000 0.0000 0.0000 30.1286 0.0000 0.0000
# 5 0.0000 0.0000 0.0000 0.0000 9.4264 0.0000
# 6 0.0000 0.0000 0.0000 0.0000 0.0000 26.3494
#
#
#
# Elastic Compliance Matrix: (Units=1/GPa)
#
#
# Indices 1 2 3 4 5 6 
#
# 1 0.006310 -0.002188 -0.001950 0.000000 0.000000 0.000000
# 2 -0.002188 0.010261 -0.002266 0.000000 0.000000 0.000000
# 3 -0.001950 -0.002266 0.005463 0.000000 0.000000 0.000000
# 4 0.000000 0.000000 0.000000 0.033191 0.000000 0.000000
# 5 0.000000 0.000000 0.000000 0.000000 0.106085 0.000000
# 6 0.000000 0.000000 0.000000 0.000000 0.000000 0.037952
#
#
# Mechanical properties :
#
#
# Convention : Reuss Voigt Hill
#
# Bulk Modulus (GPa) = 108.40710 122.66055 115.53383
# Shear Modulus (GPa) = 23.24013 36.16670 29.70342
#
# Velocity S-wave (km/s) = 3.22307 4.02073 3.64379
# Velocity P-wave (km/s) = 7.89354 8.73975 8.32740
#
# Compressibility (1/GPa) = 0.00922449
#
# Stress axis : x y z
#
# Youngs Moduli (GPa) = 158.47952 97.45450 183.06275
#
# Poissons Ratio (x) = 0.21321 0.35704
# Poissons Ratio (y) = 0.34672 0.41490
# Poissons Ratio (z) = 0.30910 0.22087
#
# Static dielectric constant tensor:
#      x y z
#    x 1.893860 0.000000 0.000000 
#    y 0.000000 2.034570 0.000000 
#    z 0.000000 0.000000 1.791180 
# 
# From -- ./inp_files/28984.got.cif
#   From: 2010.05.17/outbox.cif.g08.bks.cpg/sg57_15_cif.got.tgz:28984.got - 2010.06.03 13:58:18.
