data_PCOD9440536
_publ_section_title
;
Structure prediction by ZEFSAII (Michael W. Deem and Ramdas Pophale) SiO2 
 PCOD9440536
Probable space group: P B C M
;
_chemical_formula_sum "Si O2"
_cell_formula_units_Z 56
_cell_length_a 21.000000
_cell_length_b 15.000000
_cell_length_c 9.000000
_cell_angle_alpha 90.000000
_cell_angle_beta 90.000000
_cell_angle_gamma 90.000000
_cell_volume 2835.000000
_symmetry_space_group_name_H-M "P B C M"
_symmetry_group_IT_number 57
_symmetry_cell_setting 'orthorhombic'
loop_
_space_group_symop_operation_xyz
x,y,z
-x,-y,1/2+z
x,1/2-y,-z
-x,1/2+y,1/2-z
-x,-y,-z
x,y,1/2-z
-x,1/2+y,z
x,1/2-y,1/2+z
loop_
_atom_site_type_symbol
_atom_site_label
_atom_site_fract_x
_atom_site_fract_y
_atom_site_fract_z
Si Si1 0.485654 0.904793 0.929329
Si Si2 0.855882 0.981037 0.072231
Si Si3 0.653688 0.340372 0.926536
Si Si4 0.044586 0.345522 0.930370
Si Si5 0.094907 0.845174 0.069978
Si Si6 0.710778 0.526142 0.923924
Si Si7 0.620998 0.836831 0.925150
O O1 0.483517 0.913141 0.750000
O O2 0.417838 0.866160 0.979094
O O3 0.547357 0.847533 0.970785
O O4 0.500000 0.000000 0.000000
O O5 0.869142 0.986569 0.250000
O O6 0.783708 0.947337 0.053812
O O7 0.861546 0.077081 0.995100
O O8 0.905685 0.917892 0.988776
O O9 0.650010 0.328048 0.750000
O O10 0.700162 0.422305 0.956469
O O11 0.675271 0.250000 0.000000
O O12 0.040793 0.342692 0.750000
O O13 0.063426 0.250000 0.000000
O O14 0.975562 0.364718 0.002772
O O15 0.093263 0.842594 0.250000
O O16 0.113287 0.750000 0.000000
O O17 0.694370 0.539726 0.750000
O O18 0.661242 0.579664 0.021643
O O19 0.623121 0.828508 0.750000
O O20 0.649453 0.750000 0.000000
#
# Coordination Sequence:
#
# PCOD9440536 Si02
#       7
#     8   8   8   8   8   8   8
#     4  10  20  35  59  87 116 148 189 240 296 350
#     4  11  23  40  61  87 119 159 203 244 296 351
#     4  10  21  38  59  85 115 150 191 238 292 348
#     4  11  22  39  63  92 123 156 195 244 297 350
#     4  11  22  39  63  92 124 158 196 243 294 347
#     4  10  23  42  61  82 116 158 198 246 291 343
#     4  11  23  38  60  88 116 153 195 242 297 354
#
# _framework density 19.753086
#
# number of rings (size 3 to 8) (size 9 to 14) (size 15 to 20)
#    0.000    1.429    1.429    5.143    0.000    4.000 
#    0.000    1.429    0.000    0.000    0.000    0.000 
#    0.000    0.000    0.000    0.000    0.000    0.000 
#
# Total GULP energy -312813.037562 kJ/mol
# GULP energy per Si atom -5585.947099 kJ/mol
# Density = 1.970813 g / cm^3
# Si number density = 19.753086 Si / 1000 Ang^3
#
#
#
# Elastic Constant Matrix: (Units=GPa)
#
#
# Indices 1 2 3 4 5 6 
#
# 1 26.8252 13.0602 23.7652 0.0000 0.0000 0.0000
# 2 13.0602 59.1883 29.8544 0.0000 0.0000 0.0000
# 3 23.7652 29.8544 81.4447 0.0000 0.0000 0.0000
# 4 0.0000 0.0000 0.0000 36.8612 0.0000 0.0000
# 5 0.0000 0.0000 0.0000 0.0000 4.8567 0.0000
# 6 0.0000 0.0000 0.0000 0.0000 0.0000 -63.0431
#
#
#
# Elastic Compliance Matrix: (Units=1/GPa)
#
#
# Indices 1 2 3 4 5 6 
#
# 1 0.051286 -0.004623 -0.013270 0.000000 0.000000 0.000000
# 2 -0.004623 0.021144 -0.006402 0.000000 0.000000 0.000000
# 3 -0.013270 -0.006402 0.018497 0.000000 0.000000 0.000000
# 4 0.000000 0.000000 0.000000 0.027129 0.000000 0.000000
# 5 0.000000 0.000000 0.000000 0.000000 0.205900 0.000000
# 6 0.000000 0.000000 0.000000 0.000000 0.000000 -0.015862
#
#
# Mechanical properties :
#
#
# Convention : Reuss Voigt Hill
#
# Bulk Modulus (GPa) = 23.61993 33.42420 28.52207
# Shear Modulus (GPa) = 13.48448 2.45352 7.96900
#
# Velocity S-wave (km/s) = 2.61560 1.11570 2.01074
# Velocity P-wave (km/s) = 4.59405 4.31480 4.45661
#
# Compressibility (1/GPa) = 0.04233713
#
# Stress axis : x y z
#
# Youngs Moduli (GPa) = 19.49859 47.29403 54.06242
#
# Poissons Ratio (x) = 0.21864 0.71743
# Poissons Ratio (y) = 0.09014 0.34609
# Poissons Ratio (z) = 0.25875 0.30276
#
# Static dielectric constant tensor:
#      x y z
#    x 1.691310 0.000000 0.000000 
#    y 0.000000 1.701190 0.000000 
#    z 0.000000 0.000000 1.657190 
# 
# From -- ./inp_files/8044.got.cif
#   From: 2010.05.17/outbox.ucp.g08.bks.cvg/sg57_5_cif.got.tgz:8044.got - 2010.06.11 16:39:23.
