data_PCOD9440679
_publ_section_title
;
Structure prediction by ZEFSAII (Michael W. Deem and Ramdas Pophale) SiO2 
 PCOD9440679
Probable space group: P N N M
;
_chemical_formula_sum "Si O2"
_cell_formula_units_Z 48
_cell_length_a 7.683083
_cell_length_b 32.071929
_cell_length_c 7.876005
_cell_angle_alpha 90.000000
_cell_angle_beta 90.000000
_cell_angle_gamma 90.000000
_cell_volume 1940.736572
_symmetry_space_group_name_H-M "P N N M"
_symmetry_group_IT_number 58
_symmetry_cell_setting 'orthorhombic'
loop_
_space_group_symop_operation_xyz
x,y,z
-x,-y,z
1/2+x,1/2-y,1/2-z
1/2-x,1/2+y,1/2-z
-x,-y,-z
x,y,-z
1/2-x,1/2+y,1/2+z
1/2+x,1/2-y,1/2+z
loop_
_atom_site_type_symbol
_atom_site_label
_atom_site_fract_x
_atom_site_fract_y
_atom_site_fract_z
Si Si1 0.007788 0.641868 0.201850
Si Si2 0.264693 0.477786 0.805716
Si Si3 0.356674 0.777470 0.202370
Si Si4 0.511488 0.309390 0.195179
Si Si5 0.901850 0.442831 0.694039
Si Si6 0.375304 0.392125 0.208534
O O1 0.513856 0.855680 0.500000
O O2 0.011754 0.688903 0.270558
O O3 0.817690 0.624322 0.256822
O O4 0.135535 0.604833 0.258108
O O5 0.245726 0.522490 0.719513
O O6 0.382025 0.440066 0.734619
O O7 0.068777 0.458313 0.801257
O O8 0.312624 0.485053 0.000000
O O9 0.395903 0.731186 0.268611
O O10 0.190217 0.795132 0.299805
O O11 0.321535 0.775913 0.000000
O O12 0.505061 0.355901 0.270080
O O13 0.571148 0.313370 0.000000
O O14 0.958651 0.444530 0.500000
O O15 0.382273 0.392586 0.000000
#
# Coordination Sequence:
#
# PCOD9440679 Si02
#       6
#     8   8   8   8   8   8
#     4   9  16  27  40  54  78 111 143 177 220 266
#     4   9  14  21  33  49  72 106 142 170 209 262
#     4  10  19  30  47  69  90 117 154 190 225 267
#     4   9  18  32  47  65  92 122 151 186 227 268
#     4  10  16  21  31  50  76 104 137 176 214 255
#     4   7  12  23  38  53  73 106 141 171 208 256
#
# _framework density 24.732877999999999
#
# number of rings (size 3 to 8) (size 9 to 14) (size 15 to 20)
#    0.000    3.000    0.000    6.000    0.000    1.333 
#    0.000    0.833    0.000    0.000    0.000    0.000 
#    0.000    1.333    0.000   15.333    0.000   12.167 
#
# Total GULP energy -267723.641053 kJ/mol
# GULP energy per Si atom -5577.575855 kJ/mol
# Density = 2.467658 g / cm^3
# Si number density = 24.732878 Si / 1000 Ang^3
#
#
#
# Elastic Constant Matrix: (Units=GPa)
#
#
# Indices 1 2 3 4 5 6 
#
# 1 33.1950 150.8907 2.2299 0.0000 0.0000 0.0000
# 2 150.8907 -50.0580 -1.9776 0.0000 0.0000 0.0000
# 3 2.2299 -1.9776 68.6551 0.0000 0.0000 0.0000
# 4 0.0000 0.0000 0.0000 26.8195 0.0000 0.0000
# 5 0.0000 0.0000 0.0000 0.0000 -6.6063 0.0000
# 6 0.0000 0.0000 0.0000 0.0000 0.0000 22.6862
#
#
#
# Elastic Compliance Matrix: (Units=1/GPa)
#
#
# Indices 1 2 3 4 5 6 
#
# 1 0.002050 0.006175 0.000111 0.000000 0.000000 0.000000
# 2 0.006175 -0.001355 -0.000240 0.000000 0.000000 0.000000
# 3 0.000111 -0.000240 0.014555 0.000000 0.000000 0.000000
# 4 0.000000 0.000000 0.000000 0.037286 0.000000 0.000000
# 5 0.000000 0.000000 0.000000 0.000000 -0.151370 0.000000
# 6 0.000000 0.000000 0.000000 0.000000 0.000000 0.044080
#
#
# Mechanical properties :
#
#
# Convention : Reuss Voigt Hill
#
# Bulk Modulus (GPa) = 36.57252 39.34199 37.95725
# Shear Modulus (GPa) = -86.60680 1.95647 -42.32516
#
# Velocity S-wave (km/s) = -5.92393 0.89037 -4.14126
# Velocity P-wave (km/s) = 5.65433 4.12290 2.73616
#
# Compressibility (1/GPa) = 0.02734293
#
# Stress axis : x y z
#
# Youngs Moduli (GPa) = 487.82458 -738.08754 68.70467
#
# Poissons Ratio (x) = 4.55747 -0.00765
# Poissons Ratio (y) = -3.01217 0.01646
# Poissons Ratio (z) = -0.05429 -0.17683
#
# Static dielectric constant tensor:
#      x y z
#    x 2.023590 0.000000 0.000000 
#    y 0.000000 2.054100 0.000000 
#    z 0.000000 0.000000 1.864820 
# 
# From -- ./inp_files/4496.got.cif
#   From: 2010.05.17/outbox.cif.g08.bks.cpg/sg58_3_cif.got.tgz:4496.got - 2010.06.03 14:20:14.
