data_PCOD9440964
_publ_section_title
;
Structure prediction by ZEFSAII (Michael W. Deem and Ramdas Pophale) SiO2 
 PCOD9440964
Probable space group: P N N M
;
_chemical_formula_sum "Si O2"
_cell_formula_units_Z 64
_cell_length_a 12.443926
_cell_length_b 12.269729
_cell_length_c 18.999031
_cell_angle_alpha 90.000000
_cell_angle_beta 90.000000
_cell_angle_gamma 90.000000
_cell_volume 2900.840444
_symmetry_space_group_name_H-M "P N N M"
_symmetry_group_IT_number 58
_symmetry_cell_setting 'orthorhombic'
loop_
_space_group_symop_operation_xyz
x,y,z
-x,-y,z
1/2+x,1/2-y,1/2-z
1/2-x,1/2+y,1/2-z
-x,-y,-z
x,y,-z
1/2-x,1/2+y,1/2+z
1/2+x,1/2-y,1/2+z
loop_
_atom_site_type_symbol
_atom_site_label
_atom_site_fract_x
_atom_site_fract_y
_atom_site_fract_z
Si Si1 0.291901 0.051016 0.416357
Si Si2 0.432886 0.598028 0.713032
Si Si3 0.915655 0.095770 0.576333
Si Si4 0.725801 0.804268 0.192971
Si Si5 0.952692 0.159349 0.080895
Si Si6 0.123796 0.332948 0.083408
Si Si7 0.494743 0.776694 0.820075
Si Si8 0.752467 0.717727 0.342216
O O1 0.300638 0.079202 0.500000
O O2 0.266075 0.159982 0.373468
O O3 0.191129 0.969521 0.406561
O O4 0.380610 0.960566 0.396426
O O5 0.500000 0.500000 0.746862
O O6 0.305057 0.598179 0.716731
O O7 0.464194 0.599987 0.631600
O O8 0.468069 0.712898 0.747562
O O9 0.903967 0.149751 0.500000
O O10 0.960862 0.182010 0.629743
O O11 0.000000 0.000000 0.571166
O O12 0.790288 0.739007 0.130304
O O13 0.603936 0.846668 0.183328
O O14 0.722231 0.722845 0.259898
O O15 0.835355 0.149796 0.114890
O O16 0.004233 0.281052 0.086053
O O17 0.953012 0.127003 0.000000
O O18 0.154042 0.326479 0.000000
O O19 0.378032 0.815188 0.847154
#
# Coordination Sequence:
#
# PCOD9440964 Si02
#       8
#     8   8   8   8   8   8   8   8
#     4  10  19  31  52  84 119 153 187 228 284 350
#     4  10  22  38  60  84 108 151 201 246 292 335
#     4  10  18  28  47  82 118 148 182 221 270 338
#     4  10  21  35  55  83 115 148 193 238 289 342
#     4  10  21  39  58  81 114 152 197 243 291 345
#     4   9  19  36  58  82 114 155 195 240 287 340
#     4  11  20  34  56  80 117 150 184 232 291 351
#     4  11  22  34  52  82 117 153 190 227 291 361
#
# _framework density 22.062573
#
# number of rings (size 3 to 8) (size 9 to 14) (size 15 to 20)
#    0.000    1.875    3.750    0.750    1.750    1.250 
#    0.000    1.875    0.000    0.750    0.000    0.875 
#    0.000    0.000    0.000    0.000    0.000    0.000 
#
# Total GULP energy -356526.218941 kJ/mol
# GULP energy per Si atom -5570.722171 kJ/mol
# Density = 2.201236 g / cm^3
# Si number density = 22.062573 Si / 1000 Ang^3
#
#
#
# Elastic Constant Matrix: (Units=GPa)
#
#
# Indices 1 2 3 4 5 6 
#
# 1 172.1577 9.9906 13.8186 0.0000 0.0000 0.0000
# 2 9.9906 19.3644 -14.9153 0.0000 0.0000 0.0000
# 3 13.8186 -14.9153 81.0352 0.0000 0.0000 0.0000
# 4 0.0000 0.0000 0.0000 15.2733 0.0000 0.0000
# 5 0.0000 0.0000 0.0000 0.0000 26.5886 0.0000
# 6 0.0000 0.0000 0.0000 0.0000 0.0000 23.7132
#
#
#
# Elastic Compliance Matrix: (Units=1/GPa)
#
#
# Indices 1 2 3 4 5 6 
#
# 1 0.006236 -0.004703 -0.001929 0.000000 0.000000 0.000000
# 2 -0.004703 0.063719 0.012530 0.000000 0.000000 0.000000
# 3 -0.001929 0.012530 0.014976 0.000000 0.000000 0.000000
# 4 0.000000 0.000000 0.000000 0.065474 0.000000 0.000000
# 5 0.000000 0.000000 0.000000 0.000000 0.037610 0.000000
# 6 0.000000 0.000000 0.000000 0.000000 0.000000 0.042171
#
#
# Mechanical properties :
#
#
# Convention : Reuss Voigt Hill
#
# Bulk Modulus (GPa) = 10.33847 32.26056 21.29952
# Shear Modulus (GPa) = 19.94952 30.69259 25.32105
#
# Velocity S-wave (km/s) = 3.01029 3.73387 3.39144
# Velocity P-wave (km/s) = 4.09618 5.76569 5.00109
#
# Compressibility (1/GPa) = 0.09672610
#
# Stress axis : x y z
#
# Youngs Moduli (GPa) = 160.34812 15.69387 66.77540
#
# Poissons Ratio (x) = 0.07382 0.12882
# Poissons Ratio (y) = 0.75420 -0.83671
# Poissons Ratio (z) = 0.30934 -0.19665
#
# Static dielectric constant tensor:
#      x y z
#    x 1.877970 0.000000 0.000000 
#    y 0.000000 1.915790 0.000000 
#    z 0.000000 0.000000 1.852750 
# 
# From -- ./inp_files/26407.got.cif
#   From: 2010.05.17/outbox.cif.g08.bks.cpg/sg58_14_cif.got.tgz:26407.got - 2010.06.03 14:20:14.
