data_PCOD9440398
_publ_section_title
;
Structure prediction by ZEFSAII (Michael W. Deem and Ramdas Pophale) SiO2 
 PCOD9440398
Probable space group: P B C M
;
_chemical_formula_sum "Si O2"
_cell_formula_units_Z 64
_cell_length_a 15.000000
_cell_length_b 24.000000
_cell_length_c 9.000000
_cell_angle_alpha 90.000000
_cell_angle_beta 90.000000
_cell_angle_gamma 90.000000
_cell_volume 3240.000000
_symmetry_space_group_name_H-M "P B C M"
_symmetry_group_IT_number 57
_symmetry_cell_setting 'orthorhombic'
loop_
_space_group_symop_operation_xyz
x,y,z
-x,-y,1/2+z
x,1/2-y,-z
-x,1/2+y,1/2-z
-x,-y,-z
x,y,1/2-z
-x,1/2+y,z
x,1/2-y,1/2+z
loop_
_atom_site_type_symbol
_atom_site_label
_atom_site_fract_x
_atom_site_fract_y
_atom_site_fract_z
Si Si1 0.037464 0.696144 0.922140
Si Si2 0.426251 0.375065 0.927505
Si Si3 0.113419 0.394782 0.077065
Si Si4 0.346851 0.483208 0.074384
Si Si5 0.843244 0.497912 0.072841
Si Si6 0.806716 0.126122 0.929255
Si Si7 0.380395 0.610198 0.075251
Si Si8 0.750065 0.690263 0.073205
O O1 0.047865 0.710150 0.750000
O O2 0.132321 0.676452 0.984932
O O3 0.973268 0.643500 0.932774
O O4 0.999047 0.750000 0.000000
O O5 0.423890 0.387629 0.750000
O O6 0.527675 0.359984 0.965466
O O7 0.351938 0.328444 0.955627
O O8 0.400751 0.430447 0.017100
O O9 0.137639 0.401184 0.250000
O O10 0.098239 0.455220 0.006189
O O11 0.189263 0.359038 0.993754
O O12 0.327121 0.477887 0.250000
O O13 0.392698 0.543420 0.053181
O O14 0.256547 0.485669 0.978811
O O15 0.852762 0.501589 0.250000
O O16 0.850085 0.433429 0.026344
O O17 0.807518 0.126735 0.750000
O O18 0.706444 0.127770 0.985967
O O19 0.362697 0.618461 0.250000
O O20 0.764531 0.693514 0.250000
O O21 0.769011 0.750000 0.000000
#
# Coordination Sequence:
#
# PCOD9440398 Si02
#       8
#     8   8   8   8   8   8   8   8
#     4  10  23  42  62  85 111 144 188 237 286 335
#     4  10  20  34  52  76 110 148 186 229 278 330
#     4  11  22  37  59  86 116 145 183 233 282 342
#     4  10  18  29  50  80 113 147 186 227 270 326
#     4  10  19  33  55  83 117 153 185 222 280 343
#     4   9  20  39  59  82 115 150 187 233 284 338
#     4   9  19  34  53  81 113 146 186 230 277 327
#     4  11  23  38  56  78 110 151 191 233 283 338
#
# _framework density 19.753086
#
# number of rings (size 3 to 8) (size 9 to 14) (size 15 to 20)
#    0.000    2.000    1.250    2.250    0.000    5.000 
#    0.000    0.625    0.000    3.000    0.000    0.000 
#    0.000    0.000    0.000    0.000    0.000    0.000 
#
# Total GULP energy -357199.304439 kJ/mol
# GULP energy per Si atom -5581.239132 kJ/mol
# Density = 1.970813 g / cm^3
# Si number density = 19.753086 Si / 1000 Ang^3
#
#
#
# Elastic Constant Matrix: (Units=GPa)
#
#
# Indices 1 2 3 4 5 6 
#
# 1 39.6657 21.8329 20.3389 0.0000 0.0000 0.0000
# 2 21.8329 23.3954 18.3425 0.0000 0.0000 0.0000
# 3 20.3389 18.3425 41.4443 0.0000 0.0000 0.0000
# 4 0.0000 0.0000 0.0000 11.8306 0.0000 0.0000
# 5 0.0000 0.0000 0.0000 0.0000 19.5510 0.0000
# 6 0.0000 0.0000 0.0000 0.0000 0.0000 2.7552
#
#
#
# Elastic Compliance Matrix: (Units=1/GPa)
#
#
# Indices 1 2 3 4 5 6 
#
# 1 0.052889 -0.044421 -0.006295 0.000000 0.000000 0.000000
# 2 -0.044421 0.102766 -0.023682 0.000000 0.000000 0.000000
# 3 -0.006295 -0.023682 0.037700 0.000000 0.000000 0.000000
# 4 0.000000 0.000000 0.000000 0.084527 0.000000 0.000000
# 5 0.000000 0.000000 0.000000 0.000000 0.051148 0.000000
# 6 0.000000 0.000000 0.000000 0.000000 0.000000 0.362951
#
#
# Mechanical properties :
#
#
# Convention : Reuss Voigt Hill
#
# Bulk Modulus (GPa) = 22.44351 25.05933 23.75142
# Shear Modulus (GPa) = 5.84364 9.76009 7.80186
#
# Velocity S-wave (km/s) = 1.72185 2.22526 1.98954
# Velocity P-wave (km/s) = 3.91659 4.39502 4.16269
#
# Compressibility (1/GPa) = 0.04455631
#
# Stress axis : x y z
#
# Youngs Moduli (GPa) = 18.90739 9.73088 26.52546
#
# Poissons Ratio (x) = 0.43226 0.16699
# Poissons Ratio (y) = 0.83989 0.62818
# Poissons Ratio (z) = 0.11903 0.23045
#
# Static dielectric constant tensor:
#      x y z
#    x 1.726500 0.000000 0.000000 
#    y 0.000000 1.678310 0.000000 
#    z 0.000000 0.000000 1.677380 
# 
# From -- ./inp_files/5763.got.cif
#   From: 2010.05.17/outbox.ucp.g08.bks.cvg/sg57_3_cif.got.tgz:5763.got - 2010.06.11 16:39:23.
