data_PCOD9440706
_publ_section_title
;
Structure prediction by ZEFSAII (Michael W. Deem and Ramdas Pophale) SiO2 
 PCOD9440706
Probable space group: P N N M
;
_chemical_formula_sum "Si O2"
_cell_formula_units_Z 44
_cell_length_a 13.588697
_cell_length_b 20.037976
_cell_length_c 7.479350
_cell_angle_alpha 90.000000
_cell_angle_beta 90.000000
_cell_angle_gamma 90.000000
_cell_volume 2036.552095
_symmetry_space_group_name_H-M "P N N M"
_symmetry_group_IT_number 58
_symmetry_cell_setting 'orthorhombic'
loop_
_space_group_symop_operation_xyz
x,y,z
-x,-y,z
1/2+x,1/2-y,1/2-z
1/2-x,1/2+y,1/2-z
-x,-y,-z
x,y,-z
1/2-x,1/2+y,1/2+z
1/2+x,1/2-y,1/2+z
loop_
_atom_site_type_symbol
_atom_site_label
_atom_site_fract_x
_atom_site_fract_y
_atom_site_fract_z
Si Si1 0.419902 0.865139 0.289955
Si Si2 0.805178 0.149248 0.283663
Si Si3 0.000000 0.500000 0.253096
Si Si4 0.390401 0.495125 0.707835
Si Si5 0.892031 0.288489 0.714802
Si Si6 0.696286 0.929455 0.220025
O O1 0.420879 0.885520 0.500000
O O2 0.309774 0.849321 0.235310
O O3 0.496949 0.805567 0.270244
O O4 0.462464 0.927857 0.182661
O O5 0.810193 0.147949 0.500000
O O6 0.853921 0.081046 0.218746
O O7 0.855882 0.217067 0.219127
O O8 0.891846 0.472761 0.194145
O O9 0.500000 0.500000 0.787510
O O10 0.399380 0.514995 0.500000
O O11 0.301728 0.541673 0.777813
O O12 0.889026 0.286551 0.500000
O O13 0.824817 0.352284 0.766399
O O14 0.687759 0.937029 0.000000
#
# Coordination Sequence:
#
# PCOD9440706 Si02
#       6
#     8   8   4   8   8   8
#     4  10  20  33  54  82 110 139 177 229 283 325
#     4  10  21  38  56  79 112 150 183 224 280 335
#     4  10  16  30  54  80 107 138 171 230 279 330
#     4  10  21  36  56  82 110 145 189 233 272 321
#     4   9  20  36  54  76 108 145 184 222 271 333
#     4   9  17  31  52  80 106 139 182 228 274 324
#
# _framework density 21.605143000000002
#
# number of rings (size 3 to 8) (size 9 to 14) (size 15 to 20)
#    0.000    2.364    1.818    0.545    0.000    4.000 
#    0.000    3.636    0.000    2.182    0.000    0.000 
#    0.000    0.000    0.000    0.000    0.000    0.000 
#
# Total GULP energy -245116.079980 kJ/mol
# GULP energy per Si atom -5570.820000 kJ/mol
# Density = 2.155597 g / cm^3
# Si number density = 21.605143 Si / 1000 Ang^3
#
#
#
# Elastic Constant Matrix: (Units=GPa)
#
#
# Indices 1 2 3 4 5 6 
#
# 1 192.3702 64.4504 3.4187 0.0000 0.0000 0.0000
# 2 64.4504 84.7473 -6.4154 0.0000 0.0000 0.0000
# 3 3.4187 -6.4154 73.3634 0.0000 0.0000 0.0000
# 4 0.0000 0.0000 0.0000 8.1927 0.0000 0.0000
# 5 0.0000 0.0000 0.0000 0.0000 11.3397 0.0000
# 6 0.0000 0.0000 0.0000 0.0000 0.0000 30.1747
#
#
#
# Elastic Compliance Matrix: (Units=1/GPa)
#
#
# Indices 1 2 3 4 5 6 
#
# 1 0.007022 -0.005401 -0.000799 0.000000 0.000000 0.000000
# 2 -0.005401 0.016032 0.001654 0.000000 0.000000 0.000000
# 3 -0.000799 0.001654 0.013813 0.000000 0.000000 0.000000
# 4 0.000000 0.000000 0.000000 0.122060 0.000000 0.000000
# 5 0.000000 0.000000 0.000000 0.000000 0.088186 0.000000
# 6 0.000000 0.000000 0.000000 0.000000 0.000000 0.033140
#
#
# Mechanical properties :
#
#
# Convention : Reuss Voigt Hill
#
# Bulk Modulus (GPa) = 36.00537 52.59870 44.30204
# Shear Modulus (GPa) = 16.74458 29.20990 22.97724
#
# Velocity S-wave (km/s) = 2.78695 3.68093 3.26468
# Velocity P-wave (km/s) = 5.20168 6.51644 5.89582
#
# Compressibility (1/GPa) = 0.02777363
#
# Stress axis : x y z
#
# Youngs Moduli (GPa) = 142.41091 62.37444 72.39751
#
# Poissons Ratio (x) = 0.33687 0.05788
# Poissons Ratio (y) = 0.76912 -0.11972
# Poissons Ratio (z) = 0.11386 -0.10314
#
# Static dielectric constant tensor:
#      x y z
#    x 1.769550 0.000000 0.000000 
#    y 0.000000 1.736610 0.000000 
#    z 0.000000 0.000000 1.992570 
# 
# From -- ./inp_files/5680.got.cif
#   From: 2010.05.17/outbox.cif.g08.bks.cpg/sg58_3_cif.got.tgz:5680.got - 2010.06.03 14:20:14.
