data_PCOD9440978
_publ_section_title
;
Structure prediction by ZEFSAII (Michael W. Deem and Ramdas Pophale) SiO2 
 PCOD9440978
Probable space group: P N N M
;
_chemical_formula_sum "Si O2"
_cell_formula_units_Z 48
_cell_length_a 24.341599
_cell_length_b 14.344881
_cell_length_c 7.741629
_cell_angle_alpha 90.000000
_cell_angle_beta 90.000000
_cell_angle_gamma 90.000000
_cell_volume 2703.201429
_symmetry_space_group_name_H-M "P N N M"
_symmetry_group_IT_number 58
_symmetry_cell_setting 'orthorhombic'
loop_
_space_group_symop_operation_xyz
x,y,z
-x,-y,z
1/2+x,1/2-y,1/2-z
1/2-x,1/2+y,1/2-z
-x,-y,-z
x,y,-z
1/2-x,1/2+y,1/2+z
1/2+x,1/2-y,1/2+z
loop_
_atom_site_type_symbol
_atom_site_label
_atom_site_fract_x
_atom_site_fract_y
_atom_site_fract_z
Si Si1 0.339782 0.766276 0.299239
Si Si2 0.236271 0.886634 0.201077
Si Si3 0.436608 0.894194 0.711735
Si Si4 0.438102 0.105886 0.707970
Si Si5 0.332505 0.218903 0.203728
Si Si6 0.729272 0.403072 0.711571
O O1 0.352714 0.748864 0.500000
O O2 0.287471 0.835442 0.290398
O O3 0.392061 0.820123 0.223964
O O4 0.317824 0.668271 0.225969
O O5 0.184532 0.817516 0.216132
O O6 0.225236 0.990335 0.268448
O O7 0.251488 0.894565 0.000000
O O8 0.435094 0.894074 0.500000
O O9 0.499386 0.874140 0.764002
O O10 0.423369 0.000500 0.765896
O O11 0.438661 0.104298 0.500000
O O12 0.392714 0.179596 0.763244
O O13 0.287384 0.142763 0.264305
O O14 0.324548 0.229756 0.000000
O O15 0.727493 0.402504 0.500000
#
# Coordination Sequence:
#
# PCOD9440978 Si02
#       6
#     8   8   8   8   8   8
#     4   9  16  29  46  65  88 116 143 174 215 260
#     4  10  18  29  44  64  87 113 142 178 216 256
#     4   8  15  27  46  68  92 118 146 178 217 261
#     4   9  16  28  45  68  92 117 147 180 215 259
#     4  10  19  31  45  65  90 117 145 179 219 261
#     4   8  16  28  43  62  86 111 141 177 214 253
#
# _framework density 17.756723000000001
#
# number of rings (size 3 to 8) (size 9 to 14) (size 15 to 20)
#    0.000    3.000    0.000    4.000    0.000    0.000 
#    0.000   10.000    0.000    1.000    0.000    7.000 
#    0.000    0.000    0.000    0.000    0.000    0.000 
#
# Total GULP energy -267500.703407 kJ/mol
# GULP energy per Si atom -5572.931321 kJ/mol
# Density = 1.771631 g / cm^3
# Si number density = 17.756723 Si / 1000 Ang^3
#
#
#
# Elastic Constant Matrix: (Units=GPa)
#
#
# Indices 1 2 3 4 5 6 
#
# 1 82.5436 59.5539 -6.9395 0.0000 0.0000 0.0000
# 2 59.5539 147.9001 -2.5304 0.0000 0.0000 0.0000
# 3 -6.9395 -2.5304 25.8333 0.0000 0.0000 0.0000
# 4 0.0000 0.0000 0.0000 7.0760 0.0000 0.0000
# 5 0.0000 0.0000 0.0000 0.0000 14.1132 0.0000
# 6 0.0000 0.0000 0.0000 0.0000 0.0000 27.2218
#
#
#
# Elastic Compliance Matrix: (Units=1/GPa)
#
#
# Indices 1 2 3 4 5 6 
#
# 1 0.017481 -0.006970 0.004013 0.000000 0.000000 0.000000
# 2 -0.006970 0.009552 -0.000937 0.000000 0.000000 0.000000
# 3 0.004013 -0.000937 0.039696 0.000000 0.000000 0.000000
# 4 0.000000 0.000000 0.000000 0.141322 0.000000 0.000000
# 5 0.000000 0.000000 0.000000 0.000000 0.070856 0.000000
# 6 0.000000 0.000000 0.000000 0.000000 0.000000 0.036735
#
#
# Mechanical properties :
#
#
# Convention : Reuss Voigt Hill
#
# Bulk Modulus (GPa) = 16.96605 39.60500 28.28553
# Shear Modulus (GPa) = 14.57397 23.42840 19.00118
#
# Velocity S-wave (km/s) = 2.86800 3.63631 3.27476
# Velocity P-wave (km/s) = 4.53240 6.32321 5.50116
#
# Compressibility (1/GPa) = 0.05894123
#
# Stress axis : x y z
#
# Youngs Moduli (GPa) = 57.20419 104.68997 25.19143
#
# Poissons Ratio (x) = 0.72973 -0.10110
# Poissons Ratio (y) = 0.39874 0.02360
# Poissons Ratio (z) = -0.22957 0.09807
#
# Static dielectric constant tensor:
#      x y z
#    x 1.597650 0.000000 0.000000 
#    y 0.000000 1.611170 0.000000 
#    z 0.000000 0.000000 1.654230 
# 
# From -- ./inp_files/4215.got.cif
#   From: 2010.05.17/outbox.cif.g08.bks.cpg/sg58_3_cif.got.tgz:4215.got - 2010.06.03 14:20:14.
