data_PCOD9440954
_publ_section_title
;
Structure prediction by ZEFSAII (Michael W. Deem and Ramdas Pophale) SiO2 
 PCOD9440954
Probable space group: P N N M
;
_chemical_formula_sum "Si O2"
_cell_formula_units_Z 64
_cell_length_a 15.883876
_cell_length_b 5.453424
_cell_length_c 32.006170
_cell_angle_alpha 90.000000
_cell_angle_beta 90.000000
_cell_angle_gamma 90.000000
_cell_volume 2772.422794
_symmetry_space_group_name_H-M "P N N M"
_symmetry_group_IT_number 58
_symmetry_cell_setting 'orthorhombic'
loop_
_space_group_symop_operation_xyz
x,y,z
-x,-y,z
1/2+x,1/2-y,1/2-z
1/2-x,1/2+y,1/2-z
-x,-y,-z
x,y,-z
1/2-x,1/2+y,1/2+z
1/2+x,1/2-y,1/2+z
loop_
_atom_site_type_symbol
_atom_site_label
_atom_site_fract_x
_atom_site_fract_y
_atom_site_fract_z
Si Si1 0.826708 0.259443 0.134494
Si Si2 0.506645 0.250294 0.398493
Si Si3 0.407927 0.440891 0.133162
Si Si4 0.662345 0.263535 0.335177
Si Si5 0.099742 0.438658 0.663522
Si Si6 0.054682 0.252826 0.247821
Si Si7 0.635948 0.722629 0.954303
Si Si8 0.245282 0.277639 0.453837
O O1 0.794609 0.504971 0.156197
O O2 0.805756 0.239473 0.085716
O O3 0.929703 0.257667 0.135210
O O4 0.792967 0.021283 0.157804
O O5 0.500000 0.500000 0.423340
O O6 0.592630 0.260072 0.372631
O O7 0.500000 0.000000 0.423203
O O8 0.500000 0.500000 0.151107
O O9 0.370235 0.717413 0.133136
O O10 0.418158 0.327931 0.086789
O O11 0.366379 0.216363 0.158366
O O12 0.617191 0.271364 0.290920
O O13 0.103225 0.319075 0.709376
O O14 0.000000 0.500000 0.655623
O O15 0.000000 0.500000 0.240172
O O16 0.000000 0.000000 0.250936
O O17 0.695628 0.481744 0.954423
O O18 0.687034 0.977926 0.949404
O O19 0.593199 0.732442 0.000000
O O20 0.285298 0.301781 0.500000
#
# Coordination Sequence:
#
# PCOD9440954 Si02
#       8
#     8   8   8   8   8   8   8   8
#     4  10  18  30  48  70  98 133 171 214 262 303
#     4   8  14  24  39  62  92 122 153 195 248 292
#     4  10  19  34  54  79 109 136 162 197 250 315
#     4  10  18  28  46  74 104 134 169 216 262 299
#     4   9  18  30  47  75 109 142 169 195 238 308
#     4  11  18  28  46  74 111 144 173 208 254 297
#     4  10  21  37  57  80 102 127 167 215 259 306
#     4  10  21  37  55  76 100 129 172 222 261 303
#
# _framework density 23.084500999999999
#
# number of rings (size 3 to 8) (size 9 to 14) (size 15 to 20)
#    0.000    2.250    0.000    6.375    0.000    0.250 
#    0.000    0.000    0.000   11.250    0.000   17.500 
#    0.000    0.000    0.000    0.000    0.000    0.000 
#
# Total GULP energy -356797.695936 kJ/mol
# GULP energy per Si atom -5574.963999 kJ/mol
# Density = 2.303196 g / cm^3
# Si number density = 23.084501 Si / 1000 Ang^3
#
#
#
# Elastic Constant Matrix: (Units=GPa)
#
#
# Indices 1 2 3 4 5 6 
#
# 1 37.9833 23.7940 0.8344 0.0000 0.0000 0.0000
# 2 23.7940 264.8093 46.8493 0.0000 0.0000 0.0000
# 3 0.8344 46.8493 135.0863 0.0000 0.0000 0.0000
# 4 0.0000 0.0000 0.0000 28.7173 0.0000 0.0000
# 5 0.0000 0.0000 0.0000 0.0000 17.0173 0.0000
# 6 0.0000 0.0000 0.0000 0.0000 0.0000 34.9377
#
#
#
# Elastic Compliance Matrix: (Units=1/GPa)
#
#
# Indices 1 2 3 4 5 6 
#
# 1 0.027968 -0.002645 0.000744 0.000000 0.000000 0.000000
# 2 -0.002645 0.004273 -0.001466 0.000000 0.000000 0.000000
# 3 0.000744 -0.001466 0.007906 0.000000 0.000000 0.000000
# 4 0.000000 0.000000 0.000000 0.034822 0.000000 0.000000
# 5 0.000000 0.000000 0.000000 0.000000 0.058764 0.000000
# 6 0.000000 0.000000 0.000000 0.000000 0.000000 0.028622
#
#
# Mechanical properties :
#
#
# Convention : Reuss Voigt Hill
#
# Bulk Modulus (GPa) = 29.92619 64.53716 47.23167
# Shear Modulus (GPa) = 27.74295 40.56120 34.15208
#
# Velocity S-wave (km/s) = 3.47046 4.19630 3.85052
# Velocity P-wave (km/s) = 5.38987 7.17608 6.34613
#
# Compressibility (1/GPa) = 0.03341555
#
# Stress axis : x y z
#
# Youngs Moduli (GPa) = 35.75546 234.01449 126.48006
#
# Poissons Ratio (x) = 0.61890 -0.09416
# Poissons Ratio (y) = 0.09456 0.18538
# Poissons Ratio (z) = -0.02662 0.34299
#
# Static dielectric constant tensor:
#      x y z
#    x 1.915790 0.000000 0.000000 
#    y 0.000000 2.041790 0.000000 
#    z 0.000000 0.000000 1.825860 
# 
# From -- ./inp_files/35142.got.cif
#   From: 2010.05.17/outbox.cif.g08.bks.cpg/sg58_18_cif.got.tgz:35142.got - 2010.06.03 14:20:14.
