data_PCOD9440191
_publ_section_title
;
Structure prediction by ZEFSAII (Michael W. Deem and Ramdas Pophale) SiO2 
 PCOD9440191
Probable space group: P B C M
;
_chemical_formula_sum "Si O2"
_cell_formula_units_Z 40
_cell_length_a 5.783447
_cell_length_b 13.399460
_cell_length_c 23.265802
_cell_angle_alpha 90.000000
_cell_angle_beta 90.000000
_cell_angle_gamma 90.000000
_cell_volume 1802.984879
_symmetry_space_group_name_H-M "P B C M"
_symmetry_group_IT_number 57
_symmetry_cell_setting 'orthorhombic'
loop_
_space_group_symop_operation_xyz
x,y,z
-x,-y,1/2+z
x,1/2-y,-z
-x,1/2+y,1/2-z
-x,-y,-z
x,y,1/2-z
-x,1/2+y,z
x,1/2-y,1/2+z
loop_
_atom_site_type_symbol
_atom_site_label
_atom_site_fract_x
_atom_site_fract_y
_atom_site_fract_z
Si Si1 0.512312 0.074572 0.250000
Si Si2 0.669473 0.287053 0.936194
Si Si3 0.046216 0.989706 0.567978
Si Si4 0.701536 0.859590 0.635490
Si Si5 0.987179 0.037762 0.750000
Si Si6 0.007576 0.329111 0.361506
O O1 0.483419 0.125732 0.186920
O O2 0.765999 0.022068 0.250000
O O3 0.257695 0.020383 0.250000
O O4 0.407516 0.306427 0.920092
O O5 0.785993 0.395035 0.926799
O O6 0.776884 0.205325 0.893920
O O7 0.708765 0.250000 0.000000
O O8 0.829250 0.956061 0.608735
O O9 0.000000 0.000000 0.500000
O O10 0.133192 0.094579 0.593938
O O11 0.877108 0.775246 0.656579
O O12 0.981608 0.107195 0.694939
#
# Coordination Sequence:
#
# PCOD9440191 Si02
#       6
#     4   8   8   8   4   8
#     4  12  27  51  76 113 146 198 250 318 367 454
#     4  11  25  42  69 107 146 189 249 311 380 451
#     4  11  23  44  67 101 146 189 246 306 370 455
#     4  11  27  43  72 105 148 194 250 318 378 445
#     4  12  27  49  82 105 152 192 258 298 387 444
#     4  11  25  46  72 104 143 198 243 313 373 456
#
# _framework density 22.185431999999999
#
# number of rings (size 3 to 8) (size 9 to 14) (size 15 to 20)
#    0.000    0.800    4.000    1.800    8.400    3.200 
#    0.000    0.000    0.000    0.000    0.000    0.000 
#    0.000    0.000    0.000    0.000    0.000    0.000 
#
# Total GULP energy -223036.556855 kJ/mol
# GULP energy per Si atom -5575.913921 kJ/mol
# Density = 2.213494 g / cm^3
# Si number density = 22.185432 Si / 1000 Ang^3
#
#
#
# Elastic Constant Matrix: (Units=GPa)
#
#
# Indices 1 2 3 4 5 6 
#
# 1 60.8031 25.5483 12.8998 0.0000 0.0000 0.0000
# 2 25.5483 100.3488 40.2501 0.0000 0.0000 0.0000
# 3 12.8998 40.2501 137.8915 0.0000 0.0000 0.0000
# 4 0.0000 0.0000 0.0000 41.3767 0.0000 0.0000
# 5 0.0000 0.0000 0.0000 0.0000 11.5645 0.0000
# 6 0.0000 0.0000 0.0000 0.0000 0.0000 -30.5074
#
#
#
# Elastic Compliance Matrix: (Units=1/GPa)
#
#
# Indices 1 2 3 4 5 6 
#
# 1 0.018436 -0.004533 -0.000402 0.000000 0.000000 0.000000
# 2 -0.004533 0.012401 -0.003196 0.000000 0.000000 0.000000
# 3 -0.000402 -0.003196 0.008223 0.000000 0.000000 0.000000
# 4 0.000000 0.000000 0.000000 0.024168 0.000000 0.000000
# 5 0.000000 0.000000 0.000000 0.000000 0.086471 0.000000
# 6 0.000000 0.000000 0.000000 0.000000 0.000000 -0.032779
#
#
# Mechanical properties :
#
#
# Convention : Reuss Voigt Hill
#
# Bulk Modulus (GPa) = 43.86039 50.71552 47.28796
# Shear Modulus (GPa) = 35.51624 19.17644 27.34634
#
# Velocity S-wave (km/s) = 4.00544 2.94321 3.51469
# Velocity P-wave (km/s) = 6.41905 5.87021 6.15076
#
# Compressibility (1/GPa) = 0.02279961
#
# Stress axis : x y z
#
# Youngs Moduli (GPa) = 54.24082 80.63811 121.61750
#
# Poissons Ratio (x) = 0.36551 0.04885
# Poissons Ratio (y) = 0.24586 0.38867
# Poissons Ratio (z) = 0.02179 0.25770
#
# Static dielectric constant tensor:
#      x y z
#    x 1.888280 0.000000 0.000000 
#    y 0.000000 1.855360 0.000000 
#    z 0.000000 0.000000 1.863770 
# 
# From -- ./inp_files/26134.got.cif
#   From: 2010.05.17/outbox.cif.g08.bks.cpg/sg57_14_cif.got.tgz:26134.got - 2010.06.03 13:58:18.
