data_PCOD9440817
_publ_section_title
;
Structure prediction by ZEFSAII (Michael W. Deem and Ramdas Pophale) SiO2 
 PCOD9440817
Probable space group: P N N M
;
_chemical_formula_sum "Si O2"
_cell_formula_units_Z 60
_cell_length_a 12.145811
_cell_length_b 12.019099
_cell_length_c 20.828099
_cell_angle_alpha 90.000000
_cell_angle_beta 90.000000
_cell_angle_gamma 90.000000
_cell_volume 3040.521401
_symmetry_space_group_name_H-M "P N N M"
_symmetry_group_IT_number 58
_symmetry_cell_setting 'orthorhombic'
loop_
_space_group_symop_operation_xyz
x,y,z
-x,-y,z
1/2+x,1/2-y,1/2-z
1/2-x,1/2+y,1/2-z
-x,-y,-z
x,y,-z
1/2-x,1/2+y,1/2+z
1/2+x,1/2-y,1/2+z
loop_
_atom_site_type_symbol
_atom_site_label
_atom_site_fract_x
_atom_site_fract_y
_atom_site_fract_z
Si Si1 0.260262 0.529349 0.648443
Si Si2 0.000000 0.000000 0.099643
Si Si3 0.797319 0.262053 0.427323
Si Si4 0.813350 0.886490 0.713838
Si Si5 0.659836 0.633798 0.801794
Si Si6 0.621618 0.143721 0.776657
Si Si7 0.578302 0.811624 0.299724
Si Si8 0.960874 0.748825 0.931583
O O1 0.381289 0.480795 0.633551
O O2 0.211429 0.608520 0.593720
O O3 0.286379 0.606841 0.710049
O O4 0.172561 0.437266 0.670169
O O5 0.976456 0.882496 0.066533
O O6 0.840435 0.248977 0.500000
O O7 0.855456 0.195254 0.369561
O O8 0.669117 0.225017 0.427778
O O9 0.876488 0.772449 0.700629
O O10 0.691992 0.872538 0.684685
O O11 0.868585 0.003074 0.696205
O O12 0.788798 0.635243 0.780809
O O13 0.605729 0.700811 0.742251
O O14 0.502209 0.121960 0.747814
O O15 0.517705 0.788429 0.366187
O O16 0.003266 0.703333 0.000000
#
# Coordination Sequence:
#
# PCOD9440817 Si02
#       8
#     8   4   8   8   8   8   8   8
#     4  10  19  33  53  82 113 145 198 235 292 345
#     4  10  17  30  52  78 114 156 177 230 285 338
#     4  10  19  37  57  79 117 154 192 234 280 358
#     4  10  20  33  53  79 115 146 191 240 285 347
#     4  10  20  36  52  82 112 151 199 228 286 344
#     4  10  19  33  53  84 113 142 190 247 294 342
#     4  11  20  35  56  81 117 153 184 249 293 336
#     4  10  19  31  51  80 115 151 184 222 290 362
#
# _framework density 19.733457999999999
#
# number of rings (size 3 to 8) (size 9 to 14) (size 15 to 20)
#    0.000    1.867    4.000    3.400    0.000    3.200 
#    0.000    0.667    0.000    4.000    0.000    0.933 
#    0.000    0.000    0.000    0.600    0.000    0.000 
#
# Total GULP energy -334415.605037 kJ/mol
# GULP energy per Si atom -5573.593417 kJ/mol
# Density = 1.968854 g / cm^3
# Si number density = 19.733458 Si / 1000 Ang^3
#
#
#
# Elastic Constant Matrix: (Units=GPa)
#
#
# Indices 1 2 3 4 5 6 
#
# 1 49.0587 18.3585 10.2494 0.0000 0.0000 0.0000
# 2 18.3585 107.7370 39.5940 0.0000 0.0000 0.0000
# 3 10.2494 39.5940 121.3610 0.0000 0.0000 0.0000
# 4 0.0000 0.0000 0.0000 11.9741 0.0000 0.0000
# 5 0.0000 0.0000 0.0000 0.0000 20.4633 0.0000
# 6 0.0000 0.0000 0.0000 0.0000 0.0000 4.3882
#
#
#
# Elastic Compliance Matrix: (Units=1/GPa)
#
#
# Indices 1 2 3 4 5 6 
#
# 1 0.021827 -0.003456 -0.000716 0.000000 0.000000 0.000000
# 2 -0.003456 0.011094 -0.003327 0.000000 0.000000 0.000000
# 3 -0.000716 -0.003327 0.009386 0.000000 0.000000 0.000000
# 4 0.000000 0.000000 0.000000 0.083514 0.000000 0.000000
# 5 0.000000 0.000000 0.000000 0.000000 0.048868 0.000000
# 6 0.000000 0.000000 0.000000 0.000000 0.000000 0.227884
#
#
# Mechanical properties :
#
#
# Convention : Reuss Voigt Hill
#
# Bulk Modulus (GPa) = 36.62008 46.06226 41.34117
# Shear Modulus (GPa) = 11.71856 21.36210 16.54033
#
# Velocity S-wave (km/s) = 2.43953 3.29375 2.89829
# Velocity P-wave (km/s) = 5.15099 6.15288 5.67409
#
# Compressibility (1/GPa) = 0.02730742
#
# Stress axis : x y z
#
# Youngs Moduli (GPa) = 45.81549 90.14159 106.54286
#
# Poissons Ratio (x) = 0.31155 0.07626
# Poissons Ratio (y) = 0.15835 0.35451
# Poissons Ratio (z) = 0.03279 0.29994
#
# Static dielectric constant tensor:
#      x y z
#    x 1.772300 0.000000 0.000000 
#    y 0.000000 1.764430 0.000000 
#    z 0.000000 0.000000 1.713280 
# 
# From -- ./inp_files/29671.got.cif
#   From: 2010.05.17/outbox.cif.g08.bks.cpg/sg58_15_cif.got.tgz:29671.got - 2010.06.03 14:20:14.
