data_PCOD9440249
_publ_section_title
;
Structure prediction by ZEFSAII (Michael W. Deem and Ramdas Pophale) SiO2 
 PCOD9440249
Probable space group: P B C M
;
_chemical_formula_sum "Si O2"
_cell_formula_units_Z 36
_cell_length_a 13.392305
_cell_length_b 10.831653
_cell_length_c 10.978746
_cell_angle_alpha 90.000000
_cell_angle_beta 90.000000
_cell_angle_gamma 90.000000
_cell_volume 1592.585685
_symmetry_space_group_name_H-M "P B C M"
_symmetry_group_IT_number 57
_symmetry_cell_setting 'orthorhombic'
loop_
_space_group_symop_operation_xyz
x,y,z
-x,-y,1/2+z
x,1/2-y,-z
-x,1/2+y,1/2-z
-x,-y,-z
x,y,1/2-z
-x,1/2+y,z
x,1/2-y,1/2+z
loop_
_atom_site_type_symbol
_atom_site_label
_atom_site_fract_x
_atom_site_fract_y
_atom_site_fract_z
Si Si1 0.164106 0.965806 0.952608
Si Si2 0.487652 0.588648 0.883089
Si Si3 0.710430 0.688298 0.874223
Si Si4 0.953077 0.648371 0.389636
Si Si5 0.322251 0.750000 0.500000
O O1 0.064220 0.908664 0.896476
O O2 0.220105 0.068911 0.874943
O O3 0.247172 0.860422 0.967011
O O4 0.123566 0.038279 0.073182
O O5 0.472665 0.526608 0.750000
O O6 0.594412 0.654510 0.878011
O O7 0.500000 0.500000 0.000000
O O8 0.399085 0.686820 0.904737
O O9 0.726445 0.762136 0.750000
O O10 0.734071 0.750000 0.000000
O O11 0.949296 0.750000 0.500000
O O12 0.939014 0.693643 0.250000
#
# Coordination Sequence:
#
# PCOD9440249 Si02
#       5
#     8   8   8   8   4
#     4  11  25  46  72 107 147 190 242 305 365 435
#     4  11  25  44  70 104 146 192 242 297 352 424
#     4  11  24  44  70 102 143 191 238 293 356 423
#     4  11  26  49  76 109 145 189 244 307 375 446
#     4  12  24  48  72 112 142 196 244 300 358 432
#
# _framework density 22.604749000000002
#
# number of rings (size 3 to 8) (size 9 to 14) (size 15 to 20)
#    0.000    0.889    4.444    1.333    0.000   11.556 
#    0.000    0.000    0.000    0.000    0.000    0.000 
#    0.000    0.000    0.000    0.000    0.000    0.000 
#
# Total GULP energy -200865.955378 kJ/mol
# GULP energy per Si atom -5579.609872 kJ/mol
# Density = 2.255330 g / cm^3
# Si number density = 22.604749 Si / 1000 Ang^3
#
#
#
# Elastic Constant Matrix: (Units=GPa)
#
#
# Indices 1 2 3 4 5 6 
#
# 1 188.0192 46.4505 44.4829 0.0000 0.0000 0.0000
# 2 46.4505 88.2833 83.7445 0.0000 0.0000 0.0000
# 3 44.4829 83.7445 231.8485 0.0000 0.0000 0.0000
# 4 0.0000 0.0000 0.0000 24.7950 0.0000 0.0000
# 5 0.0000 0.0000 0.0000 0.0000 -9.1308 0.0000
# 6 0.0000 0.0000 0.0000 0.0000 0.0000 61.2979
#
#
#
# Elastic Compliance Matrix: (Units=1/GPa)
#
#
# Indices 1 2 3 4 5 6 
#
# 1 0.006113 -0.003201 -0.000017 0.000000 0.000000 0.000000
# 2 -0.003201 0.018907 -0.006215 0.000000 0.000000 0.000000
# 3 -0.000017 -0.006215 0.006561 0.000000 0.000000 0.000000
# 4 0.000000 0.000000 0.000000 0.040331 0.000000 0.000000
# 5 0.000000 0.000000 0.000000 0.000000 -0.109519 0.000000
# 6 0.000000 0.000000 0.000000 0.000000 0.000000 0.016314
#
#
# Mechanical properties :
#
#
# Convention : Reuss Voigt Hill
#
# Bulk Modulus (GPa) = 78.63910 95.27851 86.95881
# Shear Modulus (GPa) = 2761.42291 37.62397 1399.52344
#
# Velocity S-wave (km/s) = 34.98948 4.08417 24.90928
# Velocity P-wave (km/s) = 40.83156 8.03006 29.42531
#
# Compressibility (1/GPa) = 0.01271632
#
# Stress axis : x y z
#
# Youngs Moduli (GPa) = 163.57797 52.89127 152.40846
#
# Poissons Ratio (x) = 0.16928 0.00257
# Poissons Ratio (y) = 0.52354 0.94724
# Poissons Ratio (z) = 0.00276 0.32873
#
# Static dielectric constant tensor:
#      x y z
#    x 1.831860 0.000000 0.000000 
#    y 0.000000 1.903780 0.000000 
#    z 0.000000 0.000000 1.888960 
# 
# From -- ./inp_files/12533.got.cif
#   From: 2010.05.17/outbox.cif.g08.bks.cpg/sg57_7_cif.got.tgz:12533.got - 2010.06.03 13:58:18.
