data_PCOD9440626
_publ_section_title
;
Structure prediction by ZEFSAII (Michael W. Deem and Ramdas Pophale) SiO2 
 PCOD9440626
Probable space group: P B C M
;
_chemical_formula_sum "Si O2"
_cell_formula_units_Z 64
_cell_length_a 15.000000
_cell_length_b 12.000000
_cell_length_c 18.000000
_cell_angle_alpha 90.000000
_cell_angle_beta 90.000000
_cell_angle_gamma 90.000000
_cell_volume 3240.000000
_symmetry_space_group_name_H-M "P B C M"
_symmetry_group_IT_number 57
_symmetry_cell_setting 'orthorhombic'
loop_
_space_group_symop_operation_xyz
x,y,z
-x,-y,1/2+z
x,1/2-y,-z
-x,1/2+y,1/2-z
-x,-y,-z
x,y,1/2-z
-x,1/2+y,z
x,1/2-y,1/2+z
loop_
_atom_site_type_symbol
_atom_site_label
_atom_site_fract_x
_atom_site_fract_y
_atom_site_fract_z
Si Si1 0.240430 0.135587 0.164219
Si Si2 0.313934 0.782009 0.584827
Si Si3 0.118096 0.399240 0.046806
Si Si4 0.688619 0.826988 0.061086
Si Si5 0.051694 0.162201 0.394552
Si Si6 0.859829 0.396526 0.839388
Si Si7 0.373690 0.554353 0.661477
Si Si8 0.452018 0.984445 0.579541
O O1 0.262073 0.146248 0.250000
O O2 0.274643 0.246593 0.124461
O O3 0.134582 0.121888 0.154899
O O4 0.296510 0.030624 0.135617
O O5 0.288842 0.750000 0.500000
O O6 0.226881 0.831157 0.628094
O O7 0.352771 0.671981 0.623676
O O8 0.394452 0.871738 0.583281
O O9 0.221236 0.375945 0.023775
O O10 0.076550 0.288190 0.082629
O O11 0.127951 0.492533 0.109965
O O12 0.062319 0.410953 0.970354
O O13 0.621997 0.919682 0.088665
O O14 0.641319 0.750000 0.000000
O O15 0.955371 0.161247 0.356624
O O16 0.850199 0.414272 0.750000
O O17 0.369974 0.567526 0.750000
O O18 0.468404 0.502083 0.637844
O O19 0.500000 0.000000 0.500000
#
# Coordination Sequence:
#
# PCOD9440626 Si02
#       8
#     8   8   8   8   8   8   8   8
#     4  10  22  41  68  99 134 174 224 282 342 398
#     4  12  28  47  73  99 142 184 234 284 343 424
#     4  10  21  42  68  99 130 177 228 285 337 407
#     4  11  21  40  69  94 133 166 222 287 339 403
#     4  10  22  42  71 100 133 179 236 283 336 414
#     4  12  27  44  67 103 145 183 226 286 356 419
#     4  11  27  46  68 101 142 182 227 285 354 414
#     4  12  26  44  70 102 129 179 234 285 336 413
#
# _framework density 19.753086
#
# number of rings (size 3 to 8) (size 9 to 14) (size 15 to 20)
#    0.000    1.000    5.000    1.875    7.000    5.000 
#    0.000    0.000    0.000    0.000    0.000    0.000 
#    0.000    0.000    0.000    0.000    0.000    0.000 
#
# Total GULP energy -357310.399650 kJ/mol
# GULP energy per Si atom -5582.974995 kJ/mol
# Density = 1.970813 g / cm^3
# Si number density = 19.753086 Si / 1000 Ang^3
#
#
#
# Elastic Constant Matrix: (Units=GPa)
#
#
# Indices 1 2 3 4 5 6 
#
# 1 128.1303 49.3096 34.0666 0.0000 0.0000 0.0000
# 2 49.3096 87.5148 46.1615 0.0000 0.0000 0.0000
# 3 34.0666 46.1615 115.2274 0.0000 0.0000 0.0000
# 4 0.0000 0.0000 0.0000 26.2114 0.0000 0.0000
# 5 0.0000 0.0000 0.0000 0.0000 33.6402 0.0000
# 6 0.0000 0.0000 0.0000 0.0000 0.0000 18.3357
#
#
#
# Elastic Compliance Matrix: (Units=1/GPa)
#
#
# Indices 1 2 3 4 5 6 
#
# 1 0.010037 -0.005186 -0.000890 0.000000 0.000000 0.000000
# 2 -0.005186 0.017168 -0.005344 0.000000 0.000000 0.000000
# 3 -0.000890 -0.005344 0.011083 0.000000 0.000000 0.000000
# 4 0.000000 0.000000 0.000000 0.038151 0.000000 0.000000
# 5 0.000000 0.000000 0.000000 0.000000 0.029726 0.000000
# 6 0.000000 0.000000 0.000000 0.000000 0.000000 0.054538
#
#
# Mechanical properties :
#
#
# Convention : Reuss Voigt Hill
#
# Bulk Modulus (GPa) = 64.73785 65.54977 65.14381
# Shear Modulus (GPa) = 26.49819 29.05978 27.77898
#
# Velocity S-wave (km/s) = 3.66658 3.83972 3.75415
# Velocity P-wave (km/s) = 7.12529 7.27424 7.20015
#
# Compressibility (1/GPa) = 0.01544691
#
# Stress axis : x y z
#
# Youngs Moduli (GPa) = 99.63287 58.24947 90.23160
#
# Poissons Ratio (x) = 0.30207 0.08029
# Poissons Ratio (y) = 0.51668 0.48223
# Poissons Ratio (z) = 0.08866 0.31131
#
# Static dielectric constant tensor:
#      x y z
#    x 1.699010 0.000000 0.000000 
#    y 0.000000 1.732170 0.000000 
#    z 0.000000 0.000000 1.711960 
# 
# From -- ./inp_files/22631.got.cif
#   From: 2010.05.17/outbox.ucp.g08.bks.cvg/sg57_12_cif.got.tgz:22631.got - 2010.06.11 16:39:23.
