data_PCOD9440570
_publ_section_title
;
Structure prediction by ZEFSAII (Michael W. Deem and Ramdas Pophale) SiO2 
 PCOD9440570
Probable space group: P B C M
;
_chemical_formula_sum "Si O2"
_cell_formula_units_Z 56
_cell_length_a 21.000000
_cell_length_b 9.000000
_cell_length_c 15.000000
_cell_angle_alpha 90.000000
_cell_angle_beta 90.000000
_cell_angle_gamma 90.000000
_cell_volume 2835.000000
_symmetry_space_group_name_H-M "P B C M"
_symmetry_group_IT_number 57
_symmetry_cell_setting 'orthorhombic'
loop_
_space_group_symop_operation_xyz
x,y,z
-x,-y,1/2+z
x,1/2-y,-z
-x,1/2+y,1/2-z
-x,-y,-z
x,y,1/2-z
-x,1/2+y,z
x,1/2-y,1/2+z
loop_
_atom_site_type_symbol
_atom_site_label
_atom_site_fract_x
_atom_site_fract_y
_atom_site_fract_z
Si Si1 0.961365 0.015316 0.355447
Si Si2 0.467297 0.877266 0.937752
Si Si3 0.218326 0.592561 0.536687
Si Si4 0.162124 0.350124 0.414308
Si Si5 0.716547 0.662768 0.145796
Si Si6 0.416301 0.173916 0.856336
Si Si7 0.913577 0.158157 0.859200
O O1 0.970732 0.033445 0.250000
O O2 0.903858 0.897318 0.368563
O O3 0.029722 0.954593 0.388750
O O4 0.937309 0.176784 0.387475
O O5 0.524824 0.780300 0.891029
O O6 0.425132 0.996954 0.881133
O O7 0.434333 0.750000 0.000000
O O8 0.500000 0.000000 0.000000
O O9 0.242716 0.750000 0.500000
O O10 0.194430 0.498759 0.451966
O O11 0.267921 0.485969 0.589030
O O12 0.154804 0.620324 0.597467
O O13 0.145898 0.250000 0.500000
O O14 0.218609 0.261533 0.363897
O O15 0.708027 0.625788 0.250000
O O16 0.652524 0.753446 0.115940
O O17 0.418507 0.181399 0.750000
O O18 0.908076 0.154192 0.750000
#
# Coordination Sequence:
#
# PCOD9440570 Si02
#       7
#     8   8   8   8   8   8   8
#     4  10  21  37  56  81 111 152 200 248 304 369
#     4   9  19  35  62  96 134 170 203 246 306 361
#     4  11  22  40  59  87 120 153 201 256 314 364
#     4  10  22  37  57  84 115 156 195 247 303 364
#     4  10  23  42  65  88 121 165 205 246 302 367
#     4  10  20  39  65  96 130 169 215 257 298 356
#     4  10  22  37  58  83 114 155 200 250 310 376
#
# _framework density 19.753086
#
# number of rings (size 3 to 8) (size 9 to 14) (size 15 to 20)
#    0.000    2.000    1.429    1.286    4.000    6.286 
#    0.000    5.714    0.000    6.857    0.000    0.000 
#    0.000    0.000    0.000    0.000    0.000    0.000 
#
# Total GULP energy -312307.896953 kJ/mol
# GULP energy per Si atom -5576.926731 kJ/mol
# Density = 1.970813 g / cm^3
# Si number density = 19.753086 Si / 1000 Ang^3
#
#
#
# Elastic Constant Matrix: (Units=GPa)
#
#
# Indices 1 2 3 4 5 6 
#
# 1 104.4406 45.3394 23.1061 0.0000 0.0000 0.0000
# 2 45.3394 152.5826 32.9560 0.0000 0.0000 0.0000
# 3 23.1061 32.9560 58.8690 0.0000 0.0000 0.0000
# 4 0.0000 0.0000 0.0000 35.5634 0.0000 0.0000
# 5 0.0000 0.0000 0.0000 0.0000 23.6150 0.0000
# 6 0.0000 0.0000 0.0000 0.0000 0.0000 38.6672
#
#
#
# Elastic Compliance Matrix: (Units=1/GPa)
#
#
# Indices 1 2 3 4 5 6 
#
# 1 0.011423 -0.002760 -0.002939 0.000000 0.000000 0.000000
# 2 -0.002760 0.008122 -0.003464 0.000000 0.000000 0.000000
# 3 -0.002939 -0.003464 0.020079 0.000000 0.000000 0.000000
# 4 0.000000 0.000000 0.000000 0.028119 0.000000 0.000000
# 5 0.000000 0.000000 0.000000 0.000000 0.042346 0.000000
# 6 0.000000 0.000000 0.000000 0.000000 0.000000 0.025862
#
#
# Mechanical properties :
#
#
# Convention : Reuss Voigt Hill
#
# Bulk Modulus (GPa) = 46.94748 57.63281 52.29014
# Shear Modulus (GPa) = 30.98380 33.86850 32.42615
#
# Velocity S-wave (km/s) = 3.96480 4.14526 4.05603
# Velocity P-wave (km/s) = 6.69165 7.22155 6.96165
#
# Compressibility (1/GPa) = 0.02130040
#
# Stress axis : x y z
#
# Youngs Moduli (GPa) = 87.54322 123.12324 49.80240
#
# Poissons Ratio (x) = 0.33977 0.14635
# Poissons Ratio (y) = 0.24158 0.17250
# Poissons Ratio (z) = 0.25726 0.42646
#
# Static dielectric constant tensor:
#      x y z
#    x 1.715840 0.000000 0.000000 
#    y 0.000000 1.725150 0.000000 
#    z 0.000000 0.000000 1.736020 
# 
# From -- ./inp_files/19324.got.cif
#   From: 2010.05.17/outbox.ucp.g08.bks.cvg/sg57_10_cif.got.tgz:19324.got - 2010.06.11 16:39:23.
