data_PCOD9440842
_publ_section_title
;
Structure prediction by ZEFSAII (Michael W. Deem and Ramdas Pophale) SiO2 
 PCOD9440842
Probable space group: P N N M
;
_chemical_formula_sum "Si O2"
_cell_formula_units_Z 56
_cell_length_a 13.743440
_cell_length_b 21.475088
_cell_length_c 10.075386
_cell_angle_alpha 90.000000
_cell_angle_beta 90.000000
_cell_angle_gamma 90.000000
_cell_volume 2973.665378
_symmetry_space_group_name_H-M "P N N M"
_symmetry_group_IT_number 58
_symmetry_cell_setting 'orthorhombic'
loop_
_space_group_symop_operation_xyz
x,y,z
-x,-y,z
1/2+x,1/2-y,1/2-z
1/2-x,1/2+y,1/2-z
-x,-y,-z
x,y,-z
1/2-x,1/2+y,1/2+z
1/2+x,1/2-y,1/2+z
loop_
_atom_site_type_symbol
_atom_site_label
_atom_site_fract_x
_atom_site_fract_y
_atom_site_fract_z
Si Si1 0.401959 0.035233 0.848971
Si Si2 0.780377 0.387227 0.149366
Si Si3 0.080974 0.045616 0.279044
Si Si4 0.682212 0.253455 0.154425
Si Si5 0.997341 0.168764 0.653086
Si Si6 0.290860 0.452214 0.356416
Si Si7 0.778659 0.157983 0.345117
O O1 0.359832 0.088068 0.752543
O O2 0.500000 0.000000 0.804503
O O3 0.313213 0.986253 0.855412
O O4 0.419145 0.058221 0.000000
O O5 0.682075 0.430262 0.154619
O O6 0.744500 0.316841 0.176372
O O7 0.818700 0.390328 0.000000
O O8 0.025114 0.110431 0.254359
O O9 0.124739 0.003732 0.161197
O O10 0.000000 0.000000 0.344764
O O11 0.571519 0.275546 0.173107
O O12 0.708896 0.200606 0.257940
O O13 0.695997 0.234785 0.000000
O O14 0.012895 0.145948 0.500000
O O15 0.886271 0.187522 0.663381
O O16 0.302640 0.420369 0.500000
O O17 0.290967 0.407425 0.230020
O O18 0.752282 0.151581 0.500000
#
# Coordination Sequence:
#
# PCOD9440842 Si02
#       7
#     8   8   8   8   8   8   8
#     4   9  19  37  57  77 106 145 186 220 262 322
#     4   9  19  33  55  83 107 137 177 221 273 321
#     4  10  17  31  54  85 114 143 170 214 263 337
#     4   9  19  39  58  74 106 145 181 222 271 322
#     4   9  19  35  56  81 109 146 182 218 273 334
#     4  10  21  36  54  83 117 147 176 220 278 324
#     4  11  22  37  57  83 110 142 188 230 266 320
#
# _framework density 18.831977999999999
#
# number of rings (size 3 to 8) (size 9 to 14) (size 15 to 20)
#    0.000    2.429    1.429    1.714    0.000    5.143 
#    2.571    3.571    0.000    0.000    0.000    0.000 
#    0.000    0.000    0.000    0.000    0.000    0.000 
#
# Total GULP energy -311810.611121 kJ/mol
# GULP energy per Si atom -5568.046627 kJ/mol
# Density = 1.878912 g / cm^3
# Si number density = 18.831978 Si / 1000 Ang^3
#
#
#
# Elastic Constant Matrix: (Units=GPa)
#
#
# Indices 1 2 3 4 5 6 
#
# 1 43.1150 -2.9300 0.8862 0.0000 0.0000 0.0000
# 2 -2.9300 32.0910 25.1687 0.0000 0.0000 0.0000
# 3 0.8862 25.1687 81.3186 0.0000 0.0000 0.0000
# 4 0.0000 0.0000 0.0000 21.9847 0.0000 0.0000
# 5 0.0000 0.0000 0.0000 0.0000 4.1588 0.0000
# 6 0.0000 0.0000 0.0000 0.0000 0.0000 21.5687
#
#
#
# Elastic Compliance Matrix: (Units=1/GPa)
#
#
# Indices 1 2 3 4 5 6 
#
# 1 0.023429 0.003089 -0.001211 0.000000 0.000000 0.000000
# 2 0.003089 0.041558 -0.012896 0.000000 0.000000 0.000000
# 3 -0.001211 -0.012896 0.016302 0.000000 0.000000 0.000000
# 4 0.000000 0.000000 0.000000 0.045486 0.000000 0.000000
# 5 0.000000 0.000000 0.000000 0.000000 0.240452 0.000000
# 6 0.000000 0.000000 0.000000 0.000000 0.000000 0.046363
#
#
# Mechanical properties :
#
#
# Convention : Reuss Voigt Hill
#
# Bulk Modulus (GPa) = 16.87716 22.53048 19.70382
# Shear Modulus (GPa) = 10.97992 18.43577 14.70785
#
# Velocity S-wave (km/s) = 2.41726 3.13223 2.79768
# Velocity P-wave (km/s) = 4.09539 5.00710 4.57402
#
# Compressibility (1/GPa) = 0.05925169
#
# Stress axis : x y z
#
# Youngs Moduli (GPa) = 42.68287 24.06295 61.34247
#
# Poissons Ratio (x) = -0.07434 0.07431
# Poissons Ratio (y) = -0.13186 0.79107
# Poissons Ratio (z) = 0.05171 0.31032
#
# Static dielectric constant tensor:
#      x y z
#    x 1.659990 0.000000 0.000000 
#    y 0.000000 1.653420 0.000000 
#    z 0.000000 0.000000 1.661010 
# 
# From -- ./inp_files/6408.got.cif
#   From: 2010.05.17/outbox.cif.g08.bks.cpg/sg58_4_cif.got.tgz:6408.got - 2010.06.03 14:20:14.
