data_PCOD9440920
_publ_section_title
;
Structure prediction by ZEFSAII (Michael W. Deem and Ramdas Pophale) SiO2 
 PCOD9440920
Probable space group: P N N M
;
_chemical_formula_sum "Si O2"
_cell_formula_units_Z 56
_cell_length_a 14.393227
_cell_length_b 18.333500
_cell_length_c 9.039465
_cell_angle_alpha 90.000000
_cell_angle_beta 90.000000
_cell_angle_gamma 90.000000
_cell_volume 2385.317999
_symmetry_space_group_name_H-M "P N N M"
_symmetry_group_IT_number 58
_symmetry_cell_setting 'orthorhombic'
loop_
_space_group_symop_operation_xyz
x,y,z
-x,-y,z
1/2+x,1/2-y,1/2-z
1/2-x,1/2+y,1/2-z
-x,-y,-z
x,y,-z
1/2-x,1/2+y,1/2+z
1/2+x,1/2-y,1/2+z
loop_
_atom_site_type_symbol
_atom_site_label
_atom_site_fract_x
_atom_site_fract_y
_atom_site_fract_z
Si Si1 0.423749 0.646528 0.825577
Si Si2 0.760369 0.785443 0.822614
Si Si3 0.090928 0.781295 0.824395
Si Si4 0.720310 0.988692 0.670642
Si Si5 0.105039 0.928840 0.676233
Si Si6 0.116898 0.354170 0.829158
Si Si7 0.552351 0.921122 0.833274
O O1 0.326445 0.651709 0.742471
O O2 0.490542 0.708455 0.752493
O O3 0.492850 0.576662 0.811146
O O4 0.409797 0.658503 0.000000
O O5 0.817378 0.711651 0.778856
O O6 0.659729 0.776483 0.749458
O O7 0.753725 0.788911 0.000000
O O8 0.133183 0.860680 0.779350
O O9 0.084209 0.772877 0.000000
O O10 0.719939 0.963863 0.500000
O O11 0.826496 0.005409 0.714490
O O12 0.673263 0.069486 0.676769
O O13 0.651959 0.937921 0.762640
O O14 0.122825 0.913288 0.500000
O O15 0.019597 0.369177 0.749759
O O16 0.095449 0.339221 0.000000
O O17 0.500000 0.000000 0.834377
O O18 0.564318 0.895701 0.000000
#
# Coordination Sequence:
#
# PCOD9440920 Si02
#       7
#     8   8   8   8   8   8   8
#     4   9  18  31  42  59  81 103 136 172 205 242
#     4  11  19  29  44  61  80 108 141 172 207 243
#     4  10  18  28  42  59  79 105 135 168 204 242
#     4   9  14  25  40  51  67 101 133 159 199 236
#     4   8  15  28  41  54  75  99 130 167 197 235
#     4   9  16  26  37  50  71 101 134 162 192 238
#     4   9  17  24  31  50  74  94 124 167 199 226
#
# _framework density 23.476953000000002
#
# number of rings (size 3 to 8) (size 9 to 14) (size 15 to 20)
#    0.857    1.857    1.429    2.143    0.000    3.429 
#    0.000    0.000    0.000    0.000    0.000    0.000 
#    0.000    0.000    0.000    1.286    0.000   25.857 
#
# Total GULP energy -312685.073505 kJ/mol
# GULP energy per Si atom -5583.662027 kJ/mol
# Density = 2.342352 g / cm^3
# Si number density = 23.476953 Si / 1000 Ang^3
#
#
#
# Elastic Constant Matrix: (Units=GPa)
#
#
# Indices 1 2 3 4 5 6 
#
# 1 202.8641 34.8549 69.8296 0.0000 0.0000 0.0000
# 2 34.8549 86.1600 22.1317 0.0000 0.0000 0.0000
# 3 69.8296 22.1317 68.7805 0.0000 0.0000 0.0000
# 4 0.0000 0.0000 0.0000 -40.2170 0.0000 0.0000
# 5 0.0000 0.0000 0.0000 0.0000 66.4476 0.0000
# 6 0.0000 0.0000 0.0000 0.0000 0.0000 45.8332
#
#
#
# Elastic Compliance Matrix: (Units=1/GPa)
#
#
# Indices 1 2 3 4 5 6 
#
# 1 0.007691 -0.001205 -0.007420 0.000000 0.000000 0.000000
# 2 -0.001205 0.012841 -0.002908 0.000000 0.000000 0.000000
# 3 -0.007420 -0.002908 0.023008 0.000000 0.000000 0.000000
# 4 0.000000 0.000000 0.000000 -0.024865 0.000000 0.000000
# 5 0.000000 0.000000 0.000000 0.000000 0.015049 0.000000
# 6 0.000000 0.000000 0.000000 0.000000 0.000000 0.021818
#
#
# Mechanical properties :
#
#
# Convention : Reuss Voigt Hill
#
# Bulk Modulus (GPa) = 48.84615 67.93744 58.39179
# Shear Modulus (GPa) = 58.52497 29.81199 44.16848
#
# Velocity S-wave (km/s) = 4.99828 3.56735 4.34216
# Velocity P-wave (km/s) = 7.35946 6.78002 7.07567
#
# Compressibility (1/GPa) = 0.02047244
#
# Stress axis : x y z
#
# Youngs Moduli (GPa) = 130.02844 77.87625 43.46283
#
# Poissons Ratio (x) = 0.09385 0.32250
# Poissons Ratio (y) = 0.15670 0.12640
# Poissons Ratio (z) = 0.96483 0.22649
#
# Static dielectric constant tensor:
#      x y z
#    x 1.921740 0.000000 0.000000 
#    y 0.000000 1.964870 0.000000 
#    z 0.000000 0.000000 1.780740 
# 
# From -- ./inp_files/7130.got.cif
#   From: 2010.05.17/outbox.cif.g08.bks.cpg/sg58_4_cif.got.tgz:7130.got - 2010.06.03 14:20:14.
