data_PCOD9440871
_publ_section_title
;
Structure prediction by ZEFSAII (Michael W. Deem and Ramdas Pophale) SiO2 
 PCOD9440871
Probable space group: P N N M
;
_chemical_formula_sum "Si O2"
_cell_formula_units_Z 48
_cell_length_a 16.069510
_cell_length_b 21.415027
_cell_length_c 7.689659
_cell_angle_alpha 90.000000
_cell_angle_beta 90.000000
_cell_angle_gamma 90.000000
_cell_volume 2646.234589
_symmetry_space_group_name_H-M "P N N M"
_symmetry_group_IT_number 58
_symmetry_cell_setting 'orthorhombic'
loop_
_space_group_symop_operation_xyz
x,y,z
-x,-y,z
1/2+x,1/2-y,1/2-z
1/2-x,1/2+y,1/2-z
-x,-y,-z
x,y,-z
1/2-x,1/2+y,1/2+z
1/2+x,1/2-y,1/2+z
loop_
_atom_site_type_symbol
_atom_site_label
_atom_site_fract_x
_atom_site_fract_y
_atom_site_fract_z
Si Si1 0.566837 0.049454 0.709555
Si Si2 0.579426 0.192645 0.793820
Si Si3 0.633735 0.484184 0.500000
Si Si4 0.233172 0.821161 0.789738
Si Si5 0.446760 0.296204 0.205085
Si Si6 0.485922 0.395350 0.500000
Si Si7 0.255902 0.466015 0.797140
O O1 0.565014 0.048425 0.500000
O O2 0.553645 0.121093 0.761799
O O3 0.659893 0.030246 0.760740
O O4 0.500000 0.000000 0.775950
O O5 0.674851 0.200311 0.727390
O O6 0.508553 0.240693 0.735062
O O7 0.585270 0.201515 0.000000
O O8 0.578783 0.422333 0.500000
O O9 0.573601 0.544583 0.500000
O O10 0.688953 0.492157 0.671736
O O11 0.151957 0.783374 0.729646
O O12 0.222146 0.892626 0.726107
O O13 0.233174 0.822410 0.000000
O O14 0.467245 0.354195 0.330067
O O15 0.460569 0.308918 0.000000
O O16 0.263975 0.482203 0.000000
#
# Coordination Sequence:
#
# PCOD9440871 Si02
#       7
#     8   8   4   8   8   4   8
#     4   9  19  34  55  85 114 146 188 232 281 332
#     4   9  21  35  56  85 111 146 191 231 278 336
#     4  11  22  38  55  86 108 142 199 228 275 349
#     4  10  17  34  58  82 110 145 188 232 274 328
#     4  11  21  38  58  83 113 147 189 232 280 338
#     4  11  24  38  58  80 115 148 178 238 290 327
#     4  10  18  33  57  81 109 147 187 230 273 327
#
# _framework density 18.13898
#
# number of rings (size 3 to 8) (size 9 to 14) (size 15 to 20)
#    0.000    2.000    3.333    0.500    2.333    1.667 
#    0.000    3.333    0.000    6.000    0.000    0.000 
#    0.000    0.000    0.000    0.000    0.000    0.000 
#
# Total GULP energy -267690.053520 kJ/mol
# GULP energy per Si atom -5576.876115 kJ/mol
# Density = 1.809769 g / cm^3
# Si number density = 18.138980 Si / 1000 Ang^3
#
#
#
# Elastic Constant Matrix: (Units=GPa)
#
#
# Indices 1 2 3 4 5 6 
#
# 1 151.8765 74.1402 32.1725 0.0000 0.0000 0.0000
# 2 74.1402 66.2680 22.1075 0.0000 0.0000 0.0000
# 3 32.1725 22.1075 75.5607 0.0000 0.0000 0.0000
# 4 0.0000 0.0000 0.0000 7.7100 0.0000 0.0000
# 5 0.0000 0.0000 0.0000 0.0000 24.7652 0.0000
# 6 0.0000 0.0000 0.0000 0.0000 0.0000 38.6118
#
#
#
# Elastic Compliance Matrix: (Units=1/GPa)
#
#
# Indices 1 2 3 4 5 6 
#
# 1 0.014681 -0.015890 -0.001602 0.000000 0.000000 0.000000
# 2 -0.015890 0.033922 -0.003159 0.000000 0.000000 0.000000
# 3 -0.001602 -0.003159 0.014841 0.000000 0.000000 0.000000
# 4 0.000000 0.000000 0.000000 0.129701 0.000000 0.000000
# 5 0.000000 0.000000 0.000000 0.000000 0.040379 0.000000
# 6 0.000000 0.000000 0.000000 0.000000 0.000000 0.025899
#
#
# Mechanical properties :
#
#
# Convention : Reuss Voigt Hill
#
# Bulk Modulus (GPa) = 45.16430 61.17175 53.16803
# Shear Modulus (GPa) = 16.22825 25.23639 20.73232
#
# Velocity S-wave (km/s) = 2.99433 3.73403 3.38445
# Velocity P-wave (km/s) = 6.07518 7.23794 6.68190
#
# Compressibility (1/GPa) = 0.02214138
#
# Stress axis : x y z
#
# Youngs Moduli (GPa) = 68.11734 29.47940 67.38270
#
# Poissons Ratio (x) = 0.46843 0.10792
# Poissons Ratio (y) = 1.08240 0.21287
# Poissons Ratio (z) = 0.10910 0.09313
#
# Static dielectric constant tensor:
#      x y z
#    x 1.676020 0.000000 0.000000 
#    y 0.000000 1.588220 0.000000 
#    z 0.000000 0.000000 1.639740 
# 
# From -- ./inp_files/6071.got.cif
#   From: 2010.05.17/outbox.cif.g08.bks.cpg/sg58_4_cif.got.tgz:6071.got - 2010.06.03 14:20:14.
