data_PCOD9440828
_publ_section_title
;
Structure prediction by ZEFSAII (Michael W. Deem and Ramdas Pophale) SiO2 
 PCOD9440828
Probable space group: P N N M
;
_chemical_formula_sum "Si O2"
_cell_formula_units_Z 52
_cell_length_a 18.165471
_cell_length_b 5.389143
_cell_length_c 30.648885
_cell_angle_alpha 90.000000
_cell_angle_beta 90.000000
_cell_angle_gamma 90.000000
_cell_volume 3000.413081
_symmetry_space_group_name_H-M "P N N M"
_symmetry_group_IT_number 58
_symmetry_cell_setting 'orthorhombic'
loop_
_space_group_symop_operation_xyz
x,y,z
-x,-y,z
1/2+x,1/2-y,1/2-z
1/2-x,1/2+y,1/2-z
-x,-y,-z
x,y,-z
1/2-x,1/2+y,1/2+z
1/2+x,1/2-y,1/2+z
loop_
_atom_site_type_symbol
_atom_site_label
_atom_site_fract_x
_atom_site_fract_y
_atom_site_fract_z
Si Si1 0.752237 0.385714 0.852966
Si Si2 0.909156 0.356286 0.359049
Si Si3 0.426254 0.116781 0.238288
Si Si4 0.235714 0.121436 0.168553
Si Si5 0.048985 0.247623 0.500000
Si Si6 0.608627 0.354127 0.906236
Si Si7 0.332840 0.611299 0.240426
O O1 0.798972 0.633793 0.851900
O O2 0.694116 0.369412 0.892052
O O3 0.704312 0.406663 0.807476
O O4 0.795998 0.133494 0.849142
O O5 0.944994 0.315425 0.312158
O O6 0.821051 0.370775 0.347227
O O7 0.925746 0.626039 0.378768
O O8 0.920971 0.125077 0.391622
O O9 0.385293 0.373659 0.251371
O O10 0.500000 0.000000 0.259340
O O11 0.374052 0.875201 0.239759
O O12 0.225894 0.122130 0.220475
O O13 0.095993 0.221240 0.544081
O O14 0.000000 0.500000 0.500000
O O15 0.000000 0.000000 0.500000
#
# Coordination Sequence:
#
# PCOD9440828 Si02
#       7
#     8   8   8   8   4   8   8
#     4  10  17  31  47  72  86 109 135 192 252 284
#     4  10  19  35  51  71  86 114 145 200 253 279
#     4  12  23  32  42  62  93 128 158 179 226 279
#     4  10  18  28  52  71  90 107 142 192 250 282
#     4  12  26  40  52  70  82 122 170 206 245 284
#     4  10  20  36  49  64  89 104 147 200 245 292
#     4  12  19  33  46  69  91 116 151 192 236 275
#
# _framework density 17.330947999999999
#
# number of rings (size 3 to 8) (size 9 to 14) (size 15 to 20)
#    0.000    1.231    6.154    3.231    0.000    1.846 
#    0.000    0.000    0.000    0.000    0.000    0.000 
#    0.000    0.000    0.000    0.000    0.000    0.000 
#
# Total GULP energy -289906.135137 kJ/mol
# GULP energy per Si atom -5575.117983 kJ/mol
# Density = 1.729150 g / cm^3
# Si number density = 17.330948 Si / 1000 Ang^3
#
#
#
# Elastic Constant Matrix: (Units=GPa)
#
#
# Indices 1 2 3 4 5 6 
#
# 1 33.4634 25.4734 24.7435 0.0000 0.0000 0.0000
# 2 25.4734 178.2480 31.2049 0.0000 0.0000 0.0000
# 3 24.7435 31.2049 90.8352 0.0000 0.0000 0.0000
# 4 0.0000 0.0000 0.0000 21.2881 0.0000 0.0000
# 5 0.0000 0.0000 0.0000 0.0000 19.0527 0.0000
# 6 0.0000 0.0000 0.0000 0.0000 0.0000 22.6763
#
#
#
# Elastic Compliance Matrix: (Units=1/GPa)
#
#
# Indices 1 2 3 4 5 6 
#
# 1 0.039994 -0.004052 -0.009502 0.000000 0.000000 0.000000
# 2 -0.004052 0.006380 -0.001088 0.000000 0.000000 0.000000
# 3 -0.009502 -0.001088 0.013971 0.000000 0.000000 0.000000
# 4 0.000000 0.000000 0.000000 0.046975 0.000000 0.000000
# 5 0.000000 0.000000 0.000000 0.000000 0.052486 0.000000
# 6 0.000000 0.000000 0.000000 0.000000 0.000000 0.044099
#
#
# Mechanical properties :
#
#
# Convention : Reuss Voigt Hill
#
# Bulk Modulus (GPa) = 32.19536 51.71002 41.95269
# Shear Modulus (GPa) = 20.53033 27.34510 23.93772
#
# Velocity S-wave (km/s) = 3.44554 3.97649 3.72050
# Velocity P-wave (km/s) = 5.86908 7.14037 6.53571
#
# Compressibility (1/GPa) = 0.03106038
#
# Stress axis : x y z
#
# Youngs Moduli (GPa) = 25.00366 156.74761 71.57627
#
# Poissons Ratio (x) = 0.63515 0.68015
# Poissons Ratio (y) = 0.10132 0.07786
# Poissons Ratio (z) = 0.23759 0.17052
#
# Static dielectric constant tensor:
#      x y z
#    x 1.640870 0.000000 0.000000 
#    y 0.000000 1.743060 0.000000 
#    z 0.000000 0.000000 1.586580 
# 
# From -- ./inp_files/33792.got.cif
#   From: 2010.05.17/outbox.cif.g08.bks.cpg/sg58_17_cif.got.tgz:33792.got - 2010.06.03 14:20:14.
