data_PCOD9440392
_publ_section_title
;
Structure prediction by ZEFSAII (Michael W. Deem and Ramdas Pophale) SiO2 
 PCOD9440392
Probable space group: P B C M
;
_chemical_formula_sum "Si O2"
_cell_formula_units_Z 64
_cell_length_a 18.000000
_cell_length_b 21.000000
_cell_length_c 9.000000
_cell_angle_alpha 90.000000
_cell_angle_beta 90.000000
_cell_angle_gamma 90.000000
_cell_volume 3402.000000
_symmetry_space_group_name_H-M "P B C M"
_symmetry_group_IT_number 57
_symmetry_cell_setting 'orthorhombic'
loop_
_space_group_symop_operation_xyz
x,y,z
-x,-y,1/2+z
x,1/2-y,-z
-x,1/2+y,1/2-z
-x,-y,-z
x,y,1/2-z
-x,1/2+y,z
x,1/2-y,1/2+z
loop_
_atom_site_type_symbol
_atom_site_label
_atom_site_fract_x
_atom_site_fract_y
_atom_site_fract_z
Si Si1 0.944291 0.083752 0.081602
Si Si2 0.614643 0.820615 0.430545
Si Si3 0.307740 0.878062 0.428652
Si Si4 0.071858 0.181635 0.069891
Si Si5 0.455542 0.678276 0.431618
Si Si6 0.184877 0.516311 0.574806
Si Si7 0.765906 0.628945 0.073143
Si Si8 0.180000 0.807117 0.917841
O O1 0.961347 0.061988 0.250000
O O2 0.878725 0.136326 0.087763
O O3 0.016539 0.123036 0.024276
O O4 0.896931 0.030009 0.994769
O O5 0.621861 0.750000 0.500000
O O6 0.609357 0.819414 0.250000
O O7 0.535921 0.844354 0.502195
O O8 0.690582 0.855276 0.483413
O O9 0.318402 0.878046 0.250000
O O10 0.386529 0.865077 0.509874
O O11 0.256001 0.939428 0.472025
O O12 0.251558 0.823177 0.483148
O O13 0.065396 0.184948 0.250000
O O14 0.158703 0.167572 0.033196
O O15 0.051393 0.250000 0.000000
O O16 0.444777 0.750000 0.500000
O O17 0.457196 0.680647 0.250000
O O18 0.176244 0.529083 0.750000
O O19 0.210266 0.444244 0.551769
O O20 0.751467 0.639399 0.250000
O O21 0.202722 0.792337 0.750000
O O22 0.139830 0.750000 0.000000
#
# Coordination Sequence:
#
# PCOD9440392 Si02
#       8
#     8   8   8   8   8   8   8   8
#     4   9  19  34  51  75 108 143 179 223 271 320
#     4  11  22  38  60  86 113 143 179 222 275 328
#     4  10  19  33  51  74 105 141 182 223 266 320
#     4  10  21  36  56  82 112 143 179 227 279 330
#     4  11  21  35  56  83 113 144 178 221 274 327
#     4   9  20  37  57  79 108 148 188 227 270 321
#     4  10  21  39  59  81 110 144 185 231 278 325
#     4  10  18  28  44  68 100 138 178 219 266 318
#
# _framework density 18.812463000000001
#
# number of rings (size 3 to 8) (size 9 to 14) (size 15 to 20)
#    0.000    2.000    0.000    4.875    0.000    4.000 
#    0.000    0.625    0.000    0.000    0.000    0.000 
#    0.000    0.000    0.000    0.000    0.000    0.000 
#
# Total GULP energy -356711.229727 kJ/mol
# GULP energy per Si atom -5573.612964 kJ/mol
# Density = 1.876965 g / cm^3
# Si number density = 18.812463 Si / 1000 Ang^3
#
#
#
# Elastic Constant Matrix: (Units=GPa)
#
#
# Indices 1 2 3 4 5 6 
#
# 1 122.3146 21.1905 34.0901 0.0000 0.0000 0.0000
# 2 21.1905 46.6713 16.1644 0.0000 0.0000 0.0000
# 3 34.0901 16.1644 89.6688 0.0000 0.0000 0.0000
# 4 0.0000 0.0000 0.0000 20.6730 0.0000 0.0000
# 5 0.0000 0.0000 0.0000 0.0000 31.7609 0.0000
# 6 0.0000 0.0000 0.0000 0.0000 0.0000 22.6889
#
#
#
# Elastic Compliance Matrix: (Units=1/GPa)
#
#
# Indices 1 2 3 4 5 6 
#
# 1 0.009599 -0.003300 -0.003054 0.000000 0.000000 0.000000
# 2 -0.003300 0.023988 -0.003070 0.000000 0.000000 0.000000
# 3 -0.003054 -0.003070 0.012867 0.000000 0.000000 0.000000
# 4 0.000000 0.000000 0.000000 0.048372 0.000000 0.000000
# 5 0.000000 0.000000 0.000000 0.000000 0.031485 0.000000
# 6 0.000000 0.000000 0.000000 0.000000 0.000000 0.044074
#
#
# Mechanical properties :
#
#
# Convention : Reuss Voigt Hill
#
# Bulk Modulus (GPa) = 36.22523 44.61609 40.42066
# Shear Modulus (GPa) = 25.19712 27.50519 26.35116
#
# Velocity S-wave (km/s) = 3.66373 3.82785 3.74669
# Velocity P-wave (km/s) = 6.09877 6.58060 6.34426
#
# Compressibility (1/GPa) = 0.02760507
#
# Stress axis : x y z
#
# Youngs Moduli (GPa) = 104.18124 41.68745 77.72030
#
# Poissons Ratio (x) = 0.13758 0.23738
# Poissons Ratio (y) = 0.34383 0.23857
# Poissons Ratio (z) = 0.31820 0.12796
#
# Static dielectric constant tensor:
#      x y z
#    x 1.652360 0.000000 0.000000 
#    y 0.000000 1.746870 0.000000 
#    z 0.000000 0.000000 1.666380 
# 
# From -- ./inp_files/7285.got.cif
#   From: 2010.05.17/outbox.ucp.g08.bks.cvg/sg57_4_cif.got.tgz:7285.got - 2010.06.11 16:39:23.
