data_PCOD9440080
_publ_section_title
;
Structure prediction by ZEFSAII (Michael W. Deem and Ramdas Pophale) SiO2 
 PCOD9440080
Probable space group: P B C M
;
_chemical_formula_sum "Si O2"
_cell_formula_units_Z 48
_cell_length_a 10.796032
_cell_length_b 24.402018
_cell_length_c 8.451700
_cell_angle_alpha 90.000000
_cell_angle_beta 90.000000
_cell_angle_gamma 90.000000
_cell_volume 2226.557829
_symmetry_space_group_name_H-M "P B C M"
_symmetry_group_IT_number 57
_symmetry_cell_setting 'orthorhombic'
loop_
_space_group_symop_operation_xyz
x,y,z
-x,-y,1/2+z
x,1/2-y,-z
-x,1/2+y,1/2-z
-x,-y,-z
x,y,1/2-z
-x,1/2+y,z
x,1/2-y,1/2+z
loop_
_atom_site_type_symbol
_atom_site_label
_atom_site_fract_x
_atom_site_fract_y
_atom_site_fract_z
Si Si1 0.326450 0.689775 0.063164
Si Si2 0.414980 0.147903 0.941952
Si Si3 0.309717 0.033401 0.559531
Si Si4 0.043178 0.421033 0.442560
Si Si5 0.145179 0.191647 0.939211
Si Si6 0.770677 0.074805 0.560948
O O1 0.309576 0.689302 0.250000
O O2 0.290586 0.750000 0.000000
O O3 0.469942 0.678018 0.019423
O O4 0.259016 0.636561 0.990644
O O5 0.427855 0.150029 0.750000
O O6 0.398925 0.083673 0.987756
O O7 0.285872 0.176934 0.987243
O O8 0.311074 0.032383 0.750000
O O9 0.171485 0.051771 0.504731
O O10 0.323930 0.971779 0.498415
O O11 0.043291 0.424644 0.250000
O O12 0.909404 0.440229 0.499404
O O13 0.057409 0.357650 0.489823
O O14 0.145719 0.191837 0.750000
O O15 0.106018 0.250000 0.000000
O O16 0.769951 0.073175 0.750000
#
# Coordination Sequence:
#
# PCOD9440080 Si02
#       6
#     8   8   8   8   8   8
#     4  12  26  43  61  81 110 148 190 233 278 331
#     4   9  19  37  60  84 112 145 182 229 282 335
#     4   9  18  36  61  88 117 147 183 229 281 331
#     4   8  17  34  55  80 113 151 187 228 277 329
#     4   9  17  31  52  79 109 141 180 228 281 331
#     4  11  22  37  58  84 116 152 190 229 273 329
#
# _framework density 21.557939000000001
#
# number of rings (size 3 to 8) (size 9 to 14) (size 15 to 20)
#    0.000    2.333    0.000    5.000    0.000    4.000 
#    0.000    6.667    0.000    0.000    0.000    0.000 
#    0.000    0.000    0.000    0.000    0.000    0.000 
#
# Total GULP energy -267950.970559 kJ/mol
# GULP energy per Si atom -5582.311887 kJ/mol
# Density = 2.150887 g / cm^3
# Si number density = 21.557939 Si / 1000 Ang^3
#
#
#
# Elastic Constant Matrix: (Units=GPa)
#
#
# Indices 1 2 3 4 5 6 
#
# 1 -4.9111 0.3449 -6.5116 0.0000 0.0000 0.0000
# 2 0.3449 139.7804 9.5764 0.0000 0.0000 0.0000
# 3 -6.5116 9.5764 25.0787 0.0000 0.0000 0.0000
# 4 0.0000 0.0000 0.0000 27.4489 0.0000 0.0000
# 5 0.0000 0.0000 0.0000 0.0000 17.3871 0.0000
# 6 0.0000 0.0000 0.0000 0.0000 0.0000 25.3689
#
#
#
# Elastic Compliance Matrix: (Units=1/GPa)
#
#
# Indices 1 2 3 4 5 6 
#
# 1 -0.150134 0.003123 -0.040174 0.000000 0.000000 0.000000
# 2 0.003123 0.007281 -0.001970 0.000000 0.000000 0.000000
# 3 -0.040174 -0.001970 0.030195 0.000000 0.000000 0.000000
# 4 0.000000 0.000000 0.000000 0.036431 0.000000 0.000000
# 5 0.000000 0.000000 0.000000 0.000000 0.057514 0.000000
# 6 0.000000 0.000000 0.000000 0.000000 0.000000 0.039418
#
#
# Mechanical properties :
#
#
# Convention : Reuss Voigt Hill
#
# Bulk Modulus (GPa) = -5.24386 18.52969 6.64292
# Shear Modulus (GPa) = 142.11576 24.47687 83.29631
#
# Velocity S-wave (km/s) = 8.12809 3.37322 6.22272
# Velocity P-wave (km/s) = 9.25473 4.87704 7.39714
#
# Compressibility (1/GPa) = -0.19069923
#
# Stress axis : x y z
#
# Youngs Moduli (GPa) = -6.66073 137.33795 33.11760
#
# Poissons Ratio (x) = -0.42888 1.33048
# Poissons Ratio (y) = 0.02080 0.06523
# Poissons Ratio (z) = -0.26759 0.27050
#
# Static dielectric constant tensor:
#      x y z
#    x 1.801880 0.000000 0.000000 
#    y 0.000000 1.816860 0.000000 
#    z 0.000000 0.000000 1.723100 
# 
# From -- ./inp_files/3185.got.cif
#   From: 2010.05.17/outbox.cif.g08.bks.cpg/sg57_2_cif.got.tgz:3185.got - 2010.06.03 13:58:18.
