data_PCOD9440154
_publ_section_title
;
Structure prediction by ZEFSAII (Michael W. Deem and Ramdas Pophale) SiO2 
 PCOD9440154
Probable space group: P B C M
;
_chemical_formula_sum "Si O2"
_cell_formula_units_Z 40
_cell_length_a 9.430400
_cell_length_b 12.092687
_cell_length_c 16.766256
_cell_angle_alpha 90.000000
_cell_angle_beta 90.000000
_cell_angle_gamma 90.000000
_cell_volume 1912.004980
_symmetry_space_group_name_H-M "P B C M"
_symmetry_group_IT_number 57
_symmetry_cell_setting 'orthorhombic'
loop_
_space_group_symop_operation_xyz
x,y,z
-x,-y,1/2+z
x,1/2-y,-z
-x,1/2+y,1/2-z
-x,-y,-z
x,y,1/2-z
-x,1/2+y,z
x,1/2-y,1/2+z
loop_
_atom_site_type_symbol
_atom_site_label
_atom_site_fract_x
_atom_site_fract_y
_atom_site_fract_z
Si Si1 0.295198 0.316892 0.931838
Si Si2 0.224304 0.599328 0.416556
Si Si3 0.748028 0.148385 0.604353
Si Si4 0.928836 0.964882 0.658936
Si Si5 0.568453 0.601310 0.587233
O O1 0.196354 0.395004 0.882357
O O2 0.366169 0.217951 0.882509
O O3 0.411178 0.377160 0.990145
O O4 0.205864 0.250000 0.000000
O O5 0.256076 0.720603 0.382104
O O6 0.221941 0.619778 0.511574
O O7 0.339058 0.505754 0.394709
O O8 0.072929 0.555047 0.388289
O O9 0.591400 0.098361 0.616781
O O10 0.871155 0.089607 0.653392
O O11 0.948834 0.931674 0.750000
#
# Coordination Sequence:
#
# PCOD9440154 Si02
#       5
#     8   8   8   8   8
#     4   8  19  38  69  96 126 167 226 277 316 386
#     4  11  23  39  69  97 130 173 220 273 323 394
#     4  11  23  39  72 101 126 168 230 280 321 393
#     4  12  27  42  60  94 143 180 212 272 339 396
#     4   9  20  39  72 100 125 159 228 284 321 372
#
# _framework density 20.920446999999999
#
# number of rings (size 3 to 8) (size 9 to 14) (size 15 to 20)
#    1.200    0.400    2.000    3.600    8.400    0.800 
#    0.000    2.000    0.000    0.000    0.000    0.000 
#    0.000    0.000    0.000    0.000    0.000    0.000 
#
# Total GULP energy -223090.083052 kJ/mol
# GULP energy per Si atom -5577.252076 kJ/mol
# Density = 2.087283 g / cm^3
# Si number density = 20.920447 Si / 1000 Ang^3
#
#
#
# Elastic Constant Matrix: (Units=GPa)
#
#
# Indices 1 2 3 4 5 6 
#
# 1 140.8656 70.1362 11.4242 0.0000 0.0000 0.0000
# 2 70.1362 127.3408 4.9773 0.0000 0.0000 0.0000
# 3 11.4242 4.9773 5.1077 0.0000 0.0000 0.0000
# 4 0.0000 0.0000 0.0000 8.9020 0.0000 0.0000
# 5 0.0000 0.0000 0.0000 0.0000 -16.0945 0.0000
# 6 0.0000 0.0000 0.0000 0.0000 0.0000 19.5674
#
#
#
# Elastic Compliance Matrix: (Units=1/GPa)
#
#
# Indices 1 2 3 4 5 6 
#
# 1 0.011509 -0.005544 -0.020339 0.000000 0.000000 0.000000
# 2 -0.005544 0.010834 0.001842 0.000000 0.000000 0.000000
# 3 -0.020339 0.001842 0.239480 0.000000 0.000000 0.000000
# 4 0.000000 0.000000 0.000000 0.112334 0.000000 0.000000
# 5 0.000000 0.000000 0.000000 0.000000 -0.062133 0.000000
# 6 0.000000 0.000000 0.000000 0.000000 0.000000 0.051105
#
#
# Mechanical properties :
#
#
# Convention : Reuss Voigt Hill
#
# Bulk Modulus (GPa) = 4.67856 49.59883 27.13870
# Shear Modulus (GPa) = 10.36361 14.92675 12.64518
#
# Velocity S-wave (km/s) = 2.22813 2.67404 2.46121
# Velocity P-wave (km/s) = 2.97668 5.77007 4.59099
#
# Compressibility (1/GPa) = 0.21374093
#
# Stress axis : x y z
#
# Youngs Moduli (GPa) = 86.89147 92.29959 4.17572
#
# Poissons Ratio (x) = 0.51168 0.08493
# Poissons Ratio (y) = 0.48170 -0.00769
# Poissons Ratio (z) = 1.76726 -0.16998
#
# Static dielectric constant tensor:
#      x y z
#    x 1.728670 0.000000 0.000000 
#    y 0.000000 1.853160 0.000000 
#    z 0.000000 0.000000 1.747300 
# 
# From -- ./inp_files/20513.got.cif
#   From: 2010.05.17/outbox.cif.g08.bks.cpg/sg57_11_cif.got.tgz:20513.got - 2010.06.03 13:58:18.
