data_PCOD9440882
_publ_section_title
;
Structure prediction by ZEFSAII (Michael W. Deem and Ramdas Pophale) SiO2 
 PCOD9440882
Probable space group: P N N M
;
_chemical_formula_sum "Si O2"
_cell_formula_units_Z 58
_cell_length_a 11.161199
_cell_length_b 16.670259
_cell_length_c 16.452590
_cell_angle_alpha 90.000000
_cell_angle_beta 90.000000
_cell_angle_gamma 90.000000
_cell_volume 3061.170180
_symmetry_space_group_name_H-M "P N N M"
_symmetry_group_IT_number 58
_symmetry_cell_setting 'orthorhombic'
loop_
_space_group_symop_operation_xyz
x,y,z
-x,-y,z
1/2+x,1/2-y,1/2-z
1/2-x,1/2+y,1/2-z
-x,-y,-z
x,y,-z
1/2-x,1/2+y,1/2+z
1/2+x,1/2-y,1/2+z
loop_
_atom_site_type_symbol
_atom_site_label
_atom_site_fract_x
_atom_site_fract_y
_atom_site_fract_z
Si Si1 0.000000 0.500000 0.500000
Si Si2 0.180610 0.434728 0.371805
Si Si3 0.388010 0.446925 0.818035
Si Si4 0.513702 0.170409 0.229294
Si Si5 0.624907 0.723859 0.904918
Si Si6 0.721554 0.926450 0.753313
Si Si7 0.560050 0.583936 0.374038
Si Si8 0.368532 0.703421 0.343960
O O1 0.928413 0.551572 0.431143
O O2 0.128606 0.378748 0.301434
O O3 0.211889 0.522308 0.336224
O O4 0.306149 0.403564 0.406255
O O5 0.500000 0.500000 0.847430
O O6 0.370879 0.367269 0.870910
O O7 0.277224 0.509557 0.809505
O O8 0.419253 0.420224 0.724741
O O9 0.460354 0.223544 0.154685
O O10 0.408445 0.111481 0.260078
O O11 0.557748 0.227471 0.300216
O O12 0.756435 0.762677 0.893362
O O13 0.590239 0.726936 0.000000
O O14 0.812804 0.854609 0.773667
O O15 0.500000 0.500000 0.397751
O O16 0.463623 0.651155 0.393174
#
# Coordination Sequence:
#
# PCOD9440882 Si02
#       8
#     2   8   8   8   8   8   8   8
#     4  12  24  40  50  80 120 160 184 250 306 364
#     4  11  22  35  55  79 116 151 199 236 299 357
#     4  10  17  37  63  86 117 148 203 254 291 349
#     4  11  22  35  60  91 117 156 199 252 299 356
#     4  11  25  38  58  92 129 160 191 251 325 363
#     4  10  19  35  60  88 109 148 199 252 285 343
#     4  10  18  37  59  83 108 150 205 253 283 349
#     4  11  20  37  61  85 122 155 200 252 298 360
#
# _framework density 18.947002999999999
#
# number of rings (size 3 to 8) (size 9 to 14) (size 15 to 20)
#    0.000    1.379    6.897    1.655    2.897    0.276 
#    1.241    0.345    0.000    1.655    0.000    0.000 
#    0.000    0.000    0.000    0.000    0.000    0.000 
#
# Total GULP energy -323065.348094 kJ/mol
# GULP energy per Si atom -5570.092209 kJ/mol
# Density = 1.890388 g / cm^3
# Si number density = 18.947003 Si / 1000 Ang^3
#
#
#
# Elastic Constant Matrix: (Units=GPa)
#
#
# Indices 1 2 3 4 5 6 
#
# 1 95.8076 38.9106 -0.0719 0.0000 0.0000 0.0000
# 2 38.9106 77.9993 5.0873 0.0000 0.0000 0.0000
# 3 -0.0719 5.0873 35.5526 0.0000 0.0000 0.0000
# 4 0.0000 0.0000 0.0000 23.0171 0.0000 0.0000
# 5 0.0000 0.0000 0.0000 0.0000 109.3532 0.0000
# 6 0.0000 0.0000 0.0000 0.0000 0.0000 50.7487
#
#
#
# Elastic Compliance Matrix: (Units=1/GPa)
#
#
# Indices 1 2 3 4 5 6 
#
# 1 0.013123 -0.006610 0.000972 0.000000 0.000000 0.000000
# 2 -0.006610 0.016271 -0.002342 0.000000 0.000000 0.000000
# 3 0.000972 -0.002342 0.028464 0.000000 0.000000 0.000000
# 4 0.000000 0.000000 0.000000 0.043446 0.000000 0.000000
# 5 0.000000 0.000000 0.000000 0.000000 0.009145 0.000000
# 6 0.000000 0.000000 0.000000 0.000000 0.000000 0.019705
#
#
# Mechanical properties :
#
#
# Convention : Reuss Voigt Hill
#
# Bulk Modulus (GPa) = 23.86647 33.02348 28.44497
# Shear Modulus (GPa) = 31.23473 47.65270 39.44371
#
# Velocity S-wave (km/s) = 4.06462 5.02047 4.56762
# Velocity P-wave (km/s) = 5.88659 7.14661 6.54698
#
# Compressibility (1/GPa) = 0.04189980
#
# Stress axis : x y z
#
# Youngs Moduli (GPa) = 76.20333 61.46012 35.13162
#
# Poissons Ratio (x) = 0.40624 -0.03416
# Poissons Ratio (y) = 0.50369 0.08226
# Poissons Ratio (z) = -0.07410 0.14391
#
# Static dielectric constant tensor:
#      x y z
#    x 1.721960 0.000000 0.000000 
#    y 0.000000 1.662690 0.000000 
#    z 0.000000 0.000000 1.618060 
# 
# From -- ./inp_files/26343.got.cif
#   From: 2010.05.17/outbox.cif.g08.bks.cpg/sg58_14_cif.got.tgz:26343.got - 2010.06.03 14:20:14.
