data_PCOD9440825
_publ_section_title
;
Structure prediction by ZEFSAII (Michael W. Deem and Ramdas Pophale) SiO2 
 PCOD9440825
Probable space group: P N N M
;
_chemical_formula_sum "Si O2"
_cell_formula_units_Z 56
_cell_length_a 16.162535
_cell_length_b 21.270991
_cell_length_c 7.632596
_cell_angle_alpha 90.000000
_cell_angle_beta 90.000000
_cell_angle_gamma 90.000000
_cell_volume 2624.034119
_symmetry_space_group_name_H-M "P N N M"
_symmetry_group_IT_number 58
_symmetry_cell_setting 'orthorhombic'
loop_
_space_group_symop_operation_xyz
x,y,z
-x,-y,z
1/2+x,1/2-y,1/2-z
1/2-x,1/2+y,1/2-z
-x,-y,-z
x,y,-z
1/2-x,1/2+y,1/2+z
1/2+x,1/2-y,1/2+z
loop_
_atom_site_type_symbol
_atom_site_label
_atom_site_fract_x
_atom_site_fract_y
_atom_site_fract_z
Si Si1 0.793044 0.329049 0.285278
Si Si2 0.374346 0.472422 0.206097
Si Si3 0.294899 0.026182 0.200298
Si Si4 0.935754 0.556439 0.700042
Si Si5 0.024008 0.101930 0.706098
Si Si6 0.020896 0.679877 0.705404
Si Si7 0.380051 0.722689 0.698138
O O1 0.786912 0.327578 0.500000
O O2 0.786133 0.402765 0.228990
O O3 0.711996 0.289852 0.224336
O O4 0.885288 0.306386 0.229805
O O5 0.290811 0.489504 0.300638
O O6 0.426881 0.536634 0.216826
O O7 0.431940 0.415402 0.269930
O O8 0.357629 0.461511 0.000000
O O9 0.358232 0.977725 0.287916
O O10 0.324690 0.036080 0.000000
O O11 0.910955 0.575984 0.500000
O O12 0.981299 0.616134 0.782136
O O13 0.000000 0.500000 0.687341
O O14 0.018978 0.119338 0.500000
O O15 0.075389 0.154977 0.801170
O O16 0.035104 0.667387 0.500000
O O17 0.949520 0.732068 0.719989
O O18 0.368627 0.745797 0.500000
#
# Coordination Sequence:
#
# PCOD9440825 Si02
#       7
#     8   8   8   8   8   8   8
#     4   9  18  34  58  81 104 141 184 221 273 332
#     4   9  18  32  51  78 110 142 178 219 265 323
#     4  10  17  30  55  84 108 134 173 223 273 321
#     4   9  16  30  57  85 105 131 178 229 268 324
#     4   9  18  34  54  76 106 145 184 219 263 325
#     4  10  20  38  60  80 107 148 187 224 276 337
#     4  11  22  37  56  82 112 144 186 234 277 324
#
# _framework density 21.341186
#
# number of rings (size 3 to 8) (size 9 to 14) (size 15 to 20)
#    0.000    2.429    2.857    1.286    0.000    0.571 
#    2.571    4.286    0.000    0.857    0.000    0.000 
#    0.000    0.000    0.000    0.000    0.000    0.000 
#
# Total GULP energy -311850.130007 kJ/mol
# GULP energy per Si atom -5568.752322 kJ/mol
# Density = 2.129261 g / cm^3
# Si number density = 21.341186 Si / 1000 Ang^3
#
#
#
# Elastic Constant Matrix: (Units=GPa)
#
#
# Indices 1 2 3 4 5 6 
#
# 1 182.5455 55.2200 10.7039 0.0000 0.0000 0.0000
# 2 55.2200 60.8616 2.6661 0.0000 0.0000 0.0000
# 3 10.7039 2.6661 36.0594 0.0000 0.0000 0.0000
# 4 0.0000 0.0000 0.0000 0.4477 0.0000 0.0000
# 5 0.0000 0.0000 0.0000 0.0000 5.9057 0.0000
# 6 0.0000 0.0000 0.0000 0.0000 0.0000 31.5679
#
#
#
# Elastic Compliance Matrix: (Units=1/GPa)
#
#
# Indices 1 2 3 4 5 6 
#
# 1 0.007661 -0.006873 -0.001766 0.000000 0.000000 0.000000
# 2 -0.006873 0.022651 0.000366 0.000000 0.000000 0.000000
# 3 -0.001766 0.000366 0.028229 0.000000 0.000000 0.000000
# 4 0.000000 0.000000 0.000000 2.233803 0.000000 0.000000
# 5 0.000000 0.000000 0.000000 0.000000 0.169328 0.000000
# 6 0.000000 0.000000 0.000000 0.000000 0.000000 0.031678
#
#
# Mechanical properties :
#
#
# Convention : Reuss Voigt Hill
#
# Bulk Modulus (GPa) = 23.81312 46.29407 35.05359
# Shear Modulus (GPa) = 1.98107 21.64267 11.81187
#
# Velocity S-wave (km/s) = 0.96452 3.18799 2.35516
# Velocity P-wave (km/s) = 3.52462 5.94058 4.88433
#
# Compressibility (1/GPa) = 0.04199365
#
# Stress axis : x y z
#
# Youngs Moduli (GPa) = 130.53443 44.14833 35.42432
#
# Poissons Ratio (x) = 0.30345 0.06255
# Poissons Ratio (y) = 0.89721 -0.01295
# Poissons Ratio (z) = 0.23051 -0.01614
#
# Static dielectric constant tensor:
#      x y z
#    x 1.785590 0.000000 0.000000 
#    y 0.000000 1.751890 0.000000 
#    z 0.000000 0.000000 1.832550 
# 
# From -- ./inp_files/6465.got.cif
#   From: 2010.05.17/outbox.cif.g08.bks.cpg/sg58_4_cif.got.tgz:6465.got - 2010.06.03 14:20:14.
