data_PCOD9440438
_publ_section_title
;
Structure prediction by ZEFSAII (Michael W. Deem and Ramdas Pophale) SiO2 
 PCOD9440438
Probable space group: P B C M
;
_chemical_formula_sum "Si O2"
_cell_formula_units_Z 64
_cell_length_a 18.000000
_cell_length_b 21.000000
_cell_length_c 9.000000
_cell_angle_alpha 90.000000
_cell_angle_beta 90.000000
_cell_angle_gamma 90.000000
_cell_volume 3402.000000
_symmetry_space_group_name_H-M "P B C M"
_symmetry_group_IT_number 57
_symmetry_cell_setting 'orthorhombic'
loop_
_space_group_symop_operation_xyz
x,y,z
-x,-y,1/2+z
x,1/2-y,-z
-x,1/2+y,1/2-z
-x,-y,-z
x,y,1/2-z
-x,1/2+y,z
x,1/2-y,1/2+z
loop_
_atom_site_type_symbol
_atom_site_label
_atom_site_fract_x
_atom_site_fract_y
_atom_site_fract_z
Si Si1 0.157007 0.815248 0.922141
Si Si2 0.251458 0.316279 0.572343
Si Si3 0.871721 0.579243 0.069481
Si Si4 0.391881 0.127466 0.579086
Si Si5 0.021252 0.185575 0.077323
Si Si6 0.325004 0.984349 0.583736
Si Si7 0.184646 0.948294 0.423495
Si Si8 0.479968 0.932882 0.576603
O O1 0.177943 0.813788 0.750000
O O2 0.067267 0.816514 0.933438
O O3 0.182612 0.750000 0.000000
O O4 0.181311 0.880946 0.995965
O O5 0.226083 0.250000 0.500000
O O6 0.250335 0.311030 0.750000
O O7 0.198449 0.375815 0.529340
O O8 0.333729 0.331220 0.512904
O O9 0.871887 0.574619 0.250000
O O10 0.866348 0.506494 0.016228
O O11 0.942014 0.620784 0.019165
O O12 0.395549 0.148397 0.750000
O O13 0.472805 0.120873 0.505642
O O14 0.359550 0.055057 0.578121
O O15 0.042130 0.190463 0.250000
O O16 0.047515 0.250000 0.000000
O O17 0.291453 0.977240 0.750000
O O18 0.266452 0.975665 0.454296
O O19 0.390993 0.932984 0.569016
O O20 0.169741 0.938630 0.250000
O O21 0.501312 0.935070 0.750000
O O22 0.500000 0.000000 0.500000
#
# Coordination Sequence:
#
# PCOD9440438 Si02
#       8
#     8   8   8   8   8   8   8   8
#     4  10  21  38  59  81 105 137 176 222 272 329
#     4  11  21  34  51  74 107 149 190 229 274 325
#     4   9  19  34  52  78 110 143 180 225 272 319
#     4  10  19  32  50  74 104 139 181 227 268 317
#     4   9  18  35  56  77 106 142 183 225 268 318
#     4   9  18  32  50  76 108 138 174 219 266 315
#     4  11  21  34  55  81 111 145 178 220 272 325
#     4   9  17  29  48  74 103 136 173 218 265 313
#
# _framework density 18.812463000000001
#
# number of rings (size 3 to 8) (size 9 to 14) (size 15 to 20)
#    0.000    2.250    1.250    3.000    0.000    3.500 
#    0.000    1.875    0.000    0.750    0.000    0.000 
#    0.000    0.000    0.000    0.000    0.000    0.000 
#
# Total GULP energy -356644.860443 kJ/mol
# GULP energy per Si atom -5572.575944 kJ/mol
# Density = 1.876965 g / cm^3
# Si number density = 18.812463 Si / 1000 Ang^3
#
#
#
# Elastic Constant Matrix: (Units=GPa)
#
#
# Indices 1 2 3 4 5 6 
#
# 1 -2.4325 5.0313 17.1284 0.0000 0.0000 0.0000
# 2 5.0313 92.7896 19.3192 0.0000 0.0000 0.0000
# 3 17.1284 19.3192 46.6540 0.0000 0.0000 0.0000
# 4 0.0000 0.0000 0.0000 29.0417 0.0000 0.0000
# 5 0.0000 0.0000 0.0000 0.0000 15.2454 0.0000
# 6 0.0000 0.0000 0.0000 0.0000 0.0000 17.3707
#
#
#
# Elastic Compliance Matrix: (Units=1/GPa)
#
#
# Indices 1 2 3 4 5 6 
#
# 1 -0.114011 -0.002772 0.043005 0.000000 0.000000 0.000000
# 2 -0.002772 0.011726 -0.003838 0.000000 0.000000 0.000000
# 3 0.043005 -0.003838 0.007235 0.000000 0.000000 0.000000
# 4 0.000000 0.000000 0.000000 0.034433 0.000000 0.000000
# 5 0.000000 0.000000 0.000000 0.000000 0.065594 0.000000
# 6 0.000000 0.000000 0.000000 0.000000 0.000000 0.057568
#
#
# Mechanical properties :
#
#
# Convention : Reuss Voigt Hill
#
# Bulk Modulus (GPa) = -44.92611 24.44099 -10.24256
# Shear Modulus (GPa) = -283.05028 18.70037 -132.17496
#
# Velocity S-wave (km/s) = -12.27948 3.15626 -8.39117
# Velocity P-wave (km/s) = 14.99934 5.12862 9.96688
#
# Compressibility (1/GPa) = -0.02225877
#
# Stress axis : x y z
#
# Youngs Moduli (GPa) = -8.77110 85.27698 138.22027
#
# Poissons Ratio (x) = 0.23638 -5.94423
# Poissons Ratio (y) = -0.02431 0.53051
# Poissons Ratio (z) = 0.37721 0.32731
#
# Static dielectric constant tensor:
#      x y z
#    x 1.702330 0.000000 0.000000 
#    y 0.000000 1.660970 0.000000 
#    z 0.000000 0.000000 1.674370 
# 
# From -- ./inp_files/7276.got.cif
#   From: 2010.05.17/outbox.ucp.g08.bks.cvg/sg57_4_cif.got.tgz:7276.got - 2010.06.11 16:39:23.
