data_PCOD9440627
_publ_section_title
;
Structure prediction by ZEFSAII (Michael W. Deem and Ramdas Pophale) SiO2 
 PCOD9440627
Probable space group: P B C M
;
_chemical_formula_sum "Si O2"
_cell_formula_units_Z 56
_cell_length_a 15.000000
_cell_length_b 9.000000
_cell_length_c 21.000000
_cell_angle_alpha 90.000000
_cell_angle_beta 90.000000
_cell_angle_gamma 90.000000
_cell_volume 2835.000000
_symmetry_space_group_name_H-M "P B C M"
_symmetry_group_IT_number 57
_symmetry_cell_setting 'orthorhombic'
loop_
_space_group_symop_operation_xyz
x,y,z
-x,-y,1/2+z
x,1/2-y,-z
-x,1/2+y,1/2-z
-x,-y,-z
x,y,1/2-z
-x,1/2+y,z
x,1/2-y,1/2+z
loop_
_atom_site_type_symbol
_atom_site_label
_atom_site_fract_x
_atom_site_fract_y
_atom_site_fract_z
Si Si1 0.707584 0.292093 0.325482
Si Si2 0.206342 0.993956 0.621961
Si Si3 0.565122 0.143156 0.937646
Si Si4 0.925638 0.741788 0.643795
Si Si5 0.364223 0.097550 0.529868
Si Si6 0.039870 0.871972 0.542885
Si Si7 0.890851 0.427362 0.320757
O O1 0.685477 0.322774 0.250000
O O2 0.623885 0.311075 0.375346
O O3 0.793248 0.391259 0.350054
O O4 0.748175 0.125799 0.331850
O O5 0.162469 0.142820 0.651063
O O6 0.283854 0.028769 0.570703
O O7 0.115654 0.925874 0.591167
O O8 0.457421 0.121470 0.930063
O O9 0.574152 0.250000 0.000000
O O10 0.605986 0.994922 0.967835
O O11 0.952340 0.797322 0.573621
O O12 0.017311 0.652461 0.658546
O O13 0.911402 0.897947 0.678654
O O14 0.331493 0.250000 0.500000
O O15 0.087081 0.750000 0.500000
O O16 0.000000 0.000000 0.500000
O O17 0.877417 0.369568 0.250000
#
# Coordination Sequence:
#
# PCOD9440627 Si02
#       7
#     8   8   8   8   8   8   8
#     4  11  25  45  69  98 132 177 228 279 344 410
#     4  12  25  40  65  96 134 179 220 276 334 409
#     4  10  21  46  73  98 131 168 221 279 342 407
#     4  12  23  41  58  92 130 175 221 273 331 388
#     4  10  24  40  70 104 131 166 220 275 342 413
#     4  12  24  38  56  89 134 171 220 273 332 382
#     4  11  23  41  63  87 122 175 226 269 322 394
#
# _framework density 19.753086
#
# number of rings (size 3 to 8) (size 9 to 14) (size 15 to 20)
#    0.000    0.857    5.714    0.429    6.000    2.286 
#    0.000    0.714    0.000    0.000    0.000    0.000 
#    0.000    0.000    0.000    0.000    0.000    0.000 
#
# Total GULP energy -311854.534061 kJ/mol
# GULP energy per Si atom -5568.830965 kJ/mol
# Density = 1.970813 g / cm^3
# Si number density = 19.753086 Si / 1000 Ang^3
#
#
#
# Elastic Constant Matrix: (Units=GPa)
#
#
# Indices 1 2 3 4 5 6 
#
# 1 115.6302 14.5469 32.5811 0.0000 0.0000 0.0000
# 2 14.5469 88.6436 17.3525 0.0000 0.0000 0.0000
# 3 32.5811 17.3525 71.5572 0.0000 0.0000 0.0000
# 4 0.0000 0.0000 0.0000 24.4604 0.0000 0.0000
# 5 0.0000 0.0000 0.0000 0.0000 25.5874 0.0000
# 6 0.0000 0.0000 0.0000 0.0000 0.0000 32.2947
#
#
#
# Elastic Compliance Matrix: (Units=1/GPa)
#
#
# Indices 1 2 3 4 5 6 
#
# 1 0.009973 -0.000785 -0.004350 0.000000 0.000000 0.000000
# 2 -0.000785 0.011905 -0.002530 0.000000 0.000000 0.000000
# 3 -0.004350 -0.002530 0.016569 0.000000 0.000000 0.000000
# 4 0.000000 0.000000 0.000000 0.040882 0.000000 0.000000
# 5 0.000000 0.000000 0.000000 0.000000 0.039082 0.000000
# 6 0.000000 0.000000 0.000000 0.000000 0.000000 0.030965
#
#
# Mechanical properties :
#
#
# Convention : Reuss Voigt Hill
#
# Bulk Modulus (GPa) = 43.25804 44.97690 44.11747
# Shear Modulus (GPa) = 29.00036 30.55853 29.77944
#
# Velocity S-wave (km/s) = 3.83579 3.93749 3.88697
# Velocity P-wave (km/s) = 6.44707 6.59475 6.52133
#
# Compressibility (1/GPa) = 0.02311709
#
# Stress axis : x y z
#
# Youngs Moduli (GPa) = 100.27242 83.99741 60.35342
#
# Poissons Ratio (x) = 0.06594 0.26256
# Poissons Ratio (y) = 0.07871 0.15267
# Poissons Ratio (z) = 0.43623 0.21248
#
# Static dielectric constant tensor:
#      x y z
#    x 1.850310 0.000000 0.000000 
#    y 0.000000 1.856490 0.000000 
#    z 0.000000 0.000000 1.783090 
# 
# From -- ./inp_files/25417.got.cif
#   From: 2010.05.17/outbox.ucp.g08.bks.cvg/sg57_13_cif.got.tgz:25417.got - 2010.06.11 16:39:23.
