data_PCOD9440914
_publ_section_title
;
Structure prediction by ZEFSAII (Michael W. Deem and Ramdas Pophale) SiO2 
 PCOD9440914
Probable space group: P N N M
;
_chemical_formula_sum "Si O2"
_cell_formula_units_Z 48
_cell_length_a 8.728731
_cell_length_b 21.827114
_cell_length_c 12.269426
_cell_angle_alpha 90.000000
_cell_angle_beta 90.000000
_cell_angle_gamma 90.000000
_cell_volume 2337.607931
_symmetry_space_group_name_H-M "P N N M"
_symmetry_group_IT_number 58
_symmetry_cell_setting 'orthorhombic'
loop_
_space_group_symop_operation_xyz
x,y,z
-x,-y,z
1/2+x,1/2-y,1/2-z
1/2-x,1/2+y,1/2-z
-x,-y,-z
x,y,-z
1/2-x,1/2+y,1/2+z
1/2+x,1/2-y,1/2+z
loop_
_atom_site_type_symbol
_atom_site_label
_atom_site_fract_x
_atom_site_fract_y
_atom_site_fract_z
Si Si1 0.286953 0.972123 0.617148
Si Si2 0.767613 0.391145 0.815012
Si Si3 0.435855 0.367901 0.126357
Si Si4 0.553235 0.774805 0.379795
Si Si5 0.018508 0.431863 0.673888
Si Si6 0.807931 0.688105 0.709586
O O1 0.353197 0.954422 0.500000
O O2 0.125972 0.937547 0.626828
O O3 0.397239 0.949808 0.712650
O O4 0.263176 0.044036 0.625114
O O5 0.597434 0.365089 0.813603
O O6 0.875772 0.342727 0.873915
O O7 0.849286 0.406432 0.700128
O O8 0.303253 0.334089 0.192451
O O9 0.450979 0.348254 0.000000
O O10 0.482889 0.764677 0.500000
O O11 0.696684 0.729305 0.363292
O O12 0.439566 0.774816 0.275490
O O13 0.118599 0.370834 0.645445
O O14 0.000000 0.500000 0.619951
#
# Coordination Sequence:
#
# PCOD9440914 Si02
#       6
#     8   8   8   8   8   8
#     4   9  16  25  39  64  99 135 169 205 249 307
#     4  10  18  27  43  69 101 136 170 206 254 313
#     4  10  18  28  45  70 101 135 171 211 255 305
#     4  11  22  36  54  75 103 138 174 213 259 313
#     4   8  17  30  46  68  97 133 174 216 262 308
#     4  10  21  36  52  73 103 136 176 217 260 313
#
# _framework density 20.533809999999999
#
# number of rings (size 3 to 8) (size 9 to 14) (size 15 to 20)
#    0.000    2.333    0.000    3.500    0.000    9.000 
#    0.000    0.833    0.000    0.500    0.000    0.000 
#    0.000   78.667    0.000    0.000    0.000    1.500 
#
# Total GULP energy -267307.369825 kJ/mol
# GULP energy per Si atom -5568.903538 kJ/mol
# Density = 2.048707 g / cm^3
# Si number density = 20.533810 Si / 1000 Ang^3
#
#
#
# Elastic Constant Matrix: (Units=GPa)
#
#
# Indices 1 2 3 4 5 6 
#
# 1 90.7487 11.9773 9.8936 0.0000 0.0000 0.0000
# 2 11.9773 96.4828 17.7194 0.0000 0.0000 0.0000
# 3 9.8936 17.7194 43.7922 0.0000 0.0000 0.0000
# 4 0.0000 0.0000 0.0000 4.6273 0.0000 0.0000
# 5 0.0000 0.0000 0.0000 0.0000 6.8990 0.0000
# 6 0.0000 0.0000 0.0000 0.0000 0.0000 39.6226
#
#
#
# Elastic Compliance Matrix: (Units=1/GPa)
#
#
# Indices 1 2 3 4 5 6 
#
# 1 0.011389 -0.001017 -0.002162 0.000000 0.000000 0.000000
# 2 -0.001017 0.011287 -0.004337 0.000000 0.000000 0.000000
# 3 -0.002162 -0.004337 0.025079 0.000000 0.000000 0.000000
# 4 0.000000 0.000000 0.000000 0.216107 0.000000 0.000000
# 5 0.000000 0.000000 0.000000 0.000000 0.144948 0.000000
# 6 0.000000 0.000000 0.000000 0.000000 0.000000 0.025238
#
#
# Mechanical properties :
#
#
# Convention : Reuss Voigt Hill
#
# Bulk Modulus (GPa) = 30.55922 34.46714 32.51318
# Shear Modulus (GPa) = 10.86986 22.99201 16.93094
#
# Velocity S-wave (km/s) = 2.30329 3.34984 2.87459
# Velocity P-wave (km/s) = 4.68916 5.63772 5.18518
#
# Compressibility (1/GPa) = 0.03272335
#
# Stress axis : x y z
#
# Youngs Moduli (GPa) = 87.80162 88.59467 39.87477
#
# Poissons Ratio (x) = 0.09009 0.08619
# Poissons Ratio (y) = 0.08928 0.17295
# Poissons Ratio (z) = 0.18980 0.38427
#
# Static dielectric constant tensor:
#      x y z
#    x 1.769610 0.000000 0.000000 
#    y 0.000000 1.798230 0.000000 
#    z 0.000000 0.000000 1.742010 
# 
# From -- ./inp_files/13074.got.cif
#   From: 2010.05.17/outbox.cif.g08.bks.cpg/sg58_7_cif.got.tgz:13074.got - 2010.06.03 14:20:14.
