data_PCOD9440456
_publ_section_title
;
Structure prediction by ZEFSAII (Michael W. Deem and Ramdas Pophale) SiO2 
 PCOD9440456
Probable space group: P B C M
;
_chemical_formula_sum "Si O2"
_cell_formula_units_Z 64
_cell_length_a 21.000000
_cell_length_b 18.000000
_cell_length_c 9.000000
_cell_angle_alpha 90.000000
_cell_angle_beta 90.000000
_cell_angle_gamma 90.000000
_cell_volume 3402.000000
_symmetry_space_group_name_H-M "P B C M"
_symmetry_group_IT_number 57
_symmetry_cell_setting 'orthorhombic'
loop_
_space_group_symop_operation_xyz
x,y,z
-x,-y,1/2+z
x,1/2-y,-z
-x,1/2+y,1/2-z
-x,-y,-z
x,y,1/2-z
-x,1/2+y,z
x,1/2-y,1/2+z
loop_
_atom_site_type_symbol
_atom_site_label
_atom_site_fract_x
_atom_site_fract_y
_atom_site_fract_z
Si Si1 0.354527 0.440911 0.929446
Si Si2 0.984326 0.169329 0.072280
Si Si3 0.113881 0.413630 0.570838
Si Si4 0.753160 0.172375 0.572044
Si Si5 0.242709 0.170758 0.427859
Si Si6 0.140744 0.572480 0.071988
Si Si7 0.506700 0.919215 0.572620
Si Si8 0.368452 0.604224 0.071086
O O1 0.351896 0.454911 0.750000
O O2 0.294276 0.391412 0.972584
O O3 0.420746 0.396868 0.961933
O O4 0.356728 0.519606 0.014093
O O5 0.987465 0.178115 0.250000
O O6 0.046823 0.122906 0.026980
O O7 0.920482 0.123746 0.037819
O O8 0.983615 0.250000 0.000000
O O9 0.113665 0.426052 0.750000
O O10 0.172109 0.358406 0.535936
O O11 0.126302 0.490594 0.487901
O O12 0.775038 0.250000 0.500000
O O13 0.754538 0.175885 0.750000
O O14 0.798921 0.107674 0.511149
O O15 0.682695 0.154825 0.511437
O O16 0.255298 0.250000 0.500000
O O17 0.247115 0.177968 0.250000
O O18 0.150972 0.572209 0.250000
O O19 0.503405 0.927461 0.750000
O O20 0.442076 0.876286 0.531152
O O21 0.500000 0.000000 0.500000
O O22 0.360299 0.608267 0.250000
#
# Coordination Sequence:
#
# PCOD9440456 Si02
#       8
#     8   8   8   8   8   8   8   8
#     4   9  17  32  53  79 110 147 186 226 274 327
#     4  10  22  38  58  85 118 152 188 227 273 325
#     4  10  21  38  58  84 115 149 187 227 270 321
#     4  12  25  41  59  80 109 145 182 228 282 339
#     4  10  21  35  53  76 106 143 183 224 271 322
#     4  11  23  39  60  87 113 144 186 231 277 329
#     4   8  15  28  49  76 108 141 179 225 270 320
#     4  10  19  33  55  83 110 141 182 228 275 329
#
# _framework density 18.812463000000001
#
# number of rings (size 3 to 8) (size 9 to 14) (size 15 to 20)
#    0.000    2.000    0.000    3.750    0.000    5.000 
#    0.000    0.625    0.000    1.500    0.000    0.000 
#    0.000    0.000    0.000    0.000    0.000    0.000 
#
# Total GULP energy -357263.419209 kJ/mol
# GULP energy per Si atom -5582.240925 kJ/mol
# Density = 1.876965 g / cm^3
# Si number density = 18.812463 Si / 1000 Ang^3
#
#
#
# Elastic Constant Matrix: (Units=GPa)
#
#
# Indices 1 2 3 4 5 6 
#
# 1 70.0718 -11.8009 17.0263 0.0000 0.0000 0.0000
# 2 -11.8009 53.1707 14.1636 0.0000 0.0000 0.0000
# 3 17.0263 14.1636 45.7049 0.0000 0.0000 0.0000
# 4 0.0000 0.0000 0.0000 35.5382 0.0000 0.0000
# 5 0.0000 0.0000 0.0000 0.0000 15.2501 0.0000
# 6 0.0000 0.0000 0.0000 0.0000 0.0000 14.6297
#
#
#
# Elastic Compliance Matrix: (Units=1/GPa)
#
#
# Indices 1 2 3 4 5 6 
#
# 1 0.017316 0.006062 -0.008329 0.000000 0.000000 0.000000
# 2 0.006062 0.022622 -0.009268 0.000000 0.000000 0.000000
# 3 -0.008329 -0.009268 0.027855 0.000000 0.000000 0.000000
# 4 0.000000 0.000000 0.000000 0.028139 0.000000 0.000000
# 5 0.000000 0.000000 0.000000 0.000000 0.065573 0.000000
# 6 0.000000 0.000000 0.000000 0.000000 0.000000 0.068354
#
#
# Mechanical properties :
#
#
# Convention : Reuss Voigt Hill
#
# Bulk Modulus (GPa) = 22.36109 23.08058 22.72083
# Shear Modulus (GPa) = 18.66812 23.05417 20.86114
#
# Velocity S-wave (km/s) = 3.15354 3.50447 3.33363
# Velocity P-wave (km/s) = 5.01716 5.35449 5.18856
#
# Compressibility (1/GPa) = 0.04472054
#
# Stress axis : x y z
#
# Youngs Moduli (GPa) = 57.75070 44.20543 35.90082
#
# Poissons Ratio (x) = -0.26797 0.29902
# Poissons Ratio (y) = -0.35008 0.33275
# Poissons Ratio (z) = 0.48101 0.40972
#
# Static dielectric constant tensor:
#      x y z
#    x 1.689750 0.000000 0.000000 
#    y 0.000000 1.619250 0.000000 
#    z 0.000000 0.000000 1.622020 
# 
# From -- ./inp_files/8408.got.cif
#   From: 2010.05.17/outbox.ucp.g08.bks.cvg/sg57_5_cif.got.tgz:8408.got - 2010.06.11 16:39:23.
