data_PCOD9440957
_publ_section_title
;
Structure prediction by ZEFSAII (Michael W. Deem and Ramdas Pophale) SiO2 
 PCOD9440957
Probable space group: P N N M
;
_chemical_formula_sum "Si O2"
_cell_formula_units_Z 40
_cell_length_a 18.505905
_cell_length_b 14.216468
_cell_length_c 7.384244
_cell_angle_alpha 90.000000
_cell_angle_beta 90.000000
_cell_angle_gamma 90.000000
_cell_volume 1942.710462
_symmetry_space_group_name_H-M "P N N M"
_symmetry_group_IT_number 58
_symmetry_cell_setting 'orthorhombic'
loop_
_space_group_symop_operation_xyz
x,y,z
-x,-y,z
1/2+x,1/2-y,1/2-z
1/2-x,1/2+y,1/2-z
-x,-y,-z
x,y,-z
1/2-x,1/2+y,1/2+z
1/2+x,1/2-y,1/2+z
loop_
_atom_site_type_symbol
_atom_site_label
_atom_site_fract_x
_atom_site_fract_y
_atom_site_fract_z
Si Si1 0.468359 0.099165 0.220999
Si Si2 0.474006 0.701457 0.779522
Si Si3 0.129847 0.875244 0.720689
Si Si4 0.338454 0.582927 0.213988
Si Si5 0.314817 0.176532 0.782455
O O1 0.514694 0.190432 0.277164
O O2 0.385855 0.119273 0.278265
O O3 0.500000 0.000000 0.282508
O O4 0.468660 0.097853 0.000000
O O5 0.546589 0.644911 0.728798
O O6 0.402042 0.650066 0.714056
O O7 0.472672 0.703037 0.000000
O O8 0.132233 0.875031 0.500000
O O9 0.175684 0.784380 0.780644
O O10 0.156361 0.976525 0.785571
O O11 0.260245 0.628722 0.234773
O O12 0.352658 0.575006 0.000000
O O13 0.318385 0.178836 0.000000
#
# Coordination Sequence:
#
# PCOD9440957 Si02
#       5
#     8   8   8   8   8
#     4   8  14  26  44  64  86 114 149 185 216 250
#     4   8  14  25  43  65  84 109 150 188 213 249
#     4   8  15  29  46  63  87 119 149 179 219 263
#     4  10  18  28  47  71  90 111 147 191 223 253
#     4   9  18  31  45  64  93 122 144 174 223 274
#
# _framework density 20.589789
#
# number of rings (size 3 to 8) (size 9 to 14) (size 15 to 20)
#    0.000    3.400    0.000    3.000    0.000    4.000 
#    0.000    3.000    0.000    7.800    0.000    0.000 
#    0.000    0.000    0.000    0.000    0.000    0.000 
#
# Total GULP energy -223135.252879 kJ/mol
# GULP energy per Si atom -5578.381322 kJ/mol
# Density = 2.054293 g / cm^3
# Si number density = 20.589789 Si / 1000 Ang^3
#
#
#
# Elastic Constant Matrix: (Units=GPa)
#
#
# Indices 1 2 3 4 5 6 
#
# 1 147.1130 154.7152 -3.9786 0.0000 0.0000 0.0000
# 2 154.7152 236.7381 5.1713 0.0000 0.0000 0.0000
# 3 -3.9786 5.1713 67.7888 0.0000 0.0000 0.0000
# 4 0.0000 0.0000 0.0000 -3.0749 0.0000 0.0000
# 5 0.0000 0.0000 0.0000 0.0000 18.9925 0.0000
# 6 0.0000 0.0000 0.0000 0.0000 0.0000 26.2090
#
#
#
# Elastic Compliance Matrix: (Units=1/GPa)
#
#
# Indices 1 2 3 4 5 6 
#
# 1 0.022123 -0.014510 0.002405 0.000000 0.000000 0.000000
# 2 -0.014510 0.013749 -0.001900 0.000000 0.000000 0.000000
# 3 0.002405 -0.001900 0.015038 0.000000 0.000000 0.000000
# 4 0.000000 0.000000 0.000000 -0.325219 0.000000 0.000000
# 5 0.000000 0.000000 0.000000 0.000000 0.052652 0.000000
# 6 0.000000 0.000000 0.000000 0.000000 0.000000 0.038155
#
#
# Mechanical properties :
#
#
# Convention : Reuss Voigt Hill
#
# Bulk Modulus (GPa) = 43.67162 84.82840 64.25001
# Shear Modulus (GPa) = -33.81612 28.14081 -2.83766
#
# Velocity S-wave (km/s) = -4.05702 3.70095 -1.17524
# Velocity P-wave (km/s) = 0.83035 7.71696 5.42503
#
# Compressibility (1/GPa) = 0.02289817
#
# Stress axis : x y z
#
# Youngs Moduli (GPa) = 45.20217 72.73475 66.49886
#
# Poissons Ratio (x) = 1.05541 -0.15995
# Poissons Ratio (y) = 0.65590 0.12638
# Poissons Ratio (z) = -0.10873 0.13823
#
# Static dielectric constant tensor:
#      x y z
#    x 1.687770 0.000000 0.000000 
#    y 0.000000 1.725020 0.000000 
#    z 0.000000 0.000000 1.816160 
# 
# From -- ./inp_files/5364.got.cif
#   From: 2010.05.17/outbox.cif.g08.bks.cpg/sg58_3_cif.got.tgz:5364.got - 2010.06.03 14:20:14.
