data_PCOD9440903
_publ_section_title
;
Structure prediction by ZEFSAII (Michael W. Deem and Ramdas Pophale) SiO2 
 PCOD9440903
Probable space group: P N N M
;
_chemical_formula_sum "Si O2"
_cell_formula_units_Z 64
_cell_length_a 27.176683
_cell_length_b 18.525271
_cell_length_c 9.084456
_cell_angle_alpha 90.000000
_cell_angle_beta 90.000000
_cell_angle_gamma 90.000000
_cell_volume 4573.618588
_symmetry_space_group_name_H-M "P N N M"
_symmetry_group_IT_number 58
_symmetry_cell_setting 'orthorhombic'
loop_
_space_group_symop_operation_xyz
x,y,z
-x,-y,z
1/2+x,1/2-y,1/2-z
1/2-x,1/2+y,1/2-z
-x,-y,-z
x,y,-z
1/2-x,1/2+y,1/2+z
1/2+x,1/2-y,1/2+z
loop_
_atom_site_type_symbol
_atom_site_label
_atom_site_fract_x
_atom_site_fract_y
_atom_site_fract_z
Si Si1 0.942307 0.916326 0.821873
Si Si2 0.200613 0.698178 0.669263
Si Si3 0.354910 0.669747 0.824813
Si Si4 0.243955 0.919097 0.175203
Si Si5 0.944800 0.082699 0.821498
Si Si6 0.242983 0.074761 0.324929
Si Si7 0.646558 0.676823 0.676167
Si Si8 0.699789 0.204870 0.330233
O O1 0.903256 0.864597 0.746214
O O2 0.998985 0.900416 0.780000
O O3 0.932939 0.000073 0.778864
O O4 0.938166 0.911469 0.000000
O O5 0.188892 0.681568 0.500000
O O6 0.215054 0.626885 0.758878
O O7 0.159847 0.748694 0.744154
O O8 0.250245 0.747029 0.670776
O O9 0.309155 0.615001 0.796821
O O10 0.340088 0.745690 0.751419
O O11 0.359709 0.677753 0.000000
O O12 0.191683 0.878883 0.201748
O O13 0.285551 0.867978 0.246114
O O14 0.243425 0.997403 0.247957
O O15 0.250567 0.924324 0.000000
O O16 0.903524 0.138738 0.771669
O O17 0.943703 0.082876 0.000000
O O18 0.248725 0.067645 0.500000
O O19 0.644178 0.688803 0.500000
O O20 0.686613 0.191399 0.500000
#
# Coordination Sequence:
#
# PCOD9440903 Si02
#       8
#     8   8   8   8   8   8   8   8
#     4   9  16  28  44  60  80 109 144 177 208 243
#     4   9  17  28  41  58  79 104 136 172 206 241
#     4  10  19  29  41  59  83 110 141 176 211 244
#     4  10  18  27  42  63  85 108 136 171 207 243
#     4   8  15  27  43  61  81 108 143 177 205 242
#     4  10  19  29  41  58  82 111 140 169 203 246
#     4   9  16  27  42  59  81 110 140 169 205 245
#     4   9  17  29  43  58  79 108 139 169 203 246
#
# _framework density 13.993296000000001
#
# number of rings (size 3 to 8) (size 9 to 14) (size 15 to 20)
#    0.000    2.750    0.000    3.375    0.000    6.000 
#    0.000    2.500    0.000    0.000    0.000    0.000 
#    0.000    1.000    0.000   10.750    0.000    4.750 
#
# Total GULP energy -356608.706702 kJ/mol
# GULP energy per Si atom -5572.011042 kJ/mol
# Density = 1.396145 g / cm^3
# Si number density = 13.993296 Si / 1000 Ang^3
#
#
#
# Elastic Constant Matrix: (Units=GPa)
#
#
# Indices 1 2 3 4 5 6 
#
# 1 78.7032 42.6225 40.9105 0.0000 0.0000 0.0000
# 2 42.6225 86.5051 58.7362 0.0000 0.0000 0.0000
# 3 40.9105 58.7362 70.0498 0.0000 0.0000 0.0000
# 4 0.0000 0.0000 0.0000 26.0295 0.0000 0.0000
# 5 0.0000 0.0000 0.0000 0.0000 17.4340 0.0000
# 6 0.0000 0.0000 0.0000 0.0000 0.0000 27.7534
#
#
#
# Elastic Compliance Matrix: (Units=1/GPa)
#
#
# Indices 1 2 3 4 5 6 
#
# 1 0.018885 -0.004217 -0.007493 0.000000 0.000000 0.000000
# 2 -0.004217 0.027784 -0.020833 0.000000 0.000000 0.000000
# 3 -0.007493 -0.020833 0.036120 0.000000 0.000000 0.000000
# 4 0.000000 0.000000 0.000000 0.038418 0.000000 0.000000
# 5 0.000000 0.000000 0.000000 0.000000 0.057359 0.000000
# 6 0.000000 0.000000 0.000000 0.000000 0.000000 0.036032
#
#
# Mechanical properties :
#
#
# Convention : Reuss Voigt Hill
#
# Bulk Modulus (GPa) = 56.49258 57.75517 57.12387
# Shear Modulus (GPa) = 17.50791 20.44263 18.97527
#
# Velocity S-wave (km/s) = 3.54102 3.82630 3.68642
# Velocity P-wave (km/s) = 7.56156 7.80281 7.68313
#
# Compressibility (1/GPa) = 0.01770144
#
# Stress axis : x y z
#
# Youngs Moduli (GPa) = 52.95288 35.99244 27.68519
#
# Poissons Ratio (x) = 0.15178 0.20745
# Poissons Ratio (y) = 0.22331 0.57678
# Poissons Ratio (z) = 0.39678 0.74985
#
# Static dielectric constant tensor:
#      x y z
#    x 1.446780 0.000000 0.000000 
#    y 0.000000 1.441600 0.000000 
#    z 0.000000 0.000000 1.465650 
# 
# From -- ./inp_files/8461.got.cif
#   From: 2010.05.17/outbox.cif.g08.bks.cpg/sg58_5_cif.got.tgz:8461.got - 2010.06.03 14:20:14.
