data_PCOD9440446
_publ_section_title
;
Structure prediction by ZEFSAII (Michael W. Deem and Ramdas Pophale) SiO2 
 PCOD9440446
Probable space group: P B C M
;
_chemical_formula_sum "Si O2"
_cell_formula_units_Z 56
_cell_length_a 18.000000
_cell_length_b 21.000000
_cell_length_c 9.000000
_cell_angle_alpha 90.000000
_cell_angle_beta 90.000000
_cell_angle_gamma 90.000000
_cell_volume 3402.000000
_symmetry_space_group_name_H-M "P B C M"
_symmetry_group_IT_number 57
_symmetry_cell_setting 'orthorhombic'
loop_
_space_group_symop_operation_xyz
x,y,z
-x,-y,1/2+z
x,1/2-y,-z
-x,1/2+y,1/2-z
-x,-y,-z
x,y,1/2-z
-x,1/2+y,z
x,1/2-y,1/2+z
loop_
_atom_site_type_symbol
_atom_site_label
_atom_site_fract_x
_atom_site_fract_y
_atom_site_fract_z
Si Si1 0.053053 0.318586 0.070957
Si Si2 0.796717 0.625893 0.427838
Si Si3 0.529636 0.906486 0.576436
Si Si4 0.213391 0.525337 0.927485
Si Si5 0.647357 0.818754 0.072747
Si Si6 0.384760 0.541983 0.574532
Si Si7 0.047953 0.558146 0.570375
O O1 0.059217 0.312875 0.250000
O O2 0.993491 0.374914 0.038066
O O3 0.033701 0.250000 0.000000
O O4 0.131846 0.341097 0.002000
O O5 0.796027 0.637927 0.250000
O O6 0.798881 0.549927 0.451612
O O7 0.720942 0.649866 0.501964
O O8 0.528405 0.887950 0.750000
O O9 0.574425 0.857181 0.476271
O O10 0.445943 0.918125 0.517389
O O11 0.579713 0.970966 0.566554
O O12 0.216427 0.536014 0.750000
O O13 0.298080 0.542832 0.978967
O O14 0.135140 0.556869 0.979597
O O15 0.654208 0.816205 0.250000
O O16 0.642041 0.750000 0.000000
O O17 0.385859 0.559827 0.750000
O O18 0.047531 0.549427 0.750000
O O19 0.000000 0.500000 0.500000
#
# Coordination Sequence:
#
# PCOD9440446 Si02
#       7
#     8   8   8   8   8   8   8
#     4  11  23  37  54  79 110 147 189 228 274 333
#     4  11  20  35  56  79 110 146 181 221 273 328
#     4  10  19  33  52  78 107 138 177 217 260 314
#     4   9  17  32  55  80 109 141 176 222 276 326
#     4  12  24  37  53  76 109 146 183 221 265 320
#     4   9  17  32  53  77 104 138 174 213 266 318
#     4  10  20  35  56  82 108 141 184 232 281 332
#
# _framework density 16.460905
#
# number of rings (size 3 to 8) (size 9 to 14) (size 15 to 20)
#    0.000    1.714    2.857    3.000    0.000    1.143 
#    0.000    0.714    0.000    0.857    0.000    2.000 
#    0.000    0.000    0.000    0.000    0.000    0.000 
#
# Total GULP energy -312312.457341 kJ/mol
# GULP energy per Si atom -5577.008167 kJ/mol
# Density = 1.642344 g / cm^3
# Si number density = 16.460905 Si / 1000 Ang^3
#
#
#
# Elastic Constant Matrix: (Units=GPa)
#
#
# Indices 1 2 3 4 5 6 
#
# 1 162.6672 62.1759 44.0638 0.0000 0.0000 0.0000
# 2 62.1759 81.1109 50.1642 0.0000 0.0000 0.0000
# 3 44.0638 50.1642 90.1355 0.0000 0.0000 0.0000
# 4 0.0000 0.0000 0.0000 22.9558 0.0000 0.0000
# 5 0.0000 0.0000 0.0000 0.0000 26.6730 0.0000
# 6 0.0000 0.0000 0.0000 0.0000 0.0000 18.1884
#
#
#
# Elastic Compliance Matrix: (Units=1/GPa)
#
#
# Indices 1 2 3 4 5 6 
#
# 1 0.008736 -0.006184 -0.000829 0.000000 0.000000 0.000000
# 2 -0.006184 0.023177 -0.009876 0.000000 0.000000 0.000000
# 3 -0.000829 -0.009876 0.016996 0.000000 0.000000 0.000000
# 4 0.000000 0.000000 0.000000 0.043562 0.000000 0.000000
# 5 0.000000 0.000000 0.000000 0.000000 0.037491 0.000000
# 6 0.000000 0.000000 0.000000 0.000000 0.000000 0.054980
#
#
# Mechanical properties :
#
#
# Convention : Reuss Voigt Hill
#
# Bulk Modulus (GPa) = 66.08825 71.85794 68.97309
# Shear Modulus (GPa) = 22.34508 25.39740 23.87124
#
# Velocity S-wave (km/s) = 3.68837 3.93223 3.81225
# Velocity P-wave (km/s) = 7.64033 8.02278 7.83389
#
# Compressibility (1/GPa) = 0.01513128
#
# Stress axis : x y z
#
# Youngs Moduli (GPa) = 114.47349 43.14661 58.83694
#
# Poissons Ratio (x) = 0.26680 0.04878
# Poissons Ratio (y) = 0.70786 0.58107
# Poissons Ratio (z) = 0.09491 0.42611
#
# Static dielectric constant tensor:
#      x y z
#    x 1.570720 0.000000 0.000000 
#    y 0.000000 1.586340 0.000000 
#    z 0.000000 0.000000 1.549120 
# 
# From -- ./inp_files/7058.got.cif
#   From: 2010.05.17/outbox.ucp.g08.bks.cvg/sg57_4_cif.got.tgz:7058.got - 2010.06.11 16:39:23.
