data_PCOD9440488
_publ_section_title
;
Structure prediction by ZEFSAII (Michael W. Deem and Ramdas Pophale) SiO2 
 PCOD9440488
Probable space group: P B C M
;
_chemical_formula_sum "Si O2"
_cell_formula_units_Z 56
_cell_length_a 6.000000
_cell_length_b 15.000000
_cell_length_c 30.000000
_cell_angle_alpha 90.000000
_cell_angle_beta 90.000000
_cell_angle_gamma 90.000000
_cell_volume 2700.000000
_symmetry_space_group_name_H-M "P B C M"
_symmetry_group_IT_number 57
_symmetry_cell_setting 'orthorhombic'
loop_
_space_group_symop_operation_xyz
x,y,z
-x,-y,1/2+z
x,1/2-y,-z
-x,1/2+y,1/2-z
-x,-y,-z
x,y,1/2-z
-x,1/2+y,z
x,1/2-y,1/2+z
loop_
_atom_site_type_symbol
_atom_site_label
_atom_site_fract_x
_atom_site_fract_y
_atom_site_fract_z
Si Si1 0.216924 0.342100 0.471483
Si Si2 0.974181 0.805044 0.122179
Si Si3 0.058406 0.118779 0.750000
Si Si4 0.971485 0.003960 0.662752
Si Si5 0.338539 0.168247 0.330543
Si Si6 0.273514 0.867116 0.895346
Si Si7 0.453168 0.772960 0.250000
Si Si8 0.284525 0.858678 0.998493
O O1 0.218325 0.250000 0.500000
O O2 0.192201 0.322125 0.419058
O O3 0.467149 0.383408 0.480982
O O4 0.966769 0.384269 0.482783
O O5 0.835730 0.749439 0.159840
O O6 0.077246 0.902269 0.135424
O O7 0.151827 0.729589 0.107818
O O8 0.055681 0.052413 0.707624
O O9 0.803275 0.176710 0.750000
O O10 0.308131 0.168165 0.750000
O O11 0.789227 0.927097 0.676990
O O12 0.142575 0.943353 0.633207
O O13 0.484854 0.147659 0.374112
O O14 0.507394 0.207656 0.292860
O O15 0.285461 0.890447 0.947278
O O16 0.283645 0.750000 0.000000
#
# Coordination Sequence:
#
# PCOD9440488 Si02
#       8
#     8   8   4   8   8   8   4   8
#     4  10  19  36  66  97 134 191 242 295 357 425
#     4  11  22  44  69 103 144 195 247 302 375 447
#     4  12  27  53  76 109 148 190 244 292 375 444
#     4  11  27  45  73 110 150 189 245 318 371 450
#     4  11  25  44  73 105 146 194 242 308 368 452
#     4  11  24  42  72 104 147 193 252 301 379 437
#     4  12  27  49  82 107 140 198 242 290 377 446
#     4  10  19  37  65  97 137 193 239 297 354 429
#
# _framework density 20.740741
#
# number of rings (size 3 to 8) (size 9 to 14) (size 15 to 20)
#    0.000    1.143    4.286    3.000    6.000    1.714 
#    0.000    1.429    0.000    0.000    0.000    0.000 
#    0.000    0.000    0.000    0.000    0.000    0.000 
#
# Total GULP energy -311741.675407 kJ/mol
# GULP energy per Si atom -5566.815632 kJ/mol
# Density = 2.069353 g / cm^3
# Si number density = 20.740741 Si / 1000 Ang^3
#
#
#
# Elastic Constant Matrix: (Units=GPa)
#
#
# Indices 1 2 3 4 5 6 
#
# 1 110.6851 15.5865 -16.2256 0.0000 0.0000 0.0000
# 2 15.5865 118.6445 8.3031 0.0000 0.0000 0.0000
# 3 -16.2256 8.3031 60.3886 0.0000 0.0000 0.0000
# 4 0.0000 0.0000 0.0000 29.0201 0.0000 0.0000
# 5 0.0000 0.0000 0.0000 0.0000 36.3471 0.0000
# 6 0.0000 0.0000 0.0000 0.0000 0.0000 25.8517
#
#
#
# Elastic Compliance Matrix: (Units=1/GPa)
#
#
# Indices 1 2 3 4 5 6 
#
# 1 0.009650 -0.001463 0.002794 0.000000 0.000000 0.000000
# 2 -0.001463 0.008732 -0.001594 0.000000 0.000000 0.000000
# 3 0.002794 -0.001594 0.017529 0.000000 0.000000 0.000000
# 4 0.000000 0.000000 0.000000 0.034459 0.000000 0.000000
# 5 0.000000 0.000000 0.000000 0.000000 0.027513 0.000000
# 6 0.000000 0.000000 0.000000 0.000000 0.000000 0.038682
#
#
# Mechanical properties :
#
#
# Convention : Reuss Voigt Hill
#
# Bulk Modulus (GPa) = 28.25989 33.89403 31.07696
# Shear Modulus (GPa) = 33.58257 37.04740 35.31498
#
# Velocity S-wave (km/s) = 4.02824 4.23095 4.13084
# Velocity P-wave (km/s) = 5.94058 6.34390 6.14555
#
# Compressibility (1/GPa) = 0.03538584
#
# Stress axis : x y z
#
# Youngs Moduli (GPa) = 103.62375 114.51712 57.04736
#
# Poissons Ratio (x) = 0.16757 -0.15940
# Poissons Ratio (y) = 0.15163 0.09092
# Poissons Ratio (z) = -0.28953 0.18252
#
# Static dielectric constant tensor:
#      x y z
#    x 1.804270 0.000000 0.000000 
#    y 0.000000 1.750990 0.000000 
#    z 0.000000 0.000000 1.803160 
# 
# From -- ./inp_files/29209.got.cif
#   From: 2010.05.17/outbox.ucp.g08.bks.cvg/sg57_15_cif.got.tgz:29209.got - 2010.06.11 16:39:23.
