data_PCOD9440251
_publ_section_title
;
Structure prediction by ZEFSAII (Michael W. Deem and Ramdas Pophale) SiO2 
 PCOD9440251
Probable space group: P B C M
;
_chemical_formula_sum "Si O2"
_cell_formula_units_Z 40
_cell_length_a 22.498335
_cell_length_b 8.553312
_cell_length_c 10.211728
_cell_angle_alpha 90.000000
_cell_angle_beta 90.000000
_cell_angle_gamma 90.000000
_cell_volume 1965.096724
_symmetry_space_group_name_H-M "P B C M"
_symmetry_group_IT_number 57
_symmetry_cell_setting 'orthorhombic'
loop_
_space_group_symop_operation_xyz
x,y,z
-x,-y,1/2+z
x,1/2-y,-z
-x,1/2+y,1/2-z
-x,-y,-z
x,y,1/2-z
-x,1/2+y,z
x,1/2-y,1/2+z
loop_
_atom_site_type_symbol
_atom_site_label
_atom_site_fract_x
_atom_site_fract_y
_atom_site_fract_z
Si Si1 0.875176 0.064434 0.020388
Si Si2 0.548869 0.072915 0.250000
Si Si3 0.742795 0.107195 0.100211
Si Si4 0.372740 0.065385 0.518707
Si Si5 0.952743 0.920599 0.250000
Si Si6 0.081921 0.441440 0.750000
Si Si7 0.418771 0.562356 0.750000
O O1 0.808986 0.042536 0.076687
O O2 0.922874 0.998407 0.122490
O O3 0.884058 0.250000 0.000000
O O4 0.882180 0.981499 0.880870
O O5 0.563362 0.256274 0.250000
O O6 0.578857 0.995984 0.122430
O O7 0.479061 0.039447 0.250000
O O8 0.738002 0.162612 0.250000
O O9 0.691676 0.981731 0.073445
O O10 0.734420 0.250000 0.000000
O O11 0.378421 0.250000 0.500000
O O12 0.383156 0.980453 0.380536
O O13 0.938469 0.737606 0.250000
O O14 0.022685 0.952648 0.250000
#
# Coordination Sequence:
#
# PCOD9440251 Si02
#       7
#     8   4   8   8   4   4   4
#     4  11  24  44  70  98 134 177 225 278 335 401
#     4  12  24  47  68  99 140 175 231 275 339 404
#     4  11  25  46  73 101 136 178 226 277 339 407
#     4  12  26  44  69 101 138 178 226 281 336 398
#     4  12  24  45  66 101 138 177 225 277 337 404
#     4  12  26  41  70  99 136 179 223 279 339 400
#     4  12  26  43  72 101 134 185 221 281 337 408
#
# _framework density 20.355232999999998
#
# number of rings (size 3 to 8) (size 9 to 14) (size 15 to 20)
#    0.000    0.400    2.000    7.200    5.600    1.600 
#    0.000    0.000    0.000    0.000    0.000    0.000 
#    0.000    0.000    0.000    0.000    0.000    0.000 
#
# Total GULP energy -224088.333099 kJ/mol
# GULP energy per Si atom -5602.208327 kJ/mol
# Density = 2.030890 g / cm^3
# Si number density = 20.355233 Si / 1000 Ang^3
#
#
#
# Elastic Constant Matrix: (Units=GPa)
#
#
# Indices 1 2 3 4 5 6 
#
# 1 57.0293 17.1691 27.9452 0.0000 0.0000 0.0000
# 2 17.1691 104.2307 29.6665 0.0000 0.0000 0.0000
# 3 27.9452 29.6665 174.2263 0.0000 0.0000 0.0000
# 4 0.0000 0.0000 0.0000 54.9874 0.0000 0.0000
# 5 0.0000 0.0000 0.0000 0.0000 30.2588 0.0000
# 6 0.0000 0.0000 0.0000 0.0000 0.0000 18.1262
#
#
#
# Elastic Compliance Matrix: (Units=1/GPa)
#
#
# Indices 1 2 3 4 5 6 
#
# 1 0.019610 -0.002454 -0.002728 0.000000 0.000000 0.000000
# 2 -0.002454 0.010390 -0.001376 0.000000 0.000000 0.000000
# 3 -0.002728 -0.001376 0.006411 0.000000 0.000000 0.000000
# 4 0.000000 0.000000 0.000000 0.018186 0.000000 0.000000
# 5 0.000000 0.000000 0.000000 0.000000 0.033048 0.000000
# 6 0.000000 0.000000 0.000000 0.000000 0.000000 0.055169
#
#
# Mechanical properties :
#
#
# Convention : Reuss Voigt Hill
#
# Bulk Modulus (GPa) = 42.92332 53.89422 48.40877
# Shear Modulus (GPa) = 30.54480 38.05485 34.29982
#
# Velocity S-wave (km/s) = 3.87794 4.32850 4.10940
# Velocity P-wave (km/s) = 6.41749 7.17744 6.80807
#
# Compressibility (1/GPa) = 0.02329736
#
# Stress axis : x y z
#
# Youngs Moduli (GPa) = 50.99404 96.24804 155.97295
#
# Poissons Ratio (x) = 0.23618 0.42542
# Poissons Ratio (y) = 0.12513 0.21455
# Poissons Ratio (z) = 0.13909 0.13239
#
# Static dielectric constant tensor:
#      x y z
#    x 1.698060 0.000000 0.000000 
#    y 0.000000 1.678660 0.000000 
#    z 0.000000 0.000000 1.695500 
# 
# From -- ./inp_files/9018.got.cif
#   From: 2010.05.17/outbox.cif.g08.bks.cpg/sg57_5_cif.got.tgz:9018.got - 2010.06.03 13:58:18.
