data_PCOD9440752
_publ_section_title
;
Structure prediction by ZEFSAII (Michael W. Deem and Ramdas Pophale) SiO2 
 PCOD9440752
Probable space group: P N N M
;
_chemical_formula_sum "Si O2"
_cell_formula_units_Z 52
_cell_length_a 20.036920
_cell_length_b 14.813533
_cell_length_c 7.576809
_cell_angle_alpha 90.000000
_cell_angle_beta 90.000000
_cell_angle_gamma 90.000000
_cell_volume 2248.930078
_symmetry_space_group_name_H-M "P N N M"
_symmetry_group_IT_number 58
_symmetry_cell_setting 'orthorhombic'
loop_
_space_group_symop_operation_xyz
x,y,z
-x,-y,z
1/2+x,1/2-y,1/2-z
1/2-x,1/2+y,1/2-z
-x,-y,-z
x,y,-z
1/2-x,1/2+y,1/2+z
1/2+x,1/2-y,1/2+z
loop_
_atom_site_type_symbol
_atom_site_label
_atom_site_fract_x
_atom_site_fract_y
_atom_site_fract_z
Si Si1 0.568481 0.187884 0.197257
Si Si2 0.228027 0.105226 0.711843
Si Si3 0.217005 0.312781 0.714377
Si Si4 0.058739 0.785769 0.715207
Si Si5 0.000000 0.500000 0.245936
Si Si6 0.122616 0.596694 0.290617
Si Si7 0.655698 0.564688 0.793385
O O1 0.641120 0.165907 0.272867
O O2 0.515089 0.257409 0.280178
O O3 0.527696 0.094957 0.179951
O O4 0.582807 0.223741 0.000000
O O5 0.222156 0.107405 0.500000
O O6 0.224950 0.208513 0.771477
O O7 0.301707 0.071170 0.758136
O O8 0.174150 0.033565 0.781232
O O9 0.221257 0.319834 0.500000
O O10 0.276835 0.374936 0.782727
O O11 0.054510 0.789660 0.500000
O O12 0.108036 0.701346 0.752401
O O13 0.094798 0.875949 0.780862
O O14 0.070326 0.538509 0.181063
O O15 0.108345 0.581637 0.500000
O O16 0.640247 0.551749 0.000000
#
# Coordination Sequence:
#
# PCOD9440752 Si02
#       7
#     8   8   8   8   4   8   8
#     4   9  16  27  45  70 100 127 158 207 256 293
#     4  10  21  33  47  72 106 134 162 207 258 301
#     4  10  20  34  51  75 104 132 166 212 258 299
#     4   8  15  28  47  69  92 124 164 200 237 288
#     4  10  17  26  47  80 103 120 163 218 259 298
#     4  10  17  29  50  73  97 129 166 203 244 300
#     4  10  19  33  51  71  98 133 168 203 247 303
#
# _framework density 23.122107
#
# number of rings (size 3 to 8) (size 9 to 14) (size 15 to 20)
#    0.000    2.462    1.538    3.231    0.000    1.846 
#    0.000    1.154    0.000    9.231    0.000    0.000 
#    0.000    3.692    0.000    0.000    0.000    0.000 
#
# Total GULP energy -289647.738266 kJ/mol
# GULP energy per Si atom -5570.148813 kJ/mol
# Density = 2.306948 g / cm^3
# Si number density = 23.122107 Si / 1000 Ang^3
#
#
#
# Elastic Constant Matrix: (Units=GPa)
#
#
# Indices 1 2 3 4 5 6 
#
# 1 61.8849 -16.6756 -7.4888 0.0000 0.0000 0.0000
# 2 -16.6756 46.3939 2.3601 0.0000 0.0000 0.0000
# 3 -7.4888 2.3601 56.1656 0.0000 0.0000 0.0000
# 4 0.0000 0.0000 0.0000 -36.0406 0.0000 0.0000
# 5 0.0000 0.0000 0.0000 0.0000 19.1014 0.0000
# 6 0.0000 0.0000 0.0000 0.0000 0.0000 40.2387
#
#
#
# Elastic Compliance Matrix: (Units=1/GPa)
#
#
# Indices 1 2 3 4 5 6 
#
# 1 0.018147 0.006413 0.002150 0.000000 0.000000 0.000000
# 2 0.006413 0.023867 -0.000148 0.000000 0.000000 0.000000
# 3 0.002150 -0.000148 0.018097 0.000000 0.000000 0.000000
# 4 0.000000 0.000000 0.000000 -0.027746 0.000000 0.000000
# 5 0.000000 0.000000 0.000000 0.000000 0.052352 0.000000
# 6 0.000000 0.000000 0.000000 0.000000 0.000000 0.024852
#
#
# Mechanical properties :
#
#
# Convention : Reuss Voigt Hill
#
# Bulk Modulus (GPa) = 12.99651 13.42620 13.21136
# Shear Modulus (GPa) = 42.23480 17.07648 29.65564
#
# Velocity S-wave (km/s) = 4.27851 2.72055 3.58518
# Velocity P-wave (km/s) = 5.48092 3.96078 4.78165
#
# Compressibility (1/GPa) = 0.07694372
#
# Stress axis : x y z
#
# Youngs Moduli (GPa) = 55.10434 41.89836 55.25653
#
# Poissons Ratio (x) = -0.26871 -0.11881
# Poissons Ratio (y) = -0.35341 0.00817
# Poissons Ratio (z) = -0.11848 0.00619
#
# Static dielectric constant tensor:
#      x y z
#    x 1.868580 0.000000 0.000000 
#    y 0.000000 1.875500 0.000000 
#    z 0.000000 0.000000 2.049300 
# 
# From -- ./inp_files/6141.got.cif
#   From: 2010.05.17/outbox.cif.g08.bks.cpg/sg58_4_cif.got.tgz:6141.got - 2010.06.03 14:20:14.
