data_PCOD9441283
_publ_section_title
;
Structure prediction by ZEFSAII (Michael W. Deem and Ramdas Pophale) SiO2 
 PCOD9441283
Probable space group: P N N M
;
_chemical_formula_sum "Si O2"
_cell_formula_units_Z 48
_cell_length_a 13.885690
_cell_length_b 15.974741
_cell_length_c 9.330518
_cell_angle_alpha 90.000000
_cell_angle_beta 90.000000
_cell_angle_gamma 90.000000
_cell_volume 2069.698315
_symmetry_space_group_name_H-M "P N N M"
_symmetry_group_IT_number 58
_symmetry_cell_setting 'orthorhombic'
loop_
_space_group_symop_operation_xyz
x,y,z
-x,-y,z
1/2+x,1/2-y,1/2-z
1/2-x,1/2+y,1/2-z
-x,-y,-z
x,y,-z
1/2-x,1/2+y,1/2+z
1/2+x,1/2-y,1/2+z
loop_
_atom_site_type_symbol
_atom_site_label
_atom_site_fract_x
_atom_site_fract_y
_atom_site_fract_z
Si Si1 0.380274 0.049085 0.335635
Si Si2 0.639343 0.281733 0.333393
Si Si3 0.802302 0.045642 0.664764
Si Si4 0.371164 0.209796 0.162123
Si Si5 0.363383 0.885233 0.830822
Si Si6 0.506081 0.619321 0.833967
O O1 0.409023 0.045444 0.500000
O O2 0.405049 0.136695 0.266368
O O3 0.262446 0.037766 0.332372
O O4 0.409091 0.964907 0.250316
O O5 0.614906 0.267887 0.500000
O O6 0.755216 0.285889 0.324464
O O7 0.608714 0.203151 0.235683
O O8 0.580838 0.360906 0.272483
O O9 0.788231 0.079165 0.500000
O O10 0.748444 0.101222 0.783612
O O11 0.915501 0.045684 0.689433
O O12 0.423273 0.298622 0.180464
O O13 0.392285 0.181474 0.000000
O O14 0.376345 0.888728 0.000000
O O15 0.472691 0.615562 0.000000
#
# Coordination Sequence:
#
# PCOD9441283 Si02
#       6
#     8   8   8   8   8   8
#     4   9  18  33  56  82 109 145 183 225 277 327
#     4  11  22  37  56  83 115 146 184 230 277 323
#     4   8  16  34  55  76 106 144 179 221 275 321
#     4  10  20  37  57  80 114 147 179 228 278 325
#     4  10  18  32  56  80 105 143 185 219 269 329
#     4  10  20  37  58  81 111 146 185 226 277 331
#
# _framework density 23.191787000000001
#
# number of rings (size 3 to 8) (size 9 to 14) (size 15 to 20)
#    1.000    1.333    1.667    2.000    0.000    2.667 
#    0.000    1.667    0.000   10.000    0.000    0.000 
#    0.000    0.000    0.000    0.000    0.000    0.000 
#
# Total GULP energy -267976.727992 kJ/mol
# GULP energy per Si atom -5582.848500 kJ/mol
# Density = 2.313900 g / cm^3
# Si number density = 23.191787 Si / 1000 Ang^3
#
#
#
# Elastic Constant Matrix: (Units=GPa)
#
#
# Indices 1 2 3 4 5 6 
#
# 1 104.2525 -1.9307 20.6663 0.0000 0.0000 0.0000
# 2 -1.9307 66.7133 51.6916 0.0000 0.0000 0.0000
# 3 20.6663 51.6916 141.7174 0.0000 0.0000 0.0000
# 4 0.0000 0.0000 0.0000 23.1773 0.0000 0.0000
# 5 0.0000 0.0000 0.0000 0.0000 -274.1714 0.0000
# 6 0.0000 0.0000 0.0000 0.0000 0.0000 40.1600
#
#
#
# Elastic Compliance Matrix: (Units=1/GPa)
#
#
# Indices 1 2 3 4 5 6 
#
# 1 0.010064 0.001991 -0.002194 0.000000 0.000000 0.000000
# 2 0.001991 0.021289 -0.008055 0.000000 0.000000 0.000000
# 3 -0.002194 -0.008055 0.010314 0.000000 0.000000 0.000000
# 4 0.000000 0.000000 0.000000 0.043146 0.000000 0.000000
# 5 0.000000 0.000000 0.000000 0.000000 -0.003647 0.000000
# 6 0.000000 0.000000 0.000000 0.000000 0.000000 0.024900
#
#
# Mechanical properties :
#
#
# Convention : Reuss Voigt Hill
#
# Bulk Modulus (GPa) = 39.76035 50.39307 45.07671
# Shear Modulus (GPa) = 38.17789 -26.01644 6.08072
#
# Velocity S-wave (km/s) = 4.06172 -3.35296 1.62099
# Velocity P-wave (km/s) = 6.25924 2.60505 4.79397
#
# Compressibility (1/GPa) = 0.02515068
#
# Stress axis : x y z
#
# Youngs Moduli (GPa) = 99.36545 46.97313 96.95123
#
# Poissons Ratio (x) = -0.09353 0.21270
# Poissons Ratio (y) = -0.19785 0.78099
# Poissons Ratio (z) = 0.21799 0.37839
#
# Static dielectric constant tensor:
#      x y z
#    x 1.996330 0.000000 0.000000 
#    y 0.000000 1.903560 0.000000 
#    z 0.000000 0.000000 1.776910 
# 
# From -- ./inp_files/6044.got.cif
#   From: 2010.05.17/outbox.cif.g08.bks.cpg/sg58_4_cif.got.tgz:6044.got - 2010.06.03 14:20:14.
