data_PCOD9441437
_publ_section_title
;
Structure prediction by ZEFSAII (Michael W. Deem and Ramdas Pophale) SiO2 
 PCOD9441437
Probable space group: P N N M
;
_chemical_formula_sum "Si O2"
_cell_formula_units_Z 48
_cell_length_a 8.758077
_cell_length_b 8.011779
_cell_length_c 30.275379
_cell_angle_alpha 90.000000
_cell_angle_beta 90.000000
_cell_angle_gamma 90.000000
_cell_volume 2124.356054
_symmetry_space_group_name_H-M "P N N M"
_symmetry_group_IT_number 58
_symmetry_cell_setting 'orthorhombic'
loop_
_space_group_symop_operation_xyz
x,y,z
-x,-y,z
1/2+x,1/2-y,1/2-z
1/2-x,1/2+y,1/2-z
-x,-y,-z
x,y,-z
1/2-x,1/2+y,1/2+z
1/2+x,1/2-y,1/2+z
loop_
_atom_site_type_symbol
_atom_site_label
_atom_site_fract_x
_atom_site_fract_y
_atom_site_fract_z
Si Si1 0.309418 0.170194 0.095099
Si Si2 0.821359 0.535030 0.733008
Si Si3 0.683503 0.322964 0.000000
Si Si4 0.162216 0.275763 0.597315
Si Si5 0.903450 0.833649 0.170279
Si Si6 0.314998 0.287437 0.000000
Si Si7 0.205940 0.642956 0.184392
O O1 0.478579 0.248780 0.098962
O O2 0.188264 0.240913 0.129205
O O3 0.317836 0.973080 0.106425
O O4 0.262881 0.197440 0.044451
O O5 0.716809 0.404751 0.705654
O O6 0.771945 0.516290 0.784287
O O7 0.793376 0.711171 0.710559
O O8 0.000000 0.500000 0.728265
O O9 0.728124 0.253735 0.048100
O O10 0.500380 0.288295 0.000000
O O11 0.724022 0.517834 0.000000
O O12 0.238182 0.158945 0.634189
O O13 0.030793 0.704306 0.186104
O O14 0.000000 0.000000 0.156467
#
# Coordination Sequence:
#
# PCOD9441437 Si02
#       7
#     8   8   4   8   8   4   8
#     4  10  18  35  63  87 113 160 206 247 288 362
#     4  11  22  41  63  85 121 161 206 255 297 360
#     4   9  19  37  58  91 124 150 191 256 298 363
#     4  10  19  36  64  88 119 156 205 245 300 356
#     4  10  20  36  59  86 120 154 198 250 298 352
#     4   9  19  35  59  88 124 150 197 250 304 349
#     4  11  23  40  62  92 122 163 200 257 307 361
#
# _framework density 22.595079999999999
#
# number of rings (size 3 to 8) (size 9 to 14) (size 15 to 20)
#    0.000    1.833    3.333    2.500    0.000    2.000 
#    6.000    2.917   11.000    1.000    0.000    0.000 
#    0.000    0.000    0.000    0.000    0.000    0.000 
#
# Total GULP energy -268216.464874 kJ/mol
# GULP energy per Si atom -5587.843018 kJ/mol
# Density = 2.254365 g / cm^3
# Si number density = 22.595080 Si / 1000 Ang^3
#
#
#
# Elastic Constant Matrix: (Units=GPa)
#
#
# Indices 1 2 3 4 5 6 
#
# 1 81.2352 -1.2765 53.0393 0.0000 0.0000 0.0000
# 2 -1.2765 31.1083 23.7573 0.0000 0.0000 0.0000
# 3 53.0393 23.7573 143.4182 0.0000 0.0000 0.0000
# 4 0.0000 0.0000 0.0000 17.6813 0.0000 0.0000
# 5 0.0000 0.0000 0.0000 0.0000 11.9268 0.0000
# 6 0.0000 0.0000 0.0000 0.0000 0.0000 15.2193
#
#
#
# Elastic Compliance Matrix: (Units=1/GPa)
#
#
# Indices 1 2 3 4 5 6 
#
# 1 0.017273 0.006396 -0.007448 0.000000 0.000000 0.000000
# 2 0.006396 0.039170 -0.008854 0.000000 0.000000 0.000000
# 3 -0.007448 -0.008854 0.011194 0.000000 0.000000 0.000000
# 4 0.000000 0.000000 0.000000 0.056557 0.000000 0.000000
# 5 0.000000 0.000000 0.000000 0.000000 0.083845 0.000000
# 6 0.000000 0.000000 0.000000 0.000000 0.000000 0.065706
#
#
# Mechanical properties :
#
#
# Convention : Reuss Voigt Hill
#
# Bulk Modulus (GPa) = 20.90900 45.20020 33.05460
# Shear Modulus (GPa) = 16.15524 20.98158 18.56841
#
# Velocity S-wave (km/s) = 2.67683 3.05058 2.86980
# Velocity P-wave (km/s) = 4.33910 5.69701 5.06378
#
# Compressibility (1/GPa) = 0.04782630
#
# Stress axis : x y z
#
# Youngs Moduli (GPa) = 57.89382 25.52969 89.33713
#
# Poissons Ratio (x) = -0.16330 0.66534
# Poissons Ratio (y) = -0.37031 0.79100
# Poissons Ratio (z) = 0.43117 0.22604
#
# Static dielectric constant tensor:
#      x y z
#    x 1.831880 0.000000 0.000000 
#    y 0.000000 1.893160 0.000000 
#    z 0.000000 0.000000 1.863750 
# 
# From -- ./inp_files/34624.got.cif
#   From: 2010.05.17/outbox.cif.g08.bks.cpg/sg58_18_cif.got.tgz:34624.got - 2010.06.03 14:20:14.
