data_PCOD9441351
_publ_section_title
;
Structure prediction by ZEFSAII (Michael W. Deem and Ramdas Pophale) SiO2 
 PCOD9441351
Probable space group: P N N M
;
_chemical_formula_sum "Si O2"
_cell_formula_units_Z 48
_cell_length_a 7.973418
_cell_length_b 11.181040
_cell_length_c 22.679013
_cell_angle_alpha 90.000000
_cell_angle_beta 90.000000
_cell_angle_gamma 90.000000
_cell_volume 2021.859083
_symmetry_space_group_name_H-M "P N N M"
_symmetry_group_IT_number 58
_symmetry_cell_setting 'orthorhombic'
loop_
_space_group_symop_operation_xyz
x,y,z
-x,-y,z
1/2+x,1/2-y,1/2-z
1/2-x,1/2+y,1/2-z
-x,-y,-z
x,y,-z
1/2-x,1/2+y,1/2+z
1/2+x,1/2-y,1/2+z
loop_
_atom_site_type_symbol
_atom_site_label
_atom_site_fract_x
_atom_site_fract_y
_atom_site_fract_z
Si Si1 0.814122 0.675840 0.133077
Si Si2 0.348852 0.600239 0.282956
Si Si3 0.821875 0.929897 0.651376
Si Si4 0.468945 0.754187 0.929454
Si Si5 0.482075 0.660901 0.435508
Si Si6 0.276051 0.977924 0.110772
O O1 0.866317 0.771326 0.183760
O O2 0.808033 0.538524 0.148901
O O3 0.632644 0.715334 0.107314
O O4 0.936661 0.705161 0.079290
O O5 0.500000 0.500000 0.280342
O O6 0.305304 0.628769 0.215585
O O7 0.211038 0.532896 0.324055
O O8 0.830132 0.835680 0.598202
O O9 0.000000 0.000000 0.650144
O O10 0.419871 0.890920 0.913331
O O11 0.486486 0.741488 0.000000
O O12 0.553916 0.644794 0.500000
O O13 0.614815 0.610546 0.389813
O O14 0.310142 0.582678 0.429160
#
# Coordination Sequence:
#
# PCOD9441351 Si02
#       6
#     8   8   8   8   8   8
#     4  10  21  38  61  91 114 159 203 254 299 361
#     4  10  19  39  63  87 119 155 208 257 303 363
#     4   9  22  39  61  88 120 166 201 248 309 366
#     4  11  23  39  61  92 129 162 199 249 309 371
#     4  10  18  33  58  86 116 156 197 237 295 358
#     4  10  19  35  58  87 118 159 193 248 305 351
#
# _framework density 23.740527
#
# number of rings (size 3 to 8) (size 9 to 14) (size 15 to 20)
#    0.000    2.000    3.333    2.500    2.333    6.333 
#    0.000    5.000    3.667    2.000    0.000    0.000 
#    0.000    0.000    0.000    0.000    0.000    0.000 
#
# Total GULP energy -267475.373109 kJ/mol
# GULP energy per Si atom -5572.403606 kJ/mol
# Density = 2.368649 g / cm^3
# Si number density = 23.740527 Si / 1000 Ang^3
#
#
#
# Elastic Constant Matrix: (Units=GPa)
#
#
# Indices 1 2 3 4 5 6 
#
# 1 49.2213 7.1645 -2.3391 0.0000 0.0000 0.0000
# 2 7.1645 114.4458 48.7466 0.0000 0.0000 0.0000
# 3 -2.3391 48.7466 100.2216 0.0000 0.0000 0.0000
# 4 0.0000 0.0000 0.0000 16.9862 0.0000 0.0000
# 5 0.0000 0.0000 0.0000 0.0000 12.1702 0.0000
# 6 0.0000 0.0000 0.0000 0.0000 0.0000 35.8897
#
#
#
# Elastic Compliance Matrix: (Units=1/GPa)
#
#
# Indices 1 2 3 4 5 6 
#
# 1 0.020658 -0.001890 0.001402 0.000000 0.000000 0.000000
# 2 -0.001890 0.011194 -0.005489 0.000000 0.000000 0.000000
# 3 0.001402 -0.005489 0.012680 0.000000 0.000000 0.000000
# 4 0.000000 0.000000 0.000000 0.058871 0.000000 0.000000
# 5 0.000000 0.000000 0.000000 0.000000 0.082168 0.000000
# 6 0.000000 0.000000 0.000000 0.000000 0.000000 0.027863
#
#
# Mechanical properties :
#
#
# Convention : Reuss Voigt Hill
#
# Bulk Modulus (GPa) = 30.69601 41.22587 35.96094
# Shear Modulus (GPa) = 21.16414 27.03034 24.09724
#
# Velocity S-wave (km/s) = 2.98900 3.37794 3.18940
# Velocity P-wave (km/s) = 4.98699 5.71111 5.36129
#
# Compressibility (1/GPa) = 0.03257752
#
# Stress axis : x y z
#
# Youngs Moduli (GPa) = 48.40710 89.33414 78.86280
#
# Poissons Ratio (x) = 0.16886 -0.11053
# Poissons Ratio (y) = 0.09150 0.43286
# Poissons Ratio (z) = -0.06784 0.49033
#
# Static dielectric constant tensor:
#      x y z
#    x 2.124570 0.000000 0.000000 
#    y 0.000000 1.954780 0.000000 
#    z 0.000000 0.000000 1.860920 
# 
# From -- ./inp_files/31486.got.cif
#   From: 2010.05.17/outbox.cif.g08.bks.cpg/sg58_16_cif.got.tgz:31486.got - 2010.06.03 14:20:14.
