data_PCOD9441061
_publ_section_title
;
Structure prediction by ZEFSAII (Michael W. Deem and Ramdas Pophale) SiO2 
 PCOD9441061
Probable space group: P N N M
;
_chemical_formula_sum "Si O2"
_cell_formula_units_Z 56
_cell_length_a 20.061235
_cell_length_b 19.647825
_cell_length_c 7.596166
_cell_angle_alpha 90.000000
_cell_angle_beta 90.000000
_cell_angle_gamma 90.000000
_cell_volume 2994.102015
_symmetry_space_group_name_H-M "P N N M"
_symmetry_group_IT_number 58
_symmetry_cell_setting 'orthorhombic'
loop_
_space_group_symop_operation_xyz
x,y,z
-x,-y,z
1/2+x,1/2-y,1/2-z
1/2-x,1/2+y,1/2-z
-x,-y,-z
x,y,-z
1/2-x,1/2+y,1/2+z
1/2+x,1/2-y,1/2+z
loop_
_atom_site_type_symbol
_atom_site_label
_atom_site_fract_x
_atom_site_fract_y
_atom_site_fract_z
Si Si1 0.523821 0.212360 0.714949
Si Si2 0.695257 0.010388 0.295025
Si Si3 0.668538 0.250849 0.706173
Si Si4 0.275538 0.361253 0.298360
Si Si5 0.772618 0.360874 0.786942
Si Si6 0.448423 0.941684 0.715279
Si Si7 0.621318 0.746830 0.284538
O O1 0.521751 0.213509 0.500000
O O2 0.592607 0.248250 0.769913
O O3 0.529499 0.133532 0.770222
O O4 0.454524 0.245127 0.774455
O O5 0.681040 0.996908 0.500000
O O6 0.750154 0.069313 0.285434
O O7 0.625754 0.039492 0.221583
O O8 0.717784 0.937632 0.221318
O O9 0.667591 0.232458 0.500000
O O10 0.715094 0.193436 0.792690
O O11 0.705881 0.322315 0.727901
O O12 0.290473 0.377639 0.500000
O O13 0.338463 0.319838 0.222874
O O14 0.834577 0.312624 0.733739
O O15 0.770796 0.360805 0.000000
O O16 0.447807 0.940025 0.500000
O O17 0.500000 0.000000 0.768550
O O18 0.622224 0.745098 0.500000
#
# Coordination Sequence:
#
# PCOD9441061 Si02
#       7
#     8   8   8   8   8   8   8
#     4   9  15  25  44  70  94 117 152 198 236 271
#     4  10  18  30  48  72  97 124 161 197 236 282
#     4  10  18  30  49  71  94 122 160 200 237 281
#     4  10  19  31  48  69  96 128 160 195 236 284
#     4   9  18  31  48  70  97 126 156 196 238 284
#     4   9  15  23  41  71  99 120 147 188 235 279
#     4   8  15  28  45  68  94 120 155 197 238 274
#
# _framework density 18.703437000000001
#
# number of rings (size 3 to 8) (size 9 to 14) (size 15 to 20)
#    0.000    2.714    1.429    2.571    0.000    4.000 
#    0.000    0.000    0.000    9.857    0.000    6.000 
#    0.000    0.000    0.000    0.000    0.000    0.000 
#
# Total GULP energy -312320.563420 kJ/mol
# GULP energy per Si atom -5577.152918 kJ/mol
# Density = 1.866087 g / cm^3
# Si number density = 18.703437 Si / 1000 Ang^3
#
#
#
# Elastic Constant Matrix: (Units=GPa)
#
#
# Indices 1 2 3 4 5 6 
#
# 1 147.9445 42.9800 -3.7612 0.0000 0.0000 0.0000
# 2 42.9800 57.3541 -8.1339 0.0000 0.0000 0.0000
# 3 -3.7612 -8.1339 37.1070 0.0000 0.0000 0.0000
# 4 0.0000 0.0000 0.0000 16.7435 0.0000 0.0000
# 5 0.0000 0.0000 0.0000 0.0000 14.0941 0.0000
# 6 0.0000 0.0000 0.0000 0.0000 0.0000 24.5307
#
#
#
# Elastic Compliance Matrix: (Units=1/GPa)
#
#
# Indices 1 2 3 4 5 6 
#
# 1 0.008652 -0.006563 -0.000562 0.000000 0.000000 0.000000
# 2 -0.006563 0.022974 0.004371 0.000000 0.000000 0.000000
# 3 -0.000562 0.004371 0.027850 0.000000 0.000000 0.000000
# 4 0.000000 0.000000 0.000000 0.059725 0.000000 0.000000
# 5 0.000000 0.000000 0.000000 0.000000 0.070952 0.000000
# 6 0.000000 0.000000 0.000000 0.000000 0.000000 0.040765
#
#
# Mechanical properties :
#
#
# Convention : Reuss Voigt Hill
#
# Bulk Modulus (GPa) = 18.52979 33.84173 26.18576
# Shear Modulus (GPa) = 19.65299 25.16172 22.40735
#
# Velocity S-wave (km/s) = 3.24507 3.67181 3.46502
# Velocity P-wave (km/s) = 4.89585 6.00911 5.48082
#
# Compressibility (1/GPa) = 0.05396716
#
# Stress axis : x y z
#
# Youngs Moduli (GPa) = 115.58463 43.52826 35.90642
#
# Poissons Ratio (x) = 0.28568 0.02017
# Poissons Ratio (y) = 0.75859 -0.15693
# Poissons Ratio (z) = 0.06492 -0.19024
#
# Static dielectric constant tensor:
#      x y z
#    x 1.644880 0.000000 0.000000 
#    y 0.000000 1.626330 0.000000 
#    z 0.000000 0.000000 1.722680 
# 
# From -- ./inp_files/8182.got.cif
#   From: 2010.05.17/outbox.cif.g08.bks.cpg/sg58_5_cif.got.tgz:8182.got - 2010.06.03 14:20:14.
