data_PCOD9441604
_publ_section_title
;
Structure prediction by ZEFSAII (Michael W. Deem and Ramdas Pophale) SiO2 
 PCOD9441604
Probable space group: P N N M
;
_chemical_formula_sum "Si O2"
_cell_formula_units_Z 48
_cell_length_a 12.069930
_cell_length_b 9.492912
_cell_length_c 24.209966
_cell_angle_alpha 90.000000
_cell_angle_beta 90.000000
_cell_angle_gamma 90.000000
_cell_volume 2773.948449
_symmetry_space_group_name_H-M "P N N M"
_symmetry_group_IT_number 58
_symmetry_cell_setting 'orthorhombic'
loop_
_space_group_symop_operation_xyz
x,y,z
-x,-y,z
1/2+x,1/2-y,1/2-z
1/2-x,1/2+y,1/2-z
-x,-y,-z
x,y,-z
1/2-x,1/2+y,1/2+z
1/2+x,1/2-y,1/2+z
loop_
_atom_site_type_symbol
_atom_site_label
_atom_site_fract_x
_atom_site_fract_y
_atom_site_fract_z
Si Si1 0.420278 0.285033 0.062976
Si Si2 0.781637 0.458850 0.831796
Si Si3 0.955524 0.355705 0.746149
Si Si4 0.159021 0.113158 0.436229
Si Si5 0.393518 0.598548 0.265231
Si Si6 0.227150 0.720866 0.659874
O O1 0.550207 0.294597 0.078195
O O2 0.380401 0.448930 0.064816
O O3 0.341568 0.200226 0.103952
O O4 0.411600 0.236739 0.000000
O O5 0.890364 0.400254 0.801702
O O6 0.749891 0.379197 0.888291
O O7 0.681809 0.439683 0.787450
O O8 0.784871 0.626046 0.843305
O O9 0.866428 0.278710 0.707539
O O10 0.000000 0.500000 0.719861
O O11 0.057486 0.253620 0.756014
O O12 0.191276 0.143155 0.500000
O O13 0.500000 0.500000 0.270817
O O14 0.315175 0.606287 0.319042
#
# Coordination Sequence:
#
# PCOD9441604 Si02
#       6
#     8   8   8   8   8   8
#     4   8  14  26  46  73  98 124 160 204 250 295
#     4  10  19  30  50  73 100 132 163 202 249 295
#     4  11  21  33  47  72 102 131 164 203 243 291
#     4   8  14  25  45  73 101 125 155 202 258 297
#     4  11  21  33  49  71 102 135 165 200 245 293
#     4  10  19  31  50  73  97 132 166 201 247 298
#
# _framework density 17.303854999999999
#
# number of rings (size 3 to 8) (size 9 to 14) (size 15 to 20)
#    0.000    2.333    3.333    2.000    2.333    0.000 
#    0.000    0.000    0.000    2.500    0.000    2.333 
#    0.000    0.000    0.000    0.000    0.000    0.000 
#
# Total GULP energy -267373.903880 kJ/mol
# GULP energy per Si atom -5570.289664 kJ/mol
# Density = 1.726447 g / cm^3
# Si number density = 17.303855 Si / 1000 Ang^3
#
#
#
# Elastic Constant Matrix: (Units=GPa)
#
#
# Indices 1 2 3 4 5 6 
#
# 1 37.6655 -0.8105 13.6467 0.0000 0.0000 0.0000
# 2 -0.8105 28.1770 1.2897 0.0000 0.0000 0.0000
# 3 13.6467 1.2897 62.2999 0.0000 0.0000 0.0000
# 4 0.0000 0.0000 0.0000 15.1924 0.0000 0.0000
# 5 0.0000 0.0000 0.0000 0.0000 7.9074 0.0000
# 6 0.0000 0.0000 0.0000 0.0000 0.0000 23.5683
#
#
#
# Elastic Compliance Matrix: (Units=1/GPa)
#
#
# Indices 1 2 3 4 5 6 
#
# 1 0.028874 0.001121 -0.006348 0.000000 0.000000 0.000000
# 2 0.001121 0.035567 -0.000982 0.000000 0.000000 0.000000
# 3 -0.006348 -0.000982 0.017462 0.000000 0.000000 0.000000
# 4 0.000000 0.000000 0.000000 0.065822 0.000000 0.000000
# 5 0.000000 0.000000 0.000000 0.000000 0.126463 0.000000
# 6 0.000000 0.000000 0.000000 0.000000 0.000000 0.042430
#
#
# Mechanical properties :
#
#
# Convention : Reuss Voigt Hill
#
# Bulk Modulus (GPa) = 14.39151 17.37715 15.88433
# Shear Modulus (GPa) = 14.19658 16.93473 15.56565
#
# Velocity S-wave (km/s) = 2.86742 3.13176 3.00250
# Velocity P-wave (km/s) = 4.39292 4.81055 4.60647
#
# Compressibility (1/GPa) = 0.06948540
#
# Stress axis : x y z
#
# Youngs Moduli (GPa) = 34.63380 28.11587 57.26645
#
# Poissons Ratio (x) = -0.03152 0.36352
# Poissons Ratio (y) = -0.03883 0.05623
# Poissons Ratio (z) = 0.21985 0.02761
#
# Static dielectric constant tensor:
#      x y z
#    x 1.588930 0.000000 0.000000 
#    y 0.000000 1.625260 0.000000 
#    z 0.000000 0.000000 1.595720 
# 
# From -- ./inp_files/29529.got.cif
#   From: 2010.05.17/outbox.cif.g08.bks.cpg/sg58_15_cif.got.tgz:29529.got - 2010.06.03 14:20:14.
