data_PCOD9441013
_publ_section_title
;
Structure prediction by ZEFSAII (Michael W. Deem and Ramdas Pophale) SiO2 
 PCOD9441013
Probable space group: P N N M
;
_chemical_formula_sum "Si O2"
_cell_formula_units_Z 48
_cell_length_a 16.926363
_cell_length_b 19.027827
_cell_length_c 8.159426
_cell_angle_alpha 90.000000
_cell_angle_beta 90.000000
_cell_angle_gamma 90.000000
_cell_volume 2627.921891
_symmetry_space_group_name_H-M "P N N M"
_symmetry_group_IT_number 58
_symmetry_cell_setting 'orthorhombic'
loop_
_space_group_symop_operation_xyz
x,y,z
-x,-y,z
1/2+x,1/2-y,1/2-z
1/2-x,1/2+y,1/2-z
-x,-y,-z
x,y,-z
1/2-x,1/2+y,1/2+z
1/2+x,1/2-y,1/2+z
loop_
_atom_site_type_symbol
_atom_site_label
_atom_site_fract_x
_atom_site_fract_y
_atom_site_fract_z
Si Si1 0.914890 0.709162 0.811111
Si Si2 0.502496 0.420353 0.306884
Si Si3 0.509462 0.919944 0.299656
Si Si4 0.932784 0.215020 0.310426
Si Si5 0.834477 0.334995 0.198437
Si Si6 0.340517 0.655179 0.807843
O O1 0.857388 0.761610 0.716657
O O2 0.938218 0.631955 0.747326
O O3 0.999495 0.749177 0.800696
O O4 0.889551 0.704805 0.000000
O O5 0.500000 0.500000 0.244354
O O6 0.485547 0.421047 0.500000
O O7 0.440365 0.367433 0.223132
O O8 0.589418 0.387264 0.278928
O O9 0.508376 0.918899 0.500000
O O10 0.593227 0.885569 0.249741
O O11 0.500000 0.000000 0.245725
O O12 0.953099 0.227820 0.500000
O O13 0.854362 0.257483 0.266401
O O14 0.747976 0.359887 0.251412
O O15 0.834271 0.331878 0.000000
O O16 0.346347 0.638991 0.000000
#
# Coordination Sequence:
#
# PCOD9441013 Si02
#       6
#     8   8   8   8   8   8
#     4   9  16  28  47  68  92 121 155 193 234 286
#     4  10  20  34  52  72  98 132 165 199 245 301
#     4   8  14  27  48  70  91 119 155 192 231 281
#     4  10  18  29  49  72  93 121 160 201 236 281
#     4   9  18  32  49  70  97 128 160 199 248 292
#     4  10  19  31  49  71  97 127 161 204 246 287
#
# _framework density 18.265384000000001
#
# number of rings (size 3 to 8) (size 9 to 14) (size 15 to 20)
#    0.000    2.667    0.000    6.000    0.000    2.667 
#    0.000    1.667    0.000   14.500    0.000    0.000 
#    0.000    0.000    0.000    0.000    0.000    0.000 
#
# Total GULP energy -267335.056522 kJ/mol
# GULP energy per Si atom -5569.480344 kJ/mol
# Density = 1.822381 g / cm^3
# Si number density = 18.265384 Si / 1000 Ang^3
#
#
#
# Elastic Constant Matrix: (Units=GPa)
#
#
# Indices 1 2 3 4 5 6 
#
# 1 63.5703 28.1745 0.8764 0.0000 0.0000 0.0000
# 2 28.1745 134.7594 3.3934 0.0000 0.0000 0.0000
# 3 0.8764 3.3934 25.9265 0.0000 0.0000 0.0000
# 4 0.0000 0.0000 0.0000 12.4133 0.0000 0.0000
# 5 0.0000 0.0000 0.0000 0.0000 15.1151 0.0000
# 6 0.0000 0.0000 0.0000 0.0000 0.0000 16.4271
#
#
#
# Elastic Compliance Matrix: (Units=1/GPa)
#
#
# Indices 1 2 3 4 5 6 
#
# 1 0.017337 -0.003622 -0.000112 0.000000 0.000000 0.000000
# 2 -0.003622 0.008202 -0.000951 0.000000 0.000000 0.000000
# 3 -0.000112 -0.000951 0.038699 0.000000 0.000000 0.000000
# 4 0.000000 0.000000 0.000000 0.080559 0.000000 0.000000
# 5 0.000000 0.000000 0.000000 0.000000 0.066159 0.000000
# 6 0.000000 0.000000 0.000000 0.000000 0.000000 0.060875
#
#
# Mechanical properties :
#
#
# Convention : Reuss Voigt Hill
#
# Bulk Modulus (GPa) = 18.22556 32.12719 25.17638
# Shear Modulus (GPa) = 16.69506 21.57858 19.13682
#
# Velocity S-wave (km/s) = 3.02657 3.44087 3.24035
# Velocity P-wave (km/s) = 4.71310 5.78043 5.27384
#
# Compressibility (1/GPa) = 0.05486799
#
# Stress axis : x y z
#
# Youngs Moduli (GPa) = 57.67870 121.92396 25.84060
#
# Poissons Ratio (x) = 0.44160 0.00289
# Poissons Ratio (y) = 0.20891 0.02458
# Poissons Ratio (z) = 0.00646 0.11596
#
# Static dielectric constant tensor:
#      x y z
#    x 1.638660 0.000000 0.000000 
#    y 0.000000 1.663320 0.000000 
#    z 0.000000 0.000000 1.625010 
# 
# From -- ./inp_files/7871.got.cif
#   From: 2010.05.17/outbox.cif.g08.bks.cpg/sg58_4_cif.got.tgz:7871.got - 2010.06.03 14:20:14.
