data_PCOD9441041
_publ_section_title
;
Structure prediction by ZEFSAII (Michael W. Deem and Ramdas Pophale) SiO2 
 PCOD9441041
Probable space group: P N N M
;
_chemical_formula_sum "Si O2"
_cell_formula_units_Z 64
_cell_length_a 30.023100
_cell_length_b 5.517551
_cell_length_c 17.639013
_cell_angle_alpha 90.000000
_cell_angle_beta 90.000000
_cell_angle_gamma 90.000000
_cell_volume 2921.972802
_symmetry_space_group_name_H-M "P N N M"
_symmetry_group_IT_number 58
_symmetry_cell_setting 'orthorhombic'
loop_
_space_group_symop_operation_xyz
x,y,z
-x,-y,z
1/2+x,1/2-y,1/2-z
1/2-x,1/2+y,1/2-z
-x,-y,-z
x,y,-z
1/2-x,1/2+y,1/2+z
1/2+x,1/2-y,1/2+z
loop_
_atom_site_type_symbol
_atom_site_label
_atom_site_fract_x
_atom_site_fract_y
_atom_site_fract_z
Si Si1 0.678416 0.214094 0.916195
Si Si2 0.818412 0.503775 0.087761
Si Si3 0.011477 0.245401 0.868200
Si Si4 0.522958 0.747526 0.804892
Si Si5 0.320734 0.444437 0.230692
Si Si6 0.109611 0.273396 0.189710
Si Si7 0.614908 0.926379 0.168495
Si Si8 0.230591 0.996520 0.869525
O O1 0.680863 0.401767 0.846455
O O2 0.720718 0.040809 0.903372
O O3 0.633264 0.060299 0.904864
O O4 0.680773 0.323892 0.000000
O O5 0.861548 0.541231 0.139942
O O6 0.796484 0.240266 0.100274
O O7 0.786971 0.735816 0.108273
O O8 0.830241 0.527522 0.000000
O O9 0.063552 0.223370 0.850200
O O10 0.000000 0.500000 0.905187
O O11 0.983351 0.247780 0.787619
O O12 0.000000 0.000000 0.910080
O O13 0.500000 0.500000 0.830803
O O14 0.573996 0.742891 0.833561
O O15 0.500000 0.000000 0.830562
O O16 0.357229 0.555774 0.289014
O O17 0.340983 0.188903 0.206723
O O18 0.275387 0.463258 0.278445
O O19 0.097173 0.380386 0.271202
#
# Coordination Sequence:
#
# PCOD9441041 Si02
#       8
#     8   8   8   8   8   8   8   8
#     4  11  27  43  63  95 138 178 214 266 340 404
#     4  11  23  41  66  93 133 176 223 276 332 391
#     4  10  18  29  53  85 122 155 205 264 326 369
#     4  10  19  32  59  90 119 154 205 269 327 371
#     4  10  23  38  67  91 127 166 219 272 319 371
#     4  10  20  36  57  95 126 164 217 276 328 385
#     4  11  21  39  62  94 125 166 215 278 325 394
#     4  11  25  44  68  96 127 174 233 275 318 381
#
# _framework density 21.903010999999999
#
# number of rings (size 3 to 8) (size 9 to 14) (size 15 to 20)
#    0.000    1.500    3.750    2.625    5.250    0.500 
#    0.000    0.000    0.000    1.500    0.000    0.000 
#    0.000    0.500    0.000    0.000    0.000    0.000 
#
# Total GULP energy -357213.407958 kJ/mol
# GULP energy per Si atom -5581.459499 kJ/mol
# Density = 2.185316 g / cm^3
# Si number density = 21.903011 Si / 1000 Ang^3
#
#
#
# Elastic Constant Matrix: (Units=GPa)
#
#
# Indices 1 2 3 4 5 6 
#
# 1 83.2960 17.2099 27.3715 0.0000 0.0000 0.0000
# 2 17.2099 114.1828 18.2125 0.0000 0.0000 0.0000
# 3 27.3715 18.2125 100.3983 0.0000 0.0000 0.0000
# 4 0.0000 0.0000 0.0000 12.7013 0.0000 0.0000
# 5 0.0000 0.0000 0.0000 0.0000 1.4086 0.0000
# 6 0.0000 0.0000 0.0000 0.0000 0.0000 35.5570
#
#
#
# Elastic Compliance Matrix: (Units=1/GPa)
#
#
# Indices 1 2 3 4 5 6 
#
# 1 0.013426 -0.001483 -0.003391 0.000000 0.000000 0.000000
# 2 -0.001483 0.009183 -0.001262 0.000000 0.000000 0.000000
# 3 -0.003391 -0.001262 0.011114 0.000000 0.000000 0.000000
# 4 0.000000 0.000000 0.000000 0.078732 0.000000 0.000000
# 5 0.000000 0.000000 0.000000 0.000000 0.709905 0.000000
# 6 0.000000 0.000000 0.000000 0.000000 0.000000 0.028124
#
#
# Mechanical properties :
#
#
# Convention : Reuss Voigt Hill
#
# Bulk Modulus (GPa) = 46.61726 47.05167 46.83446
# Shear Modulus (GPa) = 5.74776 25.60561 15.67668
#
# Velocity S-wave (km/s) = 1.62169 3.42284 2.67822
# Velocity P-wave (km/s) = 4.98359 6.09504 5.56713
#
# Compressibility (1/GPa) = 0.02145128
#
# Stress axis : x y z
#
# Youngs Moduli (GPa) = 74.48155 108.90191 89.97849
#
# Poissons Ratio (x) = 0.16147 0.30515
# Poissons Ratio (y) = 0.11043 0.11351
# Poissons Ratio (z) = 0.25260 0.13738
#
# Static dielectric constant tensor:
#      x y z
#    x 1.869990 0.000000 0.000000 
#    y 0.000000 1.871800 0.000000 
#    z 0.000000 0.000000 1.778020 
# 
# From -- ./inp_files/27797.got.cif
#   From: 2010.05.17/outbox.cif.g08.bks.cpg/sg58_14_cif.got.tgz:27797.got - 2010.06.03 14:20:14.
