data_PCOD9441072
_publ_section_title
;
Structure prediction by ZEFSAII (Michael W. Deem and Ramdas Pophale) SiO2 
 PCOD9441072
Probable space group: P N N M
;
_chemical_formula_sum "Si O2"
_cell_formula_units_Z 58
_cell_length_a 14.525501
_cell_length_b 19.089387
_cell_length_c 9.955926
_cell_angle_alpha 90.000000
_cell_angle_beta 90.000000
_cell_angle_gamma 90.000000
_cell_volume 2760.608133
_symmetry_space_group_name_H-M "P N N M"
_symmetry_group_IT_number 58
_symmetry_cell_setting 'orthorhombic'
loop_
_space_group_symop_operation_xyz
x,y,z
-x,-y,z
1/2+x,1/2-y,1/2-z
1/2-x,1/2+y,1/2-z
-x,-y,-z
x,y,-z
1/2-x,1/2+y,1/2+z
1/2+x,1/2-y,1/2+z
loop_
_atom_site_type_symbol
_atom_site_label
_atom_site_fract_x
_atom_site_fract_y
_atom_site_fract_z
Si Si1 0.783120 0.428679 0.159188
Si Si2 0.110582 0.434537 0.249791
Si Si3 0.398714 0.509884 0.159231
Si Si4 0.554335 0.269114 0.843415
Si Si5 0.500000 0.000000 0.000000
Si Si6 0.953103 0.341559 0.845602
Si Si7 0.732488 0.199014 0.159089
Si Si8 0.883624 0.150739 0.347471
O O1 0.833486 0.503069 0.181031
O O2 0.679832 0.438741 0.215334
O O3 0.855423 0.370444 0.208301
O O4 0.774066 0.415980 0.000000
O O5 0.175366 0.369333 0.292119
O O6 0.064545 0.464580 0.383208
O O7 0.027292 0.404687 0.159846
O O8 0.500000 0.500000 0.220533
O O9 0.360094 0.430646 0.165523
O O10 0.410268 0.527246 0.000000
O O11 0.499108 0.215497 0.750113
O O12 0.662499 0.263554 0.812489
O O13 0.494001 0.339187 0.831835
O O14 0.548035 0.246773 0.000000
O O15 0.943038 0.317906 0.000000
O O16 0.825877 0.195923 0.242704
O O17 0.750319 0.196428 0.000000
O O18 0.861097 0.172737 0.500000
#
# Coordination Sequence:
#
# PCOD9441072 Si02
#       8
#     8   8   8   8   2   8   8   8
#     4  10  18  30  49  79 109 139 173 222 272 321
#     4  11  19  29  49  77 111 144 181 213 267 336
#     4   9  18  33  55  81 106 135 180 229 274 319
#     4   9  21  38  55  78 111 146 187 226 274 333
#     4  12  20  28  46  80 114 148 178 212 274 336
#     4  10  20  31  49  79 114 142 175 226 282 328
#     4  10  20  34  54  81 108 142 184 227 270 327
#     4  10  20  38  61  82 106 145 187 231 276 333
#
# _framework density 21.009864
#
# number of rings (size 3 to 8) (size 9 to 14) (size 15 to 20)
#    0.000    2.069    3.448    0.414    0.966    3.862 
#    2.483    0.000    0.000    0.414    0.000    0.000 
#    0.000    0.000    0.000    0.000    0.000    0.000 
#
# Total GULP energy -322950.752723 kJ/mol
# GULP energy per Si atom -5568.116426 kJ/mol
# Density = 2.096204 g / cm^3
# Si number density = 21.009864 Si / 1000 Ang^3
#
#
#
# Elastic Constant Matrix: (Units=GPa)
#
#
# Indices 1 2 3 4 5 6 
#
# 1 109.5629 9.4199 30.6993 0.0000 0.0000 0.0000
# 2 9.4199 29.5409 3.1985 0.0000 0.0000 0.0000
# 3 30.6993 3.1985 40.6104 0.0000 0.0000 0.0000
# 4 0.0000 0.0000 0.0000 32.2187 0.0000 0.0000
# 5 0.0000 0.0000 0.0000 0.0000 22.4328 0.0000
# 6 0.0000 0.0000 0.0000 0.0000 0.0000 30.4692
#
#
#
# Elastic Compliance Matrix: (Units=1/GPa)
#
#
# Indices 1 2 3 4 5 6 
#
# 1 0.011809 -0.002823 -0.008705 0.000000 0.000000 0.000000
# 2 -0.002823 0.034817 -0.000608 0.000000 0.000000 0.000000
# 3 -0.008705 -0.000608 0.031252 0.000000 0.000000 0.000000
# 4 0.000000 0.000000 0.000000 0.031038 0.000000 0.000000
# 5 0.000000 0.000000 0.000000 0.000000 0.044578 0.000000
# 6 0.000000 0.000000 0.000000 0.000000 0.000000 0.032820
#
#
# Mechanical properties :
#
#
# Convention : Reuss Voigt Hill
#
# Bulk Modulus (GPa) = 18.65426 29.59441 24.12433
# Shear Modulus (GPa) = 21.88618 26.11724 24.00171
#
# Velocity S-wave (km/s) = 3.23105 3.52958 3.38361
# Velocity P-wave (km/s) = 4.77679 5.54320 5.17421
#
# Compressibility (1/GPa) = 0.05360706
#
# Stress axis : x y z
#
# Youngs Moduli (GPa) = 84.68195 28.72127 31.99762
#
# Poissons Ratio (x) = 0.08108 0.27852
# Poissons Ratio (y) = 0.23907 0.01946
# Poissons Ratio (z) = 0.73712 0.01747
#
# Static dielectric constant tensor:
#      x y z
#    x 1.827160 0.000000 0.000000 
#    y 0.000000 1.803010 0.000000 
#    z 0.000000 0.000000 1.684920 
# 
# From -- ./inp_files/6724.got.cif
#   From: 2010.05.17/outbox.cif.g08.bks.cpg/sg58_4_cif.got.tgz:6724.got - 2010.06.03 14:20:14.
