data_PCOD9441395
_publ_section_title
;
Structure prediction by ZEFSAII (Michael W. Deem and Ramdas Pophale) SiO2 
 PCOD9441395
Probable space group: P N N M
;
_chemical_formula_sum "Si O2"
_cell_formula_units_Z 64
_cell_length_a 33.156541
_cell_length_b 11.028701
_cell_length_c 7.659334
_cell_angle_alpha 90.000000
_cell_angle_beta 90.000000
_cell_angle_gamma 90.000000
_cell_volume 2800.816060
_symmetry_space_group_name_H-M "P N N M"
_symmetry_group_IT_number 58
_symmetry_cell_setting 'orthorhombic'
loop_
_space_group_symop_operation_xyz
x,y,z
-x,-y,z
1/2+x,1/2-y,1/2-z
1/2-x,1/2+y,1/2-z
-x,-y,-z
x,y,-z
1/2-x,1/2+y,1/2+z
1/2+x,1/2-y,1/2+z
loop_
_atom_site_type_symbol
_atom_site_label
_atom_site_fract_x
_atom_site_fract_y
_atom_site_fract_z
Si Si1 0.161762 0.802845 0.213818
Si Si2 0.784132 0.967135 0.786760
Si Si3 0.809526 0.462741 0.796115
Si Si4 0.410760 0.744354 0.809729
Si Si5 0.453012 0.990751 0.710449
Si Si6 0.009492 0.139664 0.804383
Si Si7 0.426728 0.252208 0.712649
Si Si8 0.826726 0.725823 0.196639
O O1 0.189386 0.916147 0.269177
O O2 0.177070 0.669444 0.273407
O O3 0.114861 0.813568 0.268584
O O4 0.162698 0.803052 0.000000
O O5 0.738472 0.974331 0.722609
O O6 0.802248 0.838179 0.725120
O O7 0.784283 0.967275 0.000000
O O8 0.825972 0.590851 0.721689
O O9 0.822270 0.459605 0.000000
O O10 0.431955 0.873746 0.786715
O O11 0.447883 0.654613 0.785834
O O12 0.372978 0.732597 0.685550
O O13 0.392739 0.731297 0.000000
O O14 0.452758 0.981422 0.500000
O O15 0.500000 0.000000 0.764020
O O16 0.427932 0.110348 0.756226
O O17 0.969701 0.198456 0.722434
O O18 0.014637 0.194156 0.000000
O O19 0.000000 0.000000 0.819628
O O20 0.428136 0.264274 0.500000
O O21 0.810199 0.709824 0.000000
#
# Coordination Sequence:
#
# PCOD9441395 Si02
#       8
#     8   8   8   8   8   8   8   8
#     4   9  18  32  54  84 112 143 182 231 283 335
#     4  10  21  36  59  87 114 144 187 240 288 344
#     4  10  20  37  60  84 115 150 185 230 291 354
#     4  12  25  38  56  84 122 158 192 241 299 353
#     4  10  18  34  59  83 109 144 193 243 285 340
#     4  10  21  37  61  86 110 151 202 246 285 342
#     4   9  17  32  56  85 112 142 187 239 286 330
#     4  10  22  39  60  86 115 154 202 244 283 343
#
# _framework density 22.850482
#
# number of rings (size 3 to 8) (size 9 to 14) (size 15 to 20)
#    0.000    2.000    1.250    2.625    1.750    3.500 
#    0.000    0.000    0.000    1.500    0.000    0.000 
#    0.000    0.000    0.000    0.000    0.000    0.000 
#
# Total GULP energy -357373.501138 kJ/mol
# GULP energy per Si atom -5583.960955 kJ/mol
# Density = 2.279847 g / cm^3
# Si number density = 22.850482 Si / 1000 Ang^3
#
#
#
# Elastic Constant Matrix: (Units=GPa)
#
#
# Indices 1 2 3 4 5 6 
#
# 1 77.6114 -2.6891 -5.8042 0.0000 0.0000 0.0000
# 2 -2.6891 85.0203 2.1707 0.0000 0.0000 0.0000
# 3 -5.8042 2.1707 47.4360 0.0000 0.0000 0.0000
# 4 0.0000 0.0000 0.0000 -1.9045 0.0000 0.0000
# 5 0.0000 0.0000 0.0000 0.0000 18.0410 0.0000
# 6 0.0000 0.0000 0.0000 0.0000 0.0000 15.6236
#
#
#
# Elastic Compliance Matrix: (Units=1/GPa)
#
#
# Indices 1 2 3 4 5 6 
#
# 1 0.013015 0.000371 0.001576 0.000000 0.000000 0.000000
# 2 0.000371 0.011786 -0.000494 0.000000 0.000000 0.000000
# 3 0.001576 -0.000494 0.021296 0.000000 0.000000 0.000000
# 4 0.000000 0.000000 0.000000 -0.525080 0.000000 0.000000
# 5 0.000000 0.000000 0.000000 0.000000 0.055429 0.000000
# 6 0.000000 0.000000 0.000000 0.000000 0.000000 0.064006
#
#
# Mechanical properties :
#
#
# Convention : Reuss Voigt Hill
#
# Bulk Modulus (GPa) = 20.40639 21.93583 21.17111
# Shear Modulus (GPa) = -14.44592 20.77804 3.16606
#
# Velocity S-wave (km/s) = -2.51707 3.01874 1.17837
# Velocity P-wave (km/s) = 0.70869 4.66593 3.33715
#
# Compressibility (1/GPa) = 0.04900427
#
# Stress axis : x y z
#
# Youngs Moduli (GPa) = 76.83205 84.84459 46.95621
#
# Poissons Ratio (x) = -0.03151 -0.07398
# Poissons Ratio (y) = -0.02854 0.02319
# Poissons Ratio (z) = -0.12105 0.04190
#
# Static dielectric constant tensor:
#      x y z
#    x 1.828670 0.000000 0.000000 
#    y 0.000000 1.849730 0.000000 
#    z 0.000000 0.000000 1.942970 
# 
# From -- ./inp_files/11046.got.cif
#   From: 2010.05.17/outbox.cif.g08.bks.cpg/sg58_6_cif.got.tgz:11046.got - 2010.06.03 14:20:14.
