data_PCOD9441479
_publ_section_title
;
Structure prediction by ZEFSAII (Michael W. Deem and Ramdas Pophale) SiO2 
 PCOD9441479
Probable space group: P N N M
;
_chemical_formula_sum "Si O2"
_cell_formula_units_Z 48
_cell_length_a 15.001744
_cell_length_b 9.221142
_cell_length_c 18.522288
_cell_angle_alpha 90.000000
_cell_angle_beta 90.000000
_cell_angle_gamma 90.000000
_cell_volume 2562.247587
_symmetry_space_group_name_H-M "P N N M"
_symmetry_group_IT_number 58
_symmetry_cell_setting 'orthorhombic'
loop_
_space_group_symop_operation_xyz
x,y,z
-x,-y,z
1/2+x,1/2-y,1/2-z
1/2-x,1/2+y,1/2-z
-x,-y,-z
x,y,-z
1/2-x,1/2+y,1/2+z
1/2+x,1/2-y,1/2+z
loop_
_atom_site_type_symbol
_atom_site_label
_atom_site_fract_x
_atom_site_fract_y
_atom_site_fract_z
Si Si1 0.065347 0.637208 0.579280
Si Si2 0.440962 0.638172 0.853424
Si Si3 0.328795 0.210467 0.219356
Si Si4 0.256429 0.511992 0.161200
Si Si5 0.015068 0.324638 0.776982
Si Si6 0.911964 0.600306 0.920054
O O1 0.107998 0.639320 0.500000
O O2 0.133107 0.636882 0.646175
O O3 0.000000 0.500000 0.583924
O O4 0.001744 0.777345 0.589148
O O5 0.500000 0.500000 0.829429
O O6 0.344191 0.580711 0.875115
O O7 0.430744 0.754091 0.788451
O O8 0.281800 0.355313 0.192860
O O9 0.270796 0.108891 0.270239
O O10 0.417096 0.242114 0.267196
O O11 0.173314 0.490655 0.107415
O O12 0.062740 0.296555 0.852940
O O13 0.000000 0.500000 0.769277
O O14 0.000000 0.500000 0.924815
O O15 0.895713 0.661691 0.000000
#
# Coordination Sequence:
#
# PCOD9441479 Si02
#       6
#     8   8   8   8   8   8
#     4  10  23  42  62  85 126 169 194 241 314 379
#     4  11  21  37  60  92 119 151 201 252 301 348
#     4  11  22  37  60  91 118 154 203 246 300 356
#     4  12  23  36  62  94 116 157 200 260 295 355
#     4  10  18  39  60  83 121 157 193 250 296 363
#     4  10  21  38  59  85 116 156 196 239 294 352
#
# _framework density 18.733552
#
# number of rings (size 3 to 8) (size 9 to 14) (size 15 to 20)
#    0.000    1.333    6.667    3.000    2.333    1.667 
#    0.000    0.000    0.000    1.500    0.000    0.000 
#    0.000    0.000    0.000    0.000    0.000    0.000 
#
# Total GULP energy -267538.947533 kJ/mol
# GULP energy per Si atom -5573.728074 kJ/mol
# Density = 1.869091 g / cm^3
# Si number density = 18.733552 Si / 1000 Ang^3
#
#
#
# Elastic Constant Matrix: (Units=GPa)
#
#
# Indices 1 2 3 4 5 6 
#
# 1 86.7132 10.8538 2.7834 0.0000 0.0000 0.0000
# 2 10.8538 67.4362 6.8716 0.0000 0.0000 0.0000
# 3 2.7834 6.8716 75.3317 0.0000 0.0000 0.0000
# 4 0.0000 0.0000 0.0000 -0.2156 0.0000 0.0000
# 5 0.0000 0.0000 0.0000 0.0000 -0.4613 0.0000
# 6 0.0000 0.0000 0.0000 0.0000 0.0000 30.6030
#
#
#
# Elastic Compliance Matrix: (Units=1/GPa)
#
#
# Indices 1 2 3 4 5 6 
#
# 1 0.011775 -0.001868 -0.000265 0.000000 0.000000 0.000000
# 2 -0.001868 0.015264 -0.001323 0.000000 0.000000 0.000000
# 3 -0.000265 -0.001323 0.013405 0.000000 0.000000 0.000000
# 4 0.000000 0.000000 0.000000 -4.638126 0.000000 0.000000
# 5 0.000000 0.000000 0.000000 0.000000 -2.167986 0.000000
# 6 0.000000 0.000000 0.000000 0.000000 0.000000 0.032676
#
#
# Mechanical properties :
#
#
# Convention : Reuss Voigt Hill
#
# Bulk Modulus (GPa) = 29.82248 30.05543 29.93896
# Shear Modulus (GPa) = -0.74461 19.91673 9.58606
#
# Velocity S-wave (km/s) = -0.63114 3.26415 2.26454
# Velocity P-wave (km/s) = 3.92718 5.50315 4.78055
#
# Compressibility (1/GPa) = 0.03353175
#
# Stress axis : x y z
#
# Youngs Moduli (GPa) = 84.92864 65.51214 74.59840
#
# Poissons Ratio (x) = 0.12239 0.01974
# Poissons Ratio (y) = 0.15866 0.09872
# Poissons Ratio (z) = 0.02248 0.08670
#
# Static dielectric constant tensor:
#      x y z
#    x 1.690210 0.000000 0.000000 
#    y 0.000000 1.660680 0.000000 
#    z 0.000000 0.000000 1.674550 
# 
# From -- ./inp_files/29911.got.cif
#   From: 2010.05.17/outbox.cif.g08.bks.cpg/sg58_15_cif.got.tgz:29911.got - 2010.06.03 14:20:14.
