data_PCOD9441844
_publ_section_title
;
Structure prediction by ZEFSAII (Michael W. Deem and Ramdas Pophale) SiO2 
 PCOD9441844
Probable space group: P N N M
;
_chemical_formula_sum "Si O2"
_cell_formula_units_Z 48
_cell_length_a 14.547117
_cell_length_b 20.777719
_cell_length_c 7.395660
_cell_angle_alpha 90.000000
_cell_angle_beta 90.000000
_cell_angle_gamma 90.000000
_cell_volume 2235.381938
_symmetry_space_group_name_H-M "P N N M"
_symmetry_group_IT_number 58
_symmetry_cell_setting 'orthorhombic'
loop_
_space_group_symop_operation_xyz
x,y,z
-x,-y,z
1/2+x,1/2-y,1/2-z
1/2-x,1/2+y,1/2-z
-x,-y,-z
x,y,-z
1/2-x,1/2+y,1/2+z
1/2+x,1/2-y,1/2+z
loop_
_atom_site_type_symbol
_atom_site_label
_atom_site_fract_x
_atom_site_fract_y
_atom_site_fract_z
Si Si1 0.771074 0.239233 0.713667
Si Si2 0.254285 0.113184 0.221352
Si Si3 0.543431 0.932446 0.220767
Si Si4 0.965509 0.187327 0.719908
Si Si5 0.423113 0.811870 0.783644
Si Si6 0.563903 0.444458 0.292199
O O1 0.785567 0.247669 0.500000
O O2 0.753445 0.311939 0.782731
O O3 0.863594 0.206153 0.781988
O O4 0.683758 0.193879 0.741058
O O5 0.351231 0.081284 0.274192
O O6 0.163858 0.074821 0.284564
O O7 0.250722 0.113945 0.000000
O O8 0.478743 0.873681 0.282111
O O9 0.500000 0.000000 0.278930
O O10 0.543509 0.932498 0.000000
O O11 0.967033 0.183802 0.500000
O O12 0.030360 0.245893 0.779546
O O13 0.004794 0.120657 0.789235
O O14 0.432377 0.812606 0.000000
O O15 0.500000 0.500000 0.209162
O O16 0.581927 0.464441 0.500000
#
# Coordination Sequence:
#
# PCOD9441844 Si02
#       6
#     8   8   8   8   8   8
#     4  10  19  33  54  76 104 144 177 208 261 319
#     4   9  16  30  50  72 102 139 173 206 259 320
#     4   9  17  30  51  77 105 137 171 214 264 309
#     4  10  20  34  53  77 105 138 179 217 257 315
#     4  10  19  32  52  80 104 128 177 227 253 297
#     4  10  21  35  54  80 109 139 175 220 267 315
#
# _framework density 21.472840999999999
#
# number of rings (size 3 to 8) (size 9 to 14) (size 15 to 20)
#    0.000    2.333    3.333    0.000    0.000    2.333 
#    0.000    3.333    0.000    1.500    0.000    0.000 
#    0.000    0.000    0.000    0.000    0.000    0.000 
#
# Total GULP energy -268063.495658 kJ/mol
# GULP energy per Si atom -5584.656160 kJ/mol
# Density = 2.142397 g / cm^3
# Si number density = 21.472841 Si / 1000 Ang^3
#
#
#
# Elastic Constant Matrix: (Units=GPa)
#
#
# Indices 1 2 3 4 5 6 
#
# 1 177.9066 61.4965 -6.6088 0.0000 0.0000 0.0000
# 2 61.4965 122.1638 -5.3432 0.0000 0.0000 0.0000
# 3 -6.6088 -5.3432 71.0999 0.0000 0.0000 0.0000
# 4 0.0000 0.0000 0.0000 -193.5618 0.0000 0.0000
# 5 0.0000 0.0000 0.0000 0.0000 11.8567 0.0000
# 6 0.0000 0.0000 0.0000 0.0000 0.0000 33.9596
#
#
#
# Elastic Compliance Matrix: (Units=1/GPa)
#
#
# Indices 1 2 3 4 5 6 
#
# 1 0.006815 -0.003414 0.000377 0.000000 0.000000 0.000000
# 2 -0.003414 0.009923 0.000428 0.000000 0.000000 0.000000
# 3 0.000377 0.000428 0.014132 0.000000 0.000000 0.000000
# 4 0.000000 0.000000 0.000000 -0.005166 0.000000 0.000000
# 5 0.000000 0.000000 0.000000 0.000000 0.084340 0.000000
# 6 0.000000 0.000000 0.000000 0.000000 0.000000 0.029447
#
#
# Mechanical properties :
#
#
# Convention : Reuss Voigt Hill
#
# Bulk Modulus (GPa) = 38.98281 52.25104 45.61693
# Shear Modulus (GPa) = 32.62441 -8.10737 12.25852
#
# Velocity S-wave (km/s) = 3.90209 -1.94521 2.39191
# Velocity P-wave (km/s) = 6.20449 4.39787 5.37759
#
# Compressibility (1/GPa) = 0.02565233
#
# Stress axis : x y z
#
# Youngs Moduli (GPa) = 146.73286 100.77444 70.76171
#
# Poissons Ratio (x) = 0.34406 -0.02667
# Poissons Ratio (y) = 0.50098 -0.03031
# Poissons Ratio (z) = -0.05530 -0.04317
#
# Static dielectric constant tensor:
#      x y z
#    x 1.769410 0.000000 0.000000 
#    y 0.000000 1.728830 0.000000 
#    z 0.000000 0.000000 1.844130 
# 
# From -- ./inp_files/5811.got.cif
#   From: 2010.05.17/outbox.cif.g08.bks.cpg/sg58_3_cif.got.tgz:5811.got - 2010.06.03 14:20:14.
