data_PCOD9441682
_publ_section_title
;
Structure prediction by ZEFSAII (Michael W. Deem and Ramdas Pophale) SiO2 
 PCOD9441682
Probable space group: P N N M
;
_chemical_formula_sum "Si O2"
_cell_formula_units_Z 64
_cell_length_a 18.839072
_cell_length_b 22.150600
_cell_length_c 9.226552
_cell_angle_alpha 90.000000
_cell_angle_beta 90.000000
_cell_angle_gamma 90.000000
_cell_volume 3850.210147
_symmetry_space_group_name_H-M "P N N M"
_symmetry_group_IT_number 58
_symmetry_cell_setting 'orthorhombic'
loop_
_space_group_symop_operation_xyz
x,y,z
-x,-y,z
1/2+x,1/2-y,1/2-z
1/2-x,1/2+y,1/2-z
-x,-y,-z
x,y,-z
1/2-x,1/2+y,1/2+z
1/2+x,1/2-y,1/2+z
loop_
_atom_site_type_symbol
_atom_site_label
_atom_site_fract_x
_atom_site_fract_y
_atom_site_fract_z
Si Si1 0.874125 0.732147 0.334063
Si Si2 0.578870 0.346292 0.672717
Si Si3 0.673998 0.117108 0.327542
Si Si4 0.081878 0.799939 0.827767
Si Si5 0.036906 0.683516 0.666218
Si Si6 0.516280 0.068814 0.326466
Si Si7 0.578866 0.483088 0.676270
Si Si8 0.316277 0.409792 0.675109
O O1 0.849183 0.732976 0.500000
O O2 0.876903 0.797436 0.261401
O O3 0.831992 0.684177 0.238441
O O4 0.955826 0.708738 0.333634
O O5 0.591198 0.339498 0.500000
O O6 0.494968 0.332028 0.695655
O O7 0.595215 0.414539 0.718019
O O8 0.682875 0.119003 0.500000
O O9 0.598788 0.084584 0.296170
O O10 0.740501 0.086687 0.250359
O O11 0.142421 0.847799 0.785931
O O12 0.081127 0.736266 0.744922
O O13 0.087227 0.788664 0.000000
O O14 0.059221 0.675767 0.500000
O O15 0.031313 0.619624 0.748252
O O16 0.505951 0.074193 0.500000
O O17 0.500000 0.000000 0.283355
O O18 0.500000 0.500000 0.726900
O O19 0.576819 0.483730 0.500000
O O20 0.634718 0.533831 0.719527
O O21 0.309197 0.410379 0.500000
#
# Coordination Sequence:
#
# PCOD9441682 Si02
#       8
#     8   8   8   8   8   8   8   8
#     4   9  17  30  48  70  96 124 158 201 249 296
#     4   9  15  26  48  74  98 126 167 210 243 279
#     4  10  20  34  52  74  99 127 164 210 259 310
#     4   9  16  27  46  71  98 130 166 202 240 287
#     4   9  17  28  46  74 102 123 151 200 252 293
#     4   9  18  34  56  77  96 125 168 212 255 309
#     4   9  15  27  48  75 103 135 177 214 240 284
#     4  10  19  31  50  74 102 137 172 207 251 301
#
# _framework density 16.62247
#
# number of rings (size 3 to 8) (size 9 to 14) (size 15 to 20)
#    0.000    2.750    1.250    1.125    0.000    4.250 
#    0.000    0.625    2.750    0.750    0.000    0.000 
#    0.000    0.000    0.000    0.000    0.000    0.000 
#
# Total GULP energy -356625.204942 kJ/mol
# GULP energy per Si atom -5572.268827 kJ/mol
# Density = 1.658464 g / cm^3
# Si number density = 16.622470 Si / 1000 Ang^3
#
#
#
# Elastic Constant Matrix: (Units=GPa)
#
#
# Indices 1 2 3 4 5 6 
#
# 1 49.4751 44.0948 31.7366 0.0000 0.0000 0.0000
# 2 44.0948 162.2640 57.1920 0.0000 0.0000 0.0000
# 3 31.7366 57.1920 50.1789 0.0000 0.0000 0.0000
# 4 0.0000 0.0000 0.0000 13.9387 0.0000 0.0000
# 5 0.0000 0.0000 0.0000 0.0000 21.0800 0.0000
# 6 0.0000 0.0000 0.0000 0.0000 0.0000 20.1036
#
#
#
# Elastic Compliance Matrix: (Units=1/GPa)
#
#
# Indices 1 2 3 4 5 6 
#
# 1 0.034775 -0.002838 -0.018760 0.000000 0.000000 0.000000
# 2 -0.002838 0.010533 -0.010210 0.000000 0.000000 0.000000
# 3 -0.018760 -0.010210 0.043430 0.000000 0.000000 0.000000
# 4 0.000000 0.000000 0.000000 0.071743 0.000000 0.000000
# 5 0.000000 0.000000 0.000000 0.000000 0.047438 0.000000
# 6 0.000000 0.000000 0.000000 0.000000 0.000000 0.049742
#
#
# Mechanical properties :
#
#
# Convention : Reuss Voigt Hill
#
# Bulk Modulus (GPa) = 39.80352 58.66273 49.23313
# Shear Modulus (GPa) = 15.16761 19.61745 17.39253
#
# Velocity S-wave (km/s) = 3.02400 3.43910 3.23821
# Velocity P-wave (km/s) = 6.01584 7.15106 6.60788
#
# Compressibility (1/GPa) = 0.02512340
#
# Stress axis : x y z
#
# Youngs Moduli (GPa) = 28.75614 94.94394 23.02550
#
# Poissons Ratio (x) = 0.26945 0.43195
# Poissons Ratio (y) = 0.08161 0.23508
# Poissons Ratio (z) = 0.53945 0.96934
#
# Static dielectric constant tensor:
#      x y z
#    x 1.548790 0.000000 0.000000 
#    y 0.000000 1.560370 0.000000 
#    z 0.000000 0.000000 1.554770 
# 
# From -- ./inp_files/9417.got.cif
#   From: 2010.05.17/outbox.cif.g08.bks.cpg/sg58_5_cif.got.tgz:9417.got - 2010.06.03 14:20:14.
