data_PCOD9441615
_publ_section_title
;
Structure prediction by ZEFSAII (Michael W. Deem and Ramdas Pophale) SiO2 
 PCOD9441615
Probable space group: P N N M
;
_chemical_formula_sum "Si O2"
_cell_formula_units_Z 64
_cell_length_a 21.629716
_cell_length_b 19.802801
_cell_length_c 7.372366
_cell_angle_alpha 90.000000
_cell_angle_beta 90.000000
_cell_angle_gamma 90.000000
_cell_volume 3157.797874
_symmetry_space_group_name_H-M "P N N M"
_symmetry_group_IT_number 58
_symmetry_cell_setting 'orthorhombic'
loop_
_space_group_symop_operation_xyz
x,y,z
-x,-y,z
1/2+x,1/2-y,1/2-z
1/2-x,1/2+y,1/2-z
-x,-y,-z
x,y,-z
1/2-x,1/2+y,1/2+z
1/2+x,1/2-y,1/2+z
loop_
_atom_site_type_symbol
_atom_site_label
_atom_site_fract_x
_atom_site_fract_y
_atom_site_fract_z
Si Si1 0.135494 0.321914 0.720525
Si Si2 0.006950 0.830522 0.281022
Si Si3 0.311104 0.528645 0.712822
Si Si4 0.438890 0.041103 0.778826
Si Si5 0.315594 0.963630 0.222113
Si Si6 0.437498 0.468786 0.289629
Si Si7 0.364624 0.670192 0.218344
Si Si8 0.007640 0.679163 0.279448
O O1 0.136507 0.321245 0.500000
O O2 0.176063 0.385594 0.778590
O O3 0.152529 0.245975 0.779693
O O4 0.063801 0.333899 0.772658
O O5 0.006873 0.831595 0.500000
O O6 0.935714 0.843866 0.222352
O O7 0.023840 0.754907 0.221568
O O8 0.052416 0.888841 0.217807
O O9 0.309801 0.511474 0.500000
O O10 0.247257 0.498896 0.785836
O O11 0.373459 0.495002 0.790811
O O12 0.320512 0.609033 0.727695
O O13 0.448860 0.118301 0.720215
O O14 0.500000 0.000000 0.723955
O O15 0.376171 0.005256 0.719753
O O16 0.438252 0.040330 0.000000
O O17 0.316253 0.964207 0.000000
O O18 0.500000 0.500000 0.206826
O O19 0.436662 0.490744 0.500000
O O20 0.365902 0.671419 0.000000
O O21 0.008034 0.679262 0.500000
#
# Coordination Sequence:
#
# PCOD9441615 Si02
#       8
#     8   8   8   8   8   8   8   8
#     4   8  13  24  42  64  88 114 147 183 219 265
#     4   9  17  28  45  69  92 114 145 189 231 266
#     4  10  20  32  45  65  93 122 153 188 223 260
#     4   9  13  20  39  66  94 118 139 173 225 272
#     4   9  16  26  42  65  92 121 150 182 221 266
#     4  10  19  31  45  61  86 120 154 189 224 259
#     4   9  17  29  47  68  89 116 149 185 226 269
#     4   8  13  22  38  65  96 116 137 178 230 273
#
# _framework density 20.267288000000001
#
# number of rings (size 3 to 8) (size 9 to 14) (size 15 to 20)
#    0.000    3.000    2.500    1.500    0.000    0.750 
#    0.000    1.250    0.000    0.750    0.000    0.000 
#    0.000    1.000    0.000    0.000    0.000    0.000 
#
# Total GULP energy -356999.259766 kJ/mol
# GULP energy per Si atom -5578.113434 kJ/mol
# Density = 2.022116 g / cm^3
# Si number density = 20.267288 Si / 1000 Ang^3
#
#
#
# Elastic Constant Matrix: (Units=GPa)
#
#
# Indices 1 2 3 4 5 6 
#
# 1 148.9165 102.6178 7.8792 0.0000 0.0000 0.0000
# 2 102.6178 177.8269 -6.0581 0.0000 0.0000 0.0000
# 3 7.8792 -6.0581 70.5602 0.0000 0.0000 0.0000
# 4 0.0000 0.0000 0.0000 155.9224 0.0000 0.0000
# 5 0.0000 0.0000 0.0000 0.0000 -5.5299 0.0000
# 6 0.0000 0.0000 0.0000 0.0000 0.0000 32.4013
#
#
#
# Elastic Compliance Matrix: (Units=1/GPa)
#
#
# Indices 1 2 3 4 5 6 
#
# 1 0.011382 -0.006631 -0.001840 0.000000 0.000000 0.000000
# 2 -0.006631 0.009503 0.001556 0.000000 0.000000 0.000000
# 3 -0.001840 0.001556 0.014511 0.000000 0.000000 0.000000
# 4 0.000000 0.000000 0.000000 0.006413 0.000000 0.000000
# 5 0.000000 0.000000 0.000000 0.000000 -0.180836 0.000000
# 6 0.000000 0.000000 0.000000 0.000000 0.000000 0.030863
#
#
# Mechanical properties :
#
#
# Convention : Reuss Voigt Hill
#
# Bulk Modulus (GPa) = 46.36782 67.35349 56.86066
# Shear Modulus (GPa) = -57.37564 56.08308 -0.64628
#
# Velocity S-wave (km/s) = -5.32644 5.26610 -0.56530
# Velocity P-wave (km/s) = 3.86006 8.38335 5.26215
#
# Compressibility (1/GPa) = 0.02156668
#
# Stress axis : x y z
#
# Youngs Moduli (GPa) = 87.86015 105.23203 68.91128
#
# Poissons Ratio (x) = 0.69776 0.12681
# Poissons Ratio (y) = 0.58257 -0.10725
# Poissons Ratio (z) = 0.16168 -0.16377
#
# Static dielectric constant tensor:
#      x y z
#    x 1.686340 0.000000 0.000000 
#    y 0.000000 1.729430 0.000000 
#    z 0.000000 0.000000 1.783450 
# 
# From -- ./inp_files/17206.got.cif
#   From: 2010.05.17/outbox.cif.g08.bks.cpg/sg58_9_cif.got.tgz:17206.got - 2010.06.03 14:20:14.
