data_PCOD9441724
_publ_section_title
;
Structure prediction by ZEFSAII (Michael W. Deem and Ramdas Pophale) SiO2 
 PCOD9441724
Probable space group: P N N M
;
_chemical_formula_sum "Si O2"
_cell_formula_units_Z 64
_cell_length_a 21.030002
_cell_length_b 17.253116
_cell_length_c 7.398530
_cell_angle_alpha 90.000000
_cell_angle_beta 90.000000
_cell_angle_gamma 90.000000
_cell_volume 2684.431309
_symmetry_space_group_name_H-M "P N N M"
_symmetry_group_IT_number 58
_symmetry_cell_setting 'orthorhombic'
loop_
_space_group_symop_operation_xyz
x,y,z
-x,-y,z
1/2+x,1/2-y,1/2-z
1/2-x,1/2+y,1/2-z
-x,-y,-z
x,y,-z
1/2-x,1/2+y,1/2+z
1/2+x,1/2-y,1/2+z
loop_
_atom_site_type_symbol
_atom_site_label
_atom_site_fract_x
_atom_site_fract_y
_atom_site_fract_z
Si Si1 0.395369 0.765015 0.782368
Si Si2 0.351640 0.606243 0.286641
Si Si3 0.890636 0.224251 0.793271
Si Si4 0.800808 0.612503 0.720059
Si Si5 0.485509 0.142181 0.795243
Si Si6 0.718034 0.831886 0.217854
Si Si7 0.658344 0.566865 0.278467
Si Si8 0.618517 0.967166 0.780922
O O1 0.402115 0.674903 0.734793
O O2 0.329125 0.804733 0.721362
O O3 0.452538 0.818628 0.712949
O O4 0.396820 0.768176 0.000000
O O5 0.340950 0.596332 0.500000
O O6 0.286859 0.644094 0.212050
O O7 0.361556 0.519192 0.218635
O O8 0.933964 0.287867 0.697155
O O9 0.818270 0.256853 0.790600
O O10 0.886564 0.137507 0.719320
O O11 0.912835 0.222751 0.000000
O O12 0.798783 0.612022 0.500000
O O13 0.730918 0.585782 0.778734
O O14 0.853630 0.549120 0.776202
O O15 0.447582 0.069483 0.713907
O O16 0.503232 0.118939 0.000000
O O17 0.672328 0.904052 0.262905
O O18 0.719683 0.824227 0.000000
O O19 0.657634 0.569584 0.500000
O O20 0.613844 0.969273 0.000000
#
# Coordination Sequence:
#
# PCOD9441724 Si02
#       8
#     8   8   8   8   8   8   8   8
#     4  10  21  34  50  75 104 133 168 215 256 290
#     4  10  19  33  53  73 100 136 168 201 250 309
#     4  10  19  31  52  77 100 129 168 213 255 292
#     4   9  15  27  50  78 105 126 156 206 257 298
#     4   9  19  35  51  71 102 137 175 208 244 300
#     4   9  16  29  50  75 102 131 162 196 247 309
#     4   9  17  30  49  77 104 126 160 209 256 299
#     4   8  13  25  48  74  98 127 160 198 242 293
#
# _framework density 23.841173999999999
#
# number of rings (size 3 to 8) (size 9 to 14) (size 15 to 20)
#    0.000    2.750    1.250    1.875    0.000    2.500 
#    0.000    4.375    0.000    7.500    0.000    4.375 
#    0.000    0.000    0.000    0.000    0.000    0.000 
#
# Total GULP energy -357306.785558 kJ/mol
# GULP energy per Si atom -5582.918524 kJ/mol
# Density = 2.378691 g / cm^3
# Si number density = 23.841174 Si / 1000 Ang^3
#
#
#
# Elastic Constant Matrix: (Units=GPa)
#
#
# Indices 1 2 3 4 5 6 
#
# 1 36.9321 -0.1033 -5.8539 0.0000 0.0000 0.0000
# 2 -0.1033 127.7261 -5.7852 0.0000 0.0000 0.0000
# 3 -5.8539 -5.7852 81.2203 0.0000 0.0000 0.0000
# 4 0.0000 0.0000 0.0000 11.0787 0.0000 0.0000
# 5 0.0000 0.0000 0.0000 0.0000 2.7078 0.0000
# 6 0.0000 0.0000 0.0000 0.0000 0.0000 31.5145
#
#
#
# Elastic Compliance Matrix: (Units=1/GPa)
#
#
# Indices 1 2 3 4 5 6 
#
# 1 0.027391 0.000112 0.001982 0.000000 0.000000 0.000000
# 2 0.000112 0.007855 0.000568 0.000000 0.000000 0.000000
# 3 0.001982 0.000568 0.012495 0.000000 0.000000 0.000000
# 4 0.000000 0.000000 0.000000 0.090264 0.000000 0.000000
# 5 0.000000 0.000000 0.000000 0.000000 0.369308 0.000000
# 6 0.000000 0.000000 0.000000 0.000000 0.000000 0.031731
#
#
# Mechanical properties :
#
#
# Convention : Reuss Voigt Hill
#
# Bulk Modulus (GPa) = 18.84475 24.71040 21.77758
# Shear Modulus (GPa) = 9.06767 26.23491 17.65129
#
# Velocity S-wave (km/s) = 1.95234 3.32083 2.72393
# Velocity P-wave (km/s) = 3.60605 5.00909 4.36432
#
# Compressibility (1/GPa) = 0.05306516
#
# Stress axis : x y z
#
# Youngs Moduli (GPa) = 36.50802 127.30663 80.02894
#
# Poissons Ratio (x) = -0.01425 -0.15863
# Poissons Ratio (y) = -0.00409 -0.04542
# Poissons Ratio (z) = -0.07237 -0.07226
#
# Static dielectric constant tensor:
#      x y z
#    x 1.915990 0.000000 0.000000 
#    y 0.000000 1.908500 0.000000 
#    z 0.000000 0.000000 1.934930 
# 
# From -- ./inp_files/10143.got.cif
#   From: 2010.05.17/outbox.cif.g08.bks.cpg/sg58_6_cif.got.tgz:10143.got - 2010.06.03 14:20:14.
