data_PCOD9441203
_publ_section_title
;
Structure prediction by ZEFSAII (Michael W. Deem and Ramdas Pophale) SiO2 
 PCOD9441203
Probable space group: P N N M
;
_chemical_formula_sum "Si O2"
_cell_formula_units_Z 48
_cell_length_a 14.685193
_cell_length_b 8.467297
_cell_length_c 17.280178
_cell_angle_alpha 90.000000
_cell_angle_beta 90.000000
_cell_angle_gamma 90.000000
_cell_volume 2148.684563
_symmetry_space_group_name_H-M "P N N M"
_symmetry_group_IT_number 58
_symmetry_cell_setting 'orthorhombic'
loop_
_space_group_symop_operation_xyz
x,y,z
-x,-y,z
1/2+x,1/2-y,1/2-z
1/2-x,1/2+y,1/2-z
-x,-y,-z
x,y,-z
1/2-x,1/2+y,1/2+z
1/2+x,1/2-y,1/2+z
loop_
_atom_site_type_symbol
_atom_site_label
_atom_site_fract_x
_atom_site_fract_y
_atom_site_fract_z
Si Si1 0.131705 0.909059 0.841136
Si Si2 0.439184 0.151712 0.249009
Si Si3 0.179137 0.227178 0.912230
Si Si4 0.256044 0.000215 0.697498
Si Si5 0.385138 0.095208 0.913205
Si Si6 0.801694 0.742895 0.412164
O O1 0.050991 0.801903 0.805531
O O2 0.195808 0.933344 0.766105
O O3 0.196469 0.814195 0.901119
O O4 0.120558 0.080568 0.879635
O O5 0.334960 0.101038 0.263065
O O6 0.441790 0.173790 0.156120
O O7 0.500000 0.000000 0.268721
O O8 0.190125 0.373654 0.854563
O O9 0.283574 0.165644 0.915242
O O10 0.151383 0.269086 0.000000
O O11 0.191637 0.111594 0.645827
O O12 0.365204 0.909240 0.896715
O O13 0.423107 0.114602 0.000000
O O14 0.816578 0.792816 0.500000
#
# Coordination Sequence:
#
# PCOD9441203 Si02
#       6
#     8   8   8   8   8   8
#     4  10  18  33  53  77 106 141 179 224 261 312
#     4  11  22  35  53  80 112 145 179 222 275 321
#     4  10  18  31  57  83 105 135 182 228 268 313
#     4  11  18  32  55  82 108 138 181 225 261 313
#     4   9  17  32  52  79 109 140 172 212 268 325
#     4   9  17  29  51  79 106 133 173 222 265 307
#
# _framework density 22.339251999999998
#
# number of rings (size 3 to 8) (size 9 to 14) (size 15 to 20)
#    0.000    2.000    5.000    3.000    0.000    0.333 
#    0.000    0.833    0.000   19.000    0.000    2.333 
#    0.000    0.000    0.000    0.000    0.000    0.000 
#
# Total GULP energy -267841.763868 kJ/mol
# GULP energy per Si atom -5580.036747 kJ/mol
# Density = 2.228841 g / cm^3
# Si number density = 22.339252 Si / 1000 Ang^3
#
#
#
# Elastic Constant Matrix: (Units=GPa)
#
#
# Indices 1 2 3 4 5 6 
#
# 1 30.3828 -21.2627 0.7564 0.0000 0.0000 0.0000
# 2 -21.2627 35.3698 18.5696 0.0000 0.0000 0.0000
# 3 0.7564 18.5696 113.5174 0.0000 0.0000 0.0000
# 4 0.0000 0.0000 0.0000 35.7691 0.0000 0.0000
# 5 0.0000 0.0000 0.0000 0.0000 8.3614 0.0000
# 6 0.0000 0.0000 0.0000 0.0000 0.0000 22.5887
#
#
#
# Elastic Compliance Matrix: (Units=1/GPa)
#
#
# Indices 1 2 3 4 5 6 
#
# 1 0.061609 0.040752 -0.007077 0.000000 0.000000 0.000000
# 2 0.040752 0.057885 -0.009741 0.000000 0.000000 0.000000
# 3 -0.007077 -0.009741 0.010450 0.000000 0.000000 0.000000
# 4 0.000000 0.000000 0.000000 0.027957 0.000000 0.000000
# 5 0.000000 0.000000 0.000000 0.000000 0.119597 0.000000
# 6 0.000000 0.000000 0.000000 0.000000 0.000000 0.044270
#
#
# Mechanical properties :
#
#
# Convention : Reuss Voigt Hill
#
# Bulk Modulus (GPa) = 5.62389 19.48849 12.55619
# Shear Modulus (GPa) = 15.00736 25.42428 20.21582
#
# Velocity S-wave (km/s) = 2.59471 3.37723 3.01150
# Velocity P-wave (km/s) = 3.39111 4.89392 4.21011
#
# Compressibility (1/GPa) = 0.17781298
#
# Stress axis : x y z
#
# Youngs Moduli (GPa) = 16.23140 17.27563 95.69578
#
# Poissons Ratio (x) = -0.70402 0.67723
# Poissons Ratio (y) = -0.66146 0.93213
# Poissons Ratio (z) = 0.11487 0.16827
#
# Static dielectric constant tensor:
#      x y z
#    x 1.819670 0.000000 0.000000 
#    y 0.000000 1.899920 0.000000 
#    z 0.000000 0.000000 1.852130 
# 
# From -- ./inp_files/19846.got.cif
#   From: 2010.05.17/outbox.cif.g08.bks.cpg/sg58_10_cif.got.tgz:19846.got - 2010.06.03 14:20:14.
