data_PCOD9441563
_publ_section_title
;
Structure prediction by ZEFSAII (Michael W. Deem and Ramdas Pophale) SiO2 
 PCOD9441563
Probable space group: P N N M
;
_chemical_formula_sum "Si O2"
_cell_formula_units_Z 56
_cell_length_a 18.550533
_cell_length_b 6.963057
_cell_length_c 22.472604
_cell_angle_alpha 90.000000
_cell_angle_beta 90.000000
_cell_angle_gamma 90.000000
_cell_volume 2902.750722
_symmetry_space_group_name_H-M "P N N M"
_symmetry_group_IT_number 58
_symmetry_cell_setting 'orthorhombic'
loop_
_space_group_symop_operation_xyz
x,y,z
-x,-y,z
1/2+x,1/2-y,1/2-z
1/2-x,1/2+y,1/2-z
-x,-y,-z
x,y,-z
1/2-x,1/2+y,1/2+z
1/2+x,1/2-y,1/2+z
loop_
_atom_site_type_symbol
_atom_site_label
_atom_site_fract_x
_atom_site_fract_y
_atom_site_fract_z
Si Si1 0.709851 0.461904 0.433782
Si Si2 0.179139 0.353178 0.762154
Si Si3 0.844597 0.733667 0.432735
Si Si4 0.402325 0.326228 0.199681
Si Si5 0.236462 0.908192 0.372623
Si Si6 0.321130 0.417456 0.690326
Si Si7 0.941338 0.722899 0.677628
O O1 0.678640 0.478880 0.500000
O O2 0.788507 0.559314 0.434724
O O3 0.722530 0.241474 0.414744
O O4 0.669631 0.573442 0.380323
O O5 0.209519 0.469821 0.819025
O O6 0.240773 0.361010 0.711606
O O7 0.104664 0.387790 0.728076
O O8 0.174539 0.139203 0.788433
O O9 0.869487 0.774495 0.500000
O O10 0.908263 0.686171 0.387139
O O11 0.799409 0.916027 0.407511
O O12 0.329703 0.298781 0.161073
O O13 0.378404 0.308393 0.268406
O O14 0.472850 0.209646 0.181288
O O15 0.422649 0.550923 0.189455
#
# Coordination Sequence:
#
# PCOD9441563 Si02
#       7
#     8   8   8   8   8   8   8
#     4  10  19  30  47  70  95 123 157 194 230 276
#     4   9  16  26  48  67  89 118 150 199 245 265
#     4  10  19  31  48  68  95 129 159 187 226 280
#     4   8  16  28  48  68  94 122 156 195 243 271
#     4   9  18  32  47  68  92 123 159 198 231 274
#     4   9  16  28  45  69  89 119 152 198 237 277
#     4   9  15  29  46  71  95 122 157 195 232 287
#
# _framework density 19.292045999999999
#
# number of rings (size 3 to 8) (size 9 to 14) (size 15 to 20)
#    0.000    2.857    1.429    1.286    0.000    0.000 
#    0.000    7.143    0.000    1.714    0.000   19.000 
#    0.000    2.286    0.000    0.000    0.000    0.000 
#
# Total GULP energy -312318.008206 kJ/mol
# GULP energy per Si atom -5577.107289 kJ/mol
# Density = 1.924814 g / cm^3
# Si number density = 19.292046 Si / 1000 Ang^3
#
#
#
# Elastic Constant Matrix: (Units=GPa)
#
#
# Indices 1 2 3 4 5 6 
#
# 1 46.4674 6.6679 25.2240 0.0000 0.0000 0.0000
# 2 6.6679 44.1316 23.4279 0.0000 0.0000 0.0000
# 3 25.2240 23.4279 157.2951 0.0000 0.0000 0.0000
# 4 0.0000 0.0000 0.0000 25.3841 0.0000 0.0000
# 5 0.0000 0.0000 0.0000 0.0000 22.9450 0.0000
# 6 0.0000 0.0000 0.0000 0.0000 0.0000 25.5530
#
#
#
# Elastic Compliance Matrix: (Units=1/GPa)
#
#
# Indices 1 2 3 4 5 6 
#
# 1 0.023689 -0.001697 -0.003546 0.000000 0.000000 0.000000
# 2 -0.001697 0.024727 -0.003411 0.000000 0.000000 0.000000
# 3 -0.003546 -0.003411 0.007434 0.000000 0.000000 0.000000
# 4 0.000000 0.000000 0.000000 0.039395 0.000000 0.000000
# 5 0.000000 0.000000 0.000000 0.000000 0.043583 0.000000
# 6 0.000000 0.000000 0.000000 0.000000 0.000000 0.039134
#
#
# Mechanical properties :
#
#
# Convention : Reuss Voigt Hill
#
# Bulk Modulus (GPa) = 25.94541 39.83707 32.89124
# Shear Modulus (GPa) = 24.02511 27.61470 25.81990
#
# Velocity S-wave (km/s) = 3.53276 3.78749 3.66234
# Velocity P-wave (km/s) = 5.48803 6.31040 5.91353
#
# Compressibility (1/GPa) = 0.03854246
#
# Stress axis : x y z
#
# Youngs Moduli (GPa) = 42.21398 40.44244 134.51481
#
# Poissons Ratio (x) = 0.06862 0.47700
# Poissons Ratio (y) = 0.07163 0.45879
# Poissons Ratio (z) = 0.14969 0.13794
#
# Static dielectric constant tensor:
#      x y z
#    x 1.649920 0.000000 0.000000 
#    y 0.000000 1.774600 0.000000 
#    z 0.000000 0.000000 1.698050 
# 
# From -- ./inp_files/32323.got.cif
#   From: 2010.05.17/outbox.cif.g08.bks.cpg/sg58_17_cif.got.tgz:32323.got - 2010.06.03 14:20:14.
