data_PCOD9441576
_publ_section_title
;
Structure prediction by ZEFSAII (Michael W. Deem and Ramdas Pophale) SiO2 
 PCOD9441576
Probable space group: P N N M
;
_chemical_formula_sum "Si O2"
_cell_formula_units_Z 56
_cell_length_a 24.518399
_cell_length_b 10.652878
_cell_length_c 13.189953
_cell_angle_alpha 90.000000
_cell_angle_beta 90.000000
_cell_angle_gamma 90.000000
_cell_volume 3445.103784
_symmetry_space_group_name_H-M "P N N M"
_symmetry_group_IT_number 58
_symmetry_cell_setting 'orthorhombic'
loop_
_space_group_symop_operation_xyz
x,y,z
-x,-y,z
1/2+x,1/2-y,1/2-z
1/2-x,1/2+y,1/2-z
-x,-y,-z
x,y,-z
1/2-x,1/2+y,1/2+z
1/2+x,1/2-y,1/2+z
loop_
_atom_site_type_symbol
_atom_site_label
_atom_site_fract_x
_atom_site_fract_y
_atom_site_fract_z
Si Si1 0.955144 0.673142 0.622338
Si Si2 0.922577 0.401453 0.622216
Si Si3 0.178825 0.692263 0.257519
Si Si4 0.791010 0.810259 0.878806
Si Si5 0.168070 0.971677 0.259708
Si Si6 0.937861 0.955665 0.622053
Si Si7 0.719086 0.024795 0.620180
O O1 0.955094 0.672485 0.500000
O O2 0.922460 0.548730 0.652279
O O3 0.934023 0.808861 0.652162
O O4 0.018220 0.652758 0.651030
O O5 0.917474 0.392546 0.500000
O O6 0.875030 0.329963 0.677619
O O7 0.229893 0.677119 0.334029
O O8 0.185876 0.585489 0.173691
O O9 0.177138 0.833054 0.213740
O O10 0.826173 0.914856 0.820251
O O11 0.804433 0.663956 0.856455
O O12 0.792086 0.828222 0.000000
O O13 0.110616 0.976408 0.318444
O O14 0.218890 0.984611 0.337808
O O15 0.930171 0.969094 0.500000
O O16 0.000000 0.000000 0.643236
O O17 0.719853 0.010687 0.500000
#
# Coordination Sequence:
#
# PCOD9441576 Si02
#       7
#     8   8   8   8   8   8   8
#     4   8  16  28  42  67  99 131 161 192 235 284
#     4   9  16  28  46  69 101 131 159 195 236 286
#     4  10  19  30  50  75  96 127 164 198 240 287
#     4   9  19  35  51  69  96 129 164 201 243 288
#     4  10  20  32  50  75 102 128 162 200 244 290
#     4  10  19  30  47  72 103 134 162 195 242 296
#     4   9  19  35  51  70  98 131 165 202 242 288
#
# _framework density 16.254954000000001
#
# number of rings (size 3 to 8) (size 9 to 14) (size 15 to 20)
#    0.000    2.714    0.000    2.571    2.000    3.429 
#    0.000    0.000    0.000    0.429    0.000    3.000 
#    0.000    0.000    0.000    0.000    0.000    0.000 
#
# Total GULP energy -311925.338938 kJ/mol
# GULP energy per Si atom -5570.095338 kJ/mol
# Density = 1.621796 g / cm^3
# Si number density = 16.254954 Si / 1000 Ang^3
#
#
#
# Elastic Constant Matrix: (Units=GPa)
#
#
# Indices 1 2 3 4 5 6 
#
# 1 48.9299 37.8982 20.2012 0.0000 0.0000 0.0000
# 2 37.8982 121.2721 55.3414 0.0000 0.0000 0.0000
# 3 20.2012 55.3414 62.2239 0.0000 0.0000 0.0000
# 4 0.0000 0.0000 0.0000 24.8795 0.0000 0.0000
# 5 0.0000 0.0000 0.0000 0.0000 19.6655 0.0000
# 6 0.0000 0.0000 0.0000 0.0000 0.0000 21.5422
#
#
#
# Elastic Compliance Matrix: (Units=1/GPa)
#
#
# Indices 1 2 3 4 5 6 
#
# 1 0.027131 -0.007505 -0.002133 0.000000 0.000000 0.000000
# 2 -0.007505 0.015955 -0.011754 0.000000 0.000000 0.000000
# 3 -0.002133 -0.011754 0.027217 0.000000 0.000000 0.000000
# 4 0.000000 0.000000 0.000000 0.040194 0.000000 0.000000
# 5 0.000000 0.000000 0.000000 0.000000 0.050851 0.000000
# 6 0.000000 0.000000 0.000000 0.000000 0.000000 0.046421
#
#
# Mechanical properties :
#
#
# Convention : Reuss Voigt Hill
#
# Bulk Modulus (GPa) = 36.33815 51.03415 43.68615
# Shear Modulus (GPa) = 19.25111 21.14978 20.20044
#
# Velocity S-wave (km/s) = 3.44513 3.61103 3.52906
# Velocity P-wave (km/s) = 6.18295 6.98930 6.59845
#
# Compressibility (1/GPa) = 0.02751929
#
# Stress axis : x y z
#
# Youngs Moduli (GPa) = 36.85796 62.67621 36.74154
#
# Poissons Ratio (x) = 0.47040 0.07838
# Poissons Ratio (y) = 0.27663 0.43185
# Poissons Ratio (z) = 0.07862 0.73668
#
# Static dielectric constant tensor:
#      x y z
#    x 1.529330 0.000000 0.000000 
#    y 0.000000 1.597080 0.000000 
#    z 0.000000 0.000000 1.502420 
# 
# From -- ./inp_files/17493.got.cif
#   From: 2010.05.17/outbox.cif.g08.bks.cpg/sg58_9_cif.got.tgz:17493.got - 2010.06.03 14:20:14.
