data_PCOD9441740
_publ_section_title
;
Structure prediction by ZEFSAII (Michael W. Deem and Ramdas Pophale) SiO2 
 PCOD9441740
Probable space group: P N N M
;
_chemical_formula_sum "Si O2"
_cell_formula_units_Z 56
_cell_length_a 14.612267
_cell_length_b 19.020867
_cell_length_c 9.089257
_cell_angle_alpha 90.000000
_cell_angle_beta 90.000000
_cell_angle_gamma 90.000000
_cell_volume 2526.249796
_symmetry_space_group_name_H-M "P N N M"
_symmetry_group_IT_number 58
_symmetry_cell_setting 'orthorhombic'
loop_
_space_group_symop_operation_xyz
x,y,z
-x,-y,z
1/2+x,1/2-y,1/2-z
1/2-x,1/2+y,1/2-z
-x,-y,-z
x,y,-z
1/2-x,1/2+y,1/2+z
1/2+x,1/2-y,1/2+z
loop_
_atom_site_type_symbol
_atom_site_label
_atom_site_fract_x
_atom_site_fract_y
_atom_site_fract_z
Si Si1 0.895437 0.987336 0.672051
Si Si2 0.556805 0.862496 0.674609
Si Si3 0.281994 0.798374 0.679452
Si Si4 0.099296 0.853348 0.330725
Si Si5 0.277659 0.073524 0.172930
Si Si6 0.447962 0.715462 0.327523
Si Si7 0.611147 0.072658 0.174264
O O1 0.900207 0.965300 0.500000
O O2 0.860790 0.068303 0.676707
O O3 0.822607 0.940571 0.759131
O O4 0.000000 0.000000 0.724605
O O5 0.562439 0.874678 0.500000
O O6 0.656296 0.870832 0.747032
O O7 0.506957 0.787140 0.697115
O O8 0.487485 0.918429 0.749263
O O9 0.285191 0.804225 0.500000
O O10 0.177286 0.801256 0.727513
O O11 0.345214 0.732753 0.721717
O O12 0.329554 0.866004 0.750754
O O13 0.082509 0.836255 0.500000
O O14 0.003525 0.844904 0.251240
O O15 0.334574 0.000270 0.190412
O O16 0.269730 0.090001 0.000000
O O17 0.446254 0.701342 0.500000
O O18 0.599579 0.085313 0.000000
#
# Coordination Sequence:
#
# PCOD9441740 Si02
#       7
#     8   8   8   8   8   8   8
#     4  10  22  41  63  85 112 149 197 244 287 347
#     4  10  21  36  55  81 117 155 188 229 283 346
#     4   9  18  35  57  80 108 148 193 229 280 350
#     4  10  20  37  62  85 110 148 191 237 287 344
#     4  11  22  35  55  85 117 150 188 234 290 342
#     4   9  20  37  56  82 114 146 188 238 283 339
#     4  10  19  31  52  84 116 144 182 231 281 338
#
# _framework density 22.167245000000001
#
# number of rings (size 3 to 8) (size 9 to 14) (size 15 to 20)
#    0.000    2.143    1.429    2.571    0.000    7.714 
#    2.571    0.000    0.000    0.000    0.000    0.000 
#    0.000    0.000    0.000    0.000    0.000    0.000 
#
# Total GULP energy -312779.377892 kJ/mol
# GULP energy per Si atom -5585.346034 kJ/mol
# Density = 2.211679 g / cm^3
# Si number density = 22.167245 Si / 1000 Ang^3
#
#
#
# Elastic Constant Matrix: (Units=GPa)
#
#
# Indices 1 2 3 4 5 6 
#
# 1 160.8123 13.3691 44.3948 0.0000 0.0000 0.0000
# 2 13.3691 41.1536 13.3394 0.0000 0.0000 0.0000
# 3 44.3948 13.3394 30.2208 0.0000 0.0000 0.0000
# 4 0.0000 0.0000 0.0000 12.5181 0.0000 0.0000
# 5 0.0000 0.0000 0.0000 0.0000 27.2200 0.0000
# 6 0.0000 0.0000 0.0000 0.0000 0.0000 38.9685
#
#
#
# Elastic Compliance Matrix: (Units=1/GPa)
#
#
# Indices 1 2 3 4 5 6 
#
# 1 0.010582 0.001868 -0.016370 0.000000 0.000000 0.000000
# 2 0.001868 0.028686 -0.015407 0.000000 0.000000 0.000000
# 3 -0.016370 -0.015407 0.063939 0.000000 0.000000 0.000000
# 4 0.000000 0.000000 0.000000 0.079885 0.000000 0.000000
# 5 0.000000 0.000000 0.000000 0.000000 0.036738 0.000000
# 6 0.000000 0.000000 0.000000 0.000000 0.000000 0.025662
#
#
# Mechanical properties :
#
#
# Convention : Reuss Voigt Hill
#
# Bulk Modulus (GPa) = 23.04692 41.59926 32.32309
# Shear Modulus (GPa) = 15.63614 26.48019 21.05817
#
# Velocity S-wave (km/s) = 2.65876 3.46000 3.08550
# Velocity P-wave (km/s) = 4.45475 5.89652 5.22560
#
# Compressibility (1/GPa) = 0.04338974
#
# Stress axis : x y z
#
# Youngs Moduli (GPa) = 94.49633 34.86007 15.63998
#
# Poissons Ratio (x) = -0.06513 0.25603
# Poissons Ratio (y) = -0.17656 0.24096
# Poissons Ratio (z) = 1.54695 0.53708
#
# Static dielectric constant tensor:
#      x y z
#    x 1.837670 0.000000 0.000000 
#    y 0.000000 1.898130 0.000000 
#    z 0.000000 0.000000 1.743880 
# 
# From -- ./inp_files/6284.got.cif
#   From: 2010.05.17/outbox.cif.g08.bks.cpg/sg58_4_cif.got.tgz:6284.got - 2010.06.03 14:20:14.
