data_PCOD9441507
_publ_section_title
;
Structure prediction by ZEFSAII (Michael W. Deem and Ramdas Pophale) SiO2 
 PCOD9441507
Probable space group: P N N M
;
_chemical_formula_sum "Si O2"
_cell_formula_units_Z 56
_cell_length_a 18.783982
_cell_length_b 20.852935
_cell_length_c 9.293638
_cell_angle_alpha 90.000000
_cell_angle_beta 90.000000
_cell_angle_gamma 90.000000
_cell_volume 3640.328745
_symmetry_space_group_name_H-M "P N N M"
_symmetry_group_IT_number 58
_symmetry_cell_setting 'orthorhombic'
loop_
_space_group_symop_operation_xyz
x,y,z
-x,-y,z
1/2+x,1/2-y,1/2-z
1/2-x,1/2+y,1/2-z
-x,-y,-z
x,y,-z
1/2-x,1/2+y,1/2+z
1/2+x,1/2-y,1/2+z
loop_
_atom_site_type_symbol
_atom_site_label
_atom_site_fract_x
_atom_site_fract_y
_atom_site_fract_z
Si Si1 0.417361 0.005596 0.828781
Si Si2 0.287004 0.318611 0.165451
Si Si3 0.086964 0.759659 0.170886
Si Si4 0.078199 0.250971 0.173183
Si Si5 0.159442 0.621861 0.170483
Si Si6 0.844851 0.631756 0.328740
Si Si7 0.213545 0.177444 0.164382
O O1 0.378918 0.937740 0.804154
O O2 0.500000 0.000000 0.785718
O O3 0.378547 0.062441 0.745691
O O4 0.415321 0.019173 0.000000
O O5 0.362761 0.307356 0.240381
O O6 0.232609 0.361838 0.255986
O O7 0.250059 0.248036 0.165315
O O8 0.292910 0.339455 0.000000
O O9 0.114459 0.687080 0.199093
O O10 0.003656 0.763545 0.206234
O O11 0.096178 0.771155 0.000000
O O12 0.105763 0.313748 0.256256
O O13 0.132565 0.193014 0.207865
O O14 0.084388 0.262187 0.000000
O O15 0.237975 0.634048 0.234663
O O16 0.162577 0.612880 0.000000
O O17 0.839929 0.643193 0.500000
O O18 0.215509 0.153569 0.000000
#
# Coordination Sequence:
#
# PCOD9441507 Si02
#       7
#     8   8   8   8   8   8   8
#     4  10  21  34  46  63  89 121 154 184 216 259
#     4   9  17  29  45  64  87 117 150 183 223 268
#     4   9  17  29  45  68  95 118 146 184 224 266
#     4   9  17  29  46  68  93 120 147 181 225 267
#     4  10  19  29  44  65  89 119 151 185 220 254
#     4  10  19  30  45  64  88 120 154 187 221 259
#     4   8  15  28  44  61  85 117 148 178 216 263
#
# _framework density 15.383226000000001
#
# number of rings (size 3 to 8) (size 9 to 14) (size 15 to 20)
#    0.000    2.714    0.000    3.000    0.000    6.000 
#    0.000    0.000    0.000    0.000    0.000    1.000 
#    0.000    8.000    0.000    0.000    0.000    0.000 
#
# Total GULP energy -312080.524307 kJ/mol
# GULP energy per Si atom -5572.866505 kJ/mol
# Density = 1.534821 g / cm^3
# Si number density = 15.383226 Si / 1000 Ang^3
#
#
#
# Elastic Constant Matrix: (Units=GPa)
#
#
# Indices 1 2 3 4 5 6 
#
# 1 161.0977 57.4526 76.7178 0.0000 0.0000 0.0000
# 2 57.4526 57.8284 53.6973 0.0000 0.0000 0.0000
# 3 76.7178 53.6973 74.1573 0.0000 0.0000 0.0000
# 4 0.0000 0.0000 0.0000 20.6204 0.0000 0.0000
# 5 0.0000 0.0000 0.0000 0.0000 24.0929 0.0000
# 6 0.0000 0.0000 0.0000 0.0000 0.0000 20.4885
#
#
#
# Elastic Compliance Matrix: (Units=1/GPa)
#
#
# Indices 1 2 3 4 5 6 
#
# 1 0.012264 -0.001231 -0.011796 0.000000 0.000000 0.000000
# 2 -0.001231 0.052904 -0.037035 0.000000 0.000000 0.000000
# 3 -0.011796 -0.037035 0.052505 0.000000 0.000000 0.000000
# 4 0.000000 0.000000 0.000000 0.048496 0.000000 0.000000
# 5 0.000000 0.000000 0.000000 0.000000 0.041506 0.000000
# 6 0.000000 0.000000 0.000000 0.000000 0.000000 0.048808
#
#
# Mechanical properties :
#
#
# Convention : Reuss Voigt Hill
#
# Bulk Modulus (GPa) = 56.97989 74.31319 65.64654
# Shear Modulus (GPa) = 13.79475 20.05474 16.92475
#
# Velocity S-wave (km/s) = 2.99781 3.61456 3.32054
# Velocity P-wave (km/s) = 7.00737 8.11375 7.58077
#
# Compressibility (1/GPa) = 0.01755005
#
# Stress axis : x y z
#
# Youngs Moduli (GPa) = 81.54030 18.90202 19.04573
#
# Poissons Ratio (x) = 0.02326 0.22467
# Poissons Ratio (y) = 0.10035 0.70536
# Poissons Ratio (z) = 0.96186 0.70003
#
# Static dielectric constant tensor:
#      x y z
#    x 1.521860 0.000000 0.000000 
#    y 0.000000 1.479470 0.000000 
#    z 0.000000 0.000000 1.515410 
# 
# From -- ./inp_files/8105.got.cif
#   From: 2010.05.17/outbox.cif.g08.bks.cpg/sg58_5_cif.got.tgz:8105.got - 2010.06.03 14:20:14.
