data_PCOD9441581
_publ_section_title
;
Structure prediction by ZEFSAII (Michael W. Deem and Ramdas Pophale) SiO2 
 PCOD9441581
Probable space group: P N N M
;
_chemical_formula_sum "Si O2"
_cell_formula_units_Z 64
_cell_length_a 16.009312
_cell_length_b 24.430258
_cell_length_c 7.628260
_cell_angle_alpha 90.000000
_cell_angle_beta 90.000000
_cell_angle_gamma 90.000000
_cell_volume 2983.501146
_symmetry_space_group_name_H-M "P N N M"
_symmetry_group_IT_number 58
_symmetry_cell_setting 'orthorhombic'
loop_
_space_group_symop_operation_xyz
x,y,z
-x,-y,z
1/2+x,1/2-y,1/2-z
1/2-x,1/2+y,1/2-z
-x,-y,-z
x,y,-z
1/2-x,1/2+y,1/2+z
1/2+x,1/2-y,1/2+z
loop_
_atom_site_type_symbol
_atom_site_label
_atom_site_fract_x
_atom_site_fract_y
_atom_site_fract_z
Si Si1 0.116010 0.042922 0.710368
Si Si2 0.437702 0.422236 0.785328
Si Si3 0.638248 0.689231 0.794485
Si Si4 0.699756 0.962530 0.208735
Si Si5 0.540645 0.895972 0.788386
Si Si6 0.495740 0.772340 0.705698
Si Si7 0.684473 0.202611 0.296733
Si Si8 0.855514 0.578975 0.712032
O O1 0.112913 0.041972 0.500000
O O2 0.208314 0.060963 0.761093
O O3 0.035240 0.077272 0.768840
O O4 0.100866 0.980249 0.770805
O O5 0.388014 0.369641 0.719784
O O6 0.436426 0.421431 0.000000
O O7 0.560321 0.729637 0.783707
O O8 0.724177 0.713825 0.718725
O O9 0.656120 0.680019 0.000000
O O10 0.623377 0.926133 0.277657
O O11 0.692468 0.025052 0.275114
O O12 0.687348 0.966384 0.000000
O O13 0.530596 0.833780 0.726876
O O14 0.453931 0.926360 0.743851
O O15 0.544431 0.894199 0.000000
O O16 0.490963 0.760205 0.500000
O O17 0.401274 0.773291 0.781327
O O18 0.684137 0.220141 0.500000
O O19 0.674857 0.136592 0.287743
O O20 0.848594 0.583432 0.500000
#
# Coordination Sequence:
#
# PCOD9441581 Si02
#       8
#     8   8   8   8   8   8   8   8
#     4   9  17  32  52  74 104 136 167 206 250 297
#     4   8  16  32  54  76  98 131 174 211 243 298
#     4  10  19  35  58  78  99 136 179 210 253 316
#     4  10  19  30  47  76 107 135 168 205 250 306
#     4   9  18  34  52  69  99 141 174 203 250 309
#     4  10  21  37  53  76 106 131 166 222 270 299
#     4   9  19  35  55  78 103 131 168 216 264 306
#     4   9  17  30  51  76 102 133 172 212 248 298
#
# _framework density 21.451308000000001
#
# number of rings (size 3 to 8) (size 9 to 14) (size 15 to 20)
#    0.000    2.750    0.000    2.250    0.000    4.500 
#    2.250    2.500    0.000    3.750    0.000    0.000 
#    0.000    0.000    0.000    0.000    0.000    0.000 
#
# Total GULP energy -357077.405322 kJ/mol
# GULP energy per Si atom -5579.334458 kJ/mol
# Density = 2.140248 g / cm^3
# Si number density = 21.451308 Si / 1000 Ang^3
#
#
#
# Elastic Constant Matrix: (Units=GPa)
#
#
# Indices 1 2 3 4 5 6 
#
# 1 158.0737 29.5798 3.7666 0.0000 0.0000 0.0000
# 2 29.5798 18.6588 -4.9228 0.0000 0.0000 0.0000
# 3 3.7666 -4.9228 41.3622 0.0000 0.0000 0.0000
# 4 0.0000 0.0000 0.0000 34.0412 0.0000 0.0000
# 5 0.0000 0.0000 0.0000 0.0000 20.8575 0.0000
# 6 0.0000 0.0000 0.0000 0.0000 0.0000 18.4212
#
#
#
# Elastic Compliance Matrix: (Units=1/GPa)
#
#
# Indices 1 2 3 4 5 6 
#
# 1 0.009273 -0.015407 -0.002678 0.000000 0.000000 0.000000
# 2 -0.015407 0.080931 0.011035 0.000000 0.000000 0.000000
# 3 -0.002678 0.011035 0.025734 0.000000 0.000000 0.000000
# 4 0.000000 0.000000 0.000000 0.029376 0.000000 0.000000
# 5 0.000000 0.000000 0.000000 0.000000 0.047944 0.000000
# 6 0.000000 0.000000 0.000000 0.000000 0.000000 0.054285
#
#
# Mechanical properties :
#
#
# Convention : Reuss Voigt Hill
#
# Bulk Modulus (GPa) = 9.81960 30.54909 20.18434
# Shear Modulus (GPa) = 16.91534 27.30872 22.11203
#
# Velocity S-wave (km/s) = 2.81115 3.57186 3.21409
# Velocity P-wave (km/s) = 3.88900 5.59312 4.81702
#
# Compressibility (1/GPa) = 0.10183717
#
# Stress axis : x y z
#
# Youngs Moduli (GPa) = 107.83900 12.35625 38.85925
#
# Poissons Ratio (x) = 0.19038 0.10407
# Poissons Ratio (y) = 1.66150 -0.42882
# Poissons Ratio (z) = 0.28881 -0.13635
#
# Static dielectric constant tensor:
#      x y z
#    x 1.822830 0.000000 0.000000 
#    y 0.000000 1.734820 0.000000 
#    z 0.000000 0.000000 1.807110 
# 
# From -- ./inp_files/6730.got.cif
#   From: 2010.05.17/outbox.cif.g08.bks.cpg/sg58_4_cif.got.tgz:6730.got - 2010.06.03 14:20:14.
