data_PCOD9441784
_publ_section_title
;
Structure prediction by ZEFSAII (Michael W. Deem and Ramdas Pophale) SiO2 
 PCOD9441784
Probable space group: P N N M
;
_chemical_formula_sum "Si O2"
_cell_formula_units_Z 64
_cell_length_a 5.175030
_cell_length_b 35.407494
_cell_length_c 14.683154
_cell_angle_alpha 90.000000
_cell_angle_beta 90.000000
_cell_angle_gamma 90.000000
_cell_volume 2690.465428
_symmetry_space_group_name_H-M "P N N M"
_symmetry_group_IT_number 58
_symmetry_cell_setting 'orthorhombic'
loop_
_space_group_symop_operation_xyz
x,y,z
-x,-y,z
1/2+x,1/2-y,1/2-z
1/2-x,1/2+y,1/2-z
-x,-y,-z
x,y,-z
1/2-x,1/2+y,1/2+z
1/2+x,1/2-y,1/2+z
loop_
_atom_site_type_symbol
_atom_site_label
_atom_site_fract_x
_atom_site_fract_y
_atom_site_fract_z
Si Si1 0.217204 0.275375 0.604891
Si Si2 0.024280 0.102308 0.147979
Si Si3 0.199199 0.035063 0.402827
Si Si4 0.761008 0.475545 0.699739
Si Si5 0.212159 0.261630 0.110172
Si Si6 0.480626 0.384548 0.134469
Si Si7 0.018646 0.358478 0.636025
Si Si8 0.515395 0.843645 0.351513
O O1 0.240117 0.263478 0.500000
O O2 0.504429 0.269725 0.641593
O O3 0.121264 0.318036 0.606017
O O4 0.994494 0.249033 0.647122
O O5 0.166361 0.061743 0.146685
O O6 0.989316 0.110871 0.255764
O O7 0.232682 0.130639 0.104989
O O8 0.735940 0.110158 0.112230
O O9 0.344894 0.033965 0.500000
O O10 0.341298 0.035045 0.304661
O O11 0.047681 0.074428 0.401671
O O12 0.000000 0.000000 0.401956
O O13 0.500000 0.500000 0.705398
O O14 0.000000 0.500000 0.661873
O O15 0.087021 0.301333 0.137283
O O16 0.236843 0.261396 0.000000
O O17 0.201980 0.370367 0.105491
O O18 0.702547 0.353982 0.111667
O O19 0.989147 0.354152 0.744992
#
# Coordination Sequence:
#
# PCOD9441784 Si02
#       8
#     8   8   8   8   8   8   8   8
#     4  10  21  36  53  75 102 130 158 196 248 297
#     4   9  18  32  49  73 100 127 161 202 246 284
#     4   9  19  33  48  68  95 131 174 214 253 297
#     4  10  19  32  50  71 100 133 164 205 250 290
#     4  10  21  35  50  71 101 132 165 204 242 290
#     4   9  19  33  48  68  95 125 163 212 256 291
#     4  10  19  33  53  74 101 129 160 206 245 290
#     4  10  20  34  52  73  95 128 169 206 250 294
#
# _framework density 23.787706
#
# number of rings (size 3 to 8) (size 9 to 14) (size 15 to 20)
#    0.000    2.375    0.000    2.250    0.000    8.250 
#    0.000    2.500    0.000    0.000    0.000    0.000 
#    0.000   10.000    0.000    0.000    0.000    0.000 
#
# Total GULP energy -357354.200824 kJ/mol
# GULP energy per Si atom -5583.659388 kJ/mol
# Density = 2.373356 g / cm^3
# Si number density = 23.787706 Si / 1000 Ang^3
#
#
#
# Elastic Constant Matrix: (Units=GPa)
#
#
# Indices 1 2 3 4 5 6 
#
# 1 68.7643 -22.1576 9.7828 0.0000 0.0000 0.0000
# 2 -22.1576 54.2663 -8.5101 0.0000 0.0000 0.0000
# 3 9.7828 -8.5101 61.8629 0.0000 0.0000 0.0000
# 4 0.0000 0.0000 0.0000 14.6736 0.0000 0.0000
# 5 0.0000 0.0000 0.0000 0.0000 -69.5470 0.0000
# 6 0.0000 0.0000 0.0000 0.0000 0.0000 44.8741
#
#
#
# Elastic Compliance Matrix: (Units=1/GPa)
#
#
# Indices 1 2 3 4 5 6 
#
# 1 0.016932 0.006637 -0.001765 0.000000 0.000000 0.000000
# 2 0.006637 0.021435 0.001899 0.000000 0.000000 0.000000
# 3 -0.001765 0.001899 0.016705 0.000000 0.000000 0.000000
# 4 0.000000 0.000000 0.000000 0.068150 0.000000 0.000000
# 5 0.000000 0.000000 0.000000 0.000000 -0.014379 0.000000
# 6 0.000000 0.000000 0.000000 0.000000 0.000000 0.022285
#
#
# Mechanical properties :
#
#
# Convention : Reuss Voigt Hill
#
# Bulk Modulus (GPa) = 14.57400 15.90264 15.23832
# Shear Modulus (GPa) = 35.59813 11.71870 23.65842
#
# Velocity S-wave (km/s) = 3.87265 2.22195 3.15709
# Velocity P-wave (km/s) = 5.11239 3.64452 4.43954
#
# Compressibility (1/GPa) = 0.06861535
#
# Stress axis : x y z
#
# Youngs Moduli (GPa) = 59.05965 46.65186 59.86204
#
# Poissons Ratio (x) = -0.30962 0.10563
# Poissons Ratio (y) = -0.39197 -0.11369
# Poissons Ratio (z) = 0.10422 -0.08860
#
# Static dielectric constant tensor:
#      x y z
#    x 1.946180 0.000000 0.000000 
#    y 0.000000 1.888000 0.000000 
#    z 0.000000 0.000000 1.951240 
# 
# From -- ./inp_files/24502.got.cif
#   From: 2010.05.17/outbox.cif.g08.bks.cpg/sg58_13_cif.got.tgz:24502.got - 2010.06.03 14:20:14.
