data_PCOD9441921
_publ_section_title
;
Structure prediction by ZEFSAII (Michael W. Deem and Ramdas Pophale) SiO2 
 PCOD9441921
Probable space group: P N N M
;
_chemical_formula_sum "Si O2"
_cell_formula_units_Z 58
_cell_length_a 14.902738
_cell_length_b 22.905750
_cell_length_c 7.304536
_cell_angle_alpha 90.000000
_cell_angle_beta 90.000000
_cell_angle_gamma 90.000000
_cell_volume 2493.464656
_symmetry_space_group_name_H-M "P N N M"
_symmetry_group_IT_number 58
_symmetry_cell_setting 'orthorhombic'
loop_
_space_group_symop_operation_xyz
x,y,z
-x,-y,z
1/2+x,1/2-y,1/2-z
1/2-x,1/2+y,1/2-z
-x,-y,-z
x,y,-z
1/2-x,1/2+y,1/2+z
1/2+x,1/2-y,1/2+z
loop_
_atom_site_type_symbol
_atom_site_label
_atom_site_fract_x
_atom_site_fract_y
_atom_site_fract_z
Si Si1 0.216252 0.714341 0.277960
Si Si2 0.040117 0.776802 0.279466
Si Si3 0.961053 0.589227 0.777051
Si Si4 0.860821 0.471128 0.223283
Si Si5 0.370044 0.794612 0.291466
Si Si6 0.016086 0.907773 0.720396
Si Si7 0.690390 0.408775 0.211390
Si Si8 0.000000 0.000000 0.000000
O O1 0.217566 0.713506 0.500000
O O2 0.116461 0.731535 0.219004
O O3 0.281251 0.766237 0.211859
O O4 0.258699 0.653333 0.218517
O O5 0.034956 0.774560 0.500000
O O6 0.944507 0.755972 0.208165
O O7 0.057148 0.844418 0.234201
O O8 0.899401 0.534147 0.725792
O O9 0.917729 0.648892 0.709398
O O10 0.062809 0.575381 0.718767
O O11 0.964349 0.590970 0.000000
O O12 0.762606 0.453882 0.290554
O O13 0.858292 0.469719 0.000000
O O14 0.346896 0.810824 0.500000
O O15 0.022636 0.915823 0.500000
O O16 0.910578 0.905036 0.784338
O O17 0.051102 0.961243 0.838131
O O18 0.676995 0.424395 0.000000
#
# Coordination Sequence:
#
# PCOD9441921 Si02
#       8
#     8   8   8   8   8   8   8   2
#     4  10  21  34  54  83 115 154 201 248 313 380
#     4  10  21  38  57  83 123 162 195 256 321 377
#     4   8  14  26  45  76 110 142 180 237 295 365
#     4   8  14  26  47  75 109 141 183 234 299 359
#     4  10  19  32  55  82 109 144 196 244 298 369
#     4  10  23  43  66  92 125 162 214 263 319 380
#     4  10  19  34  58  87 113 150 200 260 303 368
#     4  12  26  44  72  90 120 174 210 266 320 366
#
# _framework density 23.260805999999999
#
# number of rings (size 3 to 8) (size 9 to 14) (size 15 to 20)
#    0.000    2.483    1.379    1.862    1.931    1.655 
#    2.483    0.000    0.000    0.828    0.000    3.862 
#    0.000    0.000    0.000    0.000    0.000    0.000 
#
# Total GULP energy -323411.850685 kJ/mol
# GULP energy per Si atom -5576.066391 kJ/mol
# Density = 2.320786 g / cm^3
# Si number density = 23.260806 Si / 1000 Ang^3
#
#
#
# Elastic Constant Matrix: (Units=GPa)
#
#
# Indices 1 2 3 4 5 6 
#
# 1 61.6076 -19.1818 -8.6252 0.0000 0.0000 0.0000
# 2 -19.1818 58.5307 -3.1401 0.0000 0.0000 0.0000
# 3 -8.6252 -3.1401 103.2641 0.0000 0.0000 0.0000
# 4 0.0000 0.0000 0.0000 -29.8335 0.0000 0.0000
# 5 0.0000 0.0000 0.0000 0.0000 -2.7453 0.0000
# 6 0.0000 0.0000 0.0000 0.0000 0.0000 33.5375
#
#
#
# Elastic Compliance Matrix: (Units=1/GPa)
#
#
# Indices 1 2 3 4 5 6 
#
# 1 0.018377 0.006115 0.001721 0.000000 0.000000 0.000000
# 2 0.006115 0.019148 0.001093 0.000000 0.000000 0.000000
# 3 0.001721 0.001093 0.009861 0.000000 0.000000 0.000000
# 4 0.000000 0.000000 0.000000 -0.033519 0.000000 0.000000
# 5 0.000000 0.000000 0.000000 0.000000 -0.364256 0.000000
# 6 0.000000 0.000000 0.000000 0.000000 0.000000 0.029817
#
#
# Mechanical properties :
#
#
# Convention : Reuss Voigt Hill
#
# Bulk Modulus (GPa) = 15.32751 17.94534 16.63643
# Shear Modulus (GPa) = -15.78869 17.14836 0.67984
#
# Velocity S-wave (km/s) = -2.60814 2.71813 0.54120
# Velocity P-wave (km/s) = 1.57040 4.19315 2.74922
#
# Compressibility (1/GPa) = 0.06524218
#
# Stress axis : x y z
#
# Youngs Moduli (GPa) = 54.41720 52.22579 101.41085
#
# Poissons Ratio (x) = -0.31935 -0.17451
# Poissons Ratio (y) = -0.33275 -0.11084
# Poissons Ratio (z) = -0.09364 -0.05708
#
# Static dielectric constant tensor:
#      x y z
#    x 1.862200 0.000000 0.000000 
#    y 0.000000 1.890320 0.000000 
#    z 0.000000 0.000000 1.951110 
# 
# From -- ./inp_files/6710.got.cif
#   From: 2010.05.17/outbox.cif.g08.bks.cpg/sg58_4_cif.got.tgz:6710.got - 2010.06.03 14:20:14.
