data_PCOD9441939
_publ_section_title
;
Structure prediction by ZEFSAII (Michael W. Deem and Ramdas Pophale) SiO2 
 PCOD9441939
Probable space group: P N N M
;
_chemical_formula_sum "Si O2"
_cell_formula_units_Z 56
_cell_length_a 5.087043
_cell_length_b 16.407116
_cell_length_c 34.768930
_cell_angle_alpha 90.000000
_cell_angle_beta 90.000000
_cell_angle_gamma 90.000000
_cell_volume 2901.943703
_symmetry_space_group_name_H-M "P N N M"
_symmetry_group_IT_number 58
_symmetry_cell_setting 'orthorhombic'
loop_
_space_group_symop_operation_xyz
x,y,z
-x,-y,z
1/2+x,1/2-y,1/2-z
1/2-x,1/2+y,1/2-z
-x,-y,-z
x,y,-z
1/2-x,1/2+y,1/2+z
1/2+x,1/2-y,1/2+z
loop_
_atom_site_type_symbol
_atom_site_label
_atom_site_fract_x
_atom_site_fract_y
_atom_site_fract_z
Si Si1 0.257225 0.055498 0.596790
Si Si2 0.580797 0.273893 0.070148
Si Si3 0.758423 0.443868 0.186276
Si Si4 0.829403 0.771283 0.725771
Si Si5 0.406563 0.682783 0.456736
Si Si6 0.106893 0.321411 0.647537
Si Si7 0.619633 0.410609 0.620762
O O1 0.190243 0.134986 0.572135
O O2 0.312386 0.079747 0.641474
O O3 0.500000 0.000000 0.583456
O O4 0.000000 0.000000 0.597320
O O5 0.304822 0.255299 0.049848
O O6 0.543180 0.244124 0.114191
O O7 0.803064 0.217434 0.051045
O O8 0.500000 0.500000 0.187293
O O9 0.722102 0.363062 0.211244
O O10 0.000000 0.500000 0.199407
O O11 0.563775 0.734886 0.743672
O O12 0.914477 0.718804 0.688836
O O13 0.383072 0.651693 0.500000
O O14 0.350561 0.616168 0.423823
O O15 0.402290 0.351232 0.639528
O O16 0.897934 0.393835 0.640911
O O17 0.500000 0.500000 0.623641
#
# Coordination Sequence:
#
# PCOD9441939 Si02
#       7
#     8   8   8   8   8   8   8
#     4  10  19  32  57  86 108 140 188 243 288 325
#     4  10  19  36  58  81 115 148 191 243 279 348
#     4  10  21  38  59  84 115 144 188 250 295 330
#     4  12  24  40  61  87 120 159 196 239 295 360
#     4  10  21  35  58  86 116 155 192 238 294 342
#     4  10  21  39  58  84 113 149 198 238 289 346
#     4  10  21  38  62  86 116 153 196 245 290 345
#
# _framework density 19.297408999999998
#
# number of rings (size 3 to 8) (size 9 to 14) (size 15 to 20)
#    0.000    1.714    1.429    3.429    0.000    0.286 
#    0.000    7.143    0.000   13.714    0.000    0.000 
#    0.000    0.000    0.000    0.000    0.000    0.000 
#
# Total GULP energy -312775.425249 kJ/mol
# GULP energy per Si atom -5585.275451 kJ/mol
# Density = 1.925349 g / cm^3
# Si number density = 19.297409 Si / 1000 Ang^3
#
#
#
# Elastic Constant Matrix: (Units=GPa)
#
#
# Indices 1 2 3 4 5 6 
#
# 1 94.4898 6.1098 11.8378 0.0000 0.0000 0.0000
# 2 6.1098 65.4402 21.3044 0.0000 0.0000 0.0000
# 3 11.8378 21.3044 67.4531 0.0000 0.0000 0.0000
# 4 0.0000 0.0000 0.0000 11.6915 0.0000 0.0000
# 5 0.0000 0.0000 0.0000 0.0000 12.4734 0.0000
# 6 0.0000 0.0000 0.0000 0.0000 0.0000 34.7231
#
#
#
# Elastic Compliance Matrix: (Units=1/GPa)
#
#
# Indices 1 2 3 4 5 6 
#
# 1 0.010832 -0.000437 -0.001763 0.000000 0.000000 0.000000
# 2 -0.000437 0.017050 -0.005308 0.000000 0.000000 0.000000
# 3 -0.001763 -0.005308 0.016811 0.000000 0.000000 0.000000
# 4 0.000000 0.000000 0.000000 0.085532 0.000000 0.000000
# 5 0.000000 0.000000 0.000000 0.000000 0.080171 0.000000
# 6 0.000000 0.000000 0.000000 0.000000 0.000000 0.028799
#
#
# Mechanical properties :
#
#
# Convention : Reuss Voigt Hill
#
# Bulk Modulus (GPa) = 33.69706 33.98747 33.84226
# Shear Modulus (GPa) = 18.93183 24.31965 21.62574
#
# Velocity S-wave (km/s) = 3.13558 3.55386 3.35125
# Velocity P-wave (km/s) = 5.53254 5.87287 5.70524
#
# Compressibility (1/GPa) = 0.02967618
#
# Stress axis : x y z
#
# Youngs Moduli (GPa) = 92.31656 58.65058 59.48455
#
# Poissons Ratio (x) = 0.02566 0.10486
# Poissons Ratio (y) = 0.04038 0.31576
# Poissons Ratio (z) = 0.16274 0.31134
#
# Static dielectric constant tensor:
#      x y z
#    x 1.673690 0.000000 0.000000 
#    y 0.000000 1.669370 0.000000 
#    z 0.000000 0.000000 1.671560 
# 
# From -- ./inp_files/34195.got.cif
#   From: 2010.05.17/outbox.cif.g08.bks.cpg/sg58_18_cif.got.tgz:34195.got - 2010.06.03 14:20:14.
