data_PCOD9441633
_publ_section_title
;
Structure prediction by ZEFSAII (Michael W. Deem and Ramdas Pophale) SiO2 
 PCOD9441633
Probable space group: P N N M
;
_chemical_formula_sum "Si O2"
_cell_formula_units_Z 48
_cell_length_a 31.752864
_cell_length_b 6.941063
_cell_length_c 9.774705
_cell_angle_alpha 90.000000
_cell_angle_beta 90.000000
_cell_angle_gamma 90.000000
_cell_volume 2154.331585
_symmetry_space_group_name_H-M "P N N M"
_symmetry_group_IT_number 58
_symmetry_cell_setting 'orthorhombic'
loop_
_space_group_symop_operation_xyz
x,y,z
-x,-y,z
1/2+x,1/2-y,1/2-z
1/2-x,1/2+y,1/2-z
-x,-y,-z
x,y,-z
1/2-x,1/2+y,1/2+z
1/2+x,1/2-y,1/2+z
loop_
_atom_site_type_symbol
_atom_site_label
_atom_site_fract_x
_atom_site_fract_y
_atom_site_fract_z
Si Si1 0.534436 0.774666 0.656951
Si Si2 0.301661 0.118301 0.156740
Si Si3 0.292134 0.476355 0.342320
Si Si4 0.864552 0.899800 0.659048
Si Si5 0.557948 0.318459 0.340694
Si Si6 0.607901 0.856534 0.152372
O O1 0.536169 0.835453 0.500000
O O2 0.485732 0.784401 0.701552
O O3 0.546384 0.547128 0.660446
O O4 0.570640 0.878989 0.741324
O O5 0.299234 0.266755 0.280652
O O6 0.257938 0.006812 0.164731
O O7 0.348138 0.029348 0.170557
O O8 0.301553 0.203235 0.000000
O O9 0.305563 0.496229 0.500000
O O10 0.321109 0.609175 0.245115
O O11 0.859915 0.846445 0.500000
O O12 0.902999 0.799121 0.738610
O O13 0.877606 0.129873 0.658855
O O14 0.567980 0.272622 0.500000
O O15 0.591810 0.893335 0.000000
#
# Coordination Sequence:
#
# PCOD9441633 Si02
#       6
#     8   8   8   8   8   8
#     4   8  13  20  31  49  73 101 135 171 203 246
#     4   9  19  33  46  65  91 116 148 186 220 261
#     4  10  19  31  48  66  87 118 150 182 223 263
#     4   9  16  25  37  55  80 108 140 177 213 254
#     4   8  13  21  32  48  73 104 136 169 206 249
#     4   8  14  24  36  51  76 107 135 169 211 251
#
# _framework density 22.280691999999998
#
# number of rings (size 3 to 8) (size 9 to 14) (size 15 to 20)
#    0.000    3.333    0.000    3.000    0.000    6.000 
#    0.000    3.333    0.000    0.000    0.000    0.000 
#    0.000    1.333    0.000   15.000    0.000   18.333 
#
# Total GULP energy -267851.754642 kJ/mol
# GULP energy per Si atom -5580.244888 kJ/mol
# Density = 2.222998 g / cm^3
# Si number density = 22.280692 Si / 1000 Ang^3
#
#
#
# Elastic Constant Matrix: (Units=GPa)
#
#
# Indices 1 2 3 4 5 6 
#
# 1 188.2445 26.8287 120.8355 0.0000 0.0000 0.0000
# 2 26.8287 54.4721 23.3290 0.0000 0.0000 0.0000
# 3 120.8355 23.3290 143.8890 0.0000 0.0000 0.0000
# 4 0.0000 0.0000 0.0000 3.6100 0.0000 0.0000
# 5 0.0000 0.0000 0.0000 0.0000 48.7600 0.0000
# 6 0.0000 0.0000 0.0000 0.0000 0.0000 39.4209
#
#
#
# Elastic Compliance Matrix: (Units=1/GPa)
#
#
# Indices 1 2 3 4 5 6 
#
# 1 0.011664 -0.001665 -0.009525 0.000000 0.000000 0.000000
# 2 -0.001665 0.019966 -0.001839 0.000000 0.000000 0.000000
# 3 -0.009525 -0.001839 0.015247 0.000000 0.000000 0.000000
# 4 0.000000 0.000000 0.000000 0.277010 0.000000 0.000000
# 5 0.000000 0.000000 0.000000 0.000000 0.020509 0.000000
# 6 0.000000 0.000000 0.000000 0.000000 0.000000 0.025367
#
#
# Mechanical properties :
#
#
# Convention : Reuss Voigt Hill
#
# Bulk Modulus (GPa) = 48.03435 80.95465 64.49450
# Shear Modulus (GPa) = 12.41436 32.73233 22.57335
#
# Velocity S-wave (km/s) = 2.36303 3.83703 3.18643
# Velocity P-wave (km/s) = 5.38987 7.48620 6.52281
#
# Compressibility (1/GPa) = 0.02081844
#
# Stress axis : x y z
#
# Youngs Moduli (GPa) = 85.73549 50.08603 65.58727
#
# Poissons Ratio (x) = 0.08341 0.62472
# Poissons Ratio (y) = 0.14278 0.12059
# Poissons Ratio (z) = 0.81663 0.09209
#
# Static dielectric constant tensor:
#      x y z
#    x 1.816610 0.000000 0.000000 
#    y 0.000000 1.970730 0.000000 
#    z 0.000000 0.000000 1.748660 
# 
# From -- ./inp_files/4312.got.cif
#   From: 2010.05.17/outbox.cif.g08.bks.cpg/sg58_3_cif.got.tgz:4312.got - 2010.06.03 14:20:14.
