data_PCOD9441757
_publ_section_title
;
Structure prediction by ZEFSAII (Michael W. Deem and Ramdas Pophale) SiO2 
 PCOD9441757
Probable space group: P N N M
;
_chemical_formula_sum "Si O2"
_cell_formula_units_Z 64
_cell_length_a 29.302518
_cell_length_b 12.984305
_cell_length_c 7.384615
_cell_angle_alpha 90.000000
_cell_angle_beta 90.000000
_cell_angle_gamma 90.000000
_cell_volume 2809.645375
_symmetry_space_group_name_H-M "P N N M"
_symmetry_group_IT_number 58
_symmetry_cell_setting 'orthorhombic'
loop_
_space_group_symop_operation_xyz
x,y,z
-x,-y,z
1/2+x,1/2-y,1/2-z
1/2-x,1/2+y,1/2-z
-x,-y,-z
x,y,-z
1/2-x,1/2+y,1/2+z
1/2+x,1/2-y,1/2+z
loop_
_atom_site_type_symbol
_atom_site_label
_atom_site_fract_x
_atom_site_fract_y
_atom_site_fract_z
Si Si1 0.951819 0.747041 0.218241
Si Si2 0.368986 0.412203 0.279171
Si Si3 0.801874 0.267285 0.219177
Si Si4 0.360304 0.639934 0.718370
Si Si5 0.027126 0.897997 0.779020
Si Si6 0.349119 0.017116 0.787283
Si Si7 0.949006 0.513009 0.295026
Si Si8 0.293424 0.822237 0.793786
O O1 0.912001 0.827784 0.262600
O O2 0.941837 0.635895 0.297141
O O3 0.999447 0.796761 0.276039
O O4 0.952054 0.735467 0.000000
O O5 0.369117 0.413211 0.500000
O O6 0.338909 0.316576 0.222139
O O7 0.350607 0.523843 0.222269
O O8 0.421005 0.400639 0.219438
O O9 0.818957 0.380281 0.273233
O O10 0.753200 0.224163 0.285687
O O11 0.800004 0.269971 0.000000
O O12 0.356067 0.643923 0.500000
O O13 0.327815 0.726733 0.795289
O O14 0.027063 0.899252 0.000000
O O15 0.000000 0.000000 0.722064
O O16 0.320427 0.919832 0.711766
O O17 0.401192 0.029422 0.713734
O O18 0.356556 0.994021 0.000000
O O19 0.952904 0.470725 0.500000
O O20 0.000000 0.500000 0.211714
O O21 0.281791 0.854210 0.000000
#
# Coordination Sequence:
#
# PCOD9441757 Si02
#       8
#     8   8   8   8   8   8   8   8
#     4  10  19  31  53  86 112 138 184 233 274 322
#     4   9  18  33  53  79 113 147 178 221 277 331
#     4  10  23  39  58  84 111 143 186 234 280 329
#     4  10  19  33  58  87 111 141 186 232 275 334
#     4   9  15  27  48  78 113 141 167 210 269 323
#     4  10  22  41  61  82 113 151 188 229 282 340
#     4  10  22  39  57  77 109 155 194 226 275 340
#     4  10  22  40  59  80 109 146 186 231 283 335
#
# _framework density 22.778675
#
# number of rings (size 3 to 8) (size 9 to 14) (size 15 to 20)
#    0.000    2.250    2.500    0.000    3.500    1.750 
#    0.000    0.625    0.000    1.125    0.000    0.000 
#    0.000    0.000    0.000    0.000    0.000    0.000 
#
# Total GULP energy -357423.092373 kJ/mol
# GULP energy per Si atom -5584.735818 kJ/mol
# Density = 2.272683 g / cm^3
# Si number density = 22.778675 Si / 1000 Ang^3
#
#
#
# Elastic Constant Matrix: (Units=GPa)
#
#
# Indices 1 2 3 4 5 6 
#
# 1 174.8495 72.9810 9.2602 0.0000 0.0000 0.0000
# 2 72.9810 126.2725 -0.4620 0.0000 0.0000 0.0000
# 3 9.2602 -0.4620 75.0600 0.0000 0.0000 0.0000
# 4 0.0000 0.0000 0.0000 18.9015 0.0000 0.0000
# 5 0.0000 0.0000 0.0000 0.0000 0.1648 0.0000
# 6 0.0000 0.0000 0.0000 0.0000 0.0000 35.9161
#
#
#
# Elastic Compliance Matrix: (Units=1/GPa)
#
#
# Indices 1 2 3 4 5 6 
#
# 1 0.007607 -0.004400 -0.000966 0.000000 0.000000 0.000000
# 2 -0.004400 0.010465 0.000607 0.000000 0.000000 0.000000
# 3 -0.000966 0.000607 0.013446 0.000000 0.000000 0.000000
# 4 0.000000 0.000000 0.000000 0.052906 0.000000 0.000000
# 5 0.000000 0.000000 0.000000 0.000000 6.067100 0.000000
# 6 0.000000 0.000000 0.000000 0.000000 0.000000 0.027843
#
#
# Mechanical properties :
#
#
# Convention : Reuss Voigt Hill
#
# Bulk Modulus (GPa) = 45.45374 59.97117 52.71245
# Shear Modulus (GPa) = 0.80694 30.62333 15.71514
#
# Velocity S-wave (km/s) = 0.59584 3.67056 2.62946
# Velocity P-wave (km/s) = 4.52451 6.65950 5.69299
#
# Compressibility (1/GPa) = 0.02200039
#
# Stress axis : x y z
#
# Youngs Moduli (GPa) = 131.45977 95.55965 74.37417
#
# Poissons Ratio (x) = 0.42047 0.07181
# Poissons Ratio (y) = 0.57843 -0.04516
# Poissons Ratio (z) = 0.12693 -0.05803
#
# Static dielectric constant tensor:
#      x y z
#    x 1.850180 0.000000 0.000000 
#    y 0.000000 1.778720 0.000000 
#    z 0.000000 0.000000 1.897040 
# 
# From -- ./inp_files/10997.got.cif
#   From: 2010.05.17/outbox.cif.g08.bks.cpg/sg58_6_cif.got.tgz:10997.got - 2010.06.03 14:20:14.
