data_PCOD9441289
_publ_section_title
;
Structure prediction by ZEFSAII (Michael W. Deem and Ramdas Pophale) SiO2 
 PCOD9441289
Probable space group: P N N M
;
_chemical_formula_sum "Si O2"
_cell_formula_units_Z 48
_cell_length_a 17.013866
_cell_length_b 14.667158
_cell_length_c 7.580520
_cell_angle_alpha 90.000000
_cell_angle_beta 90.000000
_cell_angle_gamma 90.000000
_cell_volume 1891.681324
_symmetry_space_group_name_H-M "P N N M"
_symmetry_group_IT_number 58
_symmetry_cell_setting 'orthorhombic'
loop_
_space_group_symop_operation_xyz
x,y,z
-x,-y,z
1/2+x,1/2-y,1/2-z
1/2-x,1/2+y,1/2-z
-x,-y,-z
x,y,-z
1/2-x,1/2+y,1/2+z
1/2+x,1/2-y,1/2+z
loop_
_atom_site_type_symbol
_atom_site_label
_atom_site_fract_x
_atom_site_fract_y
_atom_site_fract_z
Si Si1 0.606989 0.429847 0.296132
Si Si2 0.931242 0.123154 0.702041
Si Si3 0.835335 0.655716 0.284858
Si Si4 0.010700 0.690745 0.284080
Si Si5 0.616202 0.961210 0.800283
Si Si6 0.758591 0.319654 0.202386
O O1 0.603561 0.402826 0.500000
O O2 0.614673 0.539925 0.289769
O O3 0.523639 0.405233 0.209740
O O4 0.677891 0.377675 0.206298
O O5 0.905814 0.126944 0.500000
O O6 0.935655 0.225132 0.778125
O O7 0.828833 0.656888 0.500000
O O8 0.843990 0.551513 0.222815
O O9 0.764695 0.720283 0.224076
O O10 0.919527 0.700057 0.236951
O O11 0.014149 0.691715 0.500000
O O12 0.042311 0.592884 0.221647
O O13 0.680038 0.880855 0.805372
O O14 0.593937 0.988001 0.000000
O O15 0.784921 0.312711 0.000000
#
# Coordination Sequence:
#
# PCOD9441289 Si02
#       6
#     8   8   8   8   8   8
#     4  11  21  34  53  82 115 150 195 239 280 329
#     4  10  18  32  56  86 118 150 185 229 286 345
#     4   9  18  36  62  86 109 149 196 237 282 343
#     4   9  17  33  60  90 115 147 192 237 284 343
#     4  10  21  37  60  89 116 144 190 245 290 340
#     4  11  22  39  59  81 115 156 194 234 293 355
#
# _framework density 25.374254000000001
#
# number of rings (size 3 to 8) (size 9 to 14) (size 15 to 20)
#    0.000    2.000    1.667    4.000    0.000    3.333 
#    0.000    6.667    0.000    1.000    0.000    0.000 
#    0.000    0.000    0.000    0.000    0.000    0.000 
#
# Total GULP energy -268363.799612 kJ/mol
# GULP energy per Si atom -5590.912492 kJ/mol
# Density = 2.531650 g / cm^3
# Si number density = 25.374254 Si / 1000 Ang^3
#
#
#
# Elastic Constant Matrix: (Units=GPa)
#
#
# Indices 1 2 3 4 5 6 
#
# 1 48.8425 14.6141 2.2807 0.0000 0.0000 0.0000
# 2 14.6141 177.3069 5.7364 0.0000 0.0000 0.0000
# 3 2.2807 5.7364 87.7314 0.0000 0.0000 0.0000
# 4 0.0000 0.0000 0.0000 9.8374 0.0000 0.0000
# 5 0.0000 0.0000 0.0000 0.0000 -2.0843 0.0000
# 6 0.0000 0.0000 0.0000 0.0000 0.0000 43.6564
#
#
#
# Elastic Compliance Matrix: (Units=1/GPa)
#
#
# Indices 1 2 3 4 5 6 
#
# 1 0.021008 -0.001718 -0.000434 0.000000 0.000000 0.000000
# 2 -0.001718 0.005792 -0.000334 0.000000 0.000000 0.000000
# 3 -0.000434 -0.000334 0.011432 0.000000 0.000000 0.000000
# 4 0.000000 0.000000 0.000000 0.101653 0.000000 0.000000
# 5 0.000000 0.000000 0.000000 0.000000 -0.479770 0.000000
# 6 0.000000 0.000000 0.000000 0.000000 0.000000 0.022906
#
#
# Mechanical properties :
#
#
# Convention : Reuss Voigt Hill
#
# Bulk Modulus (GPa) = 30.06514 39.90480 34.98497
# Shear Modulus (GPa) = -16.61566 29.69853 6.54143
#
# Velocity S-wave (km/s) = -2.56173 3.42485 1.60735
# Velocity P-wave (km/s) = 1.76762 5.60358 4.15479
#
# Compressibility (1/GPa) = 0.03326111
#
# Stress axis : x y z
#
# Youngs Moduli (GPa) = 47.60065 172.64271 87.47722
#
# Poissons Ratio (x) = 0.29652 0.03795
# Poissons Ratio (y) = 0.08175 0.02922
# Poissons Ratio (z) = 0.02065 0.05768
#
# Static dielectric constant tensor:
#      x y z
#    x 2.007020 0.000000 0.000000 
#    y 0.000000 2.070420 0.000000 
#    z 0.000000 0.000000 1.929630 
# 
# From -- ./inp_files/7748.got.cif
#   From: 2010.05.17/outbox.cif.g08.bks.cpg/sg58_4_cif.got.tgz:7748.got - 2010.06.03 14:20:14.
