data_PCOD9441603
_publ_section_title
;
Structure prediction by ZEFSAII (Michael W. Deem and Ramdas Pophale) SiO2 
 PCOD9441603
Probable space group: P N N M
;
_chemical_formula_sum "Si O2"
_cell_formula_units_Z 56
_cell_length_a 10.285087
_cell_length_b 18.799165
_cell_length_c 14.580163
_cell_angle_alpha 90.000000
_cell_angle_beta 90.000000
_cell_angle_gamma 90.000000
_cell_volume 2819.089790
_symmetry_space_group_name_H-M "P N N M"
_symmetry_group_IT_number 58
_symmetry_cell_setting 'orthorhombic'
loop_
_space_group_symop_operation_xyz
x,y,z
-x,-y,z
1/2+x,1/2-y,1/2-z
1/2-x,1/2+y,1/2-z
-x,-y,-z
x,y,-z
1/2-x,1/2+y,1/2+z
1/2+x,1/2-y,1/2+z
loop_
_atom_site_type_symbol
_atom_site_label
_atom_site_fract_x
_atom_site_fract_y
_atom_site_fract_z
Si Si1 0.131690 0.338382 0.798652
Si Si2 0.455565 0.920038 0.141372
Si Si3 0.171307 0.193252 0.289643
Si Si4 0.230830 0.628540 0.399674
Si Si5 0.914693 0.133781 0.250131
Si Si6 0.913085 0.263829 0.104490
Si Si7 0.676064 0.535649 0.399432
O O1 0.060390 0.403565 0.748907
O O2 0.128408 0.275399 0.721603
O O3 0.283349 0.356538 0.809111
O O4 0.044923 0.308721 0.880312
O O5 0.573855 0.873826 0.103384
O O6 0.309474 0.917767 0.103383
O O7 0.500000 0.000000 0.123789
O O8 0.222370 0.171771 0.188164
O O9 0.289081 0.190872 0.360661
O O10 0.046173 0.144438 0.306838
O O11 0.273807 0.655207 0.500000
O O12 0.283164 0.547133 0.390874
O O13 0.918380 0.197265 0.174170
O O14 0.904130 0.064003 0.186914
O O15 0.898182 0.241483 0.000000
O O16 0.615810 0.546722 0.500000
#
# Coordination Sequence:
#
# PCOD9441603 Si02
#       7
#     8   8   8   8   8   8   8
#     4   9  18  34  54  72 101 134 176 221 259 304
#     4   9  16  30  52  77 103 137 177 220 262 306
#     4  10  20  33  50  74 111 139 175 213 258 315
#     4  10  19  30  49  80 113 142 170 207 258 321
#     4   9  19  33  52  74 108 139 167 211 266 319
#     4  10  19  34  56  75  99 138 182 221 262 301
#     4   9  17  29  48  78 111 140 172 205 254 326
#
# _framework density 19.864567000000001
#
# number of rings (size 3 to 8) (size 9 to 14) (size 15 to 20)
#    0.000    2.571    1.429    0.857    0.000    5.143 
#    0.000    2.857    0.000    0.429    0.000    2.000 
#    0.000    0.000    0.000    0.000    0.000    0.000 
#
# Total GULP energy -312168.333907 kJ/mol
# GULP energy per Si atom -5574.434534 kJ/mol
# Density = 1.981935 g / cm^3
# Si number density = 19.864567 Si / 1000 Ang^3
#
#
#
# Elastic Constant Matrix: (Units=GPa)
#
#
# Indices 1 2 3 4 5 6 
#
# 1 112.6690 15.5238 20.1623 0.0000 0.0000 0.0000
# 2 15.5238 23.8824 7.4326 0.0000 0.0000 0.0000
# 3 20.1623 7.4326 38.6248 0.0000 0.0000 0.0000
# 4 0.0000 0.0000 0.0000 18.8538 0.0000 0.0000
# 5 0.0000 0.0000 0.0000 0.0000 1.6286 0.0000
# 6 0.0000 0.0000 0.0000 0.0000 0.0000 26.4580
#
#
#
# Elastic Compliance Matrix: (Units=1/GPa)
#
#
# Indices 1 2 3 4 5 6 
#
# 1 0.010405 -0.005396 -0.004393 0.000000 0.000000 0.000000
# 2 -0.005396 0.047338 -0.006292 0.000000 0.000000 0.000000
# 3 -0.004393 -0.006292 0.029394 0.000000 0.000000 0.000000
# 4 0.000000 0.000000 0.000000 0.053040 0.000000 0.000000
# 5 0.000000 0.000000 0.000000 0.000000 0.614010 0.000000
# 6 0.000000 0.000000 0.000000 0.000000 0.000000 0.037796
#
#
# Mechanical properties :
#
#
# Convention : Reuss Voigt Hill
#
# Bulk Modulus (GPa) = 18.19056 29.04595 23.61826
# Shear Modulus (GPa) = 5.93493 18.19192 12.06342
#
# Velocity S-wave (km/s) = 1.73037 3.02950 2.46699
# Velocity P-wave (km/s) = 3.62897 5.18564 4.47550
#
# Compressibility (1/GPa) = 0.05497356
#
# Stress axis : x y z
#
# Youngs Moduli (GPa) = 96.10547 21.12480 34.02032
#
# Poissons Ratio (x) = 0.11400 0.14946
# Poissons Ratio (y) = 0.51861 0.21407
# Poissons Ratio (z) = 0.42221 0.13292
#
# Static dielectric constant tensor:
#      x y z
#    x 1.787900 0.000000 0.000000 
#    y 0.000000 1.736000 0.000000 
#    z 0.000000 0.000000 1.678790 
# 
# From -- ./inp_files/14589.got.cif
#   From: 2010.05.17/outbox.cif.g08.bks.cpg/sg58_8_cif.got.tgz:14589.got - 2010.06.03 14:20:14.
