data_PCOD9441895
_publ_section_title
;
Structure prediction by ZEFSAII (Michael W. Deem and Ramdas Pophale) SiO2 
 PCOD9441895
Probable space group: P N N M
;
_chemical_formula_sum "Si O2"
_cell_formula_units_Z 48
_cell_length_a 16.460594
_cell_length_b 11.020027
_cell_length_c 14.212626
_cell_angle_alpha 90.000000
_cell_angle_beta 90.000000
_cell_angle_gamma 90.000000
_cell_volume 2578.116211
_symmetry_space_group_name_H-M "P N N M"
_symmetry_group_IT_number 58
_symmetry_cell_setting 'orthorhombic'
loop_
_space_group_symop_operation_xyz
x,y,z
-x,-y,z
1/2+x,1/2-y,1/2-z
1/2-x,1/2+y,1/2-z
-x,-y,-z
x,y,-z
1/2-x,1/2+y,1/2+z
1/2+x,1/2-y,1/2+z
loop_
_atom_site_type_symbol
_atom_site_label
_atom_site_fract_x
_atom_site_fract_y
_atom_site_fract_z
Si Si1 0.681863 0.636535 0.393919
Si Si2 0.998737 0.145315 0.892728
Si Si3 0.555425 0.877789 0.891074
Si Si4 0.189070 0.489707 0.273625
Si Si5 0.084043 0.242473 0.714104
Si Si6 0.278570 0.611551 0.106873
O O1 0.671648 0.588042 0.500000
O O2 0.592971 0.675612 0.361252
O O3 0.729680 0.539796 0.332421
O O4 0.735828 0.756871 0.398153
O O5 0.060115 0.196715 0.816939
O O6 0.012177 0.188441 0.000000
O O7 0.000000 0.000000 0.893004
O O8 0.633577 0.910853 0.827413
O O9 0.496794 0.777869 0.844445
O O10 0.500000 0.000000 0.892978
O O11 0.576621 0.850392 0.000000
O O12 0.136502 0.365972 0.274020
O O13 0.220153 0.530436 0.171689
O O14 0.136811 0.142340 0.658729
O O15 0.289124 0.566789 0.000000
#
# Coordination Sequence:
#
# PCOD9441895 Si02
#       6
#     8   8   8   8   8   8
#     4   9  18  33  52  74 100 132 169 207 256 314
#     4  10  20  34  53  74  99 134 173 214 260 311
#     4   9  17  31  53  81 108 134 172 219 262 305
#     4  10  19  32  54  80 104 134 173 219 256 295
#     4  10  20  34  54  78 106 139 175 214 260 309
#     4  10  20  34  52  74 104 141 174 208 258 316
#
# _framework density 18.618245000000002
#
# number of rings (size 3 to 8) (size 9 to 14) (size 15 to 20)
#    0.000    2.333    0.000    3.000    0.000    4.667 
#    0.000    0.833    0.000   25.000    0.000    0.000 
#    0.000    0.000    0.000    0.000    0.000    0.000 
#
# Total GULP energy -267602.581792 kJ/mol
# GULP energy per Si atom -5575.053787 kJ/mol
# Density = 1.857587 g / cm^3
# Si number density = 18.618245 Si / 1000 Ang^3
#
#
#
# Elastic Constant Matrix: (Units=GPa)
#
#
# Indices 1 2 3 4 5 6 
#
# 1 66.9442 10.9882 75.7858 0.0000 0.0000 0.0000
# 2 10.9882 21.9023 31.7390 0.0000 0.0000 0.0000
# 3 75.7858 31.7390 152.3618 0.0000 0.0000 0.0000
# 4 0.0000 0.0000 0.0000 5.2733 0.0000 0.0000
# 5 0.0000 0.0000 0.0000 0.0000 28.7878 0.0000
# 6 0.0000 0.0000 0.0000 0.0000 0.0000 17.1739
#
#
#
# Elastic Compliance Matrix: (Units=1/GPa)
#
#
# Indices 1 2 3 4 5 6 
#
# 1 0.036047 0.011313 -0.020287 0.000000 0.000000 0.000000
# 2 0.011313 0.068950 -0.019991 0.000000 0.000000 0.000000
# 3 -0.020287 -0.019991 0.020818 0.000000 0.000000 0.000000
# 4 0.000000 0.000000 0.000000 0.189636 0.000000 0.000000
# 5 0.000000 0.000000 0.000000 0.000000 0.034737 0.000000
# 6 0.000000 0.000000 0.000000 0.000000 0.000000 0.058228
#
#
# Mechanical properties :
#
#
# Convention : Reuss Voigt Hill
#
# Bulk Modulus (GPa) = 14.73020 53.13715 33.93367
# Shear Modulus (GPa) = 10.22550 18.42667 14.32609
#
# Velocity S-wave (km/s) = 2.34609 3.14938 2.77693
# Velocity P-wave (km/s) = 3.90739 6.46739 5.34298
#
# Compressibility (1/GPa) = 0.06788775
#
# Stress axis : x y z
#
# Youngs Moduli (GPa) = 27.74163 14.50320 48.03444
#
# Poissons Ratio (x) = -0.16408 0.97446
# Poissons Ratio (y) = -0.31385 0.96024
# Poissons Ratio (z) = 0.56279 0.28993
#
# Static dielectric constant tensor:
#      x y z
#    x 1.688100 0.000000 0.000000 
#    y 0.000000 1.637890 0.000000 
#    z 0.000000 0.000000 1.649120 
# 
# From -- ./inp_files/14365.got.cif
#   From: 2010.05.17/outbox.cif.g08.bks.cpg/sg58_8_cif.got.tgz:14365.got - 2010.06.03 14:20:14.
