data_PCOD9441656
_publ_section_title
;
Structure prediction by ZEFSAII (Michael W. Deem and Ramdas Pophale) SiO2 
 PCOD9441656
Probable space group: P N N M
;
_chemical_formula_sum "Si O2"
_cell_formula_units_Z 40
_cell_length_a 21.822524
_cell_length_b 13.058372
_cell_length_c 7.588487
_cell_angle_alpha 90.000000
_cell_angle_beta 90.000000
_cell_angle_gamma 90.000000
_cell_volume 2162.465616
_symmetry_space_group_name_H-M "P N N M"
_symmetry_group_IT_number 58
_symmetry_cell_setting 'orthorhombic'
loop_
_space_group_symop_operation_xyz
x,y,z
-x,-y,z
1/2+x,1/2-y,1/2-z
1/2-x,1/2+y,1/2-z
-x,-y,-z
x,y,-z
1/2-x,1/2+y,1/2+z
1/2+x,1/2-y,1/2+z
loop_
_atom_site_type_symbol
_atom_site_label
_atom_site_fract_x
_atom_site_fract_y
_atom_site_fract_z
Si Si1 0.067162 0.019380 0.793560
Si Si2 0.299895 0.902701 0.710224
Si Si3 0.299690 0.128686 0.210272
Si Si4 0.662900 0.315994 0.716014
Si Si5 0.836879 0.152595 0.286245
O O1 0.108054 0.112477 0.719315
O O2 0.108841 0.918262 0.780225
O O3 0.058225 0.043919 0.000000
O O4 0.000000 0.000000 0.715888
O O5 0.296770 0.893578 0.500000
O O6 0.337305 0.803038 0.771386
O O7 0.229449 0.890911 0.773495
O O8 0.323538 0.015738 0.750071
O O9 0.229245 0.140229 0.273768
O O10 0.337009 0.228450 0.271186
O O11 0.296673 0.137926 0.000000
O O12 0.662344 0.319610 0.500000
O O13 0.838655 0.148584 0.500000
#
# Coordination Sequence:
#
# PCOD9441656 Si02
#       5
#     8   8   8   8   8
#     4  10  19  31  49  69  90 121 158 189 221 268
#     4   9  16  27  45  67  91 118 146 180 226 275
#     4   9  16  28  46  66  92 121 145 182 233 271
#     4   8  15  28  43  63  93 119 141 181 231 264
#     4   9  18  30  44  66  94 122 150 181 229 277
#
# _framework density 18.497404
#
# number of rings (size 3 to 8) (size 9 to 14) (size 15 to 20)
#    0.000    3.000    2.000    2.400    0.000    1.200 
#    0.000    4.000    0.000    1.200    0.000    8.400 
#    0.000    0.000    0.000    0.000    0.000    0.000 
#
# Total GULP energy -222851.982175 kJ/mol
# GULP energy per Si atom -5571.299554 kJ/mol
# Density = 1.845530 g / cm^3
# Si number density = 18.497404 Si / 1000 Ang^3
#
#
#
# Elastic Constant Matrix: (Units=GPa)
#
#
# Indices 1 2 3 4 5 6 
#
# 1 87.5651 53.6454 -3.4029 0.0000 0.0000 0.0000
# 2 53.6454 165.8823 -13.6561 0.0000 0.0000 0.0000
# 3 -3.4029 -13.6561 32.7648 0.0000 0.0000 0.0000
# 4 0.0000 0.0000 0.0000 21.4450 0.0000 0.0000
# 5 0.0000 0.0000 0.0000 0.0000 3.4655 0.0000
# 6 0.0000 0.0000 0.0000 0.0000 0.0000 16.9200
#
#
#
# Elastic Compliance Matrix: (Units=1/GPa)
#
#
# Indices 1 2 3 4 5 6 
#
# 1 0.014248 -0.004645 -0.000456 0.000000 0.000000 0.000000
# 2 -0.004645 0.007757 0.002751 0.000000 0.000000 0.000000
# 3 -0.000456 0.002751 0.031620 0.000000 0.000000 0.000000
# 4 0.000000 0.000000 0.000000 0.046631 0.000000 0.000000
# 5 0.000000 0.000000 0.000000 0.000000 0.288556 0.000000
# 6 0.000000 0.000000 0.000000 0.000000 0.000000 0.059101
#
#
# Mechanical properties :
#
#
# Convention : Reuss Voigt Hill
#
# Bulk Modulus (GPa) = 20.44035 39.93167 30.18601
# Shear Modulus (GPa) = 10.66273 25.00784 17.83529
#
# Velocity S-wave (km/s) = 2.40353 3.68090 3.10853
# Velocity P-wave (km/s) = 4.33324 6.30079 5.40726
#
# Compressibility (1/GPa) = 0.04892283
#
# Stress axis : x y z
#
# Youngs Moduli (GPa) = 70.18404 128.91414 31.62592
#
# Poissons Ratio (x) = 0.59885 0.01443
# Poissons Ratio (y) = 0.32603 -0.08699
# Poissons Ratio (z) = 0.03203 -0.35459
#
# Static dielectric constant tensor:
#      x y z
#    x 1.611750 0.000000 0.000000 
#    y 0.000000 1.685140 0.000000 
#    z 0.000000 0.000000 1.694280 
# 
# From -- ./inp_files/3797.got.cif
#   From: 2010.05.17/outbox.cif.g08.bks.cpg/sg58_2_cif.got.tgz:3797.got - 2010.06.03 14:20:14.
