data_PCOD9441597
_publ_section_title
;
Structure prediction by ZEFSAII (Michael W. Deem and Ramdas Pophale) SiO2 
 PCOD9441597
Probable space group: P N N M
;
_chemical_formula_sum "Si O2"
_cell_formula_units_Z 64
_cell_length_a 12.303972
_cell_length_b 30.018304
_cell_length_c 9.007885
_cell_angle_alpha 90.000000
_cell_angle_beta 90.000000
_cell_angle_gamma 90.000000
_cell_volume 3327.011628
_symmetry_space_group_name_H-M "P N N M"
_symmetry_group_IT_number 58
_symmetry_cell_setting 'orthorhombic'
loop_
_space_group_symop_operation_xyz
x,y,z
-x,-y,z
1/2+x,1/2-y,1/2-z
1/2-x,1/2+y,1/2-z
-x,-y,-z
x,y,-z
1/2-x,1/2+y,1/2+z
1/2+x,1/2-y,1/2+z
loop_
_atom_site_type_symbol
_atom_site_label
_atom_site_fract_x
_atom_site_fract_y
_atom_site_fract_z
Si Si1 0.652027 0.620203 0.322235
Si Si2 0.757826 0.528658 0.678578
Si Si3 0.040047 0.719846 0.677256
Si Si4 0.970907 0.566527 0.828629
Si Si5 0.204436 0.567163 0.678415
Si Si6 0.259208 0.667194 0.679154
Si Si7 0.640326 0.162678 0.328839
Si Si8 0.983996 0.818098 0.323730
O O1 0.647363 0.622203 0.500000
O O2 0.678311 0.569051 0.276858
O O3 0.752293 0.649964 0.262377
O O4 0.544076 0.640697 0.252983
O O5 0.767492 0.531052 0.500000
O O6 0.874838 0.539723 0.748780
O O7 0.729672 0.477714 0.718408
O O8 0.025450 0.713728 0.500000
O O9 0.148112 0.692681 0.720254
O O10 0.048970 0.772337 0.707083
O O11 0.934341 0.700596 0.758710
O O12 0.932688 0.617911 0.824960
O O13 0.084851 0.562541 0.746747
O O14 0.980269 0.553077 0.000000
O O15 0.194505 0.568214 0.500000
O O16 0.251047 0.615070 0.722783
O O17 0.270641 0.670030 0.500000
O O18 0.363896 0.687147 0.758119
O O19 0.668962 0.172480 0.500000
O O20 0.980004 0.824408 0.500000
#
# Coordination Sequence:
#
# PCOD9441597 Si02
#       8
#     8   8   8   8   8   8   8   8
#     4  10  21  39  61  84 116 155 197 240 289 345
#     4   9  19  34  55  83 113 151 198 242 286 340
#     4  10  22  40  61  87 116 150 192 238 289 348
#     4  10  19  30  48  81 121 155 186 229 287 346
#     4  10  19  34  57  82 112 152 197 244 288 338
#     4  10  22  41  63  86 116 154 197 241 292 349
#     4  10  20  34  56  86 119 153 190 234 286 342
#     4  11  25  42  61  87 118 151 195 245 294 348
#
# _framework density 19.236481000000001
#
# number of rings (size 3 to 8) (size 9 to 14) (size 15 to 20)
#    0.000    2.000    1.250    1.875    1.750    5.500 
#    0.000    0.625    0.000    3.750    0.000    0.000 
#    0.000    0.000    0.000    0.000    0.000    0.000 
#
# Total GULP energy -357316.474324 kJ/mol
# GULP energy per Si atom -5583.069911 kJ/mol
# Density = 1.919270 g / cm^3
# Si number density = 19.236481 Si / 1000 Ang^3
#
#
#
# Elastic Constant Matrix: (Units=GPa)
#
#
# Indices 1 2 3 4 5 6 
#
# 1 35.3575 29.7675 11.4429 0.0000 0.0000 0.0000
# 2 29.7675 100.1721 34.8660 0.0000 0.0000 0.0000
# 3 11.4429 34.8660 23.5282 0.0000 0.0000 0.0000
# 4 0.0000 0.0000 0.0000 19.3067 0.0000 0.0000
# 5 0.0000 0.0000 0.0000 0.0000 21.4427 0.0000
# 6 0.0000 0.0000 0.0000 0.0000 0.0000 11.2454
#
#
#
# Elastic Compliance Matrix: (Units=1/GPa)
#
#
# Indices 1 2 3 4 5 6 
#
# 1 0.037866 -0.010001 -0.003596 0.000000 0.000000 0.000000
# 2 -0.010001 0.023258 -0.029601 0.000000 0.000000 0.000000
# 3 -0.003596 -0.029601 0.088117 0.000000 0.000000 0.000000
# 4 0.000000 0.000000 0.000000 0.051796 0.000000 0.000000
# 5 0.000000 0.000000 0.000000 0.000000 0.046636 0.000000
# 6 0.000000 0.000000 0.000000 0.000000 0.000000 0.088925
#
#
# Mechanical properties :
#
#
# Convention : Reuss Voigt Hill
#
# Bulk Modulus (GPa) = 15.91241 34.57896 25.24569
# Shear Modulus (GPa) = 11.26275 15.93107 13.59691
#
# Velocity S-wave (km/s) = 2.42231 2.88092 2.66151
# Velocity P-wave (km/s) = 4.01415 5.39268 4.75365
#
# Compressibility (1/GPa) = 0.06284402
#
# Stress axis : x y z
#
# Youngs Moduli (GPa) = 26.40892 42.99649 11.34858
#
# Poissons Ratio (x) = 0.42999 0.04081
# Poissons Ratio (y) = 0.26411 0.33593
# Poissons Ratio (z) = 0.09497 1.27275
#
# Static dielectric constant tensor:
#      x y z
#    x 1.624440 0.000000 0.000000 
#    y 0.000000 1.714210 0.000000 
#    z 0.000000 0.000000 1.640850 
# 
# From -- ./inp_files/4643.got.cif
#   From: 2010.05.17/outbox.cif.g08.bks.cpg/sg58_3_cif.got.tgz:4643.got - 2010.06.03 14:20:14.
