data_PCOD9441445
_publ_section_title
;
Structure prediction by ZEFSAII (Michael W. Deem and Ramdas Pophale) SiO2 
 PCOD9441445
Probable space group: P N N M
;
_chemical_formula_sum "Si O2"
_cell_formula_units_Z 40
_cell_length_a 27.052924
_cell_length_b 10.460930
_cell_length_c 7.604530
_cell_angle_alpha 90.000000
_cell_angle_beta 90.000000
_cell_angle_gamma 90.000000
_cell_volume 2152.072441
_symmetry_space_group_name_H-M "P N N M"
_symmetry_group_IT_number 58
_symmetry_cell_setting 'orthorhombic'
loop_
_space_group_symop_operation_xyz
x,y,z
-x,-y,z
1/2+x,1/2-y,1/2-z
1/2-x,1/2+y,1/2-z
-x,-y,-z
x,y,-z
1/2-x,1/2+y,1/2+z
1/2+x,1/2-y,1/2+z
loop_
_atom_site_type_symbol
_atom_site_label
_atom_site_fract_x
_atom_site_fract_y
_atom_site_fract_z
Si Si1 0.299391 0.022633 0.215118
Si Si2 0.557855 0.150742 0.000000
Si Si3 0.687445 0.499758 0.297842
Si Si4 0.353174 0.766188 0.799871
Si Si5 0.129728 0.755217 0.795666
Si Si6 0.557654 0.843282 0.000000
O O1 0.242585 0.017989 0.274862
O O2 0.326677 0.892245 0.271679
O O3 0.328730 0.144948 0.283791
O O4 0.301745 0.030016 0.000000
O O5 0.589012 0.204525 0.833829
O O6 0.500652 0.184363 0.000000
O O7 0.563699 0.997362 0.000000
O O8 0.695515 0.538668 0.500000
O O9 0.659357 0.365184 0.292524
O O10 0.654412 0.614190 0.224026
O O11 0.333312 0.749782 0.000000
O O12 0.085156 0.711980 0.670756
O O13 0.114698 0.770556 0.000000
#
# Coordination Sequence:
#
# PCOD9441445 Si02
#       6
#     8   4   8   8   8   4
#     4  10  18  36  56  81 119 160 196 238 283 347
#     4   9  20  39  69  85 107 157 199 251 302 342
#     4  10  22  33  52  85 124 157 189 235 292 348
#     4   9  18  36  55  82 110 149 199 236 284 349
#     4  11  22  38  58  88 119 153 197 245 288 355
#     4  11  20  43  67  85 117 151 197 257 306 336
#
# _framework density 18.586735999999998
#
# number of rings (size 3 to 8) (size 9 to 14) (size 15 to 20)
#    0.600    1.400    3.000    1.200    1.400    3.200 
#    0.000    5.000    0.000    2.400    0.000    0.000 
#    0.000    0.000    0.000    0.000    0.000    0.000 
#
# Total GULP energy -222988.786989 kJ/mol
# GULP energy per Si atom -5574.719675 kJ/mol
# Density = 1.854443 g / cm^3
# Si number density = 18.586736 Si / 1000 Ang^3
#
#
#
# Elastic Constant Matrix: (Units=GPa)
#
#
# Indices 1 2 3 4 5 6 
#
# 1 171.4358 67.1258 27.3117 0.0000 0.0000 0.0000
# 2 67.1258 124.7841 7.3007 0.0000 0.0000 0.0000
# 3 27.3117 7.3007 59.9629 0.0000 0.0000 0.0000
# 4 0.0000 0.0000 0.0000 9.9347 0.0000 0.0000
# 5 0.0000 0.0000 0.0000 0.0000 9.3743 0.0000
# 6 0.0000 0.0000 0.0000 0.0000 0.0000 1.9406
#
#
#
# Elastic Compliance Matrix: (Units=1/GPa)
#
#
# Indices 1 2 3 4 5 6 
#
# 1 0.007928 -0.004082 -0.003114 0.000000 0.000000 0.000000
# 2 -0.004082 0.010174 0.000621 0.000000 0.000000 0.000000
# 3 -0.003114 0.000621 0.018020 0.000000 0.000000 0.000000
# 4 0.000000 0.000000 0.000000 0.100658 0.000000 0.000000
# 5 0.000000 0.000000 0.000000 0.000000 0.106674 0.000000
# 6 0.000000 0.000000 0.000000 0.000000 0.000000 0.515293
#
#
# Mechanical properties :
#
#
# Convention : Reuss Voigt Hill
#
# Bulk Modulus (GPa) = 43.53501 62.18437 52.85969
# Shear Modulus (GPa) = 6.41393 21.21289 13.81341
#
# Velocity S-wave (km/s) = 1.85965 3.38197 2.72910
# Velocity P-wave (km/s) = 5.29948 6.98421 6.19934
#
# Compressibility (1/GPa) = 0.02297002
#
# Stress axis : x y z
#
# Youngs Moduli (GPa) = 126.14154 98.29387 55.49493
#
# Poissons Ratio (x) = 0.40127 0.17280
# Poissons Ratio (y) = 0.51496 -0.03445
# Poissons Ratio (z) = 0.39278 -0.06102
#
# Static dielectric constant tensor:
#      x y z
#    x 1.624580 0.000000 0.000000 
#    y 0.000000 1.630310 0.000000 
#    z 0.000000 0.000000 1.671450 
# 
# From -- ./inp_files/2654.got.cif
#   From: 2010.05.17/outbox.cif.g08.bks.cpg/sg58_2_cif.got.tgz:2654.got - 2010.06.03 14:20:14.
