data_PCOD9441196
_publ_section_title
;
Structure prediction by ZEFSAII (Michael W. Deem and Ramdas Pophale) SiO2 
 PCOD9441196
Probable space group: P N N M
;
_chemical_formula_sum "Si O2"
_cell_formula_units_Z 36
_cell_length_a 7.551236
_cell_length_b 13.358548
_cell_length_c 14.536444
_cell_angle_alpha 90.000000
_cell_angle_beta 90.000000
_cell_angle_gamma 90.000000
_cell_volume 1466.342690
_symmetry_space_group_name_H-M "P N N M"
_symmetry_group_IT_number 58
_symmetry_cell_setting 'orthorhombic'
loop_
_space_group_symop_operation_xyz
x,y,z
-x,-y,z
1/2+x,1/2-y,1/2-z
1/2-x,1/2+y,1/2-z
-x,-y,-z
x,y,-z
1/2-x,1/2+y,1/2+z
1/2+x,1/2-y,1/2+z
loop_
_atom_site_type_symbol
_atom_site_label
_atom_site_fract_x
_atom_site_fract_y
_atom_site_fract_z
Si Si1 0.346322 0.583133 0.500000
Si Si2 0.193356 0.054959 0.199012
Si Si3 0.513252 0.286361 0.187368
Si Si4 0.005134 0.122090 0.500000
Si Si5 0.092762 0.318518 0.000000
Si Si6 0.623248 0.114952 0.698925
O O1 0.500000 0.500000 0.500000
O O2 0.242698 0.565026 0.405522
O O3 0.422337 0.697354 0.500000
O O4 0.318547 0.995772 0.269339
O O5 0.133588 0.160678 0.236948
O O6 0.000000 0.000000 0.196432
O O7 0.585713 0.325559 0.089849
O O8 0.525850 0.171452 0.216998
O O9 0.317840 0.332416 0.193021
O O10 0.801518 0.156387 0.500000
O O11 0.000000 0.000000 0.500000
O O12 0.034537 0.366097 0.098479
#
# Coordination Sequence:
#
# PCOD9441196 Si02
#       6
#     4   8   8   4   4   8
#     4  10  18  31  55  86 114 147 194 249 294 349
#     4   9  18  32  53  80 110 146 193 234 281 351
#     4  10  19  35  55  82 112 148 195 236 288 350
#     4  10  20  35  60  86 116 154 196 241 295 359
#     4  10  18  34  57  83 116 151 193 245 302 348
#     4  10  20  34  57  81 114 152 193 241 294 348
#
# _framework density 24.550875999999999
#
# number of rings (size 3 to 8) (size 9 to 14) (size 15 to 20)
#    0.000    2.222    2.222    3.333    0.000    0.889 
#    0.000    3.333    0.000    2.667    0.000    9.333 
#    0.000    0.000    0.000    0.000    0.000    0.000 
#
# Total GULP energy -200989.570471 kJ/mol
# GULP energy per Si atom -5583.043624 kJ/mol
# Density = 2.449500 g / cm^3
# Si number density = 24.550876 Si / 1000 Ang^3
#
#
#
# Elastic Constant Matrix: (Units=GPa)
#
#
# Indices 1 2 3 4 5 6 
#
# 1 61.6716 -2.4863 21.2227 0.0000 0.0000 0.0000
# 2 -2.4863 164.2374 64.4786 0.0000 0.0000 0.0000
# 3 21.2227 64.4786 184.9912 0.0000 0.0000 0.0000
# 4 0.0000 0.0000 0.0000 33.5362 0.0000 0.0000
# 5 0.0000 0.0000 0.0000 0.0000 14.7894 0.0000
# 6 0.0000 0.0000 0.0000 0.0000 0.0000 38.0540
#
#
#
# Elastic Compliance Matrix: (Units=1/GPa)
#
#
# Indices 1 2 3 4 5 6 
#
# 1 0.017080 0.001191 -0.002375 0.000000 0.000000 0.000000
# 2 0.001191 0.007137 -0.002624 0.000000 0.000000 0.000000
# 3 -0.002375 -0.002624 0.006593 0.000000 0.000000 0.000000
# 4 0.000000 0.000000 0.000000 0.029819 0.000000 0.000000
# 5 0.000000 0.000000 0.000000 0.000000 0.067616 0.000000
# 6 0.000000 0.000000 0.000000 0.000000 0.000000 0.026278
#
#
# Mechanical properties :
#
#
# Convention : Reuss Voigt Hill
#
# Bulk Modulus (GPa) = 43.11473 64.14781 53.63127
# Shear Modulus (GPa) = 29.43423 39.12158 34.27790
#
# Velocity S-wave (km/s) = 3.46628 3.99618 3.74063
# Velocity P-wave (km/s) = 5.79824 6.89042 6.36779
#
# Compressibility (1/GPa) = 0.02319393
#
# Stress axis : x y z
#
# Youngs Moduli (GPa) = 58.54779 140.11437 151.68188
#
# Poissons Ratio (x) = -0.16685 0.36017
# Poissons Ratio (y) = -0.06972 0.39805
# Poissons Ratio (z) = 0.13902 0.36769
#
# Static dielectric constant tensor:
#      x y z
#    x 1.871200 0.000000 0.000000 
#    y 0.000000 1.927860 0.000000 
#    z 0.000000 0.000000 2.049730 
# 
# From -- ./inp_files/19407.got.cif
#   From: 2010.05.17/outbox.cif.g08.bks.cpg/sg58_10_cif.got.tgz:19407.got - 2010.06.03 14:20:14.
