data_PCOD9441759
_publ_section_title
;
Structure prediction by ZEFSAII (Michael W. Deem and Ramdas Pophale) SiO2 
 PCOD9441759
Probable space group: P N N M
;
_chemical_formula_sum "Si O2"
_cell_formula_units_Z 64
_cell_length_a 8.725903
_cell_length_b 19.785685
_cell_length_c 20.662712
_cell_angle_alpha 90.000000
_cell_angle_beta 90.000000
_cell_angle_gamma 90.000000
_cell_volume 3567.375242
_symmetry_space_group_name_H-M "P N N M"
_symmetry_group_IT_number 58
_symmetry_cell_setting 'orthorhombic'
loop_
_space_group_symop_operation_xyz
x,y,z
-x,-y,z
1/2+x,1/2-y,1/2-z
1/2-x,1/2+y,1/2-z
-x,-y,-z
x,y,-z
1/2-x,1/2+y,1/2+z
1/2+x,1/2-y,1/2+z
loop_
_atom_site_type_symbol
_atom_site_label
_atom_site_fract_x
_atom_site_fract_y
_atom_site_fract_z
Si Si1 0.290997 0.299683 0.186260
Si Si2 0.624381 0.940606 0.872547
Si Si3 0.357771 0.459753 0.647087
Si Si4 0.282425 0.942153 0.715354
Si Si5 0.856694 0.414886 0.778665
Si Si6 0.328364 0.197711 0.072910
Si Si7 0.538364 0.673551 0.425642
Si Si8 0.424980 0.229921 0.688380
O O1 0.302699 0.380871 0.179980
O O2 0.353129 0.255107 0.126727
O O3 0.374308 0.276003 0.251538
O O4 0.108222 0.284062 0.193142
O O5 0.658443 0.915547 0.799343
O O6 0.587538 0.873169 0.911589
O O7 0.500000 0.000000 0.871495
O O8 0.772185 0.982939 0.894793
O O9 0.500000 0.500000 0.677012
O O10 0.255865 0.436501 0.708044
O O11 0.408075 0.396805 0.604928
O O12 0.464029 0.929757 0.708121
O O13 0.259672 0.020773 0.696935
O O14 0.832218 0.340283 0.805591
O O15 0.146923 0.179198 0.076832
O O16 0.362133 0.220162 0.000000
O O17 0.585744 0.680168 0.500000
O O18 0.601348 0.732002 0.378859
#
# Coordination Sequence:
#
# PCOD9441759 Si02
#       8
#     8   8   8   8   8   8   8   8
#     4  10  19  32  54  74  98 131 169 212 254 296
#     4  11  19  31  50  70 101 136 167 202 243 300
#     4  11  19  29  49  73  98 134 170 197 240 298
#     4   9  17  30  49  75 102 124 163 210 253 299
#     4   9  16  30  50  73 102 128 156 210 262 292
#     4  10  21  35  50  72 103 138 170 204 250 303
#     4  10  21  35  49  72 104 138 169 205 251 301
#     4  10  19  31  54  75  96 132 170 210 254 301
#
# _framework density 17.940359999999998
#
# number of rings (size 3 to 8) (size 9 to 14) (size 15 to 20)
#    0.000    2.000    6.250    0.000    0.000    1.000 
#    0.000    0.000    0.000    0.750    0.000    5.250 
#    0.000    0.500    0.000    0.125    0.000    0.000 
#
# Total GULP energy -356522.662774 kJ/mol
# GULP energy per Si atom -5570.666606 kJ/mol
# Density = 1.789953 g / cm^3
# Si number density = 17.940360 Si / 1000 Ang^3
#
#
#
# Elastic Constant Matrix: (Units=GPa)
#
#
# Indices 1 2 3 4 5 6 
#
# 1 12.4225 16.4978 9.0878 0.0000 0.0000 0.0000
# 2 16.4978 137.0589 64.7931 0.0000 0.0000 0.0000
# 3 9.0878 64.7931 85.3997 0.0000 0.0000 0.0000
# 4 0.0000 0.0000 0.0000 43.0370 0.0000 0.0000
# 5 0.0000 0.0000 0.0000 0.0000 13.7862 0.0000
# 6 0.0000 0.0000 0.0000 0.0000 0.0000 19.4849
#
#
#
# Elastic Compliance Matrix: (Units=1/GPa)
#
#
# Indices 1 2 3 4 5 6 
#
# 1 0.096095 -0.010498 -0.002261 0.000000 0.000000 0.000000
# 2 -0.010498 0.012523 -0.008384 0.000000 0.000000 0.000000
# 3 -0.002261 -0.008384 0.018312 0.000000 0.000000 0.000000
# 4 0.000000 0.000000 0.000000 0.023236 0.000000 0.000000
# 5 0.000000 0.000000 0.000000 0.000000 0.072537 0.000000
# 6 0.000000 0.000000 0.000000 0.000000 0.000000 0.051322
#
#
# Mechanical properties :
#
#
# Convention : Reuss Voigt Hill
#
# Bulk Modulus (GPa) = 11.81435 46.18208 28.99821
# Shear Modulus (GPa) = 14.51271 24.89510 19.70391
#
# Velocity S-wave (km/s) = 2.84728 3.72917 3.31766
# Velocity P-wave (km/s) = 4.17240 6.65884 5.55649
#
# Compressibility (1/GPa) = 0.08464286
#
# Stress axis : x y z
#
# Youngs Moduli (GPa) = 10.40637 79.85015 54.61028
#
# Poissons Ratio (x) = 0.83828 0.12347
# Poissons Ratio (y) = 0.10925 0.45788
# Poissons Ratio (z) = 0.02353 0.66950
#
# Static dielectric constant tensor:
#      x y z
#    x 1.715290 0.000000 0.000000 
#    y 0.000000 1.660600 0.000000 
#    z 0.000000 0.000000 1.582130 
# 
# From -- ./inp_files/25648.got.cif
#   From: 2010.05.17/outbox.cif.g08.bks.cpg/sg58_13_cif.got.tgz:25648.got - 2010.06.03 14:20:14.
