data_PCOD9441506
_publ_section_title
;
Structure prediction by ZEFSAII (Michael W. Deem and Ramdas Pophale) SiO2 
 PCOD9441506
Probable space group: P N N M
;
_chemical_formula_sum "Si O2"
_cell_formula_units_Z 64
_cell_length_a 32.786552
_cell_length_b 9.781219
_cell_length_c 13.574258
_cell_angle_alpha 90.000000
_cell_angle_beta 90.000000
_cell_angle_gamma 90.000000
_cell_volume 4353.161992
_symmetry_space_group_name_H-M "P N N M"
_symmetry_group_IT_number 58
_symmetry_cell_setting 'orthorhombic'
loop_
_space_group_symop_operation_xyz
x,y,z
-x,-y,z
1/2+x,1/2-y,1/2-z
1/2-x,1/2+y,1/2-z
-x,-y,-z
x,y,-z
1/2-x,1/2+y,1/2+z
1/2+x,1/2-y,1/2+z
loop_
_atom_site_type_symbol
_atom_site_label
_atom_site_fract_x
_atom_site_fract_y
_atom_site_fract_z
Si Si1 0.520605 0.355705 0.619244
Si Si2 0.772809 0.488102 0.615950
Si Si3 0.965991 0.383175 0.886585
Si Si4 0.777449 0.805128 0.616330
Si Si5 0.810201 0.311305 0.216146
Si Si6 0.879437 0.495581 0.880723
Si Si7 0.385662 0.686579 0.619082
Si Si8 0.685090 0.489138 0.716652
O O1 0.500000 0.500000 0.638342
O O2 0.522463 0.335662 0.500000
O O3 0.489370 0.243465 0.660918
O O4 0.567517 0.341321 0.651037
O O5 0.776721 0.464681 0.500000
O O6 0.786387 0.644732 0.637678
O O7 0.797928 0.381786 0.681141
O O8 0.725418 0.474859 0.648034
O O9 0.923865 0.441962 0.846575
O O10 0.000000 0.500000 0.889671
O O11 0.956238 0.344084 0.000000
O O12 0.782423 0.828685 0.500000
O O13 0.730176 0.822100 0.647887
O O14 0.803407 0.908433 0.683245
O O15 0.845591 0.398963 0.165940
O O16 0.820933 0.151712 0.229167
O O17 0.875007 0.655927 0.856025
O O18 0.877602 0.487977 0.000000
O O19 0.383805 0.672613 0.500000
O O20 0.353622 0.583430 0.667291
#
# Coordination Sequence:
#
# PCOD9441506 Si02
#       8
#     8   8   8   8   8   8   8   8
#     4   9  17  27  40  60  86 119 154 186 223 266
#     4   9  18  34  51  65  88 122 154 186 226 269
#     4   9  15  27  42  58  84 119 156 186 217 261
#     4   9  18  34  51  65  89 122 153 186 227 271
#     4  10  20  31  46  71  94 116 152 191 226 268
#     4  10  19  29  44  64  91 126 158 189 223 265
#     4  10  19  30  43  63  93 126 157 188 225 268
#     4  10  20  31  46  70  95 117 149 191 228 269
#
# _framework density 14.701957
#
# number of rings (size 3 to 8) (size 9 to 14) (size 15 to 20)
#    0.000    2.500    1.250    1.500    1.750    3.000 
#    0.000    0.000    0.000    0.000    0.000    0.000 
#    0.000    2.000    0.000    0.125    0.000    0.000 
#
# Total GULP energy -356445.951894 kJ/mol
# GULP energy per Si atom -5569.467998 kJ/mol
# Density = 1.466849 g / cm^3
# Si number density = 14.701957 Si / 1000 Ang^3
#
#
#
# Elastic Constant Matrix: (Units=GPa)
#
#
# Indices 1 2 3 4 5 6 
#
# 1 83.2384 70.7778 28.7851 0.0000 0.0000 0.0000
# 2 70.7778 118.0469 46.6064 0.0000 0.0000 0.0000
# 3 28.7851 46.6064 50.6710 0.0000 0.0000 0.0000
# 4 0.0000 0.0000 0.0000 17.4595 0.0000 0.0000
# 5 0.0000 0.0000 0.0000 0.0000 8.1549 0.0000
# 6 0.0000 0.0000 0.0000 0.0000 0.0000 27.3318
#
#
#
# Elastic Compliance Matrix: (Units=1/GPa)
#
#
# Indices 1 2 3 4 5 6 
#
# 1 0.024522 -0.014450 -0.000639 0.000000 0.000000 0.000000
# 2 -0.014450 0.021817 -0.011858 0.000000 0.000000 0.000000
# 3 -0.000639 -0.011858 0.031005 0.000000 0.000000 0.000000
# 4 0.000000 0.000000 0.000000 0.057275 0.000000 0.000000
# 5 0.000000 0.000000 0.000000 0.000000 0.122626 0.000000
# 6 0.000000 0.000000 0.000000 0.000000 0.000000 0.036587
#
#
# Mechanical properties :
#
#
# Convention : Reuss Voigt Hill
#
# Bulk Modulus (GPa) = 42.64588 60.47724 51.56156
# Shear Modulus (GPa) = 14.06296 17.64171 15.85233
#
# Velocity S-wave (km/s) = 3.09615 3.46780 3.28723
# Velocity P-wave (km/s) = 6.46927 7.56696 7.03954
#
# Compressibility (1/GPa) = 0.02344892
#
# Stress axis : x y z
#
# Youngs Moduli (GPa) = 40.77991 45.83602 32.25285
#
# Poissons Ratio (x) = 0.66235 0.02062
# Poissons Ratio (y) = 0.58928 0.38245
# Poissons Ratio (z) = 0.02607 0.54352
#
# Static dielectric constant tensor:
#      x y z
#    x 1.483330 0.000000 0.000000 
#    y 0.000000 0.434100 0.000000 
#    z 0.000000 0.000000 1.459620 
# 
# From -- ./inp_files/23805.got.cif
#   From: 2010.05.17/outbox.cif.g08.bks.cpg/sg58_12_cif.got.tgz:23805.got - 2010.06.03 14:20:14.
