data_PCOD9441160
_publ_section_title
;
Structure prediction by ZEFSAII (Michael W. Deem and Ramdas Pophale) SiO2 
 PCOD9441160
Probable space group: P N N M
;
_chemical_formula_sum "Si O2"
_cell_formula_units_Z 56
_cell_length_a 11.440892
_cell_length_b 21.567401
_cell_length_c 13.498510
_cell_angle_alpha 90.000000
_cell_angle_beta 90.000000
_cell_angle_gamma 90.000000
_cell_volume 3330.761467
_symmetry_space_group_name_H-M "P N N M"
_symmetry_group_IT_number 58
_symmetry_cell_setting 'orthorhombic'
loop_
_space_group_symop_operation_xyz
x,y,z
-x,-y,z
1/2+x,1/2-y,1/2-z
1/2-x,1/2+y,1/2-z
-x,-y,-z
x,y,-z
1/2-x,1/2+y,1/2+z
1/2+x,1/2-y,1/2+z
loop_
_atom_site_type_symbol
_atom_site_label
_atom_site_fract_x
_atom_site_fract_y
_atom_site_fract_z
Si Si1 0.061510 0.433276 0.888030
Si Si2 0.045806 0.857787 0.296580
Si Si3 0.044452 0.213861 0.116406
Si Si4 0.077330 0.668523 0.214214
Si Si5 0.169443 0.970255 0.615113
Si Si6 0.808144 0.885083 0.615742
Si Si7 0.319013 0.243403 0.882335
O O1 0.199006 0.444348 0.881782
O O2 0.000000 0.500000 0.879787
O O3 0.012561 0.387010 0.806006
O O4 0.034630 0.409091 0.000000
O O5 0.092235 0.926697 0.315851
O O6 0.142822 0.809267 0.335459
O O7 0.004758 0.840700 0.186165
O O8 0.928761 0.850413 0.361949
O O9 0.182109 0.227902 0.135065
O O10 0.971727 0.274049 0.150629
O O11 0.030092 0.202076 0.000000
O O12 0.201248 0.644680 0.173814
O O13 0.101090 0.693455 0.324530
O O14 0.128400 0.965166 0.500000
O O15 0.174333 0.042479 0.642470
O O16 0.780059 0.883755 0.500000
O O17 0.338010 0.244517 0.000000
#
# Coordination Sequence:
#
# PCOD9441160 Si02
#       7
#     8   8   8   8   8   8   8
#     4  10  18  31  52  79 107 137 172 211 257 314
#     4  11  21  34  54  80 107 139 176 213 267 316
#     4  10  21  37  56  75 103 141 181 222 256 307
#     4  11  20  33  55  80 103 138 178 218 262 307
#     4  10  20  33  53  79 112 144 169 209 267 324
#     4  11  20  32  51  82 113 138 168 214 266 318
#     4  10  21  38  56  75 104 143 181 215 261 315
#
# _framework density 16.812971999999998
#
# number of rings (size 3 to 8) (size 9 to 14) (size 15 to 20)
#    0.000    1.571    2.857    3.857    0.000    3.429 
#    0.000    0.000    0.000    3.000    0.000    0.000 
#    0.000    0.000    0.000    0.000    0.000    0.000 
#
# Total GULP energy -312518.250271 kJ/mol
# GULP energy per Si atom -5580.683041 kJ/mol
# Density = 1.677470 g / cm^3
# Si number density = 16.812972 Si / 1000 Ang^3
#
#
#
# Elastic Constant Matrix: (Units=GPa)
#
#
# Indices 1 2 3 4 5 6 
#
# 1 73.0425 15.3186 32.5761 0.0000 0.0000 0.0000
# 2 15.3186 46.0621 30.6347 0.0000 0.0000 0.0000
# 3 32.5761 30.6347 83.7930 0.0000 0.0000 0.0000
# 4 0.0000 0.0000 0.0000 26.6929 0.0000 0.0000
# 5 0.0000 0.0000 0.0000 0.0000 22.7127 0.0000
# 6 0.0000 0.0000 0.0000 0.0000 0.0000 35.1517
#
#
#
# Elastic Compliance Matrix: (Units=1/GPa)
#
#
# Indices 1 2 3 4 5 6 
#
# 1 0.016654 -0.001628 -0.005879 0.000000 0.000000 0.000000
# 2 -0.001628 0.028844 -0.009912 0.000000 0.000000 0.000000
# 3 -0.005879 -0.009912 0.017844 0.000000 0.000000 0.000000
# 4 0.000000 0.000000 0.000000 0.037463 0.000000 0.000000
# 5 0.000000 0.000000 0.000000 0.000000 0.044028 0.000000
# 6 0.000000 0.000000 0.000000 0.000000 0.000000 0.028448
#
#
# Mechanical properties :
#
#
# Convention : Reuss Voigt Hill
#
# Bulk Modulus (GPa) = 35.08539 39.99517 37.54028
# Shear Modulus (GPa) = 22.97565 25.20267 24.08916
#
# Velocity S-wave (km/s) = 3.70069 3.87589 3.78930
# Velocity P-wave (km/s) = 6.25887 6.62344 6.44374
#
# Compressibility (1/GPa) = 0.02850189
#
# Stress axis : x y z
#
# Youngs Moduli (GPa) = 60.04465 34.66962 56.04201
#
# Poissons Ratio (x) = 0.05646 0.32949
# Poissons Ratio (y) = 0.09778 0.55550
# Poissons Ratio (z) = 0.35302 0.34365
#
# Static dielectric constant tensor:
#      x y z
#    x 1.583500 0.000000 0.000000 
#    y 0.000000 1.571680 0.000000 
#    z 0.000000 0.000000 1.547860 
# 
# From -- ./inp_files/14560.got.cif
#   From: 2010.05.17/outbox.cif.g08.bks.cpg/sg58_8_cif.got.tgz:14560.got - 2010.06.03 14:20:14.
