data_PCOD9441822
_publ_section_title
;
Structure prediction by ZEFSAII (Michael W. Deem and Ramdas Pophale) SiO2 
 PCOD9441822
Probable space group: P N N M
;
_chemical_formula_sum "Si O2"
_cell_formula_units_Z 64
_cell_length_a 14.647076
_cell_length_b 29.293417
_cell_length_c 7.934221
_cell_angle_alpha 90.000000
_cell_angle_beta 90.000000
_cell_angle_gamma 90.000000
_cell_volume 3404.279912
_symmetry_space_group_name_H-M "P N N M"
_symmetry_group_IT_number 58
_symmetry_cell_setting 'orthorhombic'
loop_
_space_group_symop_operation_xyz
x,y,z
-x,-y,z
1/2+x,1/2-y,1/2-z
1/2-x,1/2+y,1/2-z
-x,-y,-z
x,y,-z
1/2-x,1/2+y,1/2+z
1/2+x,1/2-y,1/2+z
loop_
_atom_site_type_symbol
_atom_site_label
_atom_site_fract_x
_atom_site_fract_y
_atom_site_fract_z
Si Si1 0.257798 0.945276 0.799865
Si Si2 0.600675 0.874602 0.294393
Si Si3 0.896838 0.123166 0.796954
Si Si4 0.239172 0.800639 0.199472
Si Si5 0.756203 0.449623 0.203790
Si Si6 0.747570 0.302142 0.793888
Si Si7 0.392751 0.622387 0.797491
Si Si8 0.894101 0.630474 0.198061
O O1 0.165111 0.919781 0.740806
O O2 0.342119 0.917519 0.721801
O O3 0.257431 0.998574 0.762245
O O4 0.264248 0.938511 0.000000
O O5 0.598547 0.875592 0.500000
O O6 0.656020 0.919848 0.241452
O O7 0.662995 0.831341 0.246504
O O8 0.496997 0.871620 0.234102
O O9 0.844124 0.168433 0.732555
O O10 0.001845 0.120646 0.748554
O O11 0.893245 0.124062 0.000000
O O12 0.249183 0.749655 0.268978
O O13 0.329928 0.830867 0.222056
O O14 0.222896 0.795618 0.000000
O O15 0.667145 0.421024 0.261081
O O16 0.755927 0.449939 0.000000
O O17 0.660205 0.331995 0.738333
O O18 0.744905 0.301223 0.000000
O O19 0.386871 0.622404 0.000000
O O20 0.898717 0.640711 0.000000
#
# Coordination Sequence:
#
# PCOD9441822 Si02
#       8
#     8   8   8   8   8   8   8   8
#     4  10  21  36  51  70  98 131 163 195 241 295
#     4   8  16  31  51  74  98 127 163 199 239 289
#     4   9  19  33  48  68  97 131 162 196 239 289
#     4   9  18  33  51  71  99 134 165 195 238 289
#     4   9  18  34  53  73  97 125 161 202 242 286
#     4   8  15  31  52  72  98 131 163 196 239 290
#     4   9  18  32  52  75  97 125 162 203 242 282
#     4  10  19  32  52  75  98 126 162 204 241 278
#
# _framework density 18.799865
#
# number of rings (size 3 to 8) (size 9 to 14) (size 15 to 20)
#    0.000    3.000    0.000    3.000    0.000    5.000 
#    0.000    8.125    0.000    3.750    0.000    0.000 
#    0.000    0.000    0.000    0.000    0.000    0.000 
#
# Total GULP energy -356762.612717 kJ/mol
# GULP energy per Si atom -5574.415824 kJ/mol
# Density = 1.875708 g / cm^3
# Si number density = 18.799865 Si / 1000 Ang^3
#
#
#
# Elastic Constant Matrix: (Units=GPa)
#
#
# Indices 1 2 3 4 5 6 
#
# 1 164.9183 70.1541 -9.3419 0.0000 0.0000 0.0000
# 2 70.1541 158.2234 -7.2790 0.0000 0.0000 0.0000
# 3 -9.3419 -7.2790 9.7710 0.0000 0.0000 0.0000
# 4 0.0000 0.0000 0.0000 19.3948 0.0000 0.0000
# 5 0.0000 0.0000 0.0000 0.0000 -111.1964 0.0000
# 6 0.0000 0.0000 0.0000 0.0000 0.0000 6.9972
#
#
#
# Elastic Compliance Matrix: (Units=1/GPa)
#
#
# Indices 1 2 3 4 5 6 
#
# 1 0.007701 -0.003185 0.004990 0.000000 0.000000 0.000000
# 2 -0.003185 0.007862 0.002811 0.000000 0.000000 0.000000
# 3 0.004990 0.002811 0.109209 0.000000 0.000000 0.000000
# 4 0.000000 0.000000 0.000000 0.051560 0.000000 0.000000
# 5 0.000000 0.000000 0.000000 0.000000 -0.008993 0.000000
# 6 0.000000 0.000000 0.000000 0.000000 0.000000 0.142915
#
#
# Mechanical properties :
#
#
# Convention : Reuss Voigt Hill
#
# Bulk Modulus (GPa) = 7.46242 48.88659 28.17450
# Shear Modulus (GPa) = 14.46388 1.66441 8.06414
#
# Velocity S-wave (km/s) = 2.77674 0.94194 2.07335
# Velocity P-wave (km/s) = 3.77603 5.21950 4.55530
#
# Compressibility (1/GPa) = 0.13400482
#
# Stress axis : x y z
#
# Youngs Moduli (GPa) = 129.85096 127.19890 9.15678
#
# Poissons Ratio (x) = 0.40513 -0.04569
# Poissons Ratio (y) = 0.41358 -0.02574
# Poissons Ratio (z) = -0.64798 -0.35762
#
# Static dielectric constant tensor:
#      x y z
#    x 1.638880 0.000000 0.000000 
#    y 0.000000 1.639690 0.000000 
#    z 0.000000 0.000000 1.687630 
# 
# From -- ./inp_files/7175.got.cif
#   From: 2010.05.17/outbox.cif.g08.bks.cpg/sg58_4_cif.got.tgz:7175.got - 2010.06.03 14:20:14.
