data_PCOD9441014
_publ_section_title
;
Structure prediction by ZEFSAII (Michael W. Deem and Ramdas Pophale) SiO2 
 PCOD9441014
Probable space group: P N N M
;
_chemical_formula_sum "Si O2"
_cell_formula_units_Z 64
_cell_length_a 12.119830
_cell_length_b 12.380000
_cell_length_c 25.322882
_cell_angle_alpha 90.000000
_cell_angle_beta 90.000000
_cell_angle_gamma 90.000000
_cell_volume 3799.533729
_symmetry_space_group_name_H-M "P N N M"
_symmetry_group_IT_number 58
_symmetry_cell_setting 'orthorhombic'
loop_
_space_group_symop_operation_xyz
x,y,z
-x,-y,z
1/2+x,1/2-y,1/2-z
1/2-x,1/2+y,1/2-z
-x,-y,-z
x,y,-z
1/2-x,1/2+y,1/2+z
1/2+x,1/2-y,1/2+z
loop_
_atom_site_type_symbol
_atom_site_label
_atom_site_fract_x
_atom_site_fract_y
_atom_site_fract_z
Si Si1 0.925359 0.408500 0.369716
Si Si2 0.890192 0.225316 0.189207
Si Si3 0.235502 0.733112 0.562638
Si Si4 0.565597 0.393235 0.378760
Si Si5 0.271747 0.589871 0.812147
Si Si6 0.109854 0.938646 0.610621
Si Si7 0.733068 0.509920 0.699304
Si Si8 0.994703 0.786809 0.302969
O O1 0.857812 0.345343 0.413719
O O2 0.840973 0.466398 0.329705
O O3 0.994863 0.323839 0.335201
O O4 0.000000 0.500000 0.394514
O O5 0.837490 0.341116 0.179806
O O6 0.795059 0.134327 0.190107
O O7 0.948327 0.222890 0.246307
O O8 0.975420 0.187382 0.144971
O O9 0.244857 0.730525 0.500000
O O10 0.347837 0.679185 0.587335
O O11 0.186312 0.851753 0.579516
O O12 0.500000 0.500000 0.402062
O O13 0.633900 0.443726 0.329248
O O14 0.310148 0.527707 0.864184
O O15 0.260316 0.513325 0.761337
O O16 0.371315 0.670843 0.797450
O O17 0.059157 0.873702 0.660738
O O18 0.000000 0.000000 0.586413
#
# Coordination Sequence:
#
# PCOD9441014 Si02
#       8
#     8   8   8   8   8   8   8   8
#     4  10  20  35  48  81 117 136 176 229 283 330
#     4  11  19  30  49  76 111 153 189 214 265 331
#     4  10  22  41  63  80 102 143 197 248 280 323
#     4   9  20  35  55  81 111 145 188 229 276 338
#     4  11  19  30  49  76 111 153 189 214 265 331
#     4   9  20  35  55  81 111 145 188 229 276 338
#     4  10  18  29  49  74 110 154 178 211 263 333
#     4  10  18  29  49  74 110 154 178 211 263 333
#
# _framework density 16.844173000000001
#
# number of rings (size 3 to 8) (size 9 to 14) (size 15 to 20)
#    0.000    2.000    3.750    0.750    0.000    0.750 
#    2.250    0.625    0.000    1.500    0.000    0.000 
#    0.000    0.000    0.000    0.000    0.000    0.000 
#
# Total GULP energy -356441.313032 kJ/mol
# GULP energy per Si atom -5569.395516 kJ/mol
# Density = 1.680583 g / cm^3
# Si number density = 16.844173 Si / 1000 Ang^3
#
#
#
# Elastic Constant Matrix: (Units=GPa)
#
#
# Indices 1 2 3 4 5 6 
#
# 1 41.5212 29.9624 12.9844 0.0000 0.0000 0.0000
# 2 29.9624 81.0303 25.3230 0.0000 0.0000 0.0000
# 3 12.9844 25.3230 61.6858 0.0000 0.0000 0.0000
# 4 0.0000 0.0000 0.0000 0.2692 0.0000 0.0000
# 5 0.0000 0.0000 0.0000 0.0000 2.6769 0.0000
# 6 0.0000 0.0000 0.0000 0.0000 0.0000 38.5000
#
#
#
# Elastic Compliance Matrix: (Units=1/GPa)
#
#
# Indices 1 2 3 4 5 6 
#
# 1 0.033115 -0.011548 -0.002230 0.000000 0.000000 0.000000
# 2 -0.011548 0.018184 -0.005034 0.000000 0.000000 0.000000
# 3 -0.002230 -0.005034 0.018747 0.000000 0.000000 0.000000
# 4 0.000000 0.000000 0.000000 3.714905 0.000000 0.000000
# 5 0.000000 0.000000 0.000000 0.000000 0.373569 0.000000
# 6 0.000000 0.000000 0.000000 0.000000 0.000000 0.025974
#
#
# Mechanical properties :
#
#
# Convention : Reuss Voigt Hill
#
# Bulk Modulus (GPa) = 30.84294 35.64186 33.24240
# Shear Modulus (GPa) = 1.18122 16.02038 8.60080
#
# Velocity S-wave (km/s) = 0.83832 3.08733 2.26212
# Velocity P-wave (km/s) = 4.39176 5.82361 5.15762
#
# Compressibility (1/GPa) = 0.03242233
#
# Stress axis : x y z
#
# Youngs Moduli (GPa) = 30.19824 54.99234 53.34133
#
# Poissons Ratio (x) = 0.63504 0.11894
# Poissons Ratio (y) = 0.34872 0.26853
# Poissons Ratio (z) = 0.06734 0.27684
#
# Static dielectric constant tensor:
#      x y z
#    x 1.597630 0.000000 0.000000 
#    y 0.000000 1.598470 0.000000 
#    z 0.000000 0.000000 1.518930 
# 
# From -- ./inp_files/32064.got.cif
#   From: 2010.05.17/outbox.cif.g08.bks.cpg/sg58_17_cif.got.tgz:32064.got - 2010.06.03 14:20:14.
