data_PCOD9441777
_publ_section_title
;
Structure prediction by ZEFSAII (Michael W. Deem and Ramdas Pophale) SiO2 
 PCOD9441777
Probable space group: P N N M
;
_chemical_formula_sum "Si O2"
_cell_formula_units_Z 64
_cell_length_a 15.791921
_cell_length_b 15.565379
_cell_length_c 13.584760
_cell_angle_alpha 90.000000
_cell_angle_beta 90.000000
_cell_angle_gamma 90.000000
_cell_volume 3339.232301
_symmetry_space_group_name_H-M "P N N M"
_symmetry_group_IT_number 58
_symmetry_cell_setting 'orthorhombic'
loop_
_space_group_symop_operation_xyz
x,y,z
-x,-y,z
1/2+x,1/2-y,1/2-z
1/2-x,1/2+y,1/2-z
-x,-y,-z
x,y,-z
1/2-x,1/2+y,1/2+z
1/2+x,1/2-y,1/2+z
loop_
_atom_site_type_symbol
_atom_site_label
_atom_site_fract_x
_atom_site_fract_y
_atom_site_fract_z
Si Si1 0.974625 0.813081 0.386632
Si Si2 0.891330 0.058475 0.384203
Si Si3 0.655501 0.179615 0.194417
Si Si4 0.742964 0.202191 0.611558
Si Si5 0.383781 0.189940 0.816038
Si Si6 0.595255 0.000734 0.242864
Si Si7 0.745386 0.950305 0.386089
Si Si8 0.180888 0.742616 0.887420
O O1 0.951007 0.829920 0.500000
O O2 0.022349 0.898330 0.344786
O O3 0.049192 0.741630 0.380562
O O4 0.898903 0.761949 0.336578
O O5 0.908828 0.045847 0.500000
O O6 0.816750 0.130310 0.376247
O O7 0.839203 0.975571 0.348245
O O8 0.670413 0.185639 0.310900
O O9 0.611595 0.087175 0.180144
O O10 0.747711 0.188059 0.143194
O O11 0.714899 0.202972 0.500000
O O12 0.790960 0.289019 0.642664
O O13 0.384384 0.229389 0.703733
O O14 0.399349 0.089090 0.815069
O O15 0.670625 0.992440 0.322617
O O16 0.500000 0.000000 0.286151
O O17 0.739593 0.979374 0.500000
O O18 0.728388 0.849327 0.386175
O O19 0.150090 0.756555 0.000000
#
# Coordination Sequence:
#
# PCOD9441777 Si02
#       8
#     8   8   8   8   8   8   8   8
#     4  10  19  32  49  72 102 133 166 207 254 297
#     4   8  14  27  49  73  92 122 167 208 245 295
#     4  11  20  32  50  74 107 137 165 205 259 310
#     4   9  17  32  53  72  94 131 178 214 243 290
#     4   9  18  33  51  71  99 135 174 207 243 292
#     4  11  20  31  46  75 111 135 166 206 248 303
#     4   9  17  32  53  74  97 131 173 215 258 299
#     4   9  19  34  51  72 102 135 168 209 257 303
#
# _framework density 19.166083
#
# number of rings (size 3 to 8) (size 9 to 14) (size 15 to 20)
#    0.000    2.500    2.500    1.500    0.000    0.250 
#    0.000    4.375    0.000    3.000    0.000    0.000 
#    0.000    3.500    0.000    0.000    0.000    0.000 
#
# Total GULP energy -356326.461808 kJ/mol
# GULP energy per Si atom -5567.600966 kJ/mol
# Density = 1.912246 g / cm^3
# Si number density = 19.166083 Si / 1000 Ang^3
#
#
#
# Elastic Constant Matrix: (Units=GPa)
#
#
# Indices 1 2 3 4 5 6 
#
# 1 51.7243 12.3995 -3.0359 0.0000 0.0000 0.0000
# 2 12.3995 52.1250 3.9365 0.0000 0.0000 0.0000
# 3 -3.0359 3.9365 60.0816 0.0000 0.0000 0.0000
# 4 0.0000 0.0000 0.0000 9.8780 0.0000 0.0000
# 5 0.0000 0.0000 0.0000 0.0000 20.4905 0.0000
# 6 0.0000 0.0000 0.0000 0.0000 0.0000 25.8190
#
#
#
# Elastic Compliance Matrix: (Units=1/GPa)
#
#
# Indices 1 2 3 4 5 6 
#
# 1 0.020614 -0.005007 0.001370 0.000000 0.000000 0.000000
# 2 -0.005007 0.020496 -0.001596 0.000000 0.000000 0.000000
# 3 0.001370 -0.001596 0.016818 0.000000 0.000000 0.000000
# 4 0.000000 0.000000 0.000000 0.101235 0.000000 0.000000
# 5 0.000000 0.000000 0.000000 0.000000 0.048803 0.000000
# 6 0.000000 0.000000 0.000000 0.000000 0.000000 0.038731
#
#
# Mechanical properties :
#
#
# Convention : Reuss Voigt Hill
#
# Bulk Modulus (GPa) = 21.06976 21.17013 21.11995
# Shear Modulus (GPa) = 18.31604 21.27956 19.79780
#
# Velocity S-wave (km/s) = 3.09471 3.33569 3.21746
# Velocity P-wave (km/s) = 4.87717 5.08973 4.98458
#
# Compressibility (1/GPa) = 0.04746138
#
# Stress axis : x y z
#
# Youngs Moduli (GPa) = 48.51071 48.78940 59.46082
#
# Poissons Ratio (x) = 0.24429 -0.08144
# Poissons Ratio (y) = 0.24290 0.09489
# Poissons Ratio (z) = -0.06644 0.07786
#
# Static dielectric constant tensor:
#      x y z
#    x 1.712530 0.000000 0.000000 
#    y 0.000000 1.762980 0.000000 
#    z 0.000000 0.000000 1.676050 
# 
# From -- ./inp_files/22452.got.cif
#   From: 2010.05.17/outbox.cif.g08.bks.cpg/sg58_12_cif.got.tgz:22452.got - 2010.06.03 14:20:14.
