data_PCOD9441914
_publ_section_title
;
Structure prediction by ZEFSAII (Michael W. Deem and Ramdas Pophale) SiO2 
 PCOD9441914
Probable space group: P N N M
;
_chemical_formula_sum "Si O2"
_cell_formula_units_Z 40
_cell_length_a 21.781132
_cell_length_b 13.671834
_cell_length_c 7.903257
_cell_angle_alpha 90.000000
_cell_angle_beta 90.000000
_cell_angle_gamma 90.000000
_cell_volume 2353.495262
_symmetry_space_group_name_H-M "P N N M"
_symmetry_group_IT_number 58
_symmetry_cell_setting 'orthorhombic'
loop_
_space_group_symop_operation_xyz
x,y,z
-x,-y,z
1/2+x,1/2-y,1/2-z
1/2-x,1/2+y,1/2-z
-x,-y,-z
x,y,-z
1/2-x,1/2+y,1/2+z
1/2+x,1/2-y,1/2+z
loop_
_atom_site_type_symbol
_atom_site_label
_atom_site_fract_x
_atom_site_fract_y
_atom_site_fract_z
Si Si1 0.288034 0.115004 0.700253
Si Si2 0.928930 0.880953 0.000000
Si Si3 0.348094 0.310658 0.813666
Si Si4 0.278756 0.897091 0.800312
Si Si5 0.926237 0.114727 0.000000
Si Si6 0.346830 0.698355 0.799757
O O1 0.297355 0.127819 0.500000
O O2 0.327810 0.197809 0.791347
O O3 0.216148 0.138040 0.733042
O O4 0.301153 0.004529 0.753152
O O5 0.897303 0.836905 0.832249
O O6 0.001579 0.862795 0.000000
O O7 0.918493 0.997611 0.000000
O O8 0.284550 0.371018 0.793280
O O9 0.393257 0.342053 0.665178
O O10 0.373918 0.327851 0.000000
O O11 0.327398 0.810985 0.767028
O O12 0.264638 0.892524 0.000000
O O13 0.362311 0.687517 0.000000
#
# Coordination Sequence:
#
# PCOD9441914 Si02
#       6
#     8   4   8   8   4   8
#     4  10  19  32  55  88 119 144 180 225 282 344
#     4  11  24  38  63  73 111 155 187 232 280 326
#     4  11  21  36  56  81 116 149 183 231 282 325
#     4  10  19  32  54  87 120 143 179 227 278 341
#     4  11  24  42  53  85 107 147 199 232 270 336
#     4   9  21  36  52  84 115 143 185 228 275 333
#
# _framework density 16.995996999999999
#
# number of rings (size 3 to 8) (size 9 to 14) (size 15 to 20)
#    0.000    1.800    2.000    3.600    8.400    3.200 
#    0.000    2.000    0.000    2.400    0.000    4.200 
#    0.000    0.000    0.000    0.000    0.000    0.000 
#
# Total GULP energy -223368.280761 kJ/mol
# GULP energy per Si atom -5584.207019 kJ/mol
# Density = 1.695731 g / cm^3
# Si number density = 16.995997 Si / 1000 Ang^3
#
#
#
# Elastic Constant Matrix: (Units=GPa)
#
#
# Indices 1 2 3 4 5 6 
#
# 1 88.9222 49.5509 75.3341 0.0000 0.0000 0.0000
# 2 49.5509 93.4177 45.0338 0.0000 0.0000 0.0000
# 3 75.3341 45.0338 135.6389 0.0000 0.0000 0.0000
# 4 0.0000 0.0000 0.0000 28.5685 0.0000 0.0000
# 5 0.0000 0.0000 0.0000 0.0000 8.2797 0.0000
# 6 0.0000 0.0000 0.0000 0.0000 0.0000 16.9122
#
#
#
# Elastic Compliance Matrix: (Units=1/GPa)
#
#
# Indices 1 2 3 4 5 6 
#
# 1 0.025376 -0.007936 -0.011459 0.000000 0.000000 0.000000
# 2 -0.007936 0.015226 -0.000648 0.000000 0.000000 0.000000
# 3 -0.011459 -0.000648 0.013952 0.000000 0.000000 0.000000
# 4 0.000000 0.000000 0.000000 0.035004 0.000000 0.000000
# 5 0.000000 0.000000 0.000000 0.000000 0.120778 0.000000
# 6 0.000000 0.000000 0.000000 0.000000 0.000000 0.059129
#
#
# Mechanical properties :
#
#
# Convention : Reuss Voigt Hill
#
# Bulk Modulus (GPa) = 69.11401 73.09071 71.10236
# Shear Modulus (GPa) = 15.90470 20.62276 18.26373
#
# Velocity S-wave (km/s) = 3.06239 3.48715 3.28165
# Velocity P-wave (km/s) = 7.29777 7.70141 7.50230
#
# Compressibility (1/GPa) = 0.01446885
#
# Stress axis : x y z
#
# Youngs Moduli (GPa) = 39.40727 65.67608 71.67479
#
# Poissons Ratio (x) = 0.52120 0.82132
# Poissons Ratio (y) = 0.31274 0.04642
# Poissons Ratio (z) = 0.45157 0.04253
#
# Static dielectric constant tensor:
#      x y z
#    x 1.533120 0.000000 0.000000 
#    y 0.000000 1.586310 0.000000 
#    z 0.000000 0.000000 1.593060 
# 
# From -- ./inp_files/3822.got.cif
#   From: 2010.05.17/outbox.cif.g08.bks.cpg/sg58_2_cif.got.tgz:3822.got - 2010.06.03 14:20:14.
