data_PCOD9441414
_publ_section_title
;
Structure prediction by ZEFSAII (Michael W. Deem and Ramdas Pophale) SiO2 
 PCOD9441414
Probable space group: P N N M
;
_chemical_formula_sum "Si O2"
_cell_formula_units_Z 48
_cell_length_a 9.101452
_cell_length_b 18.938668
_cell_length_c 14.548444
_cell_angle_alpha 90.000000
_cell_angle_beta 90.000000
_cell_angle_gamma 90.000000
_cell_volume 2507.706239
_symmetry_space_group_name_H-M "P N N M"
_symmetry_group_IT_number 58
_symmetry_cell_setting 'orthorhombic'
loop_
_space_group_symop_operation_xyz
x,y,z
-x,-y,z
1/2+x,1/2-y,1/2-z
1/2-x,1/2+y,1/2-z
-x,-y,-z
x,y,-z
1/2-x,1/2+y,1/2+z
1/2+x,1/2-y,1/2+z
loop_
_atom_site_type_symbol
_atom_site_label
_atom_site_fract_x
_atom_site_fract_y
_atom_site_fract_z
Si Si1 0.072488 0.420908 0.000000
Si Si2 0.721645 0.320364 0.212222
Si Si3 0.320441 0.493265 0.500000
Si Si4 0.646738 0.046651 0.691066
Si Si5 0.167890 0.338140 0.500000
Si Si6 0.295822 0.183515 0.500000
Si Si7 0.452750 0.822665 0.197933
Si Si8 0.852327 0.956491 0.807043
O O1 0.166521 0.419102 0.908091
O O2 0.000000 0.500000 0.000000
O O3 0.951205 0.358702 0.000000
O O4 0.729876 0.336677 0.101545
O O5 0.640535 0.246266 0.222654
O O6 0.633648 0.376865 0.273679
O O7 0.886239 0.319533 0.255493
O O8 0.500000 0.500000 0.500000
O O9 0.258921 0.412455 0.500000
O O10 0.272437 0.531913 0.594614
O O11 0.627093 0.108897 0.762387
O O12 0.500000 0.000000 0.690080
O O13 0.767938 0.993533 0.724253
O O14 0.279148 0.269693 0.500000
O O15 0.063152 0.330972 0.411426
O O16 0.000000 0.000000 0.815400
#
# Coordination Sequence:
#
# PCOD9441414 Si02
#       8
#     4   8   4   8   4   4   8   8
#     4  10  18  34  63  89 116 155 215 246 294 379
#     4  11  24  42  63  94 124 168 209 254 320 373
#     4  10  22  39  61  92 124 167 211 252 308 384
#     4  11  20  39  63  92 120 162 211 256 310 367
#     4  10  22  39  64  91 128 163 210 259 320 363
#     4  10  20  40  64  90 122 167 206 255 306 381
#     4  11  23  40  65  89 126 164 207 257 313 376
#     4  11  24  41  63  91 129 165 209 264 315 370
#
# _framework density 19.140998
#
# number of rings (size 3 to 8) (size 9 to 14) (size 15 to 20)
#    0.000    1.333    5.000    1.000    2.333    2.000 
#    0.000    5.000    0.000    0.000    0.000    0.000 
#    0.000    0.000    0.000    0.000    0.000    0.000 
#
# Total GULP energy -267379.010956 kJ/mol
# GULP energy per Si atom -5570.396062 kJ/mol
# Density = 1.909743 g / cm^3
# Si number density = 19.140998 Si / 1000 Ang^3
#
#
#
# Elastic Constant Matrix: (Units=GPa)
#
#
# Indices 1 2 3 4 5 6 
#
# 1 17.7298 -10.3045 -7.1604 0.0000 0.0000 0.0000
# 2 -10.3045 96.1295 37.4823 0.0000 0.0000 0.0000
# 3 -7.1604 37.4823 117.4338 0.0000 0.0000 0.0000
# 4 0.0000 0.0000 0.0000 45.5161 0.0000 0.0000
# 5 0.0000 0.0000 0.0000 0.0000 1.9629 0.0000
# 6 0.0000 0.0000 0.0000 0.0000 0.0000 35.1881
#
#
#
# Elastic Compliance Matrix: (Units=1/GPa)
#
#
# Indices 1 2 3 4 5 6 
#
# 1 0.060499 0.005764 0.001849 0.000000 0.000000 0.000000
# 2 0.005764 0.012430 -0.003616 0.000000 0.000000 0.000000
# 3 0.001849 -0.003616 0.009782 0.000000 0.000000 0.000000
# 4 0.000000 0.000000 0.000000 0.021970 0.000000 0.000000
# 5 0.000000 0.000000 0.000000 0.000000 0.509457 0.000000
# 6 0.000000 0.000000 0.000000 0.000000 0.000000 0.028419
#
#
# Mechanical properties :
#
#
# Convention : Reuss Voigt Hill
#
# Bulk Modulus (GPa) = 11.02460 30.14754 20.58607
# Shear Modulus (GPa) = 7.52107 30.61845 19.06976
#
# Velocity S-wave (km/s) = 1.98440 4.00387 3.15981
# Velocity P-wave (km/s) = 3.32003 6.09583 4.90824
#
# Compressibility (1/GPa) = 0.09070622
#
# Stress axis : x y z
#
# Youngs Moduli (GPa) = 16.52918 80.44741 102.22483
#
# Poissons Ratio (x) = -0.46371 -0.18902
# Poissons Ratio (y) = -0.09528 0.36965
# Poissons Ratio (z) = -0.03056 0.29090
#
# Static dielectric constant tensor:
#      x y z
#    x 1.657140 0.000000 0.000000 
#    y 0.000000 1.651470 0.000000 
#    z 0.000000 0.000000 1.946120 
# 
# From -- ./inp_files/19918.got.cif
#   From: 2010.05.17/outbox.cif.g08.bks.cpg/sg58_10_cif.got.tgz:19918.got - 2010.06.03 14:20:14.
