data_PCOD9441062
_publ_section_title
;
Structure prediction by ZEFSAII (Michael W. Deem and Ramdas Pophale) SiO2 
 PCOD9441062
Probable space group: P N N M
;
_chemical_formula_sum "Si O2"
_cell_formula_units_Z 52
_cell_length_a 25.713535
_cell_length_b 5.430783
_cell_length_c 15.965586
_cell_angle_alpha 90.000000
_cell_angle_beta 90.000000
_cell_angle_gamma 90.000000
_cell_volume 2229.508330
_symmetry_space_group_name_H-M "P N N M"
_symmetry_group_IT_number 58
_symmetry_cell_setting 'orthorhombic'
loop_
_space_group_symop_operation_xyz
x,y,z
-x,-y,z
1/2+x,1/2-y,1/2-z
1/2-x,1/2+y,1/2-z
-x,-y,-z
x,y,-z
1/2-x,1/2+y,1/2+z
1/2+x,1/2-y,1/2+z
loop_
_atom_site_type_symbol
_atom_site_label
_atom_site_fract_x
_atom_site_fract_y
_atom_site_fract_z
Si Si1 0.468931 0.750000 0.100149
Si Si2 0.677827 0.250000 0.347736
Si Si3 0.800316 0.250000 0.349498
Si Si4 0.856541 0.250000 0.175760
Si Si5 0.966371 0.250000 0.187959
Si Si6 0.532974 0.750000 0.500000
Si Si7 0.850756 0.750000 0.650446
O O1 0.500000 0.500000 0.121759
O O2 0.412449 0.750000 0.140604
O O3 0.500000 0.000000 0.121759
O O4 0.462159 0.750000 0.000000
O O5 0.738917 0.250000 0.362660
O O6 0.652094 0.502618 0.376656
O O7 0.664113 0.250000 0.248530
O O8 0.652094 0.997381 0.376656
O O9 0.811354 0.250000 0.248350
O O10 0.826297 0.498370 0.384358
O O11 0.826297 0.001630 0.384358
O O12 0.910018 0.250000 0.231030
O O13 0.000000 0.500000 0.198605
O O14 0.943995 0.250000 0.092529
O O15 0.000000 0.000000 0.198605
O O16 0.500000 0.500000 0.500000
O O17 0.500000 0.000000 0.500000
#
# Coordination Sequence:
#
# PCOD9441062 Si02
#       7
#     8   8   8   8   8   4   8
#     4  10  21  37  54  75 104 137 174 213 253 297
#     4  10  19  33  50  75  98 129 166 200 244 301
#     4  10  19  33  51  76  98 128 167 202 244 300
#     4  10  18  30  48  72  98 128 163 193 246 294
#     4  10  19  32  47  69  96 125 162 198 235 280
#     4   8  16  30  48  64  84 118 160 192 216 266
#     4  10  18  32  53  76  96 128 172 198 248 297
#
# _framework density 23.323528
#
# number of rings (size 3 to 8) (size 9 to 14) (size 15 to 20)
#    0.000    2.154    0.000    6.462    0.000    0.000 
#    0.000   18.462    0.000    0.000   22.000    0.000 
#    0.000    0.000    0.000    0.000    0.000    0.000 
#
# Total GULP energy -290346.717341 kJ/mol
# GULP energy per Si atom -5583.590718 kJ/mol
# Density = 2.327044 g / cm^3
# Si number density = 23.323528 Si / 1000 Ang^3
#
#
#
# Elastic Constant Matrix: (Units=GPa)
#
#
# Indices 1 2 3 4 5 6 
#
# 1 208.7819 116.3703 -10.9506 0.0000 0.0000 0.0000
# 2 116.3703 291.0108 -4.7167 0.0000 0.0000 0.0000
# 3 -10.9506 -4.7167 39.9394 0.0000 0.0000 0.0000
# 4 0.0000 0.0000 0.0000 -75.0607 0.0000 0.0000
# 5 0.0000 0.0000 0.0000 0.0000 -23.1089 0.0000
# 6 0.0000 0.0000 0.0000 0.0000 0.0000 50.6760
#
#
#
# Elastic Compliance Matrix: (Units=1/GPa)
#
#
# Indices 1 2 3 4 5 6 
#
# 1 0.006243 -0.002473 0.001420 0.000000 0.000000 0.000000
# 2 -0.002473 0.004423 -0.000156 0.000000 0.000000 0.000000
# 3 0.001420 -0.000156 0.025409 0.000000 0.000000 0.000000
# 4 0.000000 0.000000 0.000000 -0.013323 0.000000 0.000000
# 5 0.000000 0.000000 0.000000 0.000000 -0.043273 0.000000
# 6 0.000000 0.000000 0.000000 0.000000 0.000000 0.019733
#
#
# Mechanical properties :
#
#
# Convention : Reuss Voigt Hill
#
# Bulk Modulus (GPa) = 29.71326 82.34869 56.03097
# Shear Modulus (GPa) = 389.12710 19.76988 204.44849
#
# Velocity S-wave (km/s) = 12.93062 2.91458 9.37272
# Velocity P-wave (km/s) = 15.35259 6.83448 11.88302
#
# Compressibility (1/GPa) = 0.03365501
#
# Stress axis : x y z
#
# Youngs Moduli (GPa) = 160.18622 226.09973 39.35655
#
# Poissons Ratio (x) = 0.55923 -0.05587
# Poissons Ratio (y) = 0.39620 0.00613
# Poissons Ratio (z) = -0.22739 0.03523
#
# Static dielectric constant tensor:
#      x y z
#    x 1.991780 0.000000 0.000000 
#    y 0.000000 2.036600 0.000000 
#    z 0.000000 0.000000 1.961820 
# 
# From -- ./inp_files/30392.got.cif
#   From: 2010.05.17/outbox.cif.g08.bks.cpg/sg58_16_cif.got.tgz:30392.got - 2010.06.03 14:20:14.
