data_PCOD9441663
_publ_section_title
;
Structure prediction by ZEFSAII (Michael W. Deem and Ramdas Pophale) SiO2 
 PCOD9441663
Probable space group: P N N M
;
_chemical_formula_sum "Si O2"
_cell_formula_units_Z 56
_cell_length_a 17.507848
_cell_length_b 19.968472
_cell_length_c 7.685839
_cell_angle_alpha 90.000000
_cell_angle_beta 90.000000
_cell_angle_gamma 90.000000
_cell_volume 2687.007533
_symmetry_space_group_name_H-M "P N N M"
_symmetry_group_IT_number 58
_symmetry_cell_setting 'orthorhombic'
loop_
_space_group_symop_operation_xyz
x,y,z
-x,-y,z
1/2+x,1/2-y,1/2-z
1/2-x,1/2+y,1/2-z
-x,-y,-z
x,y,-z
1/2-x,1/2+y,1/2+z
1/2+x,1/2-y,1/2+z
loop_
_atom_site_type_symbol
_atom_site_label
_atom_site_fract_x
_atom_site_fract_y
_atom_site_fract_z
Si Si1 0.438244 0.642627 0.703301
Si Si2 0.820088 0.967800 0.300916
Si Si3 0.323313 0.112852 0.797510
Si Si4 0.510221 0.217368 0.287068
Si Si5 0.510411 0.927081 0.300399
Si Si6 0.663569 0.745633 0.200085
Si Si7 0.387473 0.392278 0.212903
O O1 0.417537 0.641218 0.500000
O O2 0.383776 0.590025 0.794947
O O3 0.436263 0.720305 0.762514
O O4 0.526068 0.619232 0.724359
O O5 0.798888 0.981378 0.500000
O O6 0.745012 0.938971 0.212772
O O7 0.854844 0.036574 0.229121
O O8 0.399239 0.088365 0.702451
O O9 0.298597 0.186596 0.727873
O O10 0.344512 0.121691 0.000000
O O11 0.504495 0.217629 0.500000
O O12 0.527686 0.141416 0.229925
O O13 0.426629 0.235628 0.213255
O O14 0.482948 0.932528 0.500000
O O15 0.500000 0.000000 0.216494
O O16 0.664064 0.670710 0.274108
O O17 0.688830 0.739479 0.000000
O O18 0.390443 0.390935 0.000000
#
# Coordination Sequence:
#
# PCOD9441663 Si02
#       7
#     8   8   8   8   8   8   8
#     4  10  19  31  49  73 101 131 163 202 245 289
#     4  11  22  34  49  70 100 135 166 200 243 293
#     4  10  20  34  52  73  98 128 162 203 250 295
#     4   8  15  28  47  72  97 121 153 192 234 281
#     4   9  17  32  55  78  99 127 164 204 245 292
#     4   8  15  30  51  70  88 116 155 196 237 282
#     4   9  18  33  52  73  96 126 166 205 241 287
#
# _framework density 20.841027
#
# number of rings (size 3 to 8) (size 9 to 14) (size 15 to 20)
#    0.000    2.714    0.000    1.714    0.000    4.286 
#    0.000    1.429    0.000    8.571    0.000    0.000 
#    0.000    0.000    0.000    0.000    0.000    0.000 
#
# Total GULP energy -311955.426647 kJ/mol
# GULP energy per Si atom -5570.632619 kJ/mol
# Density = 2.079359 g / cm^3
# Si number density = 20.841027 Si / 1000 Ang^3
#
#
#
# Elastic Constant Matrix: (Units=GPa)
#
#
# Indices 1 2 3 4 5 6 
#
# 1 19.0343 27.3328 -6.7816 0.0000 0.0000 0.0000
# 2 27.3328 199.2646 0.5244 0.0000 0.0000 0.0000
# 3 -6.7816 0.5244 45.4056 0.0000 0.0000 0.0000
# 4 0.0000 0.0000 0.0000 12.9269 0.0000 0.0000
# 5 0.0000 0.0000 0.0000 0.0000 -46.0853 0.0000
# 6 0.0000 0.0000 0.0000 0.0000 0.0000 8.5156
#
#
#
# Elastic Compliance Matrix: (Units=1/GPa)
#
#
# Indices 1 2 3 4 5 6 
#
# 1 0.070172 -0.009653 0.010592 0.000000 0.000000 0.000000
# 2 -0.009653 0.006347 -0.001515 0.000000 0.000000 0.000000
# 3 0.010592 -0.001515 0.023623 0.000000 0.000000 0.000000
# 4 0.000000 0.000000 0.000000 0.077358 0.000000 0.000000
# 5 0.000000 0.000000 0.000000 0.000000 -0.021699 0.000000
# 6 0.000000 0.000000 0.000000 0.000000 0.000000 0.117431
#
#
# Mechanical properties :
#
#
# Convention : Reuss Voigt Hill
#
# Bulk Modulus (GPa) = 10.10206 33.98398 22.04302
# Shear Modulus (GPa) = 16.26643 11.24670 13.75656
#
# Velocity S-wave (km/s) = 2.79677 2.32554 2.57197
# Velocity P-wave (km/s) = 3.90986 4.85310 4.40679
#
# Compressibility (1/GPa) = 0.09898969
#
# Stress axis : x y z
#
# Youngs Moduli (GPa) = 14.25062 157.56537 42.33122
#
# Poissons Ratio (x) = 1.52103 -0.44838
# Poissons Ratio (y) = 0.13757 0.06414
# Poissons Ratio (z) = -0.15094 0.23872
#
# Static dielectric constant tensor:
#      x y z
#    x 1.687200 0.000000 0.000000 
#    y 0.000000 1.838560 0.000000 
#    z 0.000000 0.000000 1.829570 
# 
# From -- ./inp_files/8165.got.cif
#   From: 2010.05.17/outbox.cif.g08.bks.cpg/sg58_5_cif.got.tgz:8165.got - 2010.06.03 14:20:14.
