data_PCOD9441520
_publ_section_title
;
Structure prediction by ZEFSAII (Michael W. Deem and Ramdas Pophale) SiO2 
 PCOD9441520
Probable space group: P N N M
;
_chemical_formula_sum "Si O2"
_cell_formula_units_Z 64
_cell_length_a 18.681994
_cell_length_b 22.070397
_cell_length_c 9.280405
_cell_angle_alpha 90.000000
_cell_angle_beta 90.000000
_cell_angle_gamma 90.000000
_cell_volume 3826.487535
_symmetry_space_group_name_H-M "P N N M"
_symmetry_group_IT_number 58
_symmetry_cell_setting 'orthorhombic'
loop_
_space_group_symop_operation_xyz
x,y,z
-x,-y,z
1/2+x,1/2-y,1/2-z
1/2-x,1/2+y,1/2-z
-x,-y,-z
x,y,-z
1/2-x,1/2+y,1/2+z
1/2+x,1/2-y,1/2+z
loop_
_atom_site_type_symbol
_atom_site_label
_atom_site_fract_x
_atom_site_fract_y
_atom_site_fract_z
Si Si1 0.335153 0.119374 0.170924
Si Si2 0.374114 0.236738 0.665621
Si Si3 0.960721 0.690235 0.164594
Si Si4 0.173069 0.093728 0.828991
Si Si5 0.581340 0.522923 0.329694
Si Si6 0.026845 0.567538 0.826659
Si Si7 0.915738 0.804677 0.669437
Si Si8 0.420743 0.351355 0.170054
O O1 0.333587 0.185517 0.244397
O O2 0.257846 0.089660 0.193405
O O3 0.399716 0.082976 0.245240
O O4 0.348517 0.125179 0.000000
O O5 0.350060 0.240537 0.500000
O O6 0.456980 0.214060 0.663765
O O7 0.375508 0.300828 0.745350
O O8 0.918175 0.737612 0.262056
O O9 0.969559 0.620375 0.212090
O O10 0.934201 0.692426 0.000000
O O11 0.139359 0.150555 0.746479
O O12 0.133008 0.032064 0.786318
O O13 0.159837 0.102429 0.000000
O O14 0.500000 0.500000 0.312321
O O15 0.592074 0.536122 0.500000
O O16 0.591836 0.583017 0.237355
O O17 0.000000 0.500000 0.795709
O O18 0.038122 0.573132 0.000000
O O19 0.901688 0.801249 0.500000
O O20 0.995331 0.833474 0.689710
O O21 0.405890 0.349714 0.000000
#
# Coordination Sequence:
#
# PCOD9441520 Si02
#       8
#     8   8   8   8   8   8   8   8
#     4  10  20  34  53  78 106 133 169 219 270 316
#     4   9  17  31  52  74  97 129 167 205 250 308
#     4   8  15  28  48  73  99 126 158 202 251 300
#     4  10  21  35  51  72 102 141 179 215 261 318
#     4  10  19  32  51  73 101 143 188 219 253 309
#     4   9  18  34  57  82 105 134 175 216 258 318
#     4  10  19  29  46  73 102 131 167 213 258 301
#     4  10  19  30  48  76 106 131 167 219 264 298
#
# _framework density 16.725521000000001
#
# number of rings (size 3 to 8) (size 9 to 14) (size 15 to 20)
#    0.000    2.500    1.250    2.250    0.000    6.000 
#    0.000    0.000    2.750    0.000    0.000    0.000 
#    0.000    0.000    0.000    0.000    0.000    0.000 
#
# Total GULP energy -356816.710697 kJ/mol
# GULP energy per Si atom -5575.261105 kJ/mol
# Density = 1.668745 g / cm^3
# Si number density = 16.725521 Si / 1000 Ang^3
#
#
#
# Elastic Constant Matrix: (Units=GPa)
#
#
# Indices 1 2 3 4 5 6 
#
# 1 50.0185 48.6282 46.5455 0.0000 0.0000 0.0000
# 2 48.6282 161.1742 74.7651 0.0000 0.0000 0.0000
# 3 46.5455 74.7651 79.1292 0.0000 0.0000 0.0000
# 4 0.0000 0.0000 0.0000 23.5780 0.0000 0.0000
# 5 0.0000 0.0000 0.0000 0.0000 16.1016 0.0000
# 6 0.0000 0.0000 0.0000 0.0000 0.0000 21.3797
#
#
#
# Elastic Compliance Matrix: (Units=1/GPa)
#
#
# Indices 1 2 3 4 5 6 
#
# 1 0.044641 -0.002293 -0.024093 0.000000 0.000000 0.000000
# 2 -0.002293 0.011164 -0.009199 0.000000 0.000000 0.000000
# 3 -0.024093 -0.009199 0.035501 0.000000 0.000000 0.000000
# 4 0.000000 0.000000 0.000000 0.042412 0.000000 0.000000
# 5 0.000000 0.000000 0.000000 0.000000 0.062105 0.000000
# 6 0.000000 0.000000 0.000000 0.000000 0.000000 0.046773
#
#
# Mechanical properties :
#
#
# Convention : Reuss Voigt Hill
#
# Bulk Modulus (GPa) = 49.66015 70.02216 59.84116
# Shear Modulus (GPa) = 15.60164 20.23741 17.91952
#
# Velocity S-wave (km/s) = 3.05750 3.48224 3.27676
# Velocity P-wave (km/s) = 6.49770 7.62393 7.08323
#
# Compressibility (1/GPa) = 0.02013687
#
# Stress axis : x y z
#
# Youngs Moduli (GPa) = 22.40069 89.57740 28.16802
#
# Poissons Ratio (x) = 0.20538 0.67864
# Poissons Ratio (y) = 0.05136 0.25912
# Poissons Ratio (z) = 0.53969 0.82404
#
# Static dielectric constant tensor:
#      x y z
#    x 1.547560 0.000000 0.000000 
#    y 0.000000 1.559810 0.000000 
#    z 0.000000 0.000000 1.559890 
# 
# From -- ./inp_files/8286.got.cif
#   From: 2010.05.17/outbox.cif.g08.bks.cpg/sg58_5_cif.got.tgz:8286.got - 2010.06.03 14:20:14.
