data_PCOD9441923
_publ_section_title
;
Structure prediction by ZEFSAII (Michael W. Deem and Ramdas Pophale) SiO2 
 PCOD9441923
Probable space group: P N N M
;
_chemical_formula_sum "Si O2"
_cell_formula_units_Z 48
_cell_length_a 8.687287
_cell_length_b 16.043347
_cell_length_c 16.563283
_cell_angle_alpha 90.000000
_cell_angle_beta 90.000000
_cell_angle_gamma 90.000000
_cell_volume 2308.477089
_symmetry_space_group_name_H-M "P N N M"
_symmetry_group_IT_number 58
_symmetry_cell_setting 'orthorhombic'
loop_
_space_group_symop_operation_xyz
x,y,z
-x,-y,z
1/2+x,1/2-y,1/2-z
1/2-x,1/2+y,1/2-z
-x,-y,-z
x,y,-z
1/2-x,1/2+y,1/2+z
1/2+x,1/2-y,1/2+z
loop_
_atom_site_type_symbol
_atom_site_label
_atom_site_fract_x
_atom_site_fract_y
_atom_site_fract_z
Si Si1 0.718575 0.747888 0.090084
Si Si2 0.814567 0.990704 0.415702
Si Si3 0.827234 0.030257 0.245954
Si Si4 0.091284 0.581000 0.653715
Si Si5 0.832571 0.686013 0.739965
Si Si6 0.123397 0.197661 0.589039
O O1 0.651914 0.842541 0.099663
O O2 0.815674 0.724294 0.170331
O O3 0.563173 0.691368 0.092217
O O4 0.788131 0.739327 0.000000
O O5 0.750022 0.022805 0.500000
O O6 0.796508 0.891609 0.409877
O O7 0.753806 0.031334 0.335335
O O8 0.000000 0.000000 0.418102
O O9 0.810517 0.125147 0.219678
O O10 0.735177 0.963724 0.194421
O O11 0.000000 0.000000 0.250472
O O12 0.000000 0.500000 0.617708
O O13 0.979956 0.626876 0.719369
O O14 0.833336 0.754427 0.669805
O O15 0.155977 0.236703 0.500000
#
# Coordination Sequence:
#
# PCOD9441923 Si02
#       6
#     8   8   8   8   8   8
#     4  10  19  32  55  83 111 147 188 229 279 341
#     4   9  16  27  47  75 102 128 170 224 267 315
#     4  10  19  33  55  77 103 146 190 230 280 335
#     4   9  20  37  54  78 111 147 189 234 281 328
#     4  10  20  34  55  81 112 143 181 237 285 330
#     4   9  18  33  53  78 108 145 187 226 272 336
#
# _framework density 20.792928
#
# number of rings (size 3 to 8) (size 9 to 14) (size 15 to 20)
#    0.000    2.500    0.000    3.000    0.000    3.667 
#    0.000    3.333    0.000   15.000    0.000    0.000 
#    0.000    0.000    0.000    0.000    0.000    0.000 
#
# Total GULP energy -267359.813162 kJ/mol
# GULP energy per Si atom -5569.996108 kJ/mol
# Density = 2.074560 g / cm^3
# Si number density = 20.792928 Si / 1000 Ang^3
#
#
#
# Elastic Constant Matrix: (Units=GPa)
#
#
# Indices 1 2 3 4 5 6 
#
# 1 22.2088 12.1278 26.6979 0.0000 0.0000 0.0000
# 2 12.1278 91.6285 38.3910 0.0000 0.0000 0.0000
# 3 26.6979 38.3910 131.2886 0.0000 0.0000 0.0000
# 4 0.0000 0.0000 0.0000 35.8245 0.0000 0.0000
# 5 0.0000 0.0000 0.0000 0.0000 11.5212 0.0000
# 6 0.0000 0.0000 0.0000 0.0000 0.0000 16.2848
#
#
#
# Elastic Compliance Matrix: (Units=1/GPa)
#
#
# Indices 1 2 3 4 5 6 
#
# 1 0.060432 -0.003248 -0.011339 0.000000 0.000000 0.000000
# 2 -0.003248 0.012612 -0.003028 0.000000 0.000000 0.000000
# 3 -0.011339 -0.003028 0.010808 0.000000 0.000000 0.000000
# 4 0.000000 0.000000 0.000000 0.027914 0.000000 0.000000
# 5 0.000000 0.000000 0.000000 0.000000 0.086796 0.000000
# 6 0.000000 0.000000 0.000000 0.000000 0.000000 0.061407
#
#
# Mechanical properties :
#
#
# Convention : Reuss Voigt Hill
#
# Bulk Modulus (GPa) = 20.56639 44.39548 32.48093
# Shear Modulus (GPa) = 16.05622 23.92006 19.98814
#
# Velocity S-wave (km/s) = 2.78186 3.39543 3.10384
# Velocity P-wave (km/s) = 4.49787 6.06378 5.33855
#
# Compressibility (1/GPa) = 0.04862302
#
# Stress axis : x y z
#
# Youngs Moduli (GPa) = 16.54749 79.28967 92.52411
#
# Poissons Ratio (x) = 0.25751 1.04916
# Poissons Ratio (y) = 0.05374 0.28012
# Poissons Ratio (z) = 0.18764 0.24005
#
# Static dielectric constant tensor:
#      x y z
#    x 1.772040 0.000000 0.000000 
#    y 0.000000 1.793590 0.000000 
#    z 0.000000 0.000000 1.784940 
# 
# From -- ./inp_files/19819.got.cif
#   From: 2010.05.17/outbox.cif.g08.bks.cpg/sg58_10_cif.got.tgz:19819.got - 2010.06.03 14:20:14.
