data_PCOD9441212
_publ_section_title
;
Structure prediction by ZEFSAII (Michael W. Deem and Ramdas Pophale) SiO2 
 PCOD9441212
Probable space group: P N N M
;
_chemical_formula_sum "Si O2"
_cell_formula_units_Z 60
_cell_length_a 7.201608
_cell_length_b 19.836015
_cell_length_c 17.693926
_cell_angle_alpha 90.000000
_cell_angle_beta 90.000000
_cell_angle_gamma 90.000000
_cell_volume 2527.598638
_symmetry_space_group_name_H-M "P N N M"
_symmetry_group_IT_number 58
_symmetry_cell_setting 'orthorhombic'
loop_
_space_group_symop_operation_xyz
x,y,z
-x,-y,z
1/2+x,1/2-y,1/2-z
1/2-x,1/2+y,1/2-z
-x,-y,-z
x,y,-z
1/2-x,1/2+y,1/2+z
1/2+x,1/2-y,1/2+z
loop_
_atom_site_type_symbol
_atom_site_label
_atom_site_fract_x
_atom_site_fract_y
_atom_site_fract_z
Si Si1 0.872215 0.399287 0.114036
Si Si2 0.958485 0.146722 0.500000
Si Si3 0.199820 0.761904 0.629617
Si Si4 0.371728 0.245226 0.420114
Si Si5 0.276105 0.456382 0.111811
Si Si6 0.836206 0.161598 0.214318
Si Si7 0.294323 0.481132 0.292826
Si Si8 0.220293 0.626375 0.712154
O O1 0.773087 0.467436 0.088679
O O2 0.848535 0.379732 0.201786
O O3 0.807688 0.332074 0.073807
O O4 0.087296 0.414445 0.099875
O O5 0.929385 0.205054 0.566931
O O6 0.923751 0.086603 0.433882
O O7 0.405326 0.756622 0.593142
O O8 0.213167 0.810317 0.703400
O O9 0.144503 0.688506 0.663292
O O10 0.332771 0.279740 0.500000
O O11 0.297594 0.280642 0.346013
O O12 0.307874 0.468617 0.201468
O O13 0.737168 0.093750 0.184900
O O14 0.056902 0.142723 0.215840
O O15 0.500000 0.500000 0.320268
O O16 0.186088 0.548985 0.313483
#
# Coordination Sequence:
#
# PCOD9441212 Si02
#       8
#     8   4   8   8   8   8   8   8
#     4  10  18  32  49  76 111 136 177 218 267 325
#     4  12  20  31  51  78 109 143 186 218 267 333
#     4  11  19  34  52  77 102 143 180 218 266 325
#     4  11  20  32  52  79 104 138 177 226 274 318
#     4  10  20  29  50  78 105 142 175 219 270 325
#     4  10  19  33  56  72 104 141 180 221 276 324
#     4   9  17  35  53  73 103 139 183 227 269 328
#     4   9  20  32  54  75 101 140 181 223 267 320
#
# _framework density 23.737946000000001
#
# number of rings (size 3 to 8) (size 9 to 14) (size 15 to 20)
#    0.000    1.867    4.667    0.000    0.933    0.533 
#    0.000    0.333    2.933    2.000    0.000    0.000 
#    0.000    2.533    0.000    0.000    0.000    0.000 
#
# Total GULP energy -334311.059712 kJ/mol
# GULP energy per Si atom -5571.850995 kJ/mol
# Density = 2.368392 g / cm^3
# Si number density = 23.737946 Si / 1000 Ang^3
#
#
#
# Elastic Constant Matrix: (Units=GPa)
#
#
# Indices 1 2 3 4 5 6 
#
# 1 58.8535 13.5011 5.1275 0.0000 0.0000 0.0000
# 2 13.5011 185.9390 48.8648 0.0000 0.0000 0.0000
# 3 5.1275 48.8648 112.0655 0.0000 0.0000 0.0000
# 4 0.0000 0.0000 0.0000 25.6832 0.0000 0.0000
# 5 0.0000 0.0000 0.0000 0.0000-1702.4037 0.0000
# 6 0.0000 0.0000 0.0000 0.0000 0.0000 21.7251
#
#
#
# Elastic Compliance Matrix: (Units=1/GPa)
#
#
# Indices 1 2 3 4 5 6 
#
# 1 0.017287 -0.001183 -0.000275 0.000000 0.000000 0.000000
# 2 -0.001183 0.006155 -0.002630 0.000000 0.000000 0.000000
# 3 -0.000275 -0.002630 0.010083 0.000000 0.000000 0.000000
# 4 0.000000 0.000000 0.000000 0.038936 0.000000 0.000000
# 5 0.000000 0.000000 0.000000 0.000000 -0.000587 0.000000
# 6 0.000000 0.000000 0.000000 0.000000 0.000000 0.046030
#
#
# Mechanical properties :
#
#
# Convention : Reuss Voigt Hill
#
# Bulk Modulus (GPa) = 39.44959 54.64944 47.04951
# Shear Modulus (GPa) = 37.16706 -311.70812 -137.27053
#
# Velocity S-wave (km/s) = 3.96121 -11.47158 -7.61269
# Velocity P-wave (km/s) = 6.12997 12.34468 7.57676
#
# Compressibility (1/GPa) = 0.02534881
#
# Stress axis : x y z
#
# Youngs Moduli (GPa) = 57.84805 162.46704 99.18067
#
# Poissons Ratio (x) = 0.19218 0.02729
# Poissons Ratio (y) = 0.06843 0.26082
# Poissons Ratio (z) = 0.01592 0.42725
#
# Static dielectric constant tensor:
#      x y z
#    x 2.040620 0.000000 0.000000 
#    y 0.000000 1.947590 0.000000 
#    z 0.000000 0.000000 1.857300 
# 
# From -- ./inp_files/21613.got.cif
#   From: 2010.05.17/outbox.cif.g08.bks.cpg/sg58_11_cif.got.tgz:21613.got - 2010.06.03 14:20:14.
