data_PCOD9441393
_publ_section_title
;
Structure prediction by ZEFSAII (Michael W. Deem and Ramdas Pophale) SiO2 
 PCOD9441393
Probable space group: P N N M
;
_chemical_formula_sum "Si O2"
_cell_formula_units_Z 40
_cell_length_a 16.875735
_cell_length_b 7.854106
_cell_length_c 13.346088
_cell_angle_alpha 90.000000
_cell_angle_beta 90.000000
_cell_angle_gamma 90.000000
_cell_volume 1768.941372
_symmetry_space_group_name_H-M "P N N M"
_symmetry_group_IT_number 58
_symmetry_cell_setting 'orthorhombic'
loop_
_space_group_symop_operation_xyz
x,y,z
-x,-y,z
1/2+x,1/2-y,1/2-z
1/2-x,1/2+y,1/2-z
-x,-y,-z
x,y,-z
1/2-x,1/2+y,1/2+z
1/2+x,1/2-y,1/2+z
loop_
_atom_site_type_symbol
_atom_site_label
_atom_site_fract_x
_atom_site_fract_y
_atom_site_fract_z
Si Si1 0.611392 0.618089 0.115878
Si Si2 0.264939 0.059497 0.682163
Si Si3 0.192880 0.421544 0.385988
Si Si4 0.544941 0.257143 0.818967
Si Si5 0.422567 0.880658 0.388455
O O1 0.698207 0.580917 0.156999
O O2 0.549775 0.742424 0.171305
O O3 0.573333 0.429891 0.128455
O O4 0.614151 0.666469 0.000000
O O5 0.235038 0.240392 0.640615
O O6 0.277944 0.051211 0.801563
O O7 0.346008 0.997160 0.631742
O O8 0.209626 0.468658 0.500000
O O9 0.098891 0.386488 0.370336
O O10 0.569908 0.252180 0.702500
O O11 0.418350 0.806029 0.500000
O O12 0.500000 0.000000 0.382145
#
# Coordination Sequence:
#
# PCOD9441393 Si02
#       5
#     8   8   8   8   8
#     4  10  18  34  59  82 106 140 181 229 283 324
#     4  10  21  36  60  85 111 149 193 230 275 338
#     4  10  20  38  59  82 116 150 184 234 286 329
#     4   9  18  33  56  81 107 138 184 226 273 331
#     4  10  21  36  54  76 112 153 184 218 270 329
#
# _framework density 22.612393999999998
#
# number of rings (size 3 to 8) (size 9 to 14) (size 15 to 20)
#    0.000    2.200    0.000    5.400    2.800    0.000 
#    0.000   13.000    0.000    6.000    0.000    0.000 
#    0.000    0.000    0.000    0.000    0.000    0.000 
#
# Total GULP energy -223538.768222 kJ/mol
# GULP energy per Si atom -5588.469206 kJ/mol
# Density = 2.256093 g / cm^3
# Si number density = 22.612394 Si / 1000 Ang^3
#
#
#
# Elastic Constant Matrix: (Units=GPa)
#
#
# Indices 1 2 3 4 5 6 
#
# 1 141.1959 26.3735 8.3535 0.0000 0.0000 0.0000
# 2 26.3735 78.6911 8.8169 0.0000 0.0000 0.0000
# 3 8.3535 8.8169 166.2840 0.0000 0.0000 0.0000
# 4 0.0000 0.0000 0.0000 19.4478 0.0000 0.0000
# 5 0.0000 0.0000 0.0000 0.0000 13.1935 0.0000
# 6 0.0000 0.0000 0.0000 0.0000 0.0000 -5.7659
#
#
#
# Elastic Compliance Matrix: (Units=1/GPa)
#
#
# Indices 1 2 3 4 5 6 
#
# 1 0.007565 -0.002508 -0.000247 0.000000 0.000000 0.000000
# 2 -0.002508 0.013615 -0.000596 0.000000 0.000000 0.000000
# 3 -0.000247 -0.000596 0.006058 0.000000 0.000000 0.000000
# 4 0.000000 0.000000 0.000000 0.051420 0.000000 0.000000
# 5 0.000000 0.000000 0.000000 0.000000 0.075795 0.000000
# 6 0.000000 0.000000 0.000000 0.000000 0.000000 -0.173434
#
#
# Mechanical properties :
#
#
# Convention : Reuss Voigt Hill
#
# Bulk Modulus (GPa) = 48.69345 52.58432 50.63889
# Shear Modulus (GPa) = -920.17535 28.21689 -445.97923
#
# Velocity S-wave (km/s) = -20.19449 3.53633 -14.05902
# Velocity P-wave (km/s) = 22.85117 6.32292 15.52734
#
# Compressibility (1/GPa) = 0.02053664
#
# Stress axis : x y z
#
# Youngs Moduli (GPa) = 132.18048 73.44727 165.07590
#
# Poissons Ratio (x) = 0.18420 0.04079
# Poissons Ratio (y) = 0.33149 0.09837
# Poissons Ratio (z) = 0.03266 0.04377
#
# Static dielectric constant tensor:
#      x y z
#    x 1.888480 0.000000 0.000000 
#    y 0.000000 1.870410 0.000000 
#    z 0.000000 0.000000 1.813200 
# 
# From -- ./inp_files/22621.got.cif
#   From: 2010.05.17/outbox.cif.g08.bks.cpg/sg58_12_cif.got.tgz:22621.got - 2010.06.03 14:20:14.
