data_PCOD9441338
_publ_section_title
;
Structure prediction by ZEFSAII (Michael W. Deem and Ramdas Pophale) SiO2 
 PCOD9441338
Probable space group: P N N M
;
_chemical_formula_sum "Si O2"
_cell_formula_units_Z 64
_cell_length_a 7.052004
_cell_length_b 20.032169
_cell_length_c 20.641673
_cell_angle_alpha 90.000000
_cell_angle_beta 90.000000
_cell_angle_gamma 90.000000
_cell_volume 2915.985897
_symmetry_space_group_name_H-M "P N N M"
_symmetry_group_IT_number 58
_symmetry_cell_setting 'orthorhombic'
loop_
_space_group_symop_operation_xyz
x,y,z
-x,-y,z
1/2+x,1/2-y,1/2-z
1/2-x,1/2+y,1/2-z
-x,-y,-z
x,y,-z
1/2-x,1/2+y,1/2+z
1/2+x,1/2-y,1/2+z
loop_
_atom_site_type_symbol
_atom_site_label
_atom_site_fract_x
_atom_site_fract_y
_atom_site_fract_z
Si Si1 0.451920 0.595135 0.573564
Si Si2 0.373410 0.937793 0.095257
Si Si3 0.653915 0.409388 0.280968
Si Si4 0.921756 0.781473 0.298682
Si Si5 0.911107 0.753959 0.928721
Si Si6 0.644077 0.173726 0.692353
Si Si7 0.540694 0.215237 0.070649
Si Si8 0.284712 0.951164 0.240905
O O1 0.372864 0.587139 0.500000
O O2 0.350364 0.445586 0.577961
O O3 0.329711 0.587195 0.639979
O O4 0.508345 0.673823 0.578607
O O5 0.434003 0.864552 0.072857
O O6 0.382723 0.935708 0.172874
O O7 0.500000 0.000000 0.072679
O O8 0.682869 0.339442 0.243528
O O9 0.771817 0.469900 0.250509
O O10 0.432654 0.427303 0.270136
O O11 0.926398 0.716874 0.253041
O O12 0.863628 0.753819 0.369268
O O13 0.132175 0.809600 0.309554
O O14 0.949095 0.702935 0.871610
O O15 0.685847 0.771722 0.925481
O O16 0.949592 0.727026 0.000000
O O17 0.630008 0.095441 0.704189
O O18 0.606030 0.239193 0.000000
#
# Coordination Sequence:
#
# PCOD9441338 Si02
#       8
#     8   8   8   8   8   8   8   8
#     4  10  20  35  53  74 102 144 191 226 259 319
#     4  11  23  35  51  73 113 150 183 219 269 326
#     4   9  18  34  54  75 103 139 183 228 271 327
#     4  10  19  32  56  77 100 141 185 230 278 326
#     4   9  19  34  55  80 106 138 179 231 280 326
#     4  10  18  33  56  80 106 137 183 231 278 331
#     4  10  21  36  51  76 110 142 181 230 279 330
#     4   9  19  34  52  77 107 140 181 224 273 325
#
# _framework density 21.947979
#
# number of rings (size 3 to 8) (size 9 to 14) (size 15 to 20)
#    0.000    2.250    2.500    0.375    1.750    1.000 
#    0.000    5.625    0.000    0.750    0.000    5.250 
#    0.000    0.500    0.000    0.500    0.000    0.750 
#
# Total GULP energy -357767.427894 kJ/mol
# GULP energy per Si atom -5590.116061 kJ/mol
# Density = 2.189802 g / cm^3
# Si number density = 21.947979 Si / 1000 Ang^3
#
#
#
# Elastic Constant Matrix: (Units=GPa)
#
#
# Indices 1 2 3 4 5 6 
#
# 1 73.8132 47.7481 35.4365 0.0000 0.0000 0.0000
# 2 47.7481 135.8773 90.7196 0.0000 0.0000 0.0000
# 3 35.4365 90.7196 163.8254 0.0000 0.0000 0.0000
# 4 0.0000 0.0000 0.0000 34.3871 0.0000 0.0000
# 5 0.0000 0.0000 0.0000 0.0000 5.9997 0.0000
# 6 0.0000 0.0000 0.0000 0.0000 0.0000 34.0837
#
#
#
# Elastic Compliance Matrix: (Units=1/GPa)
#
#
# Indices 1 2 3 4 5 6 
#
# 1 0.017571 -0.005770 -0.000605 0.000000 0.000000 0.000000
# 2 -0.005770 0.013572 -0.006267 0.000000 0.000000 0.000000
# 3 -0.000605 -0.006267 0.009706 0.000000 0.000000 0.000000
# 4 0.000000 0.000000 0.000000 0.029081 0.000000 0.000000
# 5 0.000000 0.000000 0.000000 0.000000 0.166675 0.000000
# 6 0.000000 0.000000 0.000000 0.000000 0.000000 0.029340
#
#
# Mechanical properties :
#
#
# Convention : Reuss Voigt Hill
#
# Bulk Modulus (GPa) = 64.25781 80.14714 72.20248
# Shear Modulus (GPa) = 16.86814 28.20156 22.53485
#
# Velocity S-wave (km/s) = 2.77528 3.58848 3.20775
# Velocity P-wave (km/s) = 6.29369 7.33251 6.83287
#
# Compressibility (1/GPa) = 0.01556231
#
# Stress axis : x y z
#
# Youngs Moduli (GPa) = 56.91176 73.68247 103.03386
#
# Poissons Ratio (x) = 0.42518 0.06237
# Poissons Ratio (y) = 0.32841 0.64574
# Poissons Ratio (z) = 0.03445 0.46179
#
# Static dielectric constant tensor:
#      x y z
#    x 1.906160 0.000000 0.000000 
#    y 0.000000 1.905760 0.000000 
#    z 0.000000 0.000000 1.748080 
# 
# From -- ./inp_files/26464.got.cif
#   From: 2010.05.17/outbox.cif.g08.bks.cpg/sg58_14_cif.got.tgz:26464.got - 2010.06.03 14:20:14.
