data_PCOD9441428
_publ_section_title
;
Structure prediction by ZEFSAII (Michael W. Deem and Ramdas Pophale) SiO2 
 PCOD9441428
Probable space group: P N N M
;
_chemical_formula_sum "Si O2"
_cell_formula_units_Z 64
_cell_length_a 12.286441
_cell_length_b 16.556309
_cell_length_c 17.165093
_cell_angle_alpha 90.000000
_cell_angle_beta 90.000000
_cell_angle_gamma 90.000000
_cell_volume 3491.690840
_symmetry_space_group_name_H-M "P N N M"
_symmetry_group_IT_number 58
_symmetry_cell_setting 'orthorhombic'
loop_
_space_group_symop_operation_xyz
x,y,z
-x,-y,z
1/2+x,1/2-y,1/2-z
1/2-x,1/2+y,1/2-z
-x,-y,-z
x,y,-z
1/2-x,1/2+y,1/2+z
1/2+x,1/2-y,1/2+z
loop_
_atom_site_type_symbol
_atom_site_label
_atom_site_fract_x
_atom_site_fract_y
_atom_site_fract_z
Si Si1 0.130670 0.301772 0.334812
Si Si2 0.382464 0.234375 0.839353
Si Si3 0.048130 0.227860 0.091446
Si Si4 0.880875 0.526716 0.593073
Si Si5 0.300571 0.857945 0.662350
Si Si6 0.160909 0.696237 0.164301
Si Si7 0.871916 0.479852 0.091939
Si Si8 0.230173 0.110549 0.090479
O O1 0.137476 0.380488 0.388418
O O2 0.150525 0.335423 0.247056
O O3 0.224380 0.237965 0.352888
O O4 0.011468 0.263861 0.343906
O O5 0.319572 0.319367 0.841087
O O6 0.351843 0.192114 0.757332
O O7 0.326318 0.176888 0.903141
O O8 0.123832 0.306771 0.103095
O O9 0.122127 0.153836 0.123684
O O10 0.936195 0.245687 0.134691
O O11 0.027347 0.216205 0.000000
O O12 0.883164 0.514079 0.500000
O O13 0.783424 0.470306 0.624798
O O14 0.000000 0.500000 0.624024
O O15 0.308991 0.950958 0.639744
O O16 0.148672 0.609331 0.124974
O O17 0.000000 0.500000 0.100284
O O18 0.845182 0.483378 0.000000
O O19 0.204683 0.095571 0.000000
#
# Coordination Sequence:
#
# PCOD9441428 Si02
#       8
#     8   8   8   8   8   8   8   8
#     4  11  22  37  58  83 117 154 184 235 294 341
#     4  10  20  37  56  81 116 148 190 233 281 347
#     4  10  18  35  58  81 113 148 186 231 280 336
#     4  10  20  34  53  83 112 141 190 237 278 332
#     4  10  21  35  57  85 110 148 196 236 280 336
#     4  11  23  36  56  87 119 148 187 235 292 346
#     4  11  21  36  59  87 116 148 195 247 289 337
#     4   9  19  34  57  82 108 148 190 231 275 326
#
# _framework density 18.329229000000002
#
# number of rings (size 3 to 8) (size 9 to 14) (size 15 to 20)
#    0.000    1.750    3.750    0.750    1.750    2.000 
#    0.000    1.250    0.000    6.000    0.000    0.000 
#    0.000    0.000    0.000    0.000    0.000    0.000 
#
# Total GULP energy -357020.786311 kJ/mol
# GULP energy per Si atom -5578.449786 kJ/mol
# Density = 1.828751 g / cm^3
# Si number density = 18.329229 Si / 1000 Ang^3
#
#
#
# Elastic Constant Matrix: (Units=GPa)
#
#
# Indices 1 2 3 4 5 6 
#
# 1 111.1149 52.6655 2.8065 0.0000 0.0000 0.0000
# 2 52.6655 87.9462 14.0448 0.0000 0.0000 0.0000
# 3 2.8065 14.0448 26.6872 0.0000 0.0000 0.0000
# 4 0.0000 0.0000 0.0000 23.0152 0.0000 0.0000
# 5 0.0000 0.0000 0.0000 0.0000 14.6430 0.0000
# 6 0.0000 0.0000 0.0000 0.0000 0.0000 28.1097
#
#
#
# Elastic Compliance Matrix: (Units=1/GPa)
#
#
# Indices 1 2 3 4 5 6 
#
# 1 0.012773 -0.008116 0.002928 0.000000 0.000000 0.000000
# 2 -0.008116 0.017571 -0.008394 0.000000 0.000000 0.000000
# 3 0.002928 -0.008394 0.041581 0.000000 0.000000 0.000000
# 4 0.000000 0.000000 0.000000 0.043450 0.000000 0.000000
# 5 0.000000 0.000000 0.000000 0.000000 0.068292 0.000000
# 6 0.000000 0.000000 0.000000 0.000000 0.000000 0.035575
#
#
# Mechanical properties :
#
#
# Convention : Reuss Voigt Hill
#
# Bulk Modulus (GPa) = 22.34098 40.53134 31.43616
# Shear Modulus (GPa) = 19.13321 23.56901 21.35111
#
# Velocity S-wave (km/s) = 3.23439 3.58979 3.41672
# Velocity P-wave (km/s) = 5.11503 6.27241 5.72305
#
# Compressibility (1/GPa) = 0.04476079
#
# Stress axis : x y z
#
# Youngs Moduli (GPa) = 78.29207 56.91041 24.04961
#
# Poissons Ratio (x) = 0.46191 -0.07042
# Poissons Ratio (y) = 0.63545 0.20187
# Poissons Ratio (z) = -0.22926 0.47770
#
# Static dielectric constant tensor:
#      x y z
#    x 1.632220 0.000000 0.000000 
#    y 0.000000 1.627670 0.000000 
#    z 0.000000 0.000000 1.660520 
# 
# From -- ./inp_files/26391.got.cif
#   From: 2010.05.17/outbox.cif.g08.bks.cpg/sg58_14_cif.got.tgz:26391.got - 2010.06.03 14:20:14.
