data_PCOD9441333
_publ_section_title
;
Structure prediction by ZEFSAII (Michael W. Deem and Ramdas Pophale) SiO2 
 PCOD9441333
Probable space group: P N N M
;
_chemical_formula_sum "Si O2"
_cell_formula_units_Z 64
_cell_length_a 10.028707
_cell_length_b 34.165914
_cell_length_c 7.375166
_cell_angle_alpha 90.000000
_cell_angle_beta 90.000000
_cell_angle_gamma 90.000000
_cell_volume 2527.026442
_symmetry_space_group_name_H-M "P N N M"
_symmetry_group_IT_number 58
_symmetry_cell_setting 'orthorhombic'
loop_
_space_group_symop_operation_xyz
x,y,z
-x,-y,z
1/2+x,1/2-y,1/2-z
1/2-x,1/2+y,1/2-z
-x,-y,-z
x,y,-z
1/2-x,1/2+y,1/2+z
1/2+x,1/2-y,1/2+z
loop_
_atom_site_type_symbol
_atom_site_label
_atom_site_fract_x
_atom_site_fract_y
_atom_site_fract_z
Si Si1 0.588900 0.123032 0.291257
Si Si2 0.326272 0.159026 0.721189
Si Si3 0.693583 0.258707 0.782069
Si Si4 0.611435 0.621251 0.222067
Si Si5 0.647214 0.502721 0.291118
Si Si6 0.414152 0.962764 0.219817
Si Si7 0.432269 0.292844 0.209069
Si Si8 0.654494 0.416406 0.218900
O O1 0.607186 0.134869 0.500000
O O2 0.477382 0.151800 0.213973
O O3 0.736786 0.119245 0.211628
O O4 0.532569 0.078862 0.284667
O O5 0.326826 0.158666 0.500000
O O6 0.262867 0.200317 0.773712
O O7 0.238248 0.121535 0.776916
O O8 0.541042 0.262345 0.717702
O O9 0.783716 0.223428 0.714693
O O10 0.699684 0.255140 0.000000
O O11 0.559808 0.663765 0.284397
O O12 0.499833 0.590125 0.276338
O O13 0.613781 0.620166 0.000000
O O14 0.500000 0.500000 0.206290
O O15 0.630130 0.514556 0.500000
O O16 0.762023 0.530391 0.213596
O O17 0.702534 0.458301 0.287219
O O18 0.500000 0.000000 0.277767
O O19 0.413396 0.962234 0.000000
O O20 0.471409 0.297800 0.000000
O O21 0.658981 0.417566 0.000000
#
# Coordination Sequence:
#
# PCOD9441333 Si02
#       8
#     8   8   8   8   8   8   8   8
#     4  10  20  33  54  81 104 133 180 227 265 315
#     4   9  18  34  55  79 105 138 177 221 271 317
#     4  10  21  38  59  84 116 150 187 229 277 333
#     4   9  18  34  55  79 107 140 177 221 274 323
#     4  10  21  35  51  74 105 138 171 210 263 321
#     4  10  21  37  53  72 105 144 175 210 267 327
#     4  10  21  38  59  84 116 151 187 229 277 333
#     4  10  18  33  56  77 100 133 176 221 265 314
#
# _framework density 25.326208999999999
#
# number of rings (size 3 to 8) (size 9 to 14) (size 15 to 20)
#    0.000    2.250    1.250    1.500    1.750    1.500 
#    0.000    2.500    0.000    0.000    0.000    0.000 
#    0.000    0.000    0.000    0.000    0.000    0.000 
#
# Total GULP energy -357948.574381 kJ/mol
# GULP energy per Si atom -5592.946475 kJ/mol
# Density = 2.526857 g / cm^3
# Si number density = 25.326209 Si / 1000 Ang^3
#
#
#
# Elastic Constant Matrix: (Units=GPa)
#
#
# Indices 1 2 3 4 5 6 
#
# 1 85.1785 -20.5732 2.4986 0.0000 0.0000 0.0000
# 2 -20.5732 48.0669 -7.6267 0.0000 0.0000 0.0000
# 3 2.4986 -7.6267 94.9821 0.0000 0.0000 0.0000
# 4 0.0000 0.0000 0.0000 34.8320 0.0000 0.0000
# 5 0.0000 0.0000 0.0000 0.0000 -0.8636 0.0000
# 6 0.0000 0.0000 0.0000 0.0000 0.0000 45.5276
#
#
#
# Elastic Compliance Matrix: (Units=1/GPa)
#
#
# Indices 1 2 3 4 5 6 
#
# 1 0.013095 0.005622 0.000107 0.000000 0.000000 0.000000
# 2 0.005622 0.023486 0.001738 0.000000 0.000000 0.000000
# 3 0.000107 0.001738 0.010665 0.000000 0.000000 0.000000
# 4 0.000000 0.000000 0.000000 0.028709 0.000000 0.000000
# 5 0.000000 0.000000 0.000000 0.000000 -1.157921 0.000000
# 6 0.000000 0.000000 0.000000 0.000000 0.000000 0.021965
#
#
# Mechanical properties :
#
#
# Convention : Reuss Voigt Hill
#
# Bulk Modulus (GPa) = 16.08258 19.64721 17.86489
# Shear Modulus (GPa) = -4.74290 32.82781 14.04246
#
# Velocity S-wave (km/s) = -1.36996 3.60418 2.35726
# Velocity P-wave (km/s) = 1.96509 5.00946 3.80501
#
# Compressibility (1/GPa) = 0.06217909
#
# Stress axis : x y z
#
# Youngs Moduli (GPa) = 76.36672 42.57817 93.76433
#
# Poissons Ratio (x) = -0.23936 -0.01003
# Poissons Ratio (y) = -0.42931 -0.16296
# Poissons Ratio (z) = -0.00817 -0.07400
#
# Static dielectric constant tensor:
#      x y z
#    x 2.040190 0.000000 0.000000 
#    y 0.000000 1.933000 0.000000 
#    z 0.000000 0.000000 1.940160 
# 
# From -- ./inp_files/13449.got.cif
#   From: 2010.05.17/outbox.cif.g08.bks.cpg/sg58_7_cif.got.tgz:13449.got - 2010.06.03 14:20:14.
