data_PCOD9441382
_publ_section_title
;
Structure prediction by ZEFSAII (Michael W. Deem and Ramdas Pophale) SiO2 
 PCOD9441382
Probable space group: P N N M
;
_chemical_formula_sum "Si O2"
_cell_formula_units_Z 48
_cell_length_a 14.318722
_cell_length_b 12.280891
_cell_length_c 12.444653
_cell_angle_alpha 90.000000
_cell_angle_beta 90.000000
_cell_angle_gamma 90.000000
_cell_volume 2188.350716
_symmetry_space_group_name_H-M "P N N M"
_symmetry_group_IT_number 58
_symmetry_cell_setting 'orthorhombic'
loop_
_space_group_symop_operation_xyz
x,y,z
-x,-y,z
1/2+x,1/2-y,1/2-z
1/2-x,1/2+y,1/2-z
-x,-y,-z
x,y,-z
1/2-x,1/2+y,1/2+z
1/2+x,1/2-y,1/2+z
loop_
_atom_site_type_symbol
_atom_site_label
_atom_site_fract_x
_atom_site_fract_y
_atom_site_fract_z
Si Si1 0.016158 0.871926 0.249310
Si Si2 0.826972 0.760622 0.181275
Si Si3 0.812529 0.437951 0.652569
Si Si4 0.994593 0.665603 0.615626
Si Si5 0.288993 0.334535 0.377411
Si Si6 0.594443 0.048125 0.324893
O O1 0.021026 0.788755 0.350398
O O2 0.109487 0.850875 0.178822
O O3 0.922750 0.828302 0.190741
O O4 0.000000 0.000000 0.272590
O O5 0.753000 0.837991 0.126861
O O6 0.777281 0.734631 0.297099
O O7 0.848718 0.646197 0.123828
O O8 0.912931 0.406893 0.607907
O O9 0.760453 0.547191 0.619102
O O10 0.836762 0.455843 0.780105
O O11 0.945497 0.664553 0.500000
O O12 0.941885 0.611468 0.716438
O O13 0.297877 0.293365 0.500000
O O14 0.500000 0.000000 0.374738
#
# Coordination Sequence:
#
# PCOD9441382 Si02
#       6
#     8   8   8   8   8   8
#     4  11  22  38  60  86 125 162 201 253 313 363
#     4  10  20  36  59  86 120 159 199 248 308 363
#     4  10  18  34  57  86 118 153 194 245 301 356
#     4  10  20  35  57  86 117 154 199 249 307 363
#     4  11  23  40  64  92 123 164 210 256 309 369
#     4   8  18  31  53  82 110 148 191 245 294 353
#
# _framework density 21.934329000000002
#
# number of rings (size 3 to 8) (size 9 to 14) (size 15 to 20)
#    0.000    2.000    3.333    0.500    0.000    9.667 
#    0.000    0.000    0.000    0.000    0.000   11.667 
#    0.000    0.000    0.000    0.000    0.000    0.000 
#
# Total GULP energy -267514.190208 kJ/mol
# GULP energy per Si atom -5573.212296 kJ/mol
# Density = 2.188441 g / cm^3
# Si number density = 21.934329 Si / 1000 Ang^3
#
#
#
# Elastic Constant Matrix: (Units=GPa)
#
#
# Indices 1 2 3 4 5 6 
#
# 1 131.1792 28.2548 23.1909 0.0000 0.0000 0.0000
# 2 28.2548 108.9500 11.7235 0.0000 0.0000 0.0000
# 3 23.1909 11.7235 88.1176 0.0000 0.0000 0.0000
# 4 0.0000 0.0000 0.0000 0.3678 0.0000 0.0000
# 5 0.0000 0.0000 0.0000 0.0000 6.4470 0.0000
# 6 0.0000 0.0000 0.0000 0.0000 0.0000 55.4834
#
#
#
# Elastic Compliance Matrix: (Units=1/GPa)
#
#
# Indices 1 2 3 4 5 6 
#
# 1 0.008391 -0.001967 -0.001947 0.000000 0.000000 0.000000
# 2 -0.001967 0.009773 -0.000783 0.000000 0.000000 0.000000
# 3 -0.001947 -0.000783 0.011965 0.000000 0.000000 0.000000
# 4 0.000000 0.000000 0.000000 2.718869 0.000000 0.000000
# 5 0.000000 0.000000 0.000000 0.000000 0.155111 0.000000
# 6 0.000000 0.000000 0.000000 0.000000 0.000000 0.018023
#
#
# Mechanical properties :
#
#
# Convention : Reuss Voigt Hill
#
# Bulk Modulus (GPa) = 48.22359 50.50947 49.36653
# Shear Modulus (GPa) = 1.70159 30.13147 15.91653
#
# Velocity S-wave (km/s) = 0.88173 3.71038 2.69670
# Velocity P-wave (km/s) = 4.80310 6.43689 5.67905
#
# Compressibility (1/GPa) = 0.02073674
#
# Stress axis : x y z
#
# Youngs Moduli (GPa) = 119.17675 102.32538 83.57762
#
# Poissons Ratio (x) = 0.20123 0.16270
# Poissons Ratio (y) = 0.23437 0.06541
# Poissons Ratio (z) = 0.23200 0.08008
#
# Static dielectric constant tensor:
#      x y z
#    x 1.820980 0.000000 0.000000 
#    y 0.000000 1.862750 0.000000 
#    z 0.000000 0.000000 1.910650 
# 
# From -- ./inp_files/22095.got.cif
#   From: 2010.05.17/outbox.cif.g08.bks.cpg/sg58_12_cif.got.tgz:22095.got - 2010.06.03 14:20:14.
