data_PCOD9441718
_publ_section_title
;
Structure prediction by ZEFSAII (Michael W. Deem and Ramdas Pophale) SiO2 
 PCOD9441718
Probable space group: P N N M
;
_chemical_formula_sum "Si O2"
_cell_formula_units_Z 64
_cell_length_a 19.806423
_cell_length_b 20.972849
_cell_length_c 9.039189
_cell_angle_alpha 90.000000
_cell_angle_beta 90.000000
_cell_angle_gamma 90.000000
_cell_volume 3754.853067
_symmetry_space_group_name_H-M "P N N M"
_symmetry_group_IT_number 58
_symmetry_cell_setting 'orthorhombic'
loop_
_space_group_symop_operation_xyz
x,y,z
-x,-y,z
1/2+x,1/2-y,1/2-z
1/2-x,1/2+y,1/2-z
-x,-y,-z
x,y,-z
1/2-x,1/2+y,1/2+z
1/2+x,1/2-y,1/2+z
loop_
_atom_site_type_symbol
_atom_site_label
_atom_site_fract_x
_atom_site_fract_y
_atom_site_fract_z
Si Si1 0.962260 0.183849 0.677320
Si Si2 0.179052 0.505907 0.823189
Si Si3 0.039351 0.565105 0.822685
Si Si4 0.328185 0.360417 0.676614
Si Si5 0.824361 0.632699 0.678245
Si Si6 0.818916 0.988919 0.176505
Si Si7 0.966525 0.685044 0.321904
Si Si8 0.961636 0.933946 0.822961
O O1 0.960463 0.181902 0.500000
O O2 0.886636 0.177165 0.740303
O O3 0.999085 0.249006 0.725251
O O4 0.004413 0.124120 0.738836
O O5 0.117480 0.552574 0.784776
O O6 0.165964 0.436426 0.752120
O O7 0.251045 0.528204 0.762093
O O8 0.180779 0.499119 0.000000
O O9 0.000000 0.500000 0.783597
O O10 0.006511 0.625189 0.743919
O O11 0.033545 0.573161 0.000000
O O12 0.336454 0.352203 0.500000
O O13 0.250902 0.343509 0.717706
O O14 0.335247 0.436440 0.707907
O O15 0.824243 0.624038 0.500000
O O16 0.887516 0.676979 0.719237
O O17 0.883331 0.946085 0.213582
O O18 0.807058 0.985330 0.000000
O O19 0.969782 0.682149 0.500000
O O20 0.967800 0.923636 0.000000
O O21 0.000000 0.000000 0.789668
#
# Coordination Sequence:
#
# PCOD9441718 Si02
#       8
#     8   8   8   8   8   8   8   8
#     4  11  23  36  52  81 115 142 176 226 274 315
#     4  10  19  31  51  81 113 138 169 222 276 316
#     4  10  20  35  54  80 111 139 174 221 269 317
#     4   9  17  33  55  77 102 139 181 219 261 322
#     4   9  18  34  55  76 101 139 183 219 260 319
#     4   9  18  33  54  79 107 139 179 222 262 318
#     4  10  22  38  55  78 109 145 183 223 267 319
#     4  10  19  36  58  78 104 140 181 220 262 320
#
# _framework density 17.044608
#
# number of rings (size 3 to 8) (size 9 to 14) (size 15 to 20)
#    0.000    2.250    2.500    1.500    0.000    5.000 
#    0.000    1.250    0.000    4.500    0.000    0.000 
#    0.000    0.000    0.000    0.000    0.000    0.000 
#
# Total GULP energy -357008.458387 kJ/mol
# GULP energy per Si atom -5578.257162 kJ/mol
# Density = 1.700581 g / cm^3
# Si number density = 17.044608 Si / 1000 Ang^3
#
#
#
# Elastic Constant Matrix: (Units=GPa)
#
#
# Indices 1 2 3 4 5 6 
#
# 1 173.2782 80.9854 50.9778 0.0000 0.0000 0.0000
# 2 80.9854 101.0784 35.2186 0.0000 0.0000 0.0000
# 3 50.9778 35.2186 23.8769 0.0000 0.0000 0.0000
# 4 0.0000 0.0000 0.0000 21.5299 0.0000 0.0000
# 5 0.0000 0.0000 0.0000 0.0000 32.1006 0.0000
# 6 0.0000 0.0000 0.0000 0.0000 0.0000 24.4004
#
#
#
# Elastic Compliance Matrix: (Units=1/GPa)
#
#
# Indices 1 2 3 4 5 6 
#
# 1 0.015685 -0.001849 -0.030760 0.000000 0.000000 0.000000
# 2 -0.001849 0.020572 -0.026395 0.000000 0.000000 0.000000
# 3 -0.030760 -0.026395 0.146488 0.000000 0.000000 0.000000
# 4 0.000000 0.000000 0.000000 0.046447 0.000000 0.000000
# 5 0.000000 0.000000 0.000000 0.000000 0.031152 0.000000
# 6 0.000000 0.000000 0.000000 0.000000 0.000000 0.040983
#
#
# Mechanical properties :
#
#
# Convention : Reuss Voigt Hill
#
# Bulk Modulus (GPa) = 15.44743 70.28855 42.86799
# Shear Modulus (GPa) = 11.34008 24.34296 17.84152
#
# Velocity S-wave (km/s) = 2.58217 3.78324 3.23887
# Velocity P-wave (km/s) = 4.23943 7.77248 6.26036
#
# Compressibility (1/GPa) = 0.06473570
#
# Stress axis : x y z
#
# Youngs Moduli (GPa) = 63.75611 48.60994 6.82650
#
# Poissons Ratio (x) = 0.08989 0.20998
# Poissons Ratio (y) = 0.11790 0.18019
# Poissons Ratio (z) = 1.96112 1.28308
#
# Static dielectric constant tensor:
#      x y z
#    x 1.600910 0.000000 0.000000 
#    y 0.000000 1.539730 0.000000 
#    z 0.000000 0.000000 1.568120 
# 
# From -- ./inp_files/9270.got.cif
#   From: 2010.05.17/outbox.cif.g08.bks.cpg/sg58_5_cif.got.tgz:9270.got - 2010.06.03 14:20:14.
