data_PCOD9441761
_publ_section_title
;
Structure prediction by ZEFSAII (Michael W. Deem and Ramdas Pophale) SiO2 
 PCOD9441761
Probable space group: P N N M
;
_chemical_formula_sum "Si O2"
_cell_formula_units_Z 64
_cell_length_a 17.025138
_cell_length_b 20.068168
_cell_length_c 9.223459
_cell_angle_alpha 90.000000
_cell_angle_beta 90.000000
_cell_angle_gamma 90.000000
_cell_volume 3151.317712
_symmetry_space_group_name_H-M "P N N M"
_symmetry_group_IT_number 58
_symmetry_cell_setting 'orthorhombic'
loop_
_space_group_symop_operation_xyz
x,y,z
-x,-y,z
1/2+x,1/2-y,1/2-z
1/2-x,1/2+y,1/2-z
-x,-y,-z
x,y,-z
1/2-x,1/2+y,1/2+z
1/2+x,1/2-y,1/2+z
loop_
_atom_site_type_symbol
_atom_site_label
_atom_site_fract_x
_atom_site_fract_y
_atom_site_fract_z
Si Si1 0.917057 0.249376 0.331548
Si Si2 0.063104 0.198739 0.835520
Si Si3 0.325318 0.053002 0.169042
Si Si4 0.179810 0.971854 0.833149
Si Si5 0.208976 0.825253 0.171688
Si Si6 0.630405 0.151689 0.662998
Si Si7 0.512756 0.899037 0.168263
Si Si8 0.680020 0.399030 0.171991
O O1 0.909187 0.232181 0.500000
O O2 0.836495 0.234159 0.249543
O O3 0.945945 0.325822 0.323616
O O4 0.983040 0.204381 0.254314
O O5 0.092939 0.274581 0.845517
O O6 0.127356 0.155364 0.751747
O O7 0.051028 0.173839 0.000000
O O8 0.416027 0.052190 0.212133
O O9 0.269276 0.100278 0.265365
O O10 0.274846 0.984938 0.174115
O O11 0.323966 0.075164 0.000000
O O12 0.163675 0.895380 0.802087
O O13 0.148834 0.027979 0.724355
O O14 0.157359 0.987136 0.000000
O O15 0.293813 0.837373 0.239041
O O16 0.213683 0.814551 0.000000
O O17 0.651245 0.129521 0.500000
O O18 0.563982 0.105438 0.734125
O O19 0.491026 0.911546 0.000000
O O20 0.679006 0.391766 0.000000
#
# Coordination Sequence:
#
# PCOD9441761 Si02
#       8
#     8   8   8   8   8   8   8   8
#     4  10  21  35  54  82 112 139 174 221 271 320
#     4  10  20  37  56  78 109 144 179 216 265 321
#     4   8  16  33  55  77 104 139 177 216 261 318
#     4   8  18  36  54  75 105 143 184 221 258 318
#     4  11  22  37  56  78 107 146 184 215 263 323
#     4  10  22  36  54  79 111 144 176 219 266 315
#     4   9  18  35  57  80 107 139 176 218 266 319
#     4  10  19  31  54  83 107 135 173 225 271 307
#
# _framework density 20.308965000000001
#
# number of rings (size 3 to 8) (size 9 to 14) (size 15 to 20)
#    0.750    1.750    0.000    2.250    1.750    3.500 
#    0.000    1.250    0.000    7.500    0.000    0.000 
#    0.000    0.000    0.000    0.000    0.000    0.000 
#
# Total GULP energy -356828.106725 kJ/mol
# GULP energy per Si atom -5575.439168 kJ/mol
# Density = 2.026274 g / cm^3
# Si number density = 20.308965 Si / 1000 Ang^3
#
#
#
# Elastic Constant Matrix: (Units=GPa)
#
#
# Indices 1 2 3 4 5 6 
#
# 1 53.8703 17.3603 33.5512 0.0000 0.0000 0.0000
# 2 17.3603 39.4132 34.5559 0.0000 0.0000 0.0000
# 3 33.5512 34.5559 114.6830 0.0000 0.0000 0.0000
# 4 0.0000 0.0000 0.0000 33.2110 0.0000 0.0000
# 5 0.0000 0.0000 0.0000 0.0000 30.9335 0.0000
# 6 0.0000 0.0000 0.0000 0.0000 0.0000 -3.6125
#
#
#
# Elastic Compliance Matrix: (Units=1/GPa)
#
#
# Indices 1 2 3 4 5 6 
#
# 1 0.023673 -0.005919 -0.005142 0.000000 0.000000 0.000000
# 2 -0.005919 0.035961 -0.009104 0.000000 0.000000 0.000000
# 3 -0.005142 -0.009104 0.012967 0.000000 0.000000 0.000000
# 4 0.000000 0.000000 0.000000 0.030111 0.000000 0.000000
# 5 0.000000 0.000000 0.000000 0.000000 0.032327 0.000000
# 6 0.000000 0.000000 0.000000 0.000000 0.000000 -0.276813
#
#
# Mechanical properties :
#
#
# Convention : Reuss Voigt Hill
#
# Bulk Modulus (GPa) = 30.98718 42.10016 36.54367
# Shear Modulus (GPa) = -55.13560 20.27298 -17.43131
#
# Velocity S-wave (km/s) = -5.21607 3.16290 -2.93286
# Velocity P-wave (km/s) = 4.58099 5.84067 2.56203
#
# Compressibility (1/GPa) = 0.03227141
#
# Stress axis : x y z
#
# Youngs Moduli (GPa) = 42.24182 27.80759 77.11672
#
# Poissons Ratio (x) = 0.16459 0.39656
# Poissons Ratio (y) = 0.25002 0.70209
# Poissons Ratio (z) = 0.21722 0.25317
#
# Static dielectric constant tensor:
#      x y z
#    x 1.731790 0.000000 0.000000 
#    y 0.000000 1.748530 0.000000 
#    z 0.000000 0.000000 1.700570 
# 
# From -- ./inp_files/8516.got.cif
#   From: 2010.05.17/outbox.cif.g08.bks.cpg/sg58_5_cif.got.tgz:8516.got - 2010.06.03 14:20:14.
