data_PCOD9441177
_publ_section_title
;
Structure prediction by ZEFSAII (Michael W. Deem and Ramdas Pophale) SiO2 
 PCOD9441177
Probable space group: P N N M
;
_chemical_formula_sum "Si O2"
_cell_formula_units_Z 64
_cell_length_a 15.044169
_cell_length_b 25.029913
_cell_length_c 7.612973
_cell_angle_alpha 90.000000
_cell_angle_beta 90.000000
_cell_angle_gamma 90.000000
_cell_volume 2866.697271
_symmetry_space_group_name_H-M "P N N M"
_symmetry_group_IT_number 58
_symmetry_cell_setting 'orthorhombic'
loop_
_space_group_symop_operation_xyz
x,y,z
-x,-y,z
1/2+x,1/2-y,1/2-z
1/2-x,1/2+y,1/2-z
-x,-y,-z
x,y,-z
1/2-x,1/2+y,1/2+z
1/2+x,1/2-y,1/2+z
loop_
_atom_site_type_symbol
_atom_site_label
_atom_site_fract_x
_atom_site_fract_y
_atom_site_fract_z
Si Si1 0.070486 0.455914 0.208883
Si Si2 0.745884 0.402899 0.203885
Si Si3 0.269638 0.478509 0.212864
Si Si4 0.039072 0.944853 0.207811
Si Si5 0.635578 0.754551 0.211926
Si Si6 0.996069 0.830032 0.209868
Si Si7 0.679652 0.289219 0.698745
Si Si8 0.937061 0.367859 0.710338
O O1 0.171500 0.461234 0.275545
O O2 0.000000 0.500000 0.280231
O O3 0.026538 0.398059 0.237728
O O4 0.076005 0.465219 0.000000
O O5 0.714536 0.460132 0.270816
O O6 0.710472 0.351403 0.304630
O O7 0.853004 0.401078 0.216666
O O8 0.721054 0.396807 0.000000
O O9 0.354510 0.444768 0.270200
O O10 0.268521 0.478682 0.000000
O O11 0.998563 0.890075 0.281355
O O12 0.019611 0.944964 0.000000
O O13 0.000000 0.000000 0.283265
O O14 0.587367 0.700565 0.261222
O O15 0.736148 0.759789 0.281302
O O16 0.579737 0.806910 0.270729
O O17 0.640443 0.757788 0.000000
O O18 0.916758 0.793259 0.284065
O O19 0.981132 0.833339 0.000000
O O20 0.669892 0.268389 0.500000
O O21 0.930935 0.368593 0.500000
#
# Coordination Sequence:
#
# PCOD9441177 Si02
#       8
#     8   8   8   8   8   8   8   8
#     4  10  19  35  54  78 117 156 192 236 283 340
#     4  10  18  31  53  81 112 146 188 232 274 327
#     4  10  21  35  53  81 115 152 188 228 283 340
#     4  10  22  40  61  85 114 149 188 237 292 346
#     4   9  20  38  58  82 113 143 183 238 285 333
#     4  10  21  39  62  86 113 148 191 236 287 347
#     4   9  19  37  59  83 109 142 187 235 282 334
#     4  10  20  34  53  80 112 149 193 238 281 331
#
# _framework density 22.325341999999999
#
# number of rings (size 3 to 8) (size 9 to 14) (size 15 to 20)
#    0.000    2.250    1.250    2.250    0.000    6.500 
#    2.250    0.000    0.000    0.000    0.000    0.000 
#    0.000    0.000    0.000    0.000    0.000    0.000 
#
# Total GULP energy -357343.653844 kJ/mol
# GULP energy per Si atom -5583.494591 kJ/mol
# Density = 2.227453 g / cm^3
# Si number density = 22.325342 Si / 1000 Ang^3
#
#
#
# Elastic Constant Matrix: (Units=GPa)
#
#
# Indices 1 2 3 4 5 6 
#
# 1 122.6984 40.0339 -0.4164 0.0000 0.0000 0.0000
# 2 40.0339 74.5493 -1.7164 0.0000 0.0000 0.0000
# 3 -0.4164 -1.7164 51.5783 0.0000 0.0000 0.0000
# 4 0.0000 0.0000 0.0000 21.0665 0.0000 0.0000
# 5 0.0000 0.0000 0.0000 0.0000 17.5222 0.0000
# 6 0.0000 0.0000 0.0000 0.0000 0.0000 30.4050
#
#
#
# Elastic Compliance Matrix: (Units=1/GPa)
#
#
# Indices 1 2 3 4 5 6 
#
# 1 0.009882 -0.005309 -0.000097 0.000000 0.000000 0.000000
# 2 -0.005309 0.016276 0.000499 0.000000 0.000000 0.000000
# 3 -0.000097 0.000499 0.019404 0.000000 0.000000 0.000000
# 4 0.000000 0.000000 0.000000 0.047469 0.000000 0.000000
# 5 0.000000 0.000000 0.000000 0.000000 0.057070 0.000000
# 6 0.000000 0.000000 0.000000 0.000000 0.000000 0.032889
#
#
# Mechanical properties :
#
#
# Convention : Reuss Voigt Hill
#
# Bulk Modulus (GPa) = 27.97359 36.06981 32.02170
# Shear Modulus (GPa) = 24.42352 27.86040 26.14196
#
# Velocity S-wave (km/s) = 3.31113 3.53643 3.42563
# Velocity P-wave (km/s) = 5.21299 5.73295 5.47914
#
# Compressibility (1/GPa) = 0.03574800
#
# Stress axis : x y z
#
# Youngs Moduli (GPa) = 101.19473 61.43868 51.53626
#
# Poissons Ratio (x) = 0.32617 0.00499
# Poissons Ratio (y) = 0.53724 -0.02571
# Poissons Ratio (z) = 0.00981 -0.03064
#
# Static dielectric constant tensor:
#      x y z
#    x 1.879760 0.000000 0.000000 
#    y 0.000000 1.806140 0.000000 
#    z 0.000000 0.000000 1.858730 
# 
# From -- ./inp_files/6955.got.cif
#   From: 2010.05.17/outbox.cif.g08.bks.cpg/sg58_4_cif.got.tgz:6955.got - 2010.06.03 14:20:14.
