data_PCOD9441861
_publ_section_title
;
Structure prediction by ZEFSAII (Michael W. Deem and Ramdas Pophale) SiO2 
 PCOD9441861
Probable space group: P N N M
;
_chemical_formula_sum "Si O2"
_cell_formula_units_Z 48
_cell_length_a 7.061539
_cell_length_b 17.968382
_cell_length_c 13.888654
_cell_angle_alpha 90.000000
_cell_angle_beta 90.000000
_cell_angle_gamma 90.000000
_cell_volume 1762.253950
_symmetry_space_group_name_H-M "P N N M"
_symmetry_group_IT_number 58
_symmetry_cell_setting 'orthorhombic'
loop_
_space_group_symop_operation_xyz
x,y,z
-x,-y,z
1/2+x,1/2-y,1/2-z
1/2-x,1/2+y,1/2-z
-x,-y,-z
x,y,-z
1/2-x,1/2+y,1/2+z
1/2+x,1/2-y,1/2+z
loop_
_atom_site_type_symbol
_atom_site_label
_atom_site_fract_x
_atom_site_fract_y
_atom_site_fract_z
Si Si1 0.276826 0.836372 0.896152
Si Si2 0.193788 0.547239 0.603846
Si Si3 0.283632 0.518517 0.827234
Si Si4 0.154728 0.198810 0.865706
Si Si5 0.645375 0.325141 0.149525
Si Si6 0.299746 0.859784 0.673406
O O1 0.333552 0.750350 0.905933
O O2 0.344049 0.860176 0.788768
O O3 0.047547 0.838343 0.886082
O O4 0.321855 0.872248 0.000000
O O5 0.285548 0.527224 0.500000
O O6 0.280760 0.529754 0.709811
O O7 0.194017 0.638043 0.598194
O O8 0.000000 0.500000 0.607023
O O9 0.500000 0.500000 0.853542
O O10 0.244538 0.599173 0.873239
O O11 0.166762 0.445331 0.855485
O O12 0.210711 0.200205 0.754628
O O13 0.125818 0.287178 0.884002
O O14 0.425591 0.345901 0.160474
#
# Coordination Sequence:
#
# PCOD9441861 Si02
#       6
#     8   8   8   8   8   8
#     4  10  19  32  53  78 104 135 175 227 274 316
#     4  10  21  34  49  76 115 149 177 221 280 334
#     4   9  18  33  54  77 102 137 182 228 273 328
#     4   9  18  33  51  73 104 141 179 216 262 321
#     4   8  17  33  51  74 101 134 176 218 266 324
#     4   9  18  33  54  77 102 137 179 221 270 329
#
# _framework density 27.237846000000001
#
# number of rings (size 3 to 8) (size 9 to 14) (size 15 to 20)
#    0.000    2.833    0.000    1.500    0.000    7.667 
#    0.000    3.333    0.000    7.500    0.000    0.000 
#    0.000    0.000    0.000    0.000    0.000    0.000 
#
# Total GULP energy -267620.584065 kJ/mol
# GULP energy per Si atom -5575.428835 kJ/mol
# Density = 2.717585 g / cm^3
# Si number density = 27.237846 Si / 1000 Ang^3
#
#
#
# Elastic Constant Matrix: (Units=GPa)
#
#
# Indices 1 2 3 4 5 6 
#
# 1 67.5357 15.4682 -5.0002 0.0000 0.0000 0.0000
# 2 15.4682 227.9172 9.9919 0.0000 0.0000 0.0000
# 3 -5.0002 9.9919 77.6225 0.0000 0.0000 0.0000
# 4 0.0000 0.0000 0.0000 11.9313 0.0000 0.0000
# 5 0.0000 0.0000 0.0000 0.0000 -67.1498 0.0000
# 6 0.0000 0.0000 0.0000 0.0000 0.0000 37.9228
#
#
#
# Elastic Compliance Matrix: (Units=1/GPa)
#
#
# Indices 1 2 3 4 5 6 
#
# 1 0.015136 -0.001076 0.001114 0.000000 0.000000 0.000000
# 2 -0.001076 0.004489 -0.000647 0.000000 0.000000 0.000000
# 3 0.001114 -0.000647 0.013038 0.000000 0.000000 0.000000
# 4 0.000000 0.000000 0.000000 0.083813 0.000000 0.000000
# 5 0.000000 0.000000 0.000000 0.000000 -0.014892 0.000000
# 6 0.000000 0.000000 0.000000 0.000000 0.000000 0.026369
#
#
# Mechanical properties :
#
#
# Convention : Reuss Voigt Hill
#
# Bulk Modulus (GPa) = 31.80324 45.99949 38.90137
# Shear Modulus (GPa) = 35.80279 20.04855 27.92567
#
# Velocity S-wave (km/s) = 3.62947 2.71598 3.20543
# Velocity P-wave (km/s) = 5.40976 5.17302 5.29271
#
# Compressibility (1/GPa) = 0.03144334
#
# Stress axis : x y z
#
# Youngs Moduli (GPa) = 66.06814 222.76882 76.69954
#
# Poissons Ratio (x) = 0.23971 -0.08541
# Poissons Ratio (y) = 0.07109 0.04964
# Poissons Ratio (z) = -0.07357 0.14417
#
# Static dielectric constant tensor:
#      x y z
#    x 2.182030 0.000000 0.000000 
#    y 0.000000 2.210600 0.000000 
#    z 0.000000 0.000000 2.058180 
# 
# From -- ./inp_files/19816.got.cif
#   From: 2010.05.17/outbox.cif.g08.bks.cpg/sg58_10_cif.got.tgz:19816.got - 2010.06.03 14:20:14.
