data_PCOD9441223
_publ_section_title
;
Structure prediction by ZEFSAII (Michael W. Deem and Ramdas Pophale) SiO2 
 PCOD9441223
Probable space group: P N N M
;
_chemical_formula_sum "Si O2"
_cell_formula_units_Z 48
_cell_length_a 14.065753
_cell_length_b 24.496745
_cell_length_c 8.547494
_cell_angle_alpha 90.000000
_cell_angle_beta 90.000000
_cell_angle_gamma 90.000000
_cell_volume 2945.168676
_symmetry_space_group_name_H-M "P N N M"
_symmetry_group_IT_number 58
_symmetry_cell_setting 'orthorhombic'
loop_
_space_group_symop_operation_xyz
x,y,z
-x,-y,z
1/2+x,1/2-y,1/2-z
1/2-x,1/2+y,1/2-z
-x,-y,-z
x,y,-z
1/2-x,1/2+y,1/2+z
1/2+x,1/2-y,1/2+z
loop_
_atom_site_type_symbol
_atom_site_label
_atom_site_fract_x
_atom_site_fract_y
_atom_site_fract_z
Si Si1 0.888639 0.224442 0.312048
Si Si2 0.295129 0.833126 0.813287
Si Si3 0.284654 0.164914 0.810236
Si Si4 0.602111 0.061710 0.686291
Si Si5 0.598337 0.272986 0.311788
Si Si6 0.389377 0.056784 0.811821
O O1 0.885231 0.221724 0.500000
O O2 0.810003 0.183683 0.243104
O O3 0.854526 0.285491 0.263895
O O4 0.994447 0.214438 0.252503
O O5 0.329822 0.890385 0.744608
O O6 0.364525 0.785240 0.750931
O O7 0.299266 0.834421 0.000000
O O8 0.178899 0.183166 0.762759
O O9 0.322913 0.106540 0.757176
O O10 0.285557 0.163626 0.000000
O O11 0.592571 0.063198 0.500000
O O12 0.497792 0.069312 0.762214
O O13 0.635834 0.001720 0.739315
O O14 0.596487 0.270835 0.500000
O O15 0.385609 0.052763 0.000000
#
# Coordination Sequence:
#
# PCOD9441223 Si02
#       6
#     8   8   8   8   8   8
#     4  10  19  33  51  75 103 133 165 202 245 296
#     4  11  21  34  51  73  99 133 170 207 249 295
#     4   8  17  31  49  71  99 129 161 197 238 287
#     4  11  21  33  48  72 102 131 163 207 253 297
#     4  10  19  33  51  75 103 132 163 202 247 296
#     4  10  18  32  52  74  99 132 167 201 242 297
#
# _framework density 16.297878000000001
#
# number of rings (size 3 to 8) (size 9 to 14) (size 15 to 20)
#    0.000    2.000    0.000    7.500    0.000    1.333 
#    0.000    9.167    0.000    1.000    0.000    7.000 
#    0.000    0.000    0.000    0.000    0.000    0.000 
#
# Total GULP energy -267920.525626 kJ/mol
# GULP energy per Si atom -5581.677617 kJ/mol
# Density = 1.626078 g / cm^3
# Si number density = 16.297878 Si / 1000 Ang^3
#
#
#
# Elastic Constant Matrix: (Units=GPa)
#
#
# Indices 1 2 3 4 5 6 
#
# 1 107.8488 74.4033 18.4150 0.0000 0.0000 0.0000
# 2 74.4033 130.8071 19.7532 0.0000 0.0000 0.0000
# 3 18.4150 19.7532 66.7392 0.0000 0.0000 0.0000
# 4 0.0000 0.0000 0.0000 20.2338 0.0000 0.0000
# 5 0.0000 0.0000 0.0000 0.0000 20.5412 0.0000
# 6 0.0000 0.0000 0.0000 0.0000 0.0000 22.2308
#
#
#
# Elastic Compliance Matrix: (Units=1/GPa)
#
#
# Indices 1 2 3 4 5 6 
#
# 1 0.015451 -0.008526 -0.001740 0.000000 0.000000 0.000000
# 2 -0.008526 0.012707 -0.001408 0.000000 0.000000 0.000000
# 3 -0.001740 -0.001408 0.015881 0.000000 0.000000 0.000000
# 4 0.000000 0.000000 0.000000 0.049422 0.000000 0.000000
# 5 0.000000 0.000000 0.000000 0.000000 0.048683 0.000000
# 6 0.000000 0.000000 0.000000 0.000000 0.000000 0.044983
#
#
# Mechanical properties :
#
#
# Convention : Reuss Voigt Hill
#
# Bulk Modulus (GPa) = 48.33174 58.94870 53.64022
# Shear Modulus (GPa) = 23.00205 25.45608 24.22906
#
# Velocity S-wave (km/s) = 3.76087 3.95641 3.85988
# Velocity P-wave (km/s) = 6.96983 7.55771 7.26971
#
# Compressibility (1/GPa) = 0.02069034
#
# Stress axis : x y z
#
# Youngs Moduli (GPa) = 64.71965 78.69601 62.96971
#
# Poissons Ratio (x) = 0.67096 0.10956
# Poissons Ratio (y) = 0.55180 0.08869
# Poissons Ratio (z) = 0.11261 0.11084
#
# Static dielectric constant tensor:
#      x y z
#    x 1.529250 0.000000 0.000000 
#    y 0.000000 1.539390 0.000000 
#    z 0.000000 0.000000 1.550520 
# 
# From -- ./inp_files/4188.got.cif
#   From: 2010.05.17/outbox.cif.g08.bks.cpg/sg58_3_cif.got.tgz:4188.got - 2010.06.03 14:20:14.
