data_PCOD9441326
_publ_section_title
;
Structure prediction by ZEFSAII (Michael W. Deem and Ramdas Pophale) SiO2 
 PCOD9441326
Probable space group: P N N M
;
_chemical_formula_sum "Si O2"
_cell_formula_units_Z 64
_cell_length_a 21.340876
_cell_length_b 20.443940
_cell_length_c 7.929898
_cell_angle_alpha 90.000000
_cell_angle_beta 90.000000
_cell_angle_gamma 90.000000
_cell_volume 3459.747795
_symmetry_space_group_name_H-M "P N N M"
_symmetry_group_IT_number 58
_symmetry_cell_setting 'orthorhombic'
loop_
_space_group_symop_operation_xyz
x,y,z
-x,-y,z
1/2+x,1/2-y,1/2-z
1/2-x,1/2+y,1/2-z
-x,-y,-z
x,y,-z
1/2-x,1/2+y,1/2+z
1/2+x,1/2-y,1/2+z
loop_
_atom_site_type_symbol
_atom_site_label
_atom_site_fract_x
_atom_site_fract_y
_atom_site_fract_z
Si Si1 0.929846 0.213796 0.196370
Si Si2 0.377666 0.422226 0.200039
Si Si3 0.067641 0.204314 0.793054
Si Si4 0.765702 0.429980 0.297161
Si Si5 0.313635 0.789533 0.706669
Si Si6 0.620259 0.434135 0.703697
Si Si7 0.267017 0.926986 0.297770
Si Si8 0.692367 0.791558 0.799140
O O1 0.914900 0.136917 0.217476
O O2 0.872643 0.255073 0.269788
O O3 0.999217 0.225835 0.267139
O O4 0.931378 0.229839 0.000000
O O5 0.402301 0.495157 0.234624
O O6 0.305245 0.420947 0.263022
O O7 0.377131 0.410345 0.000000
O O8 0.124157 0.251474 0.739549
O O9 0.082568 0.129772 0.740767
O O10 0.067169 0.204115 0.000000
O O11 0.764747 0.428556 0.500000
O O12 0.692903 0.426062 0.240643
O O13 0.790754 0.501000 0.246905
O O14 0.802032 0.365890 0.234472
O O15 0.313848 0.788821 0.500000
O O16 0.306487 0.864704 0.761662
O O17 0.251360 0.750913 0.764030
O O18 0.619785 0.435430 0.500000
O O19 0.263995 0.923344 0.500000
O O20 0.701007 0.795047 0.000000
#
# Coordination Sequence:
#
# PCOD9441326 Si02
#       8
#     8   8   8   8   8   8   8   8
#     4  11  22  33  48  74 103 132 166 210 251 289
#     4  10  19  32  48  70 102 138 169 199 242 300
#     4   9  18  32  51  73  99 131 171 210 247 294
#     4   9  17  29  51  77  99 125 161 204 248 294
#     4   9  15  30  54  75  94 126 170 207 245 292
#     4   9  16  30  51  73  97 129 169 210 243 284
#     4   9  17  29  50  75  99 126 159 203 248 290
#     4  10  18  33  55  75  97 131 168 203 249 301
#
# _framework density 18.498459
#
# number of rings (size 3 to 8) (size 9 to 14) (size 15 to 20)
#    0.000    2.500    2.500    0.750    0.000    1.500 
#    0.000    3.750    0.000    4.500    0.000    5.250 
#    0.000    0.000    0.000    0.000    0.000    0.000 
#
# Total GULP energy -356935.771917 kJ/mol
# GULP energy per Si atom -5577.121436 kJ/mol
# Density = 1.845636 g / cm^3
# Si number density = 18.498459 Si / 1000 Ang^3
#
#
#
# Elastic Constant Matrix: (Units=GPa)
#
#
# Indices 1 2 3 4 5 6 
#
# 1 109.2285 73.2267 -0.4775 0.0000 0.0000 0.0000
# 2 73.2267 144.1332 1.0631 0.0000 0.0000 0.0000
# 3 -0.4775 1.0631 10.4218 0.0000 0.0000 0.0000
# 4 0.0000 0.0000 0.0000 17.7321 0.0000 0.0000
# 5 0.0000 0.0000 0.0000 0.0000 13.7598 0.0000
# 6 0.0000 0.0000 0.0000 0.0000 0.0000 21.9742
#
#
#
# Elastic Compliance Matrix: (Units=1/GPa)
#
#
# Indices 1 2 3 4 5 6 
#
# 1 0.013903 -0.007073 0.001358 0.000000 0.000000 0.000000
# 2 -0.007073 0.010542 -0.001399 0.000000 0.000000 0.000000
# 3 0.001358 -0.001399 0.096158 0.000000 0.000000 0.000000
# 4 0.000000 0.000000 0.000000 0.056395 0.000000 0.000000
# 5 0.000000 0.000000 0.000000 0.000000 0.072676 0.000000
# 6 0.000000 0.000000 0.000000 0.000000 0.000000 0.045508
#
#
# Mechanical properties :
#
#
# Convention : Reuss Voigt Hill
#
# Bulk Modulus (GPa) = 9.40077 45.71200 27.55639
# Shear Modulus (GPa) = 14.49829 23.35796 18.92813
#
# Velocity S-wave (km/s) = 2.80260 3.55730 3.20226
# Velocity P-wave (km/s) = 3.94534 6.45271 5.34804
#
# Compressibility (1/GPa) = 0.10637425
#
# Stress axis : x y z
#
# Youngs Moduli (GPa) = 71.92633 94.85845 10.39956
#
# Poissons Ratio (x) = 0.67098 -0.01413
# Poissons Ratio (y) = 0.50877 0.01455
# Poissons Ratio (z) = -0.09771 0.13274
#
# Static dielectric constant tensor:
#      x y z
#    x 1.633800 0.000000 0.000000 
#    y 0.000000 1.647190 0.000000 
#    z 0.000000 0.000000 1.673900 
# 
# From -- ./inp_files/8333.got.cif
#   From: 2010.05.17/outbox.cif.g08.bks.cpg/sg58_5_cif.got.tgz:8333.got - 2010.06.03 14:20:14.
