data_PCOD9441833
_publ_section_title
;
Structure prediction by ZEFSAII (Michael W. Deem and Ramdas Pophale) SiO2 
 PCOD9441833
Probable space group: P N N M
;
_chemical_formula_sum "Si O2"
_cell_formula_units_Z 64
_cell_length_a 11.619551
_cell_length_b 18.006911
_cell_length_c 19.158177
_cell_angle_alpha 90.000000
_cell_angle_beta 90.000000
_cell_angle_gamma 90.000000
_cell_volume 4008.507919
_symmetry_space_group_name_H-M "P N N M"
_symmetry_group_IT_number 58
_symmetry_cell_setting 'orthorhombic'
loop_
_space_group_symop_operation_xyz
x,y,z
-x,-y,z
1/2+x,1/2-y,1/2-z
1/2-x,1/2+y,1/2-z
-x,-y,-z
x,y,-z
1/2-x,1/2+y,1/2+z
1/2+x,1/2-y,1/2+z
loop_
_atom_site_type_symbol
_atom_site_label
_atom_site_fract_x
_atom_site_fract_y
_atom_site_fract_z
Si Si1 0.084743 0.167177 0.322360
Si Si2 0.194378 0.039856 0.224421
Si Si3 0.644174 0.628452 0.234269
Si Si4 0.104243 0.306274 0.223130
Si Si5 0.575954 0.930263 0.300813
Si Si6 0.294719 0.162507 0.580567
Si Si7 0.957268 0.208500 0.872068
Si Si8 0.089648 0.067736 0.076417
O O1 0.132263 0.104131 0.269211
O O2 0.103707 0.246603 0.285438
O O3 0.164275 0.165835 0.390506
O O4 0.949413 0.148555 0.325069
O O5 0.327224 0.044510 0.246246
O O6 0.170626 0.056838 0.143471
O O7 0.147821 0.958763 0.246614
O O8 0.771130 0.657076 0.215927
O O9 0.600688 0.672476 0.303065
O O10 0.007742 0.369088 0.232881
O O11 0.060206 0.261181 0.155524
O O12 0.639404 0.893483 0.367089
O O13 0.500000 0.000000 0.322809
O O14 0.299181 0.140632 0.500000
O O15 0.361911 0.240737 0.590734
O O16 0.014855 0.142379 0.914737
O O17 0.146566 0.067442 0.000000
O O18 0.000000 0.000000 0.079065
#
# Coordination Sequence:
#
# PCOD9441833 Si02
#       8
#     8   8   8   8   8   8   8   8
#     4  10  20  31  54  79 103 135 178 215 265 311
#     4  11  19  34  54  79 107 136 174 222 268 314
#     4  11  18  31  55  79 107 135 174 224 264 311
#     4  10  19  32  53  82 104 132 177 226 258 309
#     4  10  21  35  56  81 101 138 181 220 269 315
#     4  10  21  36  53  77 108 141 177 219 266 318
#     4  10  19  32  52  77 108 140 176 214 269 311
#     4  11  20  30  48  79 111 140 174 215 268 326
#
# _framework density 15.96604
#
# number of rings (size 3 to 8) (size 9 to 14) (size 15 to 20)
#    0.000    1.625    6.250    0.750    1.750    0.250 
#    0.000    0.000    0.000   12.375    0.000    0.000 
#    0.000    0.000    0.000    0.000    0.000    0.000 
#
# Total GULP energy -356745.647175 kJ/mol
# GULP energy per Si atom -5574.150737 kJ/mol
# Density = 1.592970 g / cm^3
# Si number density = 15.966040 Si / 1000 Ang^3
#
#
#
# Elastic Constant Matrix: (Units=GPa)
#
#
# Indices 1 2 3 4 5 6 
#
# 1 107.9321 32.7152 47.1575 0.0000 0.0000 0.0000
# 2 32.7152 92.0169 28.5016 0.0000 0.0000 0.0000
# 3 47.1575 28.5016 90.6251 0.0000 0.0000 0.0000
# 4 0.0000 0.0000 0.0000 6.6410 0.0000 0.0000
# 5 0.0000 0.0000 0.0000 0.0000 11.5669 0.0000
# 6 0.0000 0.0000 0.0000 0.0000 0.0000 27.3677
#
#
#
# Elastic Compliance Matrix: (Units=1/GPa)
#
#
# Indices 1 2 3 4 5 6 
#
# 1 0.012572 -0.002707 -0.005690 0.000000 0.000000 0.000000
# 2 -0.002707 0.012623 -0.002561 0.000000 0.000000 0.000000
# 3 -0.005690 -0.002561 0.014801 0.000000 0.000000 0.000000
# 4 0.000000 0.000000 0.000000 0.150579 0.000000 0.000000
# 5 0.000000 0.000000 0.000000 0.000000 0.086454 0.000000
# 6 0.000000 0.000000 0.000000 0.000000 0.000000 0.036539
#
#
# Mechanical properties :
#
#
# Convention : Reuss Voigt Hill
#
# Bulk Modulus (GPa) = 55.31463 56.36918 55.84191
# Shear Modulus (GPa) = 14.64075 21.26179 17.95127
#
# Velocity S-wave (km/s) = 3.03147 3.65319 3.35676
# Velocity P-wave (km/s) = 6.85372 7.29224 7.07638
#
# Compressibility (1/GPa) = 0.01807840
#
# Stress axis : x y z
#
# Youngs Moduli (GPa) = 79.54230 79.21778 67.56248
#
# Poissons Ratio (x) = 0.21446 0.38446
# Poissons Ratio (y) = 0.21533 0.17305
# Poissons Ratio (z) = 0.45264 0.20291
#
# Static dielectric constant tensor:
#      x y z
#    x 1.543020 0.000000 0.000000 
#    y 0.000000 1.546920 0.000000 
#    z 0.000000 0.000000 1.511870 
# 
# From -- ./inp_files/26469.got.cif
#   From: 2010.05.17/outbox.cif.g08.bks.cpg/sg58_14_cif.got.tgz:26469.got - 2010.06.03 14:20:14.
