data_PCOD9441556
_publ_section_title
;
Structure prediction by ZEFSAII (Michael W. Deem and Ramdas Pophale) SiO2 
 PCOD9441556
Probable space group: P N N M
;
_chemical_formula_sum "Si O2"
_cell_formula_units_Z 64
_cell_length_a 28.377316
_cell_length_b 15.218753
_cell_length_c 8.364652
_cell_angle_alpha 90.000000
_cell_angle_beta 90.000000
_cell_angle_gamma 90.000000
_cell_volume 3612.420202
_symmetry_space_group_name_H-M "P N N M"
_symmetry_group_IT_number 58
_symmetry_cell_setting 'orthorhombic'
loop_
_space_group_symop_operation_xyz
x,y,z
-x,-y,z
1/2+x,1/2-y,1/2-z
1/2-x,1/2+y,1/2-z
-x,-y,-z
x,y,-z
1/2-x,1/2+y,1/2+z
1/2+x,1/2-y,1/2+z
loop_
_atom_site_type_symbol
_atom_site_label
_atom_site_fract_x
_atom_site_fract_y
_atom_site_fract_z
Si Si1 0.633698 0.718638 0.306699
Si Si2 0.280449 0.407450 0.691753
Si Si3 0.555162 0.588895 0.812551
Si Si4 0.449831 0.601185 0.309777
Si Si5 0.366315 0.724850 0.692048
Si Si6 0.825482 0.596302 0.806611
Si Si7 0.174261 0.601236 0.805170
Si Si8 0.782820 0.897050 0.308854
O O1 0.630366 0.717714 0.500000
O O2 0.680619 0.664009 0.262277
O O3 0.589132 0.667450 0.238588
O O4 0.641249 0.818989 0.252830
O O5 0.278883 0.412098 0.500000
O O6 0.228273 0.385951 0.754292
O O7 0.293923 0.502977 0.759436
O O8 0.567934 0.497923 0.723559
O O9 0.500913 0.609001 0.770099
O O10 0.559400 0.572431 0.000000
O O11 0.455890 0.611090 0.500000
O O12 0.411962 0.671852 0.249087
O O13 0.370248 0.727771 0.500000
O O14 0.358399 0.824299 0.750425
O O15 0.319966 0.669268 0.734453
O O16 0.838011 0.497550 0.751782
O O17 0.826220 0.595556 0.000000
O O18 0.228620 0.619300 0.758190
O O19 0.173835 0.600892 0.000000
O O20 0.784855 0.889288 0.500000
#
# Coordination Sequence:
#
# PCOD9441556 Si02
#       8
#     8   8   8   8   8   8   8   8
#     4  10  19  32  50  70  95 130 168 200 236 288
#     4  10  19  30  46  71 102 134 168 202 238 287
#     4  11  22  35  52  76 101 123 154 199 248 293
#     4  10  20  36  55  74  99 130 159 190 238 297
#     4  10  20  32  50  75 100 128 164 203 242 291
#     4   9  18  33  50  71 101 133 165 204 245 282
#     4   8  16  31  49  68  94 131 169 201 234 277
#     4  10  19  31  48  71 101 135 168 203 245 289
#
# _framework density 17.716656
#
# number of rings (size 3 to 8) (size 9 to 14) (size 15 to 20)
#    0.000    2.250    0.000    5.250    0.000    6.500 
#    0.000    3.125    0.000    0.750    0.000    5.250 
#    0.000    0.000    0.000    0.000    0.000    0.000 
#
# Total GULP energy -357172.425699 kJ/mol
# GULP energy per Si atom -5580.819152 kJ/mol
# Density = 1.767633 g / cm^3
# Si number density = 17.716656 Si / 1000 Ang^3
#
#
#
# Elastic Constant Matrix: (Units=GPa)
#
#
# Indices 1 2 3 4 5 6 
#
# 1 66.5350 73.3470 3.6080 0.0000 0.0000 0.0000
# 2 73.3470 97.9479 -1.7430 0.0000 0.0000 0.0000
# 3 3.6080 -1.7430 9.7133 0.0000 0.0000 0.0000
# 4 0.0000 0.0000 0.0000 11.9473 0.0000 0.0000
# 5 0.0000 0.0000 0.0000 0.0000 21.8431 0.0000
# 6 0.0000 0.0000 0.0000 0.0000 0.0000 31.1788
#
#
#
# Elastic Compliance Matrix: (Units=1/GPa)
#
#
# Indices 1 2 3 4 5 6 
#
# 1 0.109686 -0.083128 -0.055659 0.000000 0.000000 0.000000
# 2 -0.083128 0.073242 0.044020 0.000000 0.000000 0.000000
# 3 -0.055659 0.044020 0.131526 0.000000 0.000000 0.000000
# 4 0.000000 0.000000 0.000000 0.083701 0.000000 0.000000
# 5 0.000000 0.000000 0.000000 0.000000 0.045781 0.000000
# 6 0.000000 0.000000 0.000000 0.000000 0.000000 0.032073
#
#
# Mechanical properties :
#
#
# Convention : Reuss Voigt Hill
#
# Bulk Modulus (GPa) = 8.00509 36.06891 22.03700
# Shear Modulus (GPa) = 7.07030 19.59278 13.33154
#
# Velocity S-wave (km/s) = 1.99986 3.32911 2.74612
# Velocity P-wave (km/s) = 3.14019 5.93129 4.74558
#
# Compressibility (1/GPa) = 0.12492045
#
# Stress axis : x y z
#
# Youngs Moduli (GPa) = 9.11690 13.65337 7.60308
#
# Poissons Ratio (x) = 1.13497 0.42318
# Poissons Ratio (y) = 0.75787 -0.33469
# Poissons Ratio (z) = 0.50744 -0.60103
#
# Static dielectric constant tensor:
#      x y z
#    x 1.583190 0.000000 0.000000 
#    y 0.000000 1.627050 0.000000 
#    z 0.000000 0.000000 1.610840 
# 
# From -- ./inp_files/11153.got.cif
#   From: 2010.05.17/outbox.cif.g08.bks.cpg/sg58_6_cif.got.tgz:11153.got - 2010.06.03 14:20:14.
