data_PCOD9441504
_publ_section_title
;
Structure prediction by ZEFSAII (Michael W. Deem and Ramdas Pophale) SiO2 
 PCOD9441504
Probable space group: P N N M
;
_chemical_formula_sum "Si O2"
_cell_formula_units_Z 64
_cell_length_a 18.261992
_cell_length_b 22.650848
_cell_length_c 8.744789
_cell_angle_alpha 90.000000
_cell_angle_beta 90.000000
_cell_angle_gamma 90.000000
_cell_volume 3617.278515
_symmetry_space_group_name_H-M "P N N M"
_symmetry_group_IT_number 58
_symmetry_cell_setting 'orthorhombic'
loop_
_space_group_symop_operation_xyz
x,y,z
-x,-y,z
1/2+x,1/2-y,1/2-z
1/2-x,1/2+y,1/2-z
-x,-y,-z
x,y,-z
1/2-x,1/2+y,1/2+z
1/2+x,1/2-y,1/2+z
loop_
_atom_site_type_symbol
_atom_site_label
_atom_site_fract_x
_atom_site_fract_y
_atom_site_fract_z
Si Si1 0.866081 0.653291 0.182017
Si Si2 0.067899 0.841798 0.322441
Si Si3 0.284823 0.391932 0.317233
Si Si4 0.925139 0.774201 0.684106
Si Si5 0.770288 0.479222 0.683093
Si Si6 0.026408 0.065829 0.170132
Si Si7 0.165771 0.108592 0.682809
Si Si8 0.079108 0.475048 0.816426
O O1 0.787114 0.640922 0.256015
O O2 0.901341 0.712628 0.245775
O O3 0.913817 0.594820 0.215729
O O4 0.857631 0.657683 0.000000
O O5 0.082970 0.830568 0.500000
O O6 0.143494 0.857113 0.239381
O O7 0.007530 0.793790 0.266440
O O8 0.020046 0.900526 0.296822
O O9 0.285198 0.392284 0.500000
O O10 0.275648 0.461227 0.268774
O O11 0.926855 0.770612 0.500000
O O12 0.864980 0.825610 0.721065
O O13 0.764565 0.473722 0.500000
O O14 0.742182 0.419082 0.762519
O O15 0.853296 0.493626 0.732312
O O16 0.109224 0.068308 0.223526
O O17 0.017340 0.093084 0.000000
O O18 0.000000 0.000000 0.160690
O O19 0.159536 0.102359 0.500000
O O20 0.000000 0.500000 0.772675
O O21 0.088328 0.482990 0.000000
#
# Coordination Sequence:
#
# PCOD9441504 Si02
#       8
#     8   8   8   8   8   8   8   8
#     4  10  20  35  58  82 102 134 177 217 262 317
#     4  10  20  33  50  73 101 135 177 218 256 307
#     4  10  20  34  53  77 106 138 172 216 268 316
#     4   9  20  37  53  73 105 143 178 216 264 313
#     4  10  20  33  52  80 110 139 173 216 266 316
#     4  10  19  29  43  67 100 135 169 207 253 301
#     4  10  20  33  50  72 101 139 176 210 253 305
#     4   9  19  37  59  82 107 134 169 216 269 324
#
# _framework density 17.69286
#
# number of rings (size 3 to 8) (size 9 to 14) (size 15 to 20)
#    0.000    2.250    0.000    3.750    0.000    9.250 
#    0.000    1.250    0.000    4.500    0.000    0.000 
#    0.000    0.000    0.000    0.000    0.000    0.000 
#
# Total GULP energy -356549.825318 kJ/mol
# GULP energy per Si atom -5571.091021 kJ/mol
# Density = 1.765259 g / cm^3
# Si number density = 17.692860 Si / 1000 Ang^3
#
#
#
# Elastic Constant Matrix: (Units=GPa)
#
#
# Indices 1 2 3 4 5 6 
#
# 1 110.9845 66.0697 28.8746 0.0000 0.0000 0.0000
# 2 66.0697 75.7082 29.7551 0.0000 0.0000 0.0000
# 3 28.8746 29.7551 37.0949 0.0000 0.0000 0.0000
# 4 0.0000 0.0000 0.0000 26.2587 0.0000 0.0000
# 5 0.0000 0.0000 0.0000 0.0000 115.3591 0.0000
# 6 0.0000 0.0000 0.0000 0.0000 0.0000 24.8200
#
#
#
# Elastic Compliance Matrix: (Units=1/GPa)
#
#
# Indices 1 2 3 4 5 6 
#
# 1 0.018870 -0.015619 -0.002160 0.000000 0.000000 0.000000
# 2 -0.015619 0.032218 -0.013685 0.000000 0.000000 0.000000
# 3 -0.002160 -0.013685 0.039617 0.000000 0.000000 0.000000
# 4 0.000000 0.000000 0.000000 0.038083 0.000000 0.000000
# 5 0.000000 0.000000 0.000000 0.000000 0.008669 0.000000
# 6 0.000000 0.000000 0.000000 0.000000 0.000000 0.040290
#
#
# Mechanical properties :
#
#
# Convention : Reuss Voigt Hill
#
# Bulk Modulus (GPa) = 36.00204 52.57627 44.28916
# Shear Modulus (GPa) = 20.00535 39.89344 29.94939
#
# Velocity S-wave (km/s) = 3.36624 4.75360 4.11875
# Velocity P-wave (km/s) = 5.95829 7.74013 6.90691
#
# Compressibility (1/GPa) = 0.02777620
#
# Stress axis : x y z
#
# Youngs Moduli (GPa) = 52.99335 31.03887 25.24188
#
# Poissons Ratio (x) = 0.48479 0.05453
# Poissons Ratio (y) = 0.82770 0.34544
# Poissons Ratio (z) = 0.11447 0.42477
#
# Static dielectric constant tensor:
#      x y z
#    x 1.562030 0.000000 0.000000 
#    y 0.000000 1.604810 0.000000 
#    z 0.000000 0.000000 1.604150 
# 
# From -- ./inp_files/8280.got.cif
#   From: 2010.05.17/outbox.cif.g08.bks.cpg/sg58_5_cif.got.tgz:8280.got - 2010.06.03 14:20:14.
