data_PCOD9441324
_publ_section_title
;
Structure prediction by ZEFSAII (Michael W. Deem and Ramdas Pophale) SiO2 
 PCOD9441324
Probable space group: P N N M
;
_chemical_formula_sum "Si O2"
_cell_formula_units_Z 48
_cell_length_a 20.920082
_cell_length_b 12.034938
_cell_length_c 10.264187
_cell_angle_alpha 90.000000
_cell_angle_beta 90.000000
_cell_angle_gamma 90.000000
_cell_volume 2584.233759
_symmetry_space_group_name_H-M "P N N M"
_symmetry_group_IT_number 58
_symmetry_cell_setting 'orthorhombic'
loop_
_space_group_symop_operation_xyz
x,y,z
-x,-y,z
1/2+x,1/2-y,1/2-z
1/2-x,1/2+y,1/2-z
-x,-y,-z
x,y,-z
1/2-x,1/2+y,1/2+z
1/2+x,1/2-y,1/2+z
loop_
_atom_site_type_symbol
_atom_site_label
_atom_site_fract_x
_atom_site_fract_y
_atom_site_fract_z
Si Si1 0.291784 0.899684 0.346144
Si Si2 0.146146 0.972040 0.652627
Si Si3 0.516245 0.176475 0.272519
Si Si4 0.047046 0.895831 0.142071
Si Si5 0.861115 0.764462 0.350556
Si Si6 0.090356 0.537441 0.147339
O O1 0.300578 0.870945 0.500000
O O2 0.317467 0.803727 0.250844
O O3 0.218446 0.931538 0.325617
O O4 0.336815 0.007631 0.322010
O O5 0.130551 0.956460 0.500000
O O6 0.139798 0.104166 0.679855
O O7 0.098162 0.904841 0.743726
O O8 0.496055 0.286745 0.346717
O O9 0.566578 0.216302 0.164099
O O10 0.448535 0.113474 0.251314
O O11 0.555377 0.082555 0.350651
O O12 0.078684 0.899041 0.000000
O O13 0.000000 0.000000 0.153345
O O14 0.839705 0.750112 0.500000
O O15 0.085702 0.583740 0.000000
#
# Coordination Sequence:
#
# PCOD9441324 Si02
#       6
#     8   8   8   8   8   8
#     4   9  20  38  59  81 107 144 193 236 277 333
#     4  10  22  40  58  81 113 154 191 225 281 353
#     4  10  18  33  54  83 112 147 185 231 281 334
#     4  11  22  34  54  87 116 144 185 239 283 325
#     4  10  21  37  58  81 113 152 187 231 287 341
#     4   9  17  32  57  82 106 144 188 235 278 331
#
# _framework density 18.574169999999999
#
# number of rings (size 3 to 8) (size 9 to 14) (size 15 to 20)
#    0.000    2.167    1.667    2.000    0.000    5.000 
#    0.000    8.333    0.000    4.000    0.000    0.000 
#    0.000    0.000    0.000    0.000    0.000    0.000 
#
# Total GULP energy -267376.944656 kJ/mol
# GULP energy per Si atom -5570.353014 kJ/mol
# Density = 1.853189 g / cm^3
# Si number density = 18.574170 Si / 1000 Ang^3
#
#
#
# Elastic Constant Matrix: (Units=GPa)
#
#
# Indices 1 2 3 4 5 6 
#
# 1 70.3151 20.7331 42.4760 0.0000 0.0000 0.0000
# 2 20.7331 81.9185 27.0166 0.0000 0.0000 0.0000
# 3 42.4760 27.0166 71.4152 0.0000 0.0000 0.0000
# 4 0.0000 0.0000 0.0000 17.3771 0.0000 0.0000
# 5 0.0000 0.0000 0.0000 0.0000 28.2402 0.0000
# 6 0.0000 0.0000 0.0000 0.0000 0.0000 20.0151
#
#
#
# Elastic Compliance Matrix: (Units=1/GPa)
#
#
# Indices 1 2 3 4 5 6 
#
# 1 0.022347 -0.001454 -0.012742 0.000000 0.000000 0.000000
# 2 -0.001454 0.014042 -0.004447 0.000000 0.000000 0.000000
# 3 -0.012742 -0.004447 0.023264 0.000000 0.000000 0.000000
# 4 0.000000 0.000000 0.000000 0.057547 0.000000 0.000000
# 5 0.000000 0.000000 0.000000 0.000000 0.035410 0.000000
# 6 0.000000 0.000000 0.000000 0.000000 0.000000 0.049962
#
#
# Mechanical properties :
#
#
# Convention : Reuss Voigt Hill
#
# Bulk Modulus (GPa) = 44.70866 44.90002 44.80434
# Shear Modulus (GPa) = 20.21719 22.02135 21.11927
#
# Velocity S-wave (km/s) = 3.30276 3.44698 3.37564
# Velocity P-wave (km/s) = 6.21827 6.32993 6.27435
#
# Compressibility (1/GPa) = 0.02236703
#
# Stress axis : x y z
#
# Youngs Moduli (GPa) = 44.74797 71.21514 42.98569
#
# Poissons Ratio (x) = 0.10353 0.54771
# Poissons Ratio (y) = 0.06505 0.19118
# Poissons Ratio (z) = 0.57017 0.31673
#
# Static dielectric constant tensor:
#      x y z
#    x 1.661770 0.000000 0.000000 
#    y 0.000000 1.642820 0.000000 
#    z 0.000000 0.000000 1.624350 
# 
# From -- ./inp_files/16344.got.cif
#   From: 2010.05.17/outbox.cif.g08.bks.cpg/sg58_9_cif.got.tgz:16344.got - 2010.06.03 14:20:14.
