data_PCOD9441857
_publ_section_title
;
Structure prediction by ZEFSAII (Michael W. Deem and Ramdas Pophale) SiO2 
 PCOD9441857
Probable space group: P N N M
;
_chemical_formula_sum "Si O2"
_cell_formula_units_Z 64
_cell_length_a 8.911250
_cell_length_b 27.212744
_cell_length_c 15.093082
_cell_angle_alpha 90.000000
_cell_angle_beta 90.000000
_cell_angle_gamma 90.000000
_cell_volume 3660.065819
_symmetry_space_group_name_H-M "P N N M"
_symmetry_group_IT_number 58
_symmetry_cell_setting 'orthorhombic'
loop_
_space_group_symop_operation_xyz
x,y,z
-x,-y,z
1/2+x,1/2-y,1/2-z
1/2-x,1/2+y,1/2-z
-x,-y,-z
x,y,-z
1/2-x,1/2+y,1/2+z
1/2+x,1/2-y,1/2+z
loop_
_atom_site_type_symbol
_atom_site_label
_atom_site_fract_x
_atom_site_fract_y
_atom_site_fract_z
Si Si1 0.498734 0.304937 0.098292
Si Si2 0.339786 0.482092 0.395254
Si Si3 0.144491 0.393677 0.395704
Si Si4 0.827211 0.841039 0.760134
Si Si5 0.685045 0.215197 0.157419
Si Si6 0.560289 0.788204 0.688603
Si Si7 0.801153 0.413618 0.395307
Si Si8 0.811555 0.752818 0.903118
O O1 0.544456 0.336539 0.185111
O O2 0.613010 0.258407 0.098551
O O3 0.335424 0.280445 0.108465
O O4 0.506887 0.328472 0.000000
O O5 0.500000 0.500000 0.357917
O O6 0.368611 0.471676 0.500000
O O7 0.258877 0.433913 0.356657
O O8 0.227540 0.528258 0.390211
O O9 0.135985 0.404224 0.500000
O O10 0.201528 0.338260 0.383666
O O11 0.970761 0.399362 0.367438
O O12 0.675812 0.832311 0.702242
O O13 0.438931 0.790996 0.766372
O O14 0.826427 0.794521 0.828126
O O15 0.839281 0.238763 0.190654
O O16 0.456949 0.781847 0.603307
O O17 0.778241 0.399928 0.500000
O O18 0.689833 0.386568 0.326532
O O19 0.800822 0.776450 0.000000
#
# Coordination Sequence:
#
# PCOD9441857 Si02
#       8
#     8   8   8   8   8   8   8   8
#     4  10  20  34  51  69 104 144 176 216 264 314
#     4   9  19  35  49  73 110 140 177 229 271 314
#     4  10  19  32  53  76 100 143 186 219 263 325
#     4  11  19  33  50  75 101 138 181 221 261 312
#     4  11  19  33  50  71 104 137 181 216 264 309
#     4  11  20  32  48  69 104 136 173 223 258 302
#     4  10  19  33  54  77 106 145 180 217 268 321
#     4  11  20  33  49  70 100 141 180 215 264 316
#
# _framework density 17.486025000000001
#
# number of rings (size 3 to 8) (size 9 to 14) (size 15 to 20)
#    0.000    1.625    5.000    1.125    0.000    7.000 
#    0.000    1.250    0.000    0.000    0.000    0.000 
#    0.000    3.500    0.000    0.000    0.000    0.125 
#
# Total GULP energy -356325.438050 kJ/mol
# GULP energy per Si atom -5567.584970 kJ/mol
# Density = 1.744623 g / cm^3
# Si number density = 17.486025 Si / 1000 Ang^3
#
#
#
# Elastic Constant Matrix: (Units=GPa)
#
#
# Indices 1 2 3 4 5 6 
#
# 1 58.2347 6.0389 17.6106 0.0000 0.0000 0.0000
# 2 6.0389 35.1385 -6.6736 0.0000 0.0000 0.0000
# 3 17.6106 -6.6736 59.1797 0.0000 0.0000 0.0000
# 4 0.0000 0.0000 0.0000 15.6886 0.0000 0.0000
# 5 0.0000 0.0000 0.0000 0.0000 12.8868 0.0000
# 6 0.0000 0.0000 0.0000 0.0000 0.0000 16.4334
#
#
#
# Elastic Compliance Matrix: (Units=1/GPa)
#
#
# Indices 1 2 3 4 5 6 
#
# 1 0.019561 -0.004565 -0.006336 0.000000 0.000000 0.000000
# 2 -0.004565 0.030147 0.004758 0.000000 0.000000 0.000000
# 3 -0.006336 0.004758 0.019320 0.000000 0.000000 0.000000
# 4 0.000000 0.000000 0.000000 0.063741 0.000000 0.000000
# 5 0.000000 0.000000 0.000000 0.000000 0.077599 0.000000
# 6 0.000000 0.000000 0.000000 0.000000 0.000000 0.060852
#
#
# Mechanical properties :
#
#
# Convention : Reuss Voigt Hill
#
# Bulk Modulus (GPa) = 17.62353 20.72275 19.17314
# Shear Modulus (GPa) = 16.53336 18.04022 17.28679
#
# Velocity S-wave (km/s) = 3.07826 3.21548 3.14762
# Velocity P-wave (km/s) = 4.76810 5.06582 4.91921
#
# Compressibility (1/GPa) = 0.05674231
#
# Stress axis : x y z
#
# Youngs Moduli (GPa) = 51.12137 33.17080 51.76074
#
# Poissons Ratio (x) = 0.15143 0.32795
# Poissons Ratio (y) = 0.23337 -0.24628
# Poissons Ratio (z) = 0.32390 -0.15783
#
# Static dielectric constant tensor:
#      x y z
#    x 1.666970 0.000000 0.000000 
#    y 0.000000 1.613770 0.000000 
#    z 0.000000 0.000000 1.647520 
# 
# From -- ./inp_files/29238.got.cif
#   From: 2010.05.17/outbox.cif.g08.bks.cpg/sg58_15_cif.got.tgz:29238.got - 2010.06.03 14:20:14.
