data_PCOD9441522
_publ_section_title
;
Structure prediction by ZEFSAII (Michael W. Deem and Ramdas Pophale) SiO2 
 PCOD9441522
Probable space group: P N N M
;
_chemical_formula_sum "Si O2"
_cell_formula_units_Z 64
_cell_length_a 22.670719
_cell_length_b 19.008190
_cell_length_c 7.731155
_cell_angle_alpha 90.000000
_cell_angle_beta 90.000000
_cell_angle_gamma 90.000000
_cell_volume 3331.581477
_symmetry_space_group_name_H-M "P N N M"
_symmetry_group_IT_number 58
_symmetry_cell_setting 'orthorhombic'
loop_
_space_group_symop_operation_xyz
x,y,z
-x,-y,z
1/2+x,1/2-y,1/2-z
1/2-x,1/2+y,1/2-z
-x,-y,-z
x,y,-z
1/2-x,1/2+y,1/2+z
1/2+x,1/2-y,1/2+z
loop_
_atom_site_type_symbol
_atom_site_label
_atom_site_fract_x
_atom_site_fract_y
_atom_site_fract_z
Si Si1 0.812585 0.027686 0.788977
Si Si2 0.435186 0.522103 0.288573
Si Si3 0.022073 0.577509 0.709142
Si Si4 0.393524 0.675622 0.699090
Si Si5 0.804695 0.588478 0.700646
Si Si6 0.229317 0.129123 0.299517
Si Si7 0.084928 0.329651 0.297865
Si Si8 0.344421 0.066352 0.704181
O O1 0.762081 0.081794 0.728225
O O2 0.881408 0.030184 0.739220
O O3 0.791301 0.951891 0.721217
O O4 0.810086 0.025489 0.000000
O O5 0.500000 0.500000 0.229950
O O6 0.435597 0.523303 0.500000
O O7 0.417936 0.601214 0.231010
O O8 0.024498 0.578960 0.500000
O O9 0.088509 0.588476 0.770860
O O10 0.000000 0.500000 0.761406
O O11 0.973596 0.633180 0.773096
O O12 0.411331 0.679490 0.500000
O O13 0.322311 0.672450 0.709669
O O14 0.415922 0.746113 0.786400
O O15 0.797296 0.609080 0.500000
O O16 0.854271 0.639188 0.779795
O O17 0.831882 0.509399 0.709361
O O18 0.228967 0.150393 0.500000
O O19 0.296416 0.123857 0.233747
O O20 0.086291 0.350322 0.500000
O O21 0.333006 0.056186 0.500000
#
# Coordination Sequence:
#
# PCOD9441522 Si02
#       8
#     8   8   8   8   8   8   8   8
#     4   8  14  25  46  73  94 117 153 195 237 285
#     4   8  14  27  49  75  98 120 154 201 250 296
#     4  10  19  33  50  71  99 138 180 207 240 299
#     4  10  20  33  51  74  97 127 167 210 256 305
#     4   9  16  29  47  68  95 128 166 201 238 294
#     4   9  17  30  48  70  96 123 154 197 248 295
#     4  10  20  33  50  69  97 137 171 207 252 300
#     4  10  19  29  47  75 101 125 159 211 257 285
#
# _framework density 19.210097000000001
#
# number of rings (size 3 to 8) (size 9 to 14) (size 15 to 20)
#    0.000    2.750    1.250    1.875    0.000    2.750 
#    0.000    0.000    2.750    9.375    0.000    0.000 
#    0.000    0.000    0.000    0.000    0.000    0.000 
#
# Total GULP energy -356380.793995 kJ/mol
# GULP energy per Si atom -5568.449906 kJ/mol
# Density = 1.916637 g / cm^3
# Si number density = 19.210097 Si / 1000 Ang^3
#
#
#
# Elastic Constant Matrix: (Units=GPa)
#
#
# Indices 1 2 3 4 5 6 
#
# 1 189.1899 48.2015 0.1439 0.0000 0.0000 0.0000
# 2 48.2015 51.3882 -3.0941 0.0000 0.0000 0.0000
# 3 0.1439 -3.0941 29.8795 0.0000 0.0000 0.0000
# 4 0.0000 0.0000 0.0000 15.2243 0.0000 0.0000
# 5 0.0000 0.0000 0.0000 0.0000 11.8670 0.0000
# 6 0.0000 0.0000 0.0000 0.0000 0.0000 23.5748
#
#
#
# Elastic Compliance Matrix: (Units=1/GPa)
#
#
# Indices 1 2 3 4 5 6 
#
# 1 0.006961 -0.006572 -0.000714 0.000000 0.000000 0.000000
# 2 -0.006572 0.025787 0.002702 0.000000 0.000000 0.000000
# 3 -0.000714 0.002702 0.033751 0.000000 0.000000 0.000000
# 4 0.000000 0.000000 0.000000 0.065685 0.000000 0.000000
# 5 0.000000 0.000000 0.000000 0.000000 0.084268 0.000000
# 6 0.000000 0.000000 0.000000 0.000000 0.000000 0.042418
#
#
# Mechanical properties :
#
#
# Convention : Reuss Voigt Hill
#
# Bulk Modulus (GPa) = 17.44277 40.10668 28.77472
# Shear Modulus (GPa) = 17.41267 25.14696 21.27982
#
# Velocity S-wave (km/s) = 3.01397 3.62200 3.33189
# Velocity P-wave (km/s) = 4.60562 6.19799 5.46017
#
# Compressibility (1/GPa) = 0.05733035
#
# Stress axis : x y z
#
# Youngs Moduli (GPa) = 143.66494 38.77940 29.62874
#
# Poissons Ratio (x) = 0.25486 0.02116
# Poissons Ratio (y) = 0.94417 -0.08006
# Poissons Ratio (z) = 0.10259 -0.10478
#
# Static dielectric constant tensor:
#      x y z
#    x 1.727770 0.000000 0.000000 
#    y 0.000000 1.636460 0.000000 
#    z 0.000000 0.000000 1.718600 
# 
# From -- ./inp_files/9423.got.cif
#   From: 2010.05.17/outbox.cif.g08.bks.cpg/sg58_5_cif.got.tgz:9423.got - 2010.06.03 14:20:14.
