data_PCOD9441636
_publ_section_title
;
Structure prediction by ZEFSAII (Michael W. Deem and Ramdas Pophale) SiO2 
 PCOD9441636
Probable space group: P N N M
;
_chemical_formula_sum "Si O2"
_cell_formula_units_Z 48
_cell_length_a 5.461408
_cell_length_b 16.823772
_cell_length_c 20.517139
_cell_angle_alpha 90.000000
_cell_angle_beta 90.000000
_cell_angle_gamma 90.000000
_cell_volume 1885.145158
_symmetry_space_group_name_H-M "P N N M"
_symmetry_group_IT_number 58
_symmetry_cell_setting 'orthorhombic'
loop_
_space_group_symop_operation_xyz
x,y,z
-x,-y,z
1/2+x,1/2-y,1/2-z
1/2-x,1/2+y,1/2-z
-x,-y,-z
x,y,-z
1/2-x,1/2+y,1/2+z
1/2+x,1/2-y,1/2+z
loop_
_atom_site_type_symbol
_atom_site_label
_atom_site_fract_x
_atom_site_fract_y
_atom_site_fract_z
Si Si1 0.879901 0.416870 0.079388
Si Si2 0.623500 0.653410 0.922474
Si Si3 0.066366 0.329328 0.604913
Si Si4 0.934277 0.911847 0.902563
Si Si5 0.082666 0.328171 0.236214
Si Si6 0.582867 0.360576 0.742043
O O1 0.597515 0.404783 0.098060
O O2 0.000000 0.500000 0.099394
O O3 0.092007 0.353222 0.099591
O O4 0.871812 0.415855 0.000000
O O5 0.509998 0.739978 0.909968
O O6 0.642836 0.642348 0.000000
O O7 0.333980 0.355763 0.580064
O O8 0.080203 0.334689 0.683940
O O9 0.837628 0.382159 0.579543
O O10 0.923723 0.910759 0.823355
O O11 0.000000 0.000000 0.924565
O O12 0.336150 0.368114 0.217699
O O13 0.083612 0.233989 0.221306
O O14 0.831853 0.370573 0.219015
#
# Coordination Sequence:
#
# PCOD9441636 Si02
#       6
#     8   8   8   8   8   8
#     4   9  17  30  49  72  95 119 149 186 231 284
#     4  10  19  31  49  72  97 126 160 197 233 274
#     4  10  19  31  48  70  94 124 163 201 238 280
#     4  10  19  31  48  68  92 123 161 206 246 279
#     4   8  14  25  42  64  86 108 140 181 226 278
#     4   8  14  25  42  64  85 107 139 182 230 278
#
# _framework density 25.462232
#
# number of rings (size 3 to 8) (size 9 to 14) (size 15 to 20)
#    0.000    2.833    0.000    2.000    0.000    2.000 
#    0.000    0.000    0.000    5.000    0.000    0.000 
#    0.000    0.000    0.000    0.000    0.000    0.000 
#
# Total GULP energy -268302.132593 kJ/mol
# GULP energy per Si atom -5589.627762 kJ/mol
# Density = 2.540428 g / cm^3
# Si number density = 25.462232 Si / 1000 Ang^3
#
#
#
# Elastic Constant Matrix: (Units=GPa)
#
#
# Indices 1 2 3 4 5 6 
#
# 1 229.4854 41.1514 26.8972 0.0000 0.0000 0.0000
# 2 41.1514 69.2301 -5.3798 0.0000 0.0000 0.0000
# 3 26.8972 -5.3798 75.4491 0.0000 0.0000 0.0000
# 4 0.0000 0.0000 0.0000 -12.5236 0.0000 0.0000
# 5 0.0000 0.0000 0.0000 0.0000 21.5441 0.0000
# 6 0.0000 0.0000 0.0000 0.0000 0.0000 39.5224
#
#
#
# Elastic Compliance Matrix: (Units=1/GPa)
#
#
# Indices 1 2 3 4 5 6 
#
# 1 0.005183 -0.003242 -0.002079 0.000000 0.000000 0.000000
# 2 -0.003242 0.016553 0.002336 0.000000 0.000000 0.000000
# 3 -0.002079 0.002336 0.014162 0.000000 0.000000 0.000000
# 4 0.000000 0.000000 0.000000 -0.079849 0.000000 0.000000
# 5 0.000000 0.000000 0.000000 0.000000 0.046416 0.000000
# 6 0.000000 0.000000 0.000000 0.000000 0.000000 0.025302
#
#
# Mechanical properties :
#
#
# Convention : Reuss Voigt Hill
#
# Bulk Modulus (GPa) = 33.41356 55.50022 44.45689
# Shear Modulus (GPa) = 114.38337 30.47496 72.42917
#
# Velocity S-wave (km/s) = 6.70972 3.46333 5.33924
# Velocity P-wave (km/s) = 8.55443 6.15120 7.45036
#
# Compressibility (1/GPa) = 0.02992797
#
# Stress axis : x y z
#
# Youngs Moduli (GPa) = 192.95329 60.41094 70.61343
#
# Poissons Ratio (x) = 0.19586 0.14679
# Poissons Ratio (y) = 0.62558 -0.16496
# Poissons Ratio (z) = 0.40110 -0.14113
#
# Static dielectric constant tensor:
#      x y z
#    x 2.102430 0.000000 0.000000 
#    y 0.000000 1.933140 0.000000 
#    z 0.000000 0.000000 2.175830 
# 
# From -- ./inp_files/18598.got.cif
#   From: 2010.05.17/outbox.cif.g08.bks.cpg/sg58_10_cif.got.tgz:18598.got - 2010.06.03 14:20:14.
