data_PCOD9441962
_publ_section_title
;
Structure prediction by ZEFSAII (Michael W. Deem and Ramdas Pophale) SiO2 
 PCOD9441962
Probable space group: P N N M
;
_chemical_formula_sum "Si O2"
_cell_formula_units_Z 48
_cell_length_a 7.947271
_cell_length_b 13.565045
_cell_length_c 21.450369
_cell_angle_alpha 90.000000
_cell_angle_beta 90.000000
_cell_angle_gamma 90.000000
_cell_volume 2312.458934
_symmetry_space_group_name_H-M "P N N M"
_symmetry_group_IT_number 58
_symmetry_cell_setting 'orthorhombic'
loop_
_space_group_symop_operation_xyz
x,y,z
-x,-y,z
1/2+x,1/2-y,1/2-z
1/2-x,1/2+y,1/2-z
-x,-y,-z
x,y,-z
1/2-x,1/2+y,1/2+z
1/2+x,1/2-y,1/2+z
loop_
_atom_site_type_symbol
_atom_site_label
_atom_site_fract_x
_atom_site_fract_y
_atom_site_fract_z
Si Si1 0.869559 0.117681 0.931436
Si Si2 0.132723 0.144851 0.688160
Si Si3 0.977001 0.747858 0.569637
Si Si4 0.327745 0.063940 0.109584
Si Si5 0.105340 0.809498 0.801831
Si Si6 0.308550 0.993120 0.755685
O O1 0.695795 0.182545 0.928821
O O2 0.963048 0.152354 0.868662
O O3 0.811421 0.004034 0.923436
O O4 0.943164 0.134551 0.000000
O O5 0.042154 0.172173 0.623960
O O6 0.308626 0.204579 0.689362
O O7 0.182194 0.033118 0.703826
O O8 0.024097 0.186250 0.745633
O O9 0.994634 0.787972 0.500000
O O10 0.126883 0.670789 0.583908
O O11 0.295285 0.063322 0.183496
O O12 0.500000 0.000000 0.102147
O O13 0.251186 0.887710 0.782012
O O14 0.500000 0.000000 0.734581
#
# Coordination Sequence:
#
# PCOD9441962 Si02
#       6
#     8   8   8   8   8   8
#     4   8  14  25  44  71 101 131 161 198 250 309
#     4  11  20  33  52  75 104 134 169 211 253 301
#     4   9  16  26  44  71  99 130 168 208 251 297
#     4   8  13  24  44  70  99 127 158 198 246 306
#     4  10  20  32  51  76 103 136 169 207 253 304
#     4  10  19  33  52  76 101 129 169 211 255 301
#
# _framework density 20.757124000000001
#
# number of rings (size 3 to 8) (size 9 to 14) (size 15 to 20)
#    0.000    2.667    0.000    6.000    0.000    2.000 
#    0.000    0.000    0.000   14.500    0.000    0.000 
#    0.000    0.000    0.000    0.000    0.000    0.000 
#
# Total GULP energy -268031.341142 kJ/mol
# GULP energy per Si atom -5583.986274 kJ/mol
# Density = 2.070988 g / cm^3
# Si number density = 20.757124 Si / 1000 Ang^3
#
#
#
# Elastic Constant Matrix: (Units=GPa)
#
#
# Indices 1 2 3 4 5 6 
#
# 1 54.0369 6.0764 27.5889 0.0000 0.0000 0.0000
# 2 6.0764 33.4483 26.1911 0.0000 0.0000 0.0000
# 3 27.5889 26.1911 157.7488 0.0000 0.0000 0.0000
# 4 0.0000 0.0000 0.0000 30.2445 0.0000 0.0000
# 5 0.0000 0.0000 0.0000 0.0000 20.4578 0.0000
# 6 0.0000 0.0000 0.0000 0.0000 0.0000 22.0013
#
#
#
# Elastic Compliance Matrix: (Units=1/GPa)
#
#
# Indices 1 2 3 4 5 6 
#
# 1 0.020352 -0.001046 -0.003386 0.000000 0.000000 0.000000
# 2 -0.001046 0.034418 -0.005532 0.000000 0.000000 0.000000
# 3 -0.003386 -0.005532 0.007850 0.000000 0.000000 0.000000
# 4 0.000000 0.000000 0.000000 0.033064 0.000000 0.000000
# 5 0.000000 0.000000 0.000000 0.000000 0.048881 0.000000
# 6 0.000000 0.000000 0.000000 0.000000 0.000000 0.045452
#
#
# Mechanical properties :
#
#
# Convention : Reuss Voigt Hill
#
# Bulk Modulus (GPa) = 23.42288 40.54967 31.98628
# Shear Modulus (GPa) = 22.30403 26.89924 24.60164
#
# Velocity S-wave (km/s) = 3.28155 3.60377 3.44643
# Velocity P-wave (km/s) = 5.06625 6.07404 5.59289
#
# Compressibility (1/GPa) = 0.04269329
#
# Stress axis : x y z
#
# Youngs Moduli (GPa) = 49.13496 29.05436 127.39303
#
# Poissons Ratio (x) = 0.03040 0.43132
# Poissons Ratio (y) = 0.05140 0.70468
# Poissons Ratio (z) = 0.16636 0.16071
#
# Static dielectric constant tensor:
#      x y z
#    x 1.800860 0.000000 0.000000 
#    y 0.000000 1.744060 0.000000 
#    z 0.000000 0.000000 1.749570 
# 
# From -- ./inp_files/28833.got.cif
#   From: 2010.05.17/outbox.cif.g08.bks.cpg/sg58_15_cif.got.tgz:28833.got - 2010.06.03 14:20:14.
