data_PCOD9441843
_publ_section_title
;
Structure prediction by ZEFSAII (Michael W. Deem and Ramdas Pophale) SiO2 
 PCOD9441843
Probable space group: P N N M
;
_chemical_formula_sum "Si O2"
_cell_formula_units_Z 56
_cell_length_a 4.966776
_cell_length_b 20.879698
_cell_length_c 22.006966
_cell_angle_alpha 90.000000
_cell_angle_beta 90.000000
_cell_angle_gamma 90.000000
_cell_volume 2282.227632
_symmetry_space_group_name_H-M "P N N M"
_symmetry_group_IT_number 58
_symmetry_cell_setting 'orthorhombic'
loop_
_space_group_symop_operation_xyz
x,y,z
-x,-y,z
1/2+x,1/2-y,1/2-z
1/2-x,1/2+y,1/2-z
-x,-y,-z
x,y,-z
1/2-x,1/2+y,1/2+z
1/2+x,1/2-y,1/2+z
loop_
_atom_site_type_symbol
_atom_site_label
_atom_site_fract_x
_atom_site_fract_y
_atom_site_fract_z
Si Si1 0.533707 0.431037 0.070324
Si Si2 0.118513 0.833688 0.934542
Si Si3 0.622285 0.770955 0.106260
Si Si4 0.408936 0.434378 0.327848
Si Si5 0.499068 0.792212 0.758196
Si Si6 0.477586 0.846219 0.570935
Si Si7 0.583312 0.932973 0.741996
O O1 0.500000 0.500000 0.101181
O O2 0.235882 0.403680 0.068675
O O3 0.744961 0.378168 0.094661
O O4 0.627161 0.440699 0.000000
O O5 0.320236 0.773971 0.919750
O O6 0.121654 0.880222 0.877532
O O7 0.808818 0.813799 0.935702
O O8 0.198234 0.860254 0.000000
O O9 0.607869 0.800267 0.173305
O O10 0.798467 0.706427 0.106454
O O11 0.500000 0.500000 0.358852
O O12 0.616744 0.428574 0.270455
O O13 0.119434 0.439420 0.298205
O O14 0.701104 0.737156 0.734315
O O15 0.516876 0.859384 0.722079
O O16 0.514136 0.824345 0.500000
O O17 0.500000 0.000000 0.707160
#
# Coordination Sequence:
#
# PCOD9441843 Si02
#       7
#     8   8   8   8   8   8   8
#     4   9  17  30  50  77 107 143 194 242 281 346
#     4  12  22  36  58  86 128 174 211 253 309 365
#     4  12  24  40  57  86 128 160 210 259 315 380
#     4  10  19  35  58  86 124 168 210 255 305 358
#     4  12  24  41  67  94 121 158 214 273 334 380
#     4  10  19  32  52  79 112 153 192 234 299 368
#     4  10  20  39  65  91 123 163 210 264 320 388
#
# _framework density 24.537427999999998
#
# number of rings (size 3 to 8) (size 9 to 14) (size 15 to 20)
#    0.000    1.286    2.857    4.286    0.000    3.143 
#    0.000    0.000    0.000    7.714    0.000    1.000 
#    0.000    0.000    0.000    0.000    0.000    0.143 
#
# Total GULP energy -312351.026458 kJ/mol
# GULP energy per Si atom -5577.696901 kJ/mol
# Density = 2.448158 g / cm^3
# Si number density = 24.537428 Si / 1000 Ang^3
#
#
#
# Elastic Constant Matrix: (Units=GPa)
#
#
# Indices 1 2 3 4 5 6 
#
# 1 113.4118 4.4416 12.3749 0.0000 0.0000 0.0000
# 2 4.4416 107.4679 1.1255 0.0000 0.0000 0.0000
# 3 12.3749 1.1255 52.0320 0.0000 0.0000 0.0000
# 4 0.0000 0.0000 0.0000 7.3934 0.0000 0.0000
# 5 0.0000 0.0000 0.0000 0.0000 26.2719 0.0000
# 6 0.0000 0.0000 0.0000 0.0000 0.0000 36.9375
#
#
#
# Elastic Compliance Matrix: (Units=1/GPa)
#
#
# Indices 1 2 3 4 5 6 
#
# 1 0.009066 -0.000352 -0.002148 0.000000 0.000000 0.000000
# 2 -0.000352 0.009321 -0.000118 0.000000 0.000000 0.000000
# 3 -0.002148 -0.000118 0.019732 0.000000 0.000000 0.000000
# 4 0.000000 0.000000 0.000000 0.135255 0.000000 0.000000
# 5 0.000000 0.000000 0.000000 0.000000 0.038063 0.000000
# 6 0.000000 0.000000 0.000000 0.000000 0.000000 0.027073
#
#
# Mechanical properties :
#
#
# Convention : Reuss Voigt Hill
#
# Bulk Modulus (GPa) = 30.41181 34.31061 32.36121
# Shear Modulus (GPa) = 19.63029 31.11855 25.37442
#
# Velocity S-wave (km/s) = 2.83152 3.56505 3.21925
# Velocity P-wave (km/s) = 4.80739 5.56412 5.19954
#
# Compressibility (1/GPa) = 0.03288197
#
# Stress axis : x y z
#
# Youngs Moduli (GPa) = 110.30648 107.28582 50.67794
#
# Poissons Ratio (x) = 0.03778 0.10888
# Poissons Ratio (y) = 0.03885 0.00597
# Poissons Ratio (z) = 0.23699 0.01264
#
# Static dielectric constant tensor:
#      x y z
#    x 1.883130 0.000000 0.000000 
#    y 0.000000 2.105370 0.000000 
#    z 0.000000 0.000000 1.951090 
# 
# From -- ./inp_files/31026.got.cif
#   From: 2010.05.17/outbox.cif.g08.bks.cpg/sg58_16_cif.got.tgz:31026.got - 2010.06.03 14:20:14.
