data_PCOD9441836
_publ_section_title
;
Structure prediction by ZEFSAII (Michael W. Deem and Ramdas Pophale) SiO2 
 PCOD9441836
Probable space group: P N N M
;
_chemical_formula_sum "Si O2"
_cell_formula_units_Z 48
_cell_length_a 28.786307
_cell_length_b 8.052892
_cell_length_c 8.845248
_cell_angle_alpha 90.000000
_cell_angle_beta 90.000000
_cell_angle_gamma 90.000000
_cell_volume 2050.443663
_symmetry_space_group_name_H-M "P N N M"
_symmetry_group_IT_number 58
_symmetry_cell_setting 'orthorhombic'
loop_
_space_group_symop_operation_xyz
x,y,z
-x,-y,z
1/2+x,1/2-y,1/2-z
1/2-x,1/2+y,1/2-z
-x,-y,-z
x,y,-z
1/2-x,1/2+y,1/2+z
1/2+x,1/2-y,1/2+z
loop_
_atom_site_type_symbol
_atom_site_label
_atom_site_fract_x
_atom_site_fract_y
_atom_site_fract_z
Si Si1 0.229925 0.049430 0.821800
Si Si2 0.927418 0.930513 0.822122
Si Si3 0.652564 0.622830 0.826808
Si Si4 0.819556 0.634758 0.317606
Si Si5 0.907509 0.462065 0.675851
Si Si6 0.511854 0.771400 0.675270
O O1 0.196872 0.893948 0.780384
O O2 0.205261 0.200376 0.738396
O O3 0.282439 0.008370 0.776128
O O4 0.229388 0.080334 0.000000
O O5 0.883347 0.978219 0.722451
O O6 0.961709 0.786102 0.761988
O O7 0.957845 0.101025 0.819441
O O8 0.915604 0.901968 0.000000
O O9 0.624102 0.793897 0.817705
O O10 0.667584 0.601220 0.000000
O O11 0.822716 0.636278 0.500000
O O12 0.871281 0.596344 0.257980
O O13 0.916984 0.498000 0.500000
O O14 0.955625 0.411841 0.753635
O O15 0.504436 0.809226 0.500000
#
# Coordination Sequence:
#
# PCOD9441836 Si02
#       6
#     8   8   8   8   8   8
#     4  11  23  38  57  79 103 134 172 212 256 307
#     4   8  14  26  44  70 104 138 173 212 253 298
#     4  10  19  32  52  78 108 140 174 213 257 304
#     4  10  22  39  56  76 104 135 168 210 257 305
#     4   9  18  32  51  76 106 138 172 211 255 305
#     4   8  14  25  44  71 103 137 172 212 254 297
#
# _framework density 23.409569000000001
#
# number of rings (size 3 to 8) (size 9 to 14) (size 15 to 20)
#    0.000    2.667    0.000    3.000    0.000    4.667 
#    0.000    3.333    0.000    1.000    0.000    7.000 
#    0.000    0.000    0.000    0.000    0.000    0.000 
#
# Total GULP energy -268252.838112 kJ/mol
# GULP energy per Si atom -5588.600794 kJ/mol
# Density = 2.335629 g / cm^3
# Si number density = 23.409569 Si / 1000 Ang^3
#
#
#
# Elastic Constant Matrix: (Units=GPa)
#
#
# Indices 1 2 3 4 5 6 
#
# 1 136.8026 12.7732 17.4187 0.0000 0.0000 0.0000
# 2 12.7732 80.4289 -3.7554 0.0000 0.0000 0.0000
# 3 17.4187 -3.7554 12.7750 0.0000 0.0000 0.0000
# 4 0.0000 0.0000 0.0000 22.1444 0.0000 0.0000
# 5 0.0000 0.0000 0.0000 0.0000 23.3168 0.0000
# 6 0.0000 0.0000 0.0000 0.0000 0.0000 45.1249
#
#
#
# Elastic Compliance Matrix: (Units=1/GPa)
#
#
# Indices 1 2 3 4 5 6 
#
# 1 0.009173 -0.002069 -0.013116 0.000000 0.000000 0.000000
# 2 -0.002069 0.013073 0.006664 0.000000 0.000000 0.000000
# 3 -0.013116 0.006664 0.098120 0.000000 0.000000 0.000000
# 4 0.000000 0.000000 0.000000 0.045158 0.000000 0.000000
# 5 0.000000 0.000000 0.000000 0.000000 0.042888 0.000000
# 6 0.000000 0.000000 0.000000 0.000000 0.000000 0.022161
#
#
# Mechanical properties :
#
#
# Convention : Reuss Voigt Hill
#
# Bulk Modulus (GPa) = 9.67817 31.43104 20.55460
# Shear Modulus (GPa) = 17.72704 31.68856 24.70780
#
# Velocity S-wave (km/s) = 2.75481 3.68320 3.25230
# Velocity P-wave (km/s) = 3.77650 5.61638 4.78569
#
# Compressibility (1/GPa) = 0.10332530
#
# Stress axis : x y z
#
# Youngs Moduli (GPa) = 109.01595 76.49273 10.19161
#
# Poissons Ratio (x) = 0.15828 0.13367
# Poissons Ratio (y) = 0.22557 -0.06792
# Poissons Ratio (z) = 1.42981 -0.50978
#
# Static dielectric constant tensor:
#      x y z
#    x 1.911280 0.000000 0.000000 
#    y 0.000000 1.995910 0.000000 
#    z 0.000000 0.000000 1.781920 
# 
# From -- ./inp_files/2947.got.cif
#   From: 2010.05.17/outbox.cif.g08.bks.cpg/sg58_2_cif.got.tgz:2947.got - 2010.06.03 14:20:14.
