data_PCOD9441630
_publ_section_title
;
Structure prediction by ZEFSAII (Michael W. Deem and Ramdas Pophale) SiO2 
 PCOD9441630
Probable space group: P N N M
;
_chemical_formula_sum "Si O2"
_cell_formula_units_Z 64
_cell_length_a 20.981005
_cell_length_b 17.243403
_cell_length_c 7.484317
_cell_angle_alpha 90.000000
_cell_angle_beta 90.000000
_cell_angle_gamma 90.000000
_cell_volume 2707.705577
_symmetry_space_group_name_H-M "P N N M"
_symmetry_group_IT_number 58
_symmetry_cell_setting 'orthorhombic'
loop_
_space_group_symop_operation_xyz
x,y,z
-x,-y,z
1/2+x,1/2-y,1/2-z
1/2-x,1/2+y,1/2-z
-x,-y,-z
x,y,-z
1/2-x,1/2+y,1/2+z
1/2+x,1/2-y,1/2+z
loop_
_atom_site_type_symbol
_atom_site_label
_atom_site_fract_x
_atom_site_fract_y
_atom_site_fract_z
Si Si1 0.292761 0.113131 0.798981
Si Si2 0.656011 0.442861 0.719014
Si Si3 0.622600 0.027884 0.291635
Si Si4 0.977438 0.645379 0.781401
Si Si5 0.227613 0.335214 0.791462
Si Si6 0.378170 0.722654 0.717118
Si Si7 0.865950 0.112110 0.203781
Si Si8 0.101428 0.725327 0.209122
O O1 0.228270 0.076775 0.720177
O O2 0.329264 0.186527 0.719997
O O3 0.344899 0.044866 0.798617
O O4 0.275975 0.135819 0.000000
O O5 0.657419 0.448201 0.500000
O O6 0.616116 0.366687 0.769282
O O7 0.632196 0.526212 0.784740
O O8 0.613206 0.005651 0.500000
O O9 0.557885 0.067083 0.221798
O O10 0.674568 0.097019 0.283553
O O11 0.933677 0.718846 0.728297
O O12 0.048040 0.666535 0.720084
O O13 0.976043 0.640140 0.000000
O O14 0.189532 0.259611 0.724877
O O15 0.291321 0.363842 0.698564
O O16 0.244094 0.324208 0.000000
O O17 0.377172 0.725155 0.500000
O O18 0.898904 0.187976 0.287016
O O19 0.889738 0.105022 0.000000
O O20 0.086641 0.734186 0.000000
#
# Coordination Sequence:
#
# PCOD9441630 Si02
#       8
#     8   8   8   8   8   8   8   8
#     4  11  21  33  51  75 105 132 159 199 253 305
#     4   9  17  29  46  72 103 128 153 196 250 296
#     4   9  17  31  52  75  98 128 165 205 244 288
#     4   8  16  32  51  70  95 131 171 206 239 282
#     4   9  16  28  49  73  95 124 162 199 239 292
#     4   8  14  27  49  72  93 122 163 203 238 283
#     4  10  19  31  47  70 102 133 157 197 252 294
#     4  10  21  35  50  70  99 133 169 206 244 288
#
# _framework density 23.63625
#
# number of rings (size 3 to 8) (size 9 to 14) (size 15 to 20)
#    0.000    2.750    1.250    2.625    0.000    2.000 
#    0.000    3.750    0.000    4.500    0.000    0.000 
#    0.000    2.000    0.000    0.000    0.000    0.000 
#
# Total GULP energy -357264.342511 kJ/mol
# GULP energy per Si atom -5582.255352 kJ/mol
# Density = 2.358245 g / cm^3
# Si number density = 23.636250 Si / 1000 Ang^3
#
#
#
# Elastic Constant Matrix: (Units=GPa)
#
#
# Indices 1 2 3 4 5 6 
#
# 1 38.8566 -19.5778 -3.7624 0.0000 0.0000 0.0000
# 2 -19.5778 89.3303 0.9949 0.0000 0.0000 0.0000
# 3 -3.7624 0.9949 59.6895 0.0000 0.0000 0.0000
# 4 0.0000 0.0000 0.0000 -14.3890 0.0000 0.0000
# 5 0.0000 0.0000 0.0000 0.0000 8.5523 0.0000
# 6 0.0000 0.0000 0.0000 0.0000 0.0000 30.8577
#
#
#
# Elastic Compliance Matrix: (Units=1/GPa)
#
#
# Indices 1 2 3 4 5 6 
#
# 1 0.029107 0.006360 0.001729 0.000000 0.000000 0.000000
# 2 0.006360 0.012586 0.000191 0.000000 0.000000 0.000000
# 3 0.001729 0.000191 0.016859 0.000000 0.000000 0.000000
# 4 0.000000 0.000000 0.000000 -0.069497 0.000000 0.000000
# 5 0.000000 0.000000 0.000000 0.000000 0.116928 0.000000
# 6 0.000000 0.000000 0.000000 0.000000 0.000000 0.032407
#
#
# Mechanical properties :
#
#
# Convention : Reuss Voigt Hill
#
# Bulk Modulus (GPa) = 13.31339 15.90955 14.61147
# Shear Modulus (GPa) = 34.04419 19.01897 26.53158
#
# Velocity S-wave (km/s) = 3.79930 2.83972 3.35400
# Velocity P-wave (km/s) = 4.98909 4.18301 4.60373
#
# Compressibility (1/GPa) = 0.07511238
#
# Stress axis : x y z
#
# Youngs Moduli (GPa) = 34.35543 79.45239 59.31496
#
# Poissons Ratio (x) = -0.50532 -0.10254
# Poissons Ratio (y) = -0.21850 -0.01133
# Poissons Ratio (z) = -0.05939 -0.01518
#
# Static dielectric constant tensor:
#      x y z
#    x 1.887410 0.000000 0.000000 
#    y 0.000000 1.916460 0.000000 
#    z 0.000000 0.000000 1.918870 
# 
# From -- ./inp_files/6935.got.cif
#   From: 2010.05.17/outbox.cif.g08.bks.cpg/sg58_4_cif.got.tgz:6935.got - 2010.06.03 14:20:14.
