data_PCOD9441281
_publ_section_title
;
Structure prediction by ZEFSAII (Michael W. Deem and Ramdas Pophale) SiO2 
 PCOD9441281
Probable space group: P N N M
;
_chemical_formula_sum "Si O2"
_cell_formula_units_Z 56
_cell_length_a 22.034834
_cell_length_b 9.738742
_cell_length_c 14.363928
_cell_angle_alpha 90.000000
_cell_angle_beta 90.000000
_cell_angle_gamma 90.000000
_cell_volume 3082.377765
_symmetry_space_group_name_H-M "P N N M"
_symmetry_group_IT_number 58
_symmetry_cell_setting 'orthorhombic'
loop_
_space_group_symop_operation_xyz
x,y,z
-x,-y,z
1/2+x,1/2-y,1/2-z
1/2-x,1/2+y,1/2-z
-x,-y,-z
x,y,-z
1/2-x,1/2+y,1/2+z
1/2+x,1/2-y,1/2+z
loop_
_atom_site_type_symbol
_atom_site_label
_atom_site_fract_x
_atom_site_fract_y
_atom_site_fract_z
Si Si1 0.225486 0.254704 0.890215
Si Si2 0.596026 0.721021 0.389020
Si Si3 0.988000 0.163479 0.393947
Si Si4 0.350989 0.397627 0.107235
Si Si5 0.881695 0.533663 0.889602
Si Si6 0.034812 0.252695 0.796410
Si Si7 0.855720 0.955374 0.207990
O O1 0.293991 0.300621 0.872353
O O2 0.180273 0.383031 0.871323
O O3 0.201263 0.127493 0.831203
O O4 0.219420 0.222205 0.000000
O O5 0.595260 0.699548 0.500000
O O6 0.527491 0.719914 0.349508
O O7 0.634239 0.602379 0.339527
O O8 0.621931 0.872790 0.369389
O O9 0.006219 0.195649 0.500000
O O10 0.915465 0.178592 0.384537
O O11 0.020688 0.247167 0.313338
O O12 0.000000 0.000000 0.379134
O O13 0.351396 0.519105 0.181950
O O14 0.345855 0.445366 0.000000
O O15 0.935063 0.607376 0.832383
O O16 0.895468 0.548579 0.000000
O O17 0.084982 0.135438 0.815173
#
# Coordination Sequence:
#
# PCOD9441281 Si02
#       7
#     8   8   8   8   8   8   8
#     4   9  20  38  57  81 113 146 185 234 286 338
#     4  11  21  33  53  82 116 153 187 226 284 347
#     4  10  18  32  55  84 114 146 194 244 282 331
#     4  10  20  36  57  81 112 151 189 232 288 339
#     4   9  20  36  54  79 115 155 187 223 282 353
#     4  11  19  33  53  82 115 144 185 234 284 331
#     4  11  21  34  57  86 110 142 190 238 280 327
#
# _framework density 18.167791999999999
#
# number of rings (size 3 to 8) (size 9 to 14) (size 15 to 20)
#    0.000    1.857    2.857    1.714    0.000    4.571 
#    0.000    0.000    0.000    3.429    0.000    0.000 
#    0.000    0.000    0.000    0.000    0.000    0.000 
#
# Total GULP energy -312620.466049 kJ/mol
# GULP energy per Si atom -5582.508322 kJ/mol
# Density = 1.812644 g / cm^3
# Si number density = 18.167792 Si / 1000 Ang^3
#
#
#
# Elastic Constant Matrix: (Units=GPa)
#
#
# Indices 1 2 3 4 5 6 
#
# 1 79.8141 39.3283 28.2386 0.0000 0.0000 0.0000
# 2 39.3283 99.1204 49.5605 0.0000 0.0000 0.0000
# 3 28.2386 49.5605 68.3204 0.0000 0.0000 0.0000
# 4 0.0000 0.0000 0.0000 21.3580 0.0000 0.0000
# 5 0.0000 0.0000 0.0000 0.0000 20.7671 0.0000
# 6 0.0000 0.0000 0.0000 0.0000 0.0000 16.0296
#
#
#
# Elastic Compliance Matrix: (Units=1/GPa)
#
#
# Indices 1 2 3 4 5 6 
#
# 1 0.015995 -0.004771 -0.003150 0.000000 0.000000 0.000000
# 2 -0.004771 0.017254 -0.010544 0.000000 0.000000 0.000000
# 3 -0.003150 -0.010544 0.023588 0.000000 0.000000 0.000000
# 4 0.000000 0.000000 0.000000 0.046821 0.000000 0.000000
# 5 0.000000 0.000000 0.000000 0.000000 0.048153 0.000000
# 6 0.000000 0.000000 0.000000 0.000000 0.000000 0.062385
#
#
# Mechanical properties :
#
#
# Convention : Reuss Voigt Hill
#
# Bulk Modulus (GPa) = 50.23684 53.50107 51.86895
# Shear Modulus (GPa) = 19.39783 20.30609 19.85196
#
# Velocity S-wave (km/s) = 3.27112 3.34682 3.30919
# Velocity P-wave (km/s) = 6.47909 6.66687 6.57365
#
# Compressibility (1/GPa) = 0.01990571
#
# Stress axis : x y z
#
# Youngs Moduli (GPa) = 62.52114 57.95762 42.39495
#
# Poissons Ratio (x) = 0.27653 0.13354
# Poissons Ratio (y) = 0.29831 0.44702
# Poissons Ratio (z) = 0.19693 0.61112
#
# Static dielectric constant tensor:
#      x y z
#    x 1.625010 0.000000 0.000000 
#    y 0.000000 1.604360 0.000000 
#    z 0.000000 0.000000 1.634750 
# 
# From -- ./inp_files/20150.got.cif
#   From: 2010.05.17/outbox.cif.g08.bks.cpg/sg58_11_cif.got.tgz:20150.got - 2010.06.03 14:20:14.
