data_PCOD9441262
_publ_section_title
;
Structure prediction by ZEFSAII (Michael W. Deem and Ramdas Pophale) SiO2 
 PCOD9441262
Probable space group: P N N M
;
_chemical_formula_sum "Si O2"
_cell_formula_units_Z 64
_cell_length_a 11.285496
_cell_length_b 17.728123
_cell_length_c 13.005198
_cell_angle_alpha 90.000000
_cell_angle_beta 90.000000
_cell_angle_gamma 90.000000
_cell_volume 2601.958563
_symmetry_space_group_name_H-M "P N N M"
_symmetry_group_IT_number 58
_symmetry_cell_setting 'orthorhombic'
loop_
_space_group_symop_operation_xyz
x,y,z
-x,-y,z
1/2+x,1/2-y,1/2-z
1/2-x,1/2+y,1/2-z
-x,-y,-z
x,y,-z
1/2-x,1/2+y,1/2+z
1/2+x,1/2-y,1/2+z
loop_
_atom_site_type_symbol
_atom_site_label
_atom_site_fract_x
_atom_site_fract_y
_atom_site_fract_z
Si Si1 0.130699 0.793828 0.615404
Si Si2 0.763500 0.297244 0.770524
Si Si3 0.957858 0.653732 0.332516
Si Si4 0.194210 0.960913 0.264152
Si Si5 0.075797 0.421708 0.118603
Si Si6 0.181831 0.832908 0.115339
Si Si7 0.420395 0.598499 0.119545
Si Si8 0.665952 0.932839 0.117155
O O1 0.171812 0.784053 0.500000
O O2 0.239605 0.773158 0.689980
O O3 0.033076 0.728620 0.640034
O O4 0.055353 0.871069 0.620484
O O5 0.847434 0.253263 0.852141
O O6 0.659618 0.333267 0.837245
O O7 0.792829 0.364947 0.692806
O O8 0.963303 0.633087 0.211335
O O9 0.825450 0.663711 0.374206
O O10 0.026073 0.583857 0.384557
O O11 0.114478 0.027326 0.310933
O O12 0.283383 0.996393 0.177634
O O13 0.286594 0.937514 0.353830
O O14 0.134593 0.895100 0.195031
O O15 0.000000 0.500000 0.128324
O O16 0.062892 0.396680 0.000000
O O17 0.144928 0.849062 0.000000
O O18 0.391830 0.582623 0.000000
O O19 0.710199 0.929318 0.000000
#
# Coordination Sequence:
#
# PCOD9441262 Si02
#       8
#     8   8   8   8   8   8   8   8
#     4  10  20  38  62  85 111 148 194 245 289 333
#     4  10  20  34  57  87 115 145 185 241 286 340
#     4  10  18  32  54  84 109 143 186 231 279 343
#     4  10  21  35  55  81 110 153 194 238 279 342
#     4  10  19  32  46  72 117 154 182 220 282 345
#     4  11  21  35  57  83 114 148 184 233 287 343
#     4  10  20  38  63  85 111 151 197 237 285 345
#     4  10  19  34  54  81 113 148 186 234 289 339
#
# _framework density 24.596857
#
# number of rings (size 3 to 8) (size 9 to 14) (size 15 to 20)
#    0.000    1.875    2.500    3.375    0.000    0.000 
#    0.000   11.250    0.000   11.250    0.000    0.000 
#    0.000    0.000    0.000    0.000    0.000    0.000 
#
# Total GULP energy -357023.821145 kJ/mol
# GULP energy per Si atom -5578.497205 kJ/mol
# Density = 2.454087 g / cm^3
# Si number density = 24.596857 Si / 1000 Ang^3
#
#
#
# Elastic Constant Matrix: (Units=GPa)
#
#
# Indices 1 2 3 4 5 6 
#
# 1 53.7720 21.2558 31.8524 0.0000 0.0000 0.0000
# 2 21.2558 104.2596 24.8567 0.0000 0.0000 0.0000
# 3 31.8524 24.8567 197.9686 0.0000 0.0000 0.0000
# 4 0.0000 0.0000 0.0000 23.9271 0.0000 0.0000
# 5 0.0000 0.0000 0.0000 0.0000 20.5732 0.0000
# 6 0.0000 0.0000 0.0000 0.0000 0.0000 35.2585
#
#
#
# Elastic Compliance Matrix: (Units=1/GPa)
#
#
# Indices 1 2 3 4 5 6 
#
# 1 0.021881 -0.003733 -0.003052 0.000000 0.000000 0.000000
# 2 -0.003733 0.010524 -0.000721 0.000000 0.000000 0.000000
# 3 -0.003052 -0.000721 0.005633 0.000000 0.000000 0.000000
# 4 0.000000 0.000000 0.000000 0.041794 0.000000 0.000000
# 5 0.000000 0.000000 0.000000 0.000000 0.048607 0.000000
# 6 0.000000 0.000000 0.000000 0.000000 0.000000 0.028362
#
#
# Mechanical properties :
#
#
# Convention : Reuss Voigt Hill
#
# Bulk Modulus (GPa) = 43.42887 56.88110 50.15499
# Shear Modulus (GPa) = 27.85712 34.48744 31.17228
#
# Velocity S-wave (km/s) = 3.36899 3.74854 3.56382
# Velocity P-wave (km/s) = 5.72957 6.47386 6.11306
#
# Compressibility (1/GPa) = 0.02302615
#
# Stress axis : x y z
#
# Youngs Moduli (GPa) = 45.70274 95.01734 177.53108
#
# Poissons Ratio (x) = 0.35473 0.54178
# Poissons Ratio (y) = 0.17062 0.12796
# Poissons Ratio (z) = 0.13947 0.06848
#
# Static dielectric constant tensor:
#      x y z
#    x 2.037210 0.000000 0.000000 
#    y 0.000000 2.119770 0.000000 
#    z 0.000000 0.000000 1.966490 
# 
# From -- ./inp_files/15918.got.cif
#   From: 2010.05.17/outbox.cif.g08.bks.cpg/sg58_8_cif.got.tgz:15918.got - 2010.06.03 14:20:14.
