data_PCOD9441875
_publ_section_title
;
Structure prediction by ZEFSAII (Michael W. Deem and Ramdas Pophale) SiO2 
 PCOD9441875
Probable space group: P N N M
;
_chemical_formula_sum "Si O2"
_cell_formula_units_Z 48
_cell_length_a 17.249820
_cell_length_b 18.509096
_cell_length_c 8.053711
_cell_angle_alpha 90.000000
_cell_angle_beta 90.000000
_cell_angle_gamma 90.000000
_cell_volume 2571.377366
_symmetry_space_group_name_H-M "P N N M"
_symmetry_group_IT_number 58
_symmetry_cell_setting 'orthorhombic'
loop_
_space_group_symop_operation_xyz
x,y,z
-x,-y,z
1/2+x,1/2-y,1/2-z
1/2-x,1/2+y,1/2-z
-x,-y,-z
x,y,-z
1/2-x,1/2+y,1/2+z
1/2+x,1/2-y,1/2+z
loop_
_atom_site_type_symbol
_atom_site_label
_atom_site_fract_x
_atom_site_fract_y
_atom_site_fract_z
Si Si1 0.679064 0.094386 0.702127
Si Si2 0.507582 0.083907 0.703040
Si Si3 0.915742 0.024214 0.802593
Si Si4 0.167888 0.830371 0.697134
Si Si5 0.857045 0.330822 0.198520
Si Si6 0.262952 0.554122 0.200436
O O1 0.678652 0.096789 0.500000
O O2 0.592258 0.110102 0.758997
O O3 0.746698 0.147298 0.761894
O O4 0.706825 0.013318 0.745246
O O5 0.507027 0.086105 0.500000
O O6 0.434659 0.130085 0.762823
O O7 0.500000 0.000000 0.749327
O O8 0.887132 0.101360 0.733934
O O9 0.848033 0.966194 0.764849
O O10 0.921278 0.032155 0.000000
O O11 0.000000 0.000000 0.738167
O O12 0.172910 0.823003 0.500000
O O13 0.142499 0.753735 0.766536
O O14 0.780210 0.373374 0.259222
O O15 0.857129 0.340927 0.000000
O O16 0.268747 0.555106 0.000000
#
# Coordination Sequence:
#
# PCOD9441875 Si02
#       6
#     8   8   8   8   8   8
#     4   8  14  28  49  74  98 131 174 208 248 304
#     4   9  14  25  51  81 104 129 170 216 253 301
#     4  10  21  38  59  80 101 133 184 234 272 319
#     4  10  21  36  54  75 108 145 177 218 268 319
#     4  10  19  32  53  81 112 142 175 217 262 314
#     4   9  17  31  54  80 106 138 173 211 265 323
#
# _framework density 18.667038000000002
#
# number of rings (size 3 to 8) (size 9 to 14) (size 15 to 20)
#    0.000    2.667    1.667    2.000    0.000    2.000 
#    3.000    0.000    0.000    4.500    0.000    0.000 
#    0.000    0.000    0.000    0.000    0.000    0.000 
#
# Total GULP energy -267575.850175 kJ/mol
# GULP energy per Si atom -5574.496879 kJ/mol
# Density = 1.862455 g / cm^3
# Si number density = 18.667038 Si / 1000 Ang^3
#
#
#
# Elastic Constant Matrix: (Units=GPa)
#
#
# Indices 1 2 3 4 5 6 
#
# 1 158.0710 69.1988 -3.4665 0.0000 0.0000 0.0000
# 2 69.1988 93.9676 -10.7716 0.0000 0.0000 0.0000
# 3 -3.4665 -10.7716 5.7369 0.0000 0.0000 0.0000
# 4 0.0000 0.0000 0.0000 75.1799 0.0000 0.0000
# 5 0.0000 0.0000 0.0000 0.0000 -26.1890 0.0000
# 6 0.0000 0.0000 0.0000 0.0000 0.0000 23.5216
#
#
#
# Elastic Compliance Matrix: (Units=1/GPa)
#
#
# Indices 1 2 3 4 5 6 
#
# 1 0.009739 -0.008279 -0.009660 0.000000 0.000000 0.000000
# 2 -0.008279 0.020599 0.033674 0.000000 0.000000 0.000000
# 3 -0.009660 0.033674 0.231702 0.000000 0.000000 0.000000
# 4 0.000000 0.000000 0.000000 0.013301 0.000000 0.000000
# 5 0.000000 0.000000 0.000000 0.000000 -0.038184 0.000000
# 6 0.000000 0.000000 0.000000 0.000000 0.000000 0.042514
#
#
# Mechanical properties :
#
#
# Convention : Reuss Voigt Hill
#
# Bulk Modulus (GPa) = 3.40705 40.85522 22.13113
# Shear Modulus (GPa) = 14.44927 28.02348 21.23637
#
# Velocity S-wave (km/s) = 2.78520 3.87877 3.37655
# Velocity P-wave (km/s) = 3.48887 6.48025 5.20413
#
# Compressibility (1/GPa) = 0.29350938
#
# Stress axis : x y z
#
# Youngs Moduli (GPa) = 102.68226 48.54615 4.31589
#
# Poissons Ratio (x) = 0.40192 0.04169
# Poissons Ratio (y) = 0.85012 -0.14533
# Poissons Ratio (z) = 0.99196 -1.63476
#
# Static dielectric constant tensor:
#      x y z
#    x 1.668470 0.000000 0.000000 
#    y 0.000000 1.625390 0.000000 
#    z 0.000000 0.000000 1.669540 
# 
# From -- ./inp_files/7857.got.cif
#   From: 2010.05.17/outbox.cif.g08.bks.cpg/sg58_4_cif.got.tgz:7857.got - 2010.06.03 14:20:14.
