data_PCOD9441009
_publ_section_title
;
Structure prediction by ZEFSAII (Michael W. Deem and Ramdas Pophale) SiO2 
 PCOD9441009
Probable space group: P N N M
;
_chemical_formula_sum "Si O2"
_cell_formula_units_Z 64
_cell_length_a 22.095043
_cell_length_b 19.104498
_cell_length_c 9.249028
_cell_angle_alpha 90.000000
_cell_angle_beta 90.000000
_cell_angle_gamma 90.000000
_cell_volume 3904.150724
_symmetry_space_group_name_H-M "P N N M"
_symmetry_group_IT_number 58
_symmetry_cell_setting 'orthorhombic'
loop_
_space_group_symop_operation_xyz
x,y,z
-x,-y,z
1/2+x,1/2-y,1/2-z
1/2-x,1/2+y,1/2-z
-x,-y,-z
x,y,-z
1/2-x,1/2+y,1/2+z
1/2+x,1/2-y,1/2+z
loop_
_atom_site_type_symbol
_atom_site_label
_atom_site_fract_x
_atom_site_fract_y
_atom_site_fract_z
Si Si1 0.013789 0.420314 0.672391
Si Si2 0.917345 0.323385 0.827480
Si Si3 0.190490 0.573915 0.825834
Si Si4 0.818922 0.965762 0.334158
Si Si5 0.764721 0.124163 0.666709
Si Si6 0.880171 0.171043 0.826445
Si Si7 0.067828 0.981218 0.173565
Si Si8 0.846738 0.569753 0.672440
O O1 0.003169 0.417357 0.500000
O O2 0.969541 0.366652 0.749702
O O3 0.000000 0.500000 0.719835
O O4 0.084561 0.407020 0.699308
O O5 0.852831 0.360630 0.796158
O O6 0.914604 0.241997 0.786591
O O7 0.926397 0.327932 0.000000
O O8 0.261462 0.580759 0.785341
O O9 0.163474 0.506799 0.742981
O O10 0.189451 0.560394 0.000000
O O11 0.833832 0.948394 0.500000
O O12 0.790809 0.044418 0.331527
O O13 0.879685 0.970453 0.241353
O O14 0.756289 0.144241 0.500000
O O15 0.815856 0.168580 0.746644
O O16 0.702304 0.120030 0.753679
O O17 0.915687 0.099466 0.790278
O O18 0.870579 0.171312 0.000000
O O19 0.070351 0.987911 0.000000
O O20 0.000000 0.000000 0.221578
O O21 0.836908 0.565330 0.500000
#
# Coordination Sequence:
#
# PCOD9441009 Si02
#       8
#     8   8   8   8   8   8   8   8
#     4  10  20  33  47  71 104 136 172 212 248 293
#     4  10  20  32  50  72  97 135 171 207 251 303
#     4   9  17  29  45  69  97 124 158 200 245 288
#     4   8  15  27  44  68  94 115 143 189 236 284
#     4   9  17  30  49  72  95 120 155 202 248 291
#     4   9  18  33  51  73  98 128 167 205 253 309
#     4   9  17  30  50  73  95 122 158 202 245 289
#     4  10  18  29  48  71  97 128 163 205 247 286
#
# _framework density 16.392809
#
# number of rings (size 3 to 8) (size 9 to 14) (size 15 to 20)
#    0.000    2.750    1.250    1.500    0.000    5.000 
#    0.000    0.000    2.750    0.000    0.000    0.000 
#    0.000    0.000    0.000    0.000    0.000    0.000 
#
# Total GULP energy -356508.966792 kJ/mol
# GULP energy per Si atom -5570.452606 kJ/mol
# Density = 1.635550 g / cm^3
# Si number density = 16.392809 Si / 1000 Ang^3
#
#
#
# Elastic Constant Matrix: (Units=GPa)
#
#
# Indices 1 2 3 4 5 6 
#
# 1 141.7906 48.8621 58.1036 0.0000 0.0000 0.0000
# 2 48.8621 57.9244 30.9923 0.0000 0.0000 0.0000
# 3 58.1036 30.9923 40.3577 0.0000 0.0000 0.0000
# 4 0.0000 0.0000 0.0000 14.9158 0.0000 0.0000
# 5 0.0000 0.0000 0.0000 0.0000 30.6003 0.0000
# 6 0.0000 0.0000 0.0000 0.0000 0.0000 22.8163
#
#
#
# Elastic Compliance Matrix: (Units=1/GPa)
#
#
# Indices 1 2 3 4 5 6 
#
# 1 0.017358 -0.002158 -0.023333 0.000000 0.000000 0.000000
# 2 -0.002158 0.029573 -0.019604 0.000000 0.000000 0.000000
# 3 -0.023333 -0.019604 0.073426 0.000000 0.000000 0.000000
# 4 0.000000 0.000000 0.000000 0.067043 0.000000 0.000000
# 5 0.000000 0.000000 0.000000 0.000000 0.032679 0.000000
# 6 0.000000 0.000000 0.000000 0.000000 0.000000 0.043828
#
#
# Mechanical properties :
#
#
# Convention : Reuss Voigt Hill
#
# Bulk Modulus (GPa) = 33.14829 57.33208 45.24018
# Shear Modulus (GPa) = 13.73046 20.47413 17.10229
#
# Velocity S-wave (km/s) = 2.89726 3.53791 3.23349
# Velocity P-wave (km/s) = 5.60868 7.19298 6.44966
#
# Compressibility (1/GPa) = 0.03016747
#
# Stress axis : x y z
#
# Youngs Moduli (GPa) = 57.61065 33.81460 13.61906
#
# Poissons Ratio (x) = 0.07296 0.31778
# Poissons Ratio (y) = 0.12431 0.26699
# Poissons Ratio (z) = 1.34425 0.66289
#
# Static dielectric constant tensor:
#      x y z
#    x 1.556230 0.000000 0.000000 
#    y 0.000000 1.539980 0.000000 
#    z 0.000000 0.000000 1.549950 
# 
# From -- ./inp_files/8385.got.cif
#   From: 2010.05.17/outbox.cif.g08.bks.cpg/sg58_5_cif.got.tgz:8385.got - 2010.06.03 14:20:14.
