data_PCOD9441991
_publ_section_title
;
Structure prediction by ZEFSAII (Michael W. Deem and Ramdas Pophale) SiO2 
 PCOD9441991
Probable space group: P N N M
;
_chemical_formula_sum "Si O2"
_cell_formula_units_Z 56
_cell_length_a 13.036851
_cell_length_b 14.750160
_cell_length_c 17.417764
_cell_angle_alpha 90.000000
_cell_angle_beta 90.000000
_cell_angle_gamma 90.000000
_cell_volume 3349.360043
_symmetry_space_group_name_H-M "P N N M"
_symmetry_group_IT_number 58
_symmetry_cell_setting 'orthorhombic'
loop_
_space_group_symop_operation_xyz
x,y,z
-x,-y,z
1/2+x,1/2-y,1/2-z
1/2-x,1/2+y,1/2-z
-x,-y,-z
x,y,-z
1/2-x,1/2+y,1/2+z
1/2+x,1/2-y,1/2+z
loop_
_atom_site_type_symbol
_atom_site_label
_atom_site_fract_x
_atom_site_fract_y
_atom_site_fract_z
Si Si1 0.885494 0.405882 0.407994
Si Si2 0.192049 0.221050 0.592641
Si Si3 0.006797 0.895955 0.593304
Si Si4 0.116197 0.594818 0.092205
Si Si5 0.107336 0.396763 0.158759
Si Si6 0.290330 0.285174 0.907430
Si Si7 0.614445 0.097755 0.158512
O O1 0.889335 0.415040 0.500000
O O2 0.817551 0.318579 0.388678
O O3 0.848856 0.499798 0.371113
O O4 0.001344 0.389256 0.378460
O O5 0.188291 0.231439 0.500000
O O6 0.293922 0.164828 0.612030
O O7 0.183741 0.319166 0.630748
O O8 0.092290 0.162390 0.616340
O O9 0.006229 0.897329 0.500000
O O10 0.111949 0.846649 0.616095
O O11 0.000000 0.000000 0.619542
O O12 0.139514 0.494454 0.124068
O O13 0.006367 0.621955 0.126649
O O14 0.108693 0.589274 0.000000
O O15 0.188722 0.322823 0.131490
O O16 0.104230 0.403382 0.250222
O O17 0.280234 0.292339 0.000000
#
# Coordination Sequence:
#
# PCOD9441991 Si02
#       7
#     8   8   8   8   8   8   8
#     4  10  19  34  57  79 104 137 184 229 257 303
#     4  10  19  34  55  78 102 135 177 222 265 305
#     4   9  16  28  49  77 103 126 163 217 270 307
#     4  10  20  36  57  76 103 139 183 223 250 310
#     4  11  22  34  51  79 111 144 171 208 266 324
#     4  10  19  33  54  77 103 137 177 221 260 305
#     4  11  21  33  52  79 111 143 168 218 268 322
#
# _framework density 16.719612000000001
#
# number of rings (size 3 to 8) (size 9 to 14) (size 15 to 20)
#    0.000    1.857    1.429    6.000    0.000    4.571 
#    0.000    0.000    0.000    0.857    0.000    4.000 
#    0.000    0.000    0.000    0.000    0.000    0.000 
#
# Total GULP energy -312618.159807 kJ/mol
# GULP energy per Si atom -5582.467139 kJ/mol
# Density = 1.668156 g / cm^3
# Si number density = 16.719612 Si / 1000 Ang^3
#
#
#
# Elastic Constant Matrix: (Units=GPa)
#
#
# Indices 1 2 3 4 5 6 
#
# 1 77.0928 66.7221 37.8007 0.0000 0.0000 0.0000
# 2 66.7221 129.5658 45.7524 0.0000 0.0000 0.0000
# 3 37.8007 45.7524 65.3861 0.0000 0.0000 0.0000
# 4 0.0000 0.0000 0.0000 -3.4787 0.0000 0.0000
# 5 0.0000 0.0000 0.0000 0.0000 -15.5705 0.0000
# 6 0.0000 0.0000 0.0000 0.0000 0.0000 22.1805
#
#
#
# Elastic Compliance Matrix: (Units=1/GPa)
#
#
# Indices 1 2 3 4 5 6 
#
# 1 0.025897 -0.010691 -0.007491 0.000000 0.000000 0.000000
# 2 -0.010691 0.014665 -0.004081 0.000000 0.000000 0.000000
# 3 -0.007491 -0.004081 0.022480 0.000000 0.000000 0.000000
# 4 0.000000 0.000000 0.000000 -0.287466 0.000000 0.000000
# 5 0.000000 0.000000 0.000000 0.000000 -0.064224 0.000000
# 6 0.000000 0.000000 0.000000 0.000000 0.000000 0.045085
#
#
# Mechanical properties :
#
#
# Convention : Reuss Voigt Hill
#
# Bulk Modulus (GPa) = 54.00551 63.62169 58.81360
# Shear Modulus (GPa) = -25.92453 8.74422 -8.59016
#
# Velocity S-wave (km/s) = -3.94197 2.28938 -2.26912
# Velocity P-wave (km/s) = 3.41350 6.71737 5.32800
#
# Compressibility (1/GPa) = 0.01851663
#
# Stress axis : x y z
#
# Youngs Moduli (GPa) = 38.61429 68.19176 44.48488
#
# Poissons Ratio (x) = 0.72904 0.33323
# Poissons Ratio (y) = 0.41283 0.18152
# Poissons Ratio (z) = 0.28925 0.27826
#
# Static dielectric constant tensor:
#      x y z
#    x 1.546930 0.000000 0.000000 
#    y 0.000000 1.559090 0.000000 
#    z 0.000000 0.000000 1.546640 
# 
# From -- ./inp_files/21282.got.cif
#   From: 2010.05.17/outbox.cif.g08.bks.cpg/sg58_11_cif.got.tgz:21282.got - 2010.06.03 14:20:14.
