data_PCOD9441148
_publ_section_title
;
Structure prediction by ZEFSAII (Michael W. Deem and Ramdas Pophale) SiO2 
 PCOD9441148
Probable space group: P N N M
;
_chemical_formula_sum "Si O2"
_cell_formula_units_Z 58
_cell_length_a 14.749911
_cell_length_b 25.365165
_cell_length_c 7.554923
_cell_angle_alpha 90.000000
_cell_angle_beta 90.000000
_cell_angle_gamma 90.000000
_cell_volume 2826.553005
_symmetry_space_group_name_H-M "P N N M"
_symmetry_group_IT_number 58
_symmetry_cell_setting 'orthorhombic'
loop_
_space_group_symop_operation_xyz
x,y,z
-x,-y,z
1/2+x,1/2-y,1/2-z
1/2-x,1/2+y,1/2-z
-x,-y,-z
x,y,-z
1/2-x,1/2+y,1/2+z
1/2+x,1/2-y,1/2+z
loop_
_atom_site_type_symbol
_atom_site_label
_atom_site_fract_x
_atom_site_fract_y
_atom_site_fract_z
Si Si1 0.292859 0.007413 0.794312
Si Si2 0.052588 0.722235 0.782927
Si Si3 0.117048 0.941703 0.216762
Si Si4 0.635987 0.175341 0.709085
Si Si5 0.162242 0.821312 0.211361
Si Si6 0.000000 0.000000 0.500000
Si Si7 0.058353 0.431753 0.701934
Si Si8 0.868125 0.385682 0.200038
O O1 0.302591 0.070124 0.780003
O O2 0.199992 0.981293 0.730701
O O3 0.383108 0.979282 0.718388
O O4 0.296944 0.992667 0.000000
O O5 0.092028 0.777639 0.721317
O O6 0.113449 0.672241 0.721638
O O7 0.948785 0.710704 0.730883
O O8 0.054730 0.721174 0.000000
O O9 0.144896 0.881735 0.263010
O O10 0.035262 0.959311 0.341407
O O11 0.102411 0.945251 0.000000
O O12 0.625095 0.166625 0.500000
O O13 0.735980 0.196026 0.742229
O O14 0.625137 0.118367 0.798204
O O15 0.155125 0.821138 0.000000
O O16 0.029360 0.443123 0.500000
O O17 0.968256 0.412002 0.797220
O O18 0.837113 0.378297 0.000000
#
# Coordination Sequence:
#
# PCOD9441148 Si02
#       8
#     8   8   8   8   8   2   8   8
#     4  10  20  34  53  82 116 153 202 244 295 365
#     4   8  18  36  55  81 119 161 196 249 312 375
#     4  10  23  42  67  95 119 161 211 263 316 371
#     4  10  19  32  55  87 118 145 195 256 304 366
#     4  10  19  38  65  85 115 159 205 250 310 371
#     4  12  26  44  68  90 126 152 198 264 326 356
#     4  10  18  31  51  79 115 153 190 231 286 355
#     4  10  20  32  50  81 122 160 191 233 302 362
#
# _framework density 20.519693
#
# number of rings (size 3 to 8) (size 9 to 14) (size 15 to 20)
#    0.000    2.207    1.379    2.690    1.931    2.759 
#    0.000    5.517    3.034    3.310    0.000    0.000 
#    0.000    0.000    0.000    0.000    0.000    0.000 
#
# Total GULP energy -322900.364511 kJ/mol
# GULP energy per Si atom -5567.247664 kJ/mol
# Density = 2.047299 g / cm^3
# Si number density = 20.519693 Si / 1000 Ang^3
#
#
#
# Elastic Constant Matrix: (Units=GPa)
#
#
# Indices 1 2 3 4 5 6 
#
# 1 45.2031 59.6637 7.4909 0.0000 0.0000 0.0000
# 2 59.6637 101.4331 20.5054 0.0000 0.0000 0.0000
# 3 7.4909 20.5054 60.8060 0.0000 0.0000 0.0000
# 4 0.0000 0.0000 0.0000 14.9489 0.0000 0.0000
# 5 0.0000 0.0000 0.0000 0.0000 14.6906 0.0000
# 6 0.0000 0.0000 0.0000 0.0000 0.0000 35.8225
#
#
#
# Elastic Compliance Matrix: (Units=1/GPa)
#
#
# Indices 1 2 3 4 5 6 
#
# 1 0.102672 -0.062066 0.008282 0.000000 0.000000 0.000000
# 2 -0.062066 0.048100 -0.008574 0.000000 0.000000 0.000000
# 3 0.008282 -0.008574 0.018317 0.000000 0.000000 0.000000
# 4 0.000000 0.000000 0.000000 0.066895 0.000000 0.000000
# 5 0.000000 0.000000 0.000000 0.000000 0.068071 0.000000
# 6 0.000000 0.000000 0.000000 0.000000 0.000000 0.027915
#
#
# Mechanical properties :
#
#
# Convention : Reuss Voigt Hill
#
# Bulk Modulus (GPa) = 22.53733 42.52914 32.53323
# Shear Modulus (GPa) = 10.60496 21.07788 15.84142
#
# Velocity S-wave (km/s) = 2.27583 3.20848 2.78152
# Velocity P-wave (km/s) = 4.23237 5.87340 5.11907
#
# Compressibility (1/GPa) = 0.04437083
#
# Stress axis : x y z
#
# Youngs Moduli (GPa) = 9.73979 20.79001 54.59417
#
# Poissons Ratio (x) = 1.29036 -0.45215
# Poissons Ratio (y) = 0.60451 0.46811
# Poissons Ratio (z) = -0.08066 0.17826
#
# Static dielectric constant tensor:
#      x y z
#    x 1.750650 0.000000 0.000000 
#    y 0.000000 1.747290 0.000000 
#    z 0.000000 0.000000 1.766450 
# 
# From -- ./inp_files/6717.got.cif
#   From: 2010.05.17/outbox.cif.g08.bks.cpg/sg58_4_cif.got.tgz:6717.got - 2010.06.03 14:20:14.
