data_PCOD9441478
_publ_section_title
;
Structure prediction by ZEFSAII (Michael W. Deem and Ramdas Pophale) SiO2 
 PCOD9441478
Probable space group: P N N M
;
_chemical_formula_sum "Si O2"
_cell_formula_units_Z 48
_cell_length_a 18.891649
_cell_length_b 9.461455
_cell_length_c 14.949278
_cell_angle_alpha 90.000000
_cell_angle_beta 90.000000
_cell_angle_gamma 90.000000
_cell_volume 2672.071127
_symmetry_space_group_name_H-M "P N N M"
_symmetry_group_IT_number 58
_symmetry_cell_setting 'orthorhombic'
loop_
_space_group_symop_operation_xyz
x,y,z
-x,-y,z
1/2+x,1/2-y,1/2-z
1/2-x,1/2+y,1/2-z
-x,-y,-z
x,y,-z
1/2-x,1/2+y,1/2+z
1/2+x,1/2-y,1/2+z
loop_
_atom_site_type_symbol
_atom_site_label
_atom_site_fract_x
_atom_site_fract_y
_atom_site_fract_z
Si Si1 0.791052 0.379079 0.000000
Si Si2 0.452893 0.874028 0.657687
Si Si3 0.370678 0.392926 0.500000
Si Si4 0.681077 0.977543 0.699564
Si Si5 0.365578 0.728343 0.500000
Si Si6 0.314588 0.314803 0.802592
Si Si7 0.707732 0.638860 0.000000
Si Si8 0.552342 0.630775 0.687818
O O1 0.802292 0.210282 0.000000
O O2 0.824297 0.429370 0.905282
O O3 0.717571 0.467398 0.000000
O O4 0.410354 0.781021 0.585196
O O5 0.507380 0.771092 0.706722
O O6 0.500000 0.000000 0.616272
O O7 0.392967 0.945793 0.718708
O O8 0.355907 0.559900 0.500000
O O9 0.416802 0.359155 0.587478
O O10 0.694701 0.839342 0.758752
O O11 0.745006 0.088224 0.709320
O O12 0.288383 0.800046 0.500000
O O13 0.326819 0.310031 0.908707
O O14 0.380999 0.382937 0.752464
O O15 0.500000 0.500000 0.693412
#
# Coordination Sequence:
#
# PCOD9441478 Si02
#       8
#     4   8   4   8   4   8   4   8
#     4  10  18  39  59  92 119 161 194 243 314 380
#     4  12  21  38  58  91 128 161 198 248 321 387
#     4  12  22  36  55  98 140 157 191 245 328 395
#     4  11  23  39  64  88 126 164 206 256 314 388
#     4  12  22  36  59  95 133 165 193 252 324 397
#     4  11  24  42  62  90 123 170 219 257 310 374
#     4  10  24  42  65  85 123 175 218 257 308 369
#     4  12  25  38  60  94 131 167 204 261 318 387
#
# _framework density 17.963594000000001
#
# number of rings (size 3 to 8) (size 9 to 14) (size 15 to 20)
#    0.000    0.667    8.333    1.000    4.667    0.000 
#    0.000    0.417    0.000    2.000    0.000    0.000 
#    0.000    0.000    0.000    0.000    0.000    0.000 
#
# Total GULP energy -267898.471497 kJ/mol
# GULP energy per Si atom -5581.218156 kJ/mol
# Density = 1.792271 g / cm^3
# Si number density = 17.963594 Si / 1000 Ang^3
#
#
#
# Elastic Constant Matrix: (Units=GPa)
#
#
# Indices 1 2 3 4 5 6 
#
# 1 98.9291 44.7111 51.6864 0.0000 0.0000 0.0000
# 2 44.7111 140.5410 39.5552 0.0000 0.0000 0.0000
# 3 51.6864 39.5552 103.8395 0.0000 0.0000 0.0000
# 4 0.0000 0.0000 0.0000 28.9957 0.0000 0.0000
# 5 0.0000 0.0000 0.0000 0.0000 4.4282 0.0000
# 6 0.0000 0.0000 0.0000 0.0000 0.0000 40.9001
#
#
#
# Elastic Compliance Matrix: (Units=1/GPa)
#
#
# Indices 1 2 3 4 5 6 
#
# 1 0.014660 -0.002924 -0.006183 0.000000 0.000000 0.000000
# 2 -0.002924 0.008553 -0.001803 0.000000 0.000000 0.000000
# 3 -0.006183 -0.001803 0.013395 0.000000 0.000000 0.000000
# 4 0.000000 0.000000 0.000000 0.034488 0.000000 0.000000
# 5 0.000000 0.000000 0.000000 0.000000 0.225825 0.000000
# 6 0.000000 0.000000 0.000000 0.000000 0.000000 0.024450
#
#
# Mechanical properties :
#
#
# Convention : Reuss Voigt Hill
#
# Bulk Modulus (GPa) = 67.62169 68.35723 67.98946
# Shear Modulus (GPa) = 14.36289 28.68859 21.52574
#
# Velocity S-wave (km/s) = 2.83071 4.00063 3.46540
# Velocity P-wave (km/s) = 6.95768 7.71206 7.34456
#
# Compressibility (1/GPa) = 0.01478815
#
# Stress axis : x y z
#
# Youngs Moduli (GPa) = 68.21195 116.92007 74.65572
#
# Poissons Ratio (x) = 0.34183 0.46163
# Poissons Ratio (y) = 0.19942 0.13459
# Poissons Ratio (z) = 0.42179 0.21078
#
# Static dielectric constant tensor:
#      x y z
#    x 1.607510 0.000000 0.000000 
#    y 0.000000 1.656360 0.000000 
#    z 0.000000 0.000000 1.605600 
# 
# From -- ./inp_files/19915.got.cif
#   From: 2010.05.17/outbox.cif.g08.bks.cpg/sg58_10_cif.got.tgz:19915.got - 2010.06.03 14:20:14.
