data_PCOD9441775
_publ_section_title
;
Structure prediction by ZEFSAII (Michael W. Deem and Ramdas Pophale) SiO2 
 PCOD9441775
Probable space group: P N N M
;
_chemical_formula_sum "Si O2"
_cell_formula_units_Z 48
_cell_length_a 24.325292
_cell_length_b 14.185637
_cell_length_c 8.634590
_cell_angle_alpha 90.000000
_cell_angle_beta 90.000000
_cell_angle_gamma 90.000000
_cell_volume 2979.535918
_symmetry_space_group_name_H-M "P N N M"
_symmetry_group_IT_number 58
_symmetry_cell_setting 'orthorhombic'
loop_
_space_group_symop_operation_xyz
x,y,z
-x,-y,z
1/2+x,1/2-y,1/2-z
1/2-x,1/2+y,1/2-z
-x,-y,-z
x,y,-z
1/2-x,1/2+y,1/2+z
1/2+x,1/2-y,1/2+z
loop_
_atom_site_type_symbol
_atom_site_label
_atom_site_fract_x
_atom_site_fract_y
_atom_site_fract_z
Si Si1 0.334930 0.221085 0.313718
Si Si2 0.060954 0.397532 0.684499
Si Si3 0.336486 0.788144 0.314418
Si Si4 0.724042 0.387985 0.812666
Si Si5 0.441359 0.106709 0.686496
Si Si6 0.725257 0.603688 0.813503
O O1 0.335344 0.226240 0.500000
O O2 0.284437 0.151915 0.269701
O O3 0.392648 0.176567 0.263928
O O4 0.319753 0.323237 0.248297
O O5 0.059975 0.405678 0.500000
O O6 0.108254 0.327030 0.739074
O O7 0.071838 0.500765 0.757342
O O8 0.000715 0.368086 0.744666
O O9 0.341219 0.791342 0.500000
O O10 0.319581 0.683935 0.259636
O O11 0.284975 0.855018 0.267110
O O12 0.717986 0.496069 0.762313
O O13 0.719931 0.384194 0.000000
O O14 0.444552 0.106094 0.500000
O O15 0.723849 0.604846 0.000000
#
# Coordination Sequence:
#
# PCOD9441775 Si02
#       6
#     8   8   8   8   8   8
#     4   9  18  31  49  71  97 126 158 193 233 279
#     4  11  21  32  48  72  98 126 159 198 238 281
#     4  10  19  32  49  71  97 128 161 194 234 283
#     4   9  17  31  48  70  98 127 157 193 233 277
#     4  10  19  33  51  71  97 129 159 194 237 284
#     4   9  18  31  49  71  98 128 159 194 236 282
#
# _framework density 16.109891999999999
#
# number of rings (size 3 to 8) (size 9 to 14) (size 15 to 20)
#    0.000    2.333    0.000    4.500    0.000    5.333 
#    0.000    3.333    0.000    1.000    0.000    7.000 
#    0.000    0.000    0.000    0.000    0.000    0.000 
#
# Total GULP energy -267794.016149 kJ/mol
# GULP energy per Si atom -5579.042003 kJ/mol
# Density = 1.607323 g / cm^3
# Si number density = 16.109892 Si / 1000 Ang^3
#
#
#
# Elastic Constant Matrix: (Units=GPa)
#
#
# Indices 1 2 3 4 5 6 
#
# 1 112.6018 83.9540 27.6548 0.0000 0.0000 0.0000
# 2 83.9540 141.6226 28.9093 0.0000 0.0000 0.0000
# 3 27.6548 28.9093 39.0041 0.0000 0.0000 0.0000
# 4 0.0000 0.0000 0.0000 27.5795 0.0000 0.0000
# 5 0.0000 0.0000 0.0000 0.0000 88.5328 0.0000
# 6 0.0000 0.0000 0.0000 0.0000 0.0000 26.0222
#
#
#
# Elastic Compliance Matrix: (Units=1/GPa)
#
#
# Indices 1 2 3 4 5 6 
#
# 1 0.016809 -0.008874 -0.005340 0.000000 0.000000 0.000000
# 2 -0.008874 0.013005 -0.003347 0.000000 0.000000 0.000000
# 3 -0.005340 -0.003347 0.031906 0.000000 0.000000 0.000000
# 4 0.000000 0.000000 0.000000 0.036259 0.000000 0.000000
# 5 0.000000 0.000000 0.000000 0.000000 0.011295 0.000000
# 6 0.000000 0.000000 0.000000 0.000000 0.000000 0.038429
#
#
# Mechanical properties :
#
#
# Convention : Reuss Voigt Hill
#
# Bulk Modulus (GPa) = 37.59958 63.80717 50.70338
# Shear Modulus (GPa) = 26.08366 38.60759 32.34562
#
# Velocity S-wave (km/s) = 4.02818 4.90073 4.48572
# Velocity P-wave (km/s) = 6.71007 8.46855 7.64007
#
# Compressibility (1/GPa) = 0.02659604
#
# Stress axis : x y z
#
# Youngs Moduli (GPa) = 59.49234 76.89434 31.34241
#
# Poissons Ratio (x) = 0.68237 0.16738
# Poissons Ratio (y) = 0.52795 0.10490
# Poissons Ratio (z) = 0.31772 0.25737
#
# Static dielectric constant tensor:
#      x y z
#    x 1.526830 0.000000 0.000000 
#    y 0.000000 1.522670 0.000000 
#    z 0.000000 0.000000 1.543840 
# 
# From -- ./inp_files/4244.got.cif
#   From: 2010.05.17/outbox.cif.g08.bks.cpg/sg58_3_cif.got.tgz:4244.got - 2010.06.03 14:20:14.
