data_PCOD9441336
_publ_section_title
;
Structure prediction by ZEFSAII (Michael W. Deem and Ramdas Pophale) SiO2 
 PCOD9441336
Probable space group: P N N M
;
_chemical_formula_sum "Si O2"
_cell_formula_units_Z 52
_cell_length_a 9.464789
_cell_length_b 17.216297
_cell_length_c 13.524715
_cell_angle_alpha 90.000000
_cell_angle_beta 90.000000
_cell_angle_gamma 90.000000
_cell_volume 2203.833624
_symmetry_space_group_name_H-M "P N N M"
_symmetry_group_IT_number 58
_symmetry_cell_setting 'orthorhombic'
loop_
_space_group_symop_operation_xyz
x,y,z
-x,-y,z
1/2+x,1/2-y,1/2-z
1/2-x,1/2+y,1/2-z
-x,-y,-z
x,y,-z
1/2-x,1/2+y,1/2+z
1/2+x,1/2-y,1/2+z
loop_
_atom_site_type_symbol
_atom_site_label
_atom_site_fract_x
_atom_site_fract_y
_atom_site_fract_z
Si Si1 0.830164 0.147530 0.608174
Si Si2 0.450136 0.782604 0.319203
Si Si3 0.770311 0.468761 0.613604
Si Si4 0.181304 0.616902 0.884739
Si Si5 0.525379 0.817803 0.893283
Si Si6 0.000000 0.500000 0.751984
Si Si7 0.555588 0.390980 0.744828
O O1 0.852334 0.110405 0.500000
O O2 0.899570 0.233472 0.606775
O O3 0.905340 0.103064 0.698897
O O4 0.666425 0.168400 0.622386
O O5 0.604371 0.801850 0.361872
O O6 0.438070 0.812016 0.206498
O O7 0.435047 0.690367 0.314361
O O8 0.752603 0.491876 0.500000
O O9 0.625735 0.452893 0.671127
O O10 0.858287 0.386451 0.614872
O O11 0.874789 0.523812 0.675899
O O12 0.080804 0.558265 0.824496
O O13 0.334004 0.614522 0.835819
O O14 0.185568 0.600387 0.000000
O O15 0.453239 0.827136 0.000000
#
# Coordination Sequence:
#
# PCOD9441336 Si02
#       7
#     8   8   8   8   8   4   8
#     4  10  19  30  49  75 112 145 172 212 272 335
#     4  11  18  33  51  81 109 145 184 224 269 330
#     4  10  18  33  56  80 104 139 182 230 275 323
#     4  11  22  36  57  81 112 146 190 231 272 322
#     4   9  17  31  49  73 105 140 172 217 272 318
#     4  10  20  36  54  84 108 142 186 240 278 312
#     4  10  19  34  51  79 112 145 175 223 280 335
#
# _framework density 23.595247000000001
#
# number of rings (size 3 to 8) (size 9 to 14) (size 15 to 20)
#    0.000    1.846    4.615    2.308    0.000    1.231 
#    0.000    0.769    0.000    3.692    0.000   10.769 
#    0.000    0.000    0.000    0.000    0.000    0.000 
#
# Total GULP energy -290473.089463 kJ/mol
# GULP energy per Si atom -5586.020951 kJ/mol
# Density = 2.354154 g / cm^3
# Si number density = 23.595247 Si / 1000 Ang^3
#
#
#
# Elastic Constant Matrix: (Units=GPa)
#
#
# Indices 1 2 3 4 5 6 
#
# 1 66.4282 7.3394 28.1262 0.0000 0.0000 0.0000
# 2 7.3394 36.1741 3.5261 0.0000 0.0000 0.0000
# 3 28.1262 3.5261 127.9930 0.0000 0.0000 0.0000
# 4 0.0000 0.0000 0.0000 12.1469 0.0000 0.0000
# 5 0.0000 0.0000 0.0000 0.0000 24.8383 0.0000
# 6 0.0000 0.0000 0.0000 0.0000 0.0000 21.8515
#
#
#
# Elastic Compliance Matrix: (Units=1/GPa)
#
#
# Indices 1 2 3 4 5 6 
#
# 1 0.016934 -0.003081 -0.003636 0.000000 0.000000 0.000000
# 2 -0.003081 0.028279 -0.000102 0.000000 0.000000 0.000000
# 3 -0.003636 -0.000102 0.008615 0.000000 0.000000 0.000000
# 4 0.000000 0.000000 0.000000 0.082325 0.000000 0.000000
# 5 0.000000 0.000000 0.000000 0.000000 0.040260 0.000000
# 6 0.000000 0.000000 0.000000 0.000000 0.000000 0.045763
#
#
# Mechanical properties :
#
#
# Convention : Reuss Voigt Hill
#
# Bulk Modulus (GPa) = 24.88254 34.28652 29.58453
# Shear Modulus (GPa) = 20.06319 24.54091 22.30205
#
# Velocity S-wave (km/s) = 2.91917 3.22852 3.07773
# Velocity P-wave (km/s) = 4.68300 5.33484 5.01951
#
# Compressibility (1/GPa) = 0.04018883
#
# Stress axis : x y z
#
# Youngs Moduli (GPa) = 59.05308 35.36167 116.07924
#
# Poissons Ratio (x) = 0.10896 0.42210
# Poissons Ratio (y) = 0.18196 0.01184
# Poissons Ratio (z) = 0.21473 0.00361
#
# Static dielectric constant tensor:
#      x y z
#    x 1.905110 0.000000 0.000000 
#    y 0.000000 1.965470 0.000000 
#    z 0.000000 0.000000 1.887590 
# 
# From -- ./inp_files/20213.got.cif
#   From: 2010.05.17/outbox.cif.g08.bks.cpg/sg58_11_cif.got.tgz:20213.got - 2010.06.03 14:20:14.
