data_PCOD9441188
_publ_section_title
;
Structure prediction by ZEFSAII (Michael W. Deem and Ramdas Pophale) SiO2 
 PCOD9441188
Probable space group: P N N M
;
_chemical_formula_sum "Si O2"
_cell_formula_units_Z 64
_cell_length_a 12.965898
_cell_length_b 28.473852
_cell_length_c 7.536401
_cell_angle_alpha 90.000000
_cell_angle_beta 90.000000
_cell_angle_gamma 90.000000
_cell_volume 2782.356806
_symmetry_space_group_name_H-M "P N N M"
_symmetry_group_IT_number 58
_symmetry_cell_setting 'orthorhombic'
loop_
_space_group_symop_operation_xyz
x,y,z
-x,-y,z
1/2+x,1/2-y,1/2-z
1/2-x,1/2+y,1/2-z
-x,-y,-z
x,y,-z
1/2-x,1/2+y,1/2+z
1/2+x,1/2-y,1/2+z
loop_
_atom_site_type_symbol
_atom_site_label
_atom_site_fract_x
_atom_site_fract_y
_atom_site_fract_z
Si Si1 0.867847 0.414049 0.715569
Si Si2 0.807250 0.048234 0.794078
Si Si3 0.471502 0.376637 0.203185
Si Si4 0.914901 0.308536 0.712900
Si Si5 0.367388 0.837504 0.290628
Si Si6 0.638531 0.447748 0.792411
Si Si7 0.915865 0.557365 0.701075
Si Si8 0.154575 0.791483 0.281953
O O1 0.873054 0.414833 0.500000
O O2 0.879580 0.359941 0.777390
O O3 0.756701 0.432212 0.770078
O O4 0.967959 0.444298 0.777196
O O5 0.691899 0.039535 0.718104
O O6 0.870561 0.089848 0.704418
O O7 0.869131 0.999768 0.784998
O O8 0.795252 0.061503 0.000000
O O9 0.562265 0.408192 0.284937
O O10 0.435759 0.326807 0.279318
O O11 0.502565 0.367270 0.000000
O O12 0.904808 0.309883 0.500000
O O13 0.857741 0.262030 0.777042
O O14 0.035002 0.304337 0.760208
O O15 0.357936 0.847773 0.500000
O O16 0.394466 0.886485 0.197997
O O17 0.262701 0.814051 0.227271
O O18 0.613340 0.452529 0.000000
O O19 0.919407 0.538587 0.500000
O O20 0.153127 0.791751 0.500000
#
# Coordination Sequence:
#
# PCOD9441188 Si02
#       8
#     8   8   8   8   8   8   8   8
#     4   9  19  37  57  77 109 148 185 227 280 336
#     4  11  22  37  60  86 111 143 189 236 283 336
#     4  10  21  39  58  80 113 151 188 230 282 337
#     4   9  19  36  56  79 111 150 184 223 284 342
#     4  10  18  31  54  81 107 139 182 231 274 322
#     4  11  24  38  55  80 115 153 189 228 281 339
#     4   9  19  36  58  82 108 143 182 226 281 336
#     4   9  18  34  57  81 107 145 186 223 275 335
#
# _framework density 23.002082999999999
#
# number of rings (size 3 to 8) (size 9 to 14) (size 15 to 20)
#    0.000    2.250    1.250    2.250    0.000    6.500 
#    0.000    4.375    0.000    0.000    0.000    0.000 
#    0.000    0.000    0.000    0.000    0.000    0.000 
#
# Total GULP energy -357456.034002 kJ/mol
# GULP energy per Si atom -5585.250531 kJ/mol
# Density = 2.294973 g / cm^3
# Si number density = 23.002083 Si / 1000 Ang^3
#
#
#
# Elastic Constant Matrix: (Units=GPa)
#
#
# Indices 1 2 3 4 5 6 
#
# 1 83.9381 15.4116 -11.7364 0.0000 0.0000 0.0000
# 2 15.4116 82.0711 -6.5982 0.0000 0.0000 0.0000
# 3 -11.7364 -6.5982 61.5184 0.0000 0.0000 0.0000
# 4 0.0000 0.0000 0.0000 14.5681 0.0000 0.0000
# 5 0.0000 0.0000 0.0000 0.0000 21.6294 0.0000
# 6 0.0000 0.0000 0.0000 0.0000 0.0000 34.0899
#
#
#
# Elastic Compliance Matrix: (Units=1/GPa)
#
#
# Indices 1 2 3 4 5 6 
#
# 1 0.012620 -0.002195 0.002172 0.000000 0.000000 0.000000
# 2 -0.002195 0.012672 0.000940 0.000000 0.000000 0.000000
# 3 0.002172 0.000940 0.016771 0.000000 0.000000 0.000000
# 4 0.000000 0.000000 0.000000 0.068643 0.000000 0.000000
# 5 0.000000 0.000000 0.000000 0.000000 0.046233 0.000000
# 6 0.000000 0.000000 0.000000 0.000000 0.000000 0.029334
#
#
# Mechanical properties :
#
#
# Convention : Reuss Voigt Hill
#
# Bulk Modulus (GPa) = 22.78004 24.63126 23.70565
# Shear Modulus (GPa) = 25.11655 29.42086 27.26871
#
# Velocity S-wave (km/s) = 3.30801 3.58026 3.44683
# Velocity P-wave (km/s) = 4.95132 5.27471 5.11557
#
# Compressibility (1/GPa) = 0.04389809
#
# Stress axis : x y z
#
# Youngs Moduli (GPa) = 79.23720 78.91174 59.62820
#
# Poissons Ratio (x) = 0.17323 -0.12953
# Poissons Ratio (y) = 0.17394 -0.05607
# Poissons Ratio (z) = -0.17212 -0.07421
#
# Static dielectric constant tensor:
#      x y z
#    x 1.886360 0.000000 0.000000 
#    y 0.000000 1.843680 0.000000 
#    z 0.000000 0.000000 2.036680 
# 
# From -- ./inp_files/4790.got.cif
#   From: 2010.05.17/outbox.cif.g08.bks.cpg/sg58_3_cif.got.tgz:4790.got - 2010.06.03 14:20:14.
