data_PCOD9441337
_publ_section_title
;
Structure prediction by ZEFSAII (Michael W. Deem and Ramdas Pophale) SiO2 
 PCOD9441337
Probable space group: P N N M
;
_chemical_formula_sum "Si O2"
_cell_formula_units_Z 56
_cell_length_a 11.820398
_cell_length_b 21.896502
_cell_length_c 13.235022
_cell_angle_alpha 90.000000
_cell_angle_beta 90.000000
_cell_angle_gamma 90.000000
_cell_volume 3425.559446
_symmetry_space_group_name_H-M "P N N M"
_symmetry_group_IT_number 58
_symmetry_cell_setting 'orthorhombic'
loop_
_space_group_symop_operation_xyz
x,y,z
-x,-y,z
1/2+x,1/2-y,1/2-z
1/2-x,1/2+y,1/2-z
-x,-y,-z
x,y,-z
1/2-x,1/2+y,1/2+z
1/2+x,1/2-y,1/2+z
loop_
_atom_site_type_symbol
_atom_site_label
_atom_site_fract_x
_atom_site_fract_y
_atom_site_fract_z
Si Si1 0.822151 0.222111 0.117449
Si Si2 0.207774 0.097864 0.884269
Si Si3 0.598635 0.144461 0.120880
Si Si4 0.621175 0.966382 0.382942
Si Si5 0.445092 0.405534 0.618524
Si Si6 0.734351 0.027551 0.197825
Si Si7 0.121752 0.658344 0.241984
O O1 0.697686 0.194329 0.139803
O O2 0.906552 0.164623 0.128283
O O3 0.859882 0.278357 0.184936
O O4 0.822629 0.240662 0.000000
O O5 0.269062 0.144455 0.810648
O O6 0.076480 0.087851 0.857630
O O7 0.270913 0.033291 0.869958
O O8 0.212823 0.117982 0.000000
O O9 0.649926 0.079627 0.157587
O O10 0.487128 0.158353 0.184956
O O11 0.578163 0.142278 0.000000
O O12 0.656685 0.964028 0.500000
O O13 0.611316 0.898614 0.335644
O O14 0.500000 0.000000 0.377835
O O15 0.703189 0.005243 0.309907
O O16 0.427465 0.423113 0.500000
O O17 0.359662 0.445090 0.684913
#
# Coordination Sequence:
#
# PCOD9441337 Si02
#       7
#     8   8   8   8   8   8   8
#     4   9  20  36  54  72  98 140 183 216 257 311
#     4  10  20  31  51  84 112 134 166 212 263 316
#     4  10  20  35  54  79 107 135 171 217 267 320
#     4  10  20  35  52  77 108 137 181 224 256 307
#     4   9  18  34  55  79 107 136 174 215 258 316
#     4  10  18  33  56  80 104 142 168 207 268 319
#     4  11  21  33  55  76 105 143 175 216 264 310
#
# _framework density 16.347694000000001
#
# number of rings (size 3 to 8) (size 9 to 14) (size 15 to 20)
#    0.000    2.143    1.429    3.429    2.000    1.143 
#    0.000    2.143    0.000   14.571    0.000    0.000 
#    0.000    0.000    0.000    0.000    0.000    0.000 
#
# Total GULP energy -312369.954592 kJ/mol
# GULP energy per Si atom -5578.034903 kJ/mol
# Density = 1.631049 g / cm^3
# Si number density = 16.347694 Si / 1000 Ang^3
#
#
#
# Elastic Constant Matrix: (Units=GPa)
#
#
# Indices 1 2 3 4 5 6 
#
# 1 80.6682 40.2379 64.6899 0.0000 0.0000 0.0000
# 2 40.2379 84.4664 56.5663 0.0000 0.0000 0.0000
# 3 64.6899 56.5663 111.9722 0.0000 0.0000 0.0000
# 4 0.0000 0.0000 0.0000 20.7176 0.0000 0.0000
# 5 0.0000 0.0000 0.0000 0.0000 18.6915 0.0000
# 6 0.0000 0.0000 0.0000 0.0000 0.0000 13.9272
#
#
#
# Elastic Compliance Matrix: (Units=1/GPa)
#
#
# Indices 1 2 3 4 5 6 
#
# 1 0.023656 -0.003199 -0.012051 0.000000 0.000000 0.000000
# 2 -0.003199 0.018325 -0.007409 0.000000 0.000000 0.000000
# 3 -0.012051 -0.007409 0.019636 0.000000 0.000000 0.000000
# 4 0.000000 0.000000 0.000000 0.048268 0.000000 0.000000
# 5 0.000000 0.000000 0.000000 0.000000 0.053500 0.000000
# 6 0.000000 0.000000 0.000000 0.000000 0.000000 0.071802
#
#
# Mechanical properties :
#
#
# Convention : Reuss Voigt Hill
#
# Bulk Modulus (GPa) = 61.35408 66.67723 64.01565
# Shear Modulus (GPa) = 17.48633 18.37477 17.93055
#
# Velocity S-wave (km/s) = 3.27410 3.35624 3.31543
# Velocity P-wave (km/s) = 7.20452 7.47627 7.34166
#
# Compressibility (1/GPa) = 0.01629884
#
# Stress axis : x y z
#
# Youngs Moduli (GPa) = 42.27285 54.57085 50.92714
#
# Poissons Ratio (x) = 0.17456 0.61371
# Poissons Ratio (y) = 0.13522 0.37733
# Poissons Ratio (z) = 0.50942 0.40433
#
# Static dielectric constant tensor:
#      x y z
#    x 1.545870 0.000000 0.000000 
#    y 0.000000 1.541080 0.000000 
#    z 0.000000 0.000000 1.534320 
# 
# From -- ./inp_files/14568.got.cif
#   From: 2010.05.17/outbox.cif.g08.bks.cpg/sg58_8_cif.got.tgz:14568.got - 2010.06.03 14:20:14.
