data_PCOD9441263
_publ_section_title
;
Structure prediction by ZEFSAII (Michael W. Deem and Ramdas Pophale) SiO2 
 PCOD9441263
Probable space group: P N N M
;
_chemical_formula_sum "Si O2"
_cell_formula_units_Z 44
_cell_length_a 19.875707
_cell_length_b 12.990738
_cell_length_c 10.056795
_cell_angle_alpha 90.000000
_cell_angle_beta 90.000000
_cell_angle_gamma 90.000000
_cell_volume 2596.665497
_symmetry_space_group_name_H-M "P N N M"
_symmetry_group_IT_number 58
_symmetry_cell_setting 'orthorhombic'
loop_
_space_group_symop_operation_xyz
x,y,z
-x,-y,z
1/2+x,1/2-y,1/2-z
1/2-x,1/2+y,1/2-z
-x,-y,-z
x,y,-z
1/2-x,1/2+y,1/2+z
1/2+x,1/2-y,1/2+z
loop_
_atom_site_type_symbol
_atom_site_label
_atom_site_fract_x
_atom_site_fract_y
_atom_site_fract_z
Si Si1 0.925144 0.800132 0.345401
Si Si2 0.521884 0.887710 0.161189
Si Si3 0.500000 0.500000 0.250600
Si Si4 0.306675 0.634365 0.655277
Si Si5 0.637920 0.587841 0.349904
Si Si6 0.158344 0.721234 0.341709
O O1 0.906661 0.786516 0.500000
O O2 0.968909 0.904825 0.331347
O O3 0.860307 0.812880 0.252474
O O4 0.970794 0.703676 0.301256
O O5 0.597271 0.854208 0.198034
O O6 0.500000 0.000000 0.210714
O O7 0.520448 0.891398 0.000000
O O8 0.561813 0.545688 0.334490
O O9 0.323132 0.655956 0.500000
O O10 0.315209 0.511682 0.672719
O O11 0.231098 0.671228 0.680532
O O12 0.648271 0.626164 0.500000
O O13 0.650788 0.675060 0.242092
O O14 0.151417 0.742376 0.500000
#
# Coordination Sequence:
#
# PCOD9441263 Si02
#       6
#     8   8   4   8   8   8
#     4  10  19  32  55  84 108 137 183 236 274 317
#     4   9  18  33  54  79 105 140 184 226 270 321
#     4  10  18  32  54  84 110 138 174 232 286 326
#     4   9  21  37  53  77 112 149 178 217 279 337
#     4  10  20  34  55  82 109 142 181 224 275 332
#     4  10  20  37  56  78 109 146 183 226 276 326
#
# _framework density 16.944808999999999
#
# number of rings (size 3 to 8) (size 9 to 14) (size 15 to 20)
#    0.000    2.364    1.818    0.545    0.000    5.818 
#    0.000    3.636    0.000    2.182    0.000    0.000 
#    0.000    0.000    0.000    0.000    0.000    0.000 
#
# Total GULP energy -245311.584455 kJ/mol
# GULP energy per Si atom -5575.263283 kJ/mol
# Density = 1.690624 g / cm^3
# Si number density = 16.944809 Si / 1000 Ang^3
#
#
#
# Elastic Constant Matrix: (Units=GPa)
#
#
# Indices 1 2 3 4 5 6 
#
# 1 136.3439 89.9432 66.6785 0.0000 0.0000 0.0000
# 2 89.9432 123.8465 56.7544 0.0000 0.0000 0.0000
# 3 66.6785 56.7544 62.6617 0.0000 0.0000 0.0000
# 4 0.0000 0.0000 0.0000 23.3479 0.0000 0.0000
# 5 0.0000 0.0000 0.0000 0.0000 18.8488 0.0000
# 6 0.0000 0.0000 0.0000 0.0000 0.0000 22.6572
#
#
#
# Elastic Compliance Matrix: (Units=1/GPa)
#
#
# Indices 1 2 3 4 5 6 
#
# 1 0.018749 -0.007648 -0.013024 0.000000 0.000000 0.000000
# 2 -0.007648 0.016924 -0.007190 0.000000 0.000000 0.000000
# 3 -0.013024 -0.007190 0.036330 0.000000 0.000000 0.000000
# 4 0.000000 0.000000 0.000000 0.042830 0.000000 0.000000
# 5 0.000000 0.000000 0.000000 0.000000 0.053054 0.000000
# 6 0.000000 0.000000 0.000000 0.000000 0.000000 0.044136
#
#
# Mechanical properties :
#
#
# Convention : Reuss Voigt Hill
#
# Bulk Modulus (GPa) = 61.43032 83.28937 72.35985
# Shear Modulus (GPa) = 18.30348 20.26917 19.28632
#
# Velocity S-wave (km/s) = 3.29018 3.46235 3.37736
# Velocity P-wave (km/s) = 7.12500 8.07737 7.61608
#
# Compressibility (1/GPa) = 0.01627861
#
# Stress axis : x y z
#
# Youngs Moduli (GPa) = 53.33687 59.08836 27.52580
#
# Poissons Ratio (x) = 0.45191 0.35849
# Poissons Ratio (y) = 0.40792 0.19791
# Poissons Ratio (z) = 0.69464 0.42485
#
# Static dielectric constant tensor:
#      x y z
#    x 1.562840 0.000000 0.000000 
#    y 0.000000 1.561030 0.000000 
#    z 0.000000 0.000000 1.563360 
# 
# From -- ./inp_files/7645.got.cif
#   From: 2010.05.17/outbox.cif.g08.bks.cpg/sg58_4_cif.got.tgz:7645.got - 2010.06.03 14:20:14.
