data_PCOD9441208
_publ_section_title
;
Structure prediction by ZEFSAII (Michael W. Deem and Ramdas Pophale) SiO2 
 PCOD9441208
Probable space group: P N N M
;
_chemical_formula_sum "Si O2"
_cell_formula_units_Z 48
_cell_length_a 11.283332
_cell_length_b 9.982361
_cell_length_c 23.045288
_cell_angle_alpha 90.000000
_cell_angle_beta 90.000000
_cell_angle_gamma 90.000000
_cell_volume 2595.689728
_symmetry_space_group_name_H-M "P N N M"
_symmetry_group_IT_number 58
_symmetry_cell_setting 'orthorhombic'
loop_
_space_group_symop_operation_xyz
x,y,z
-x,-y,z
1/2+x,1/2-y,1/2-z
1/2-x,1/2+y,1/2-z
-x,-y,-z
x,y,-z
1/2-x,1/2+y,1/2+z
1/2+x,1/2-y,1/2+z
loop_
_atom_site_type_symbol
_atom_site_label
_atom_site_fract_x
_atom_site_fract_y
_atom_site_fract_z
Si Si1 0.540989 0.846857 0.431025
Si Si2 0.952355 0.262396 0.251247
Si Si3 0.750743 0.266883 0.150108
Si Si4 0.647630 0.252506 0.346045
Si Si5 0.176799 0.963990 0.691561
Si Si6 0.314738 0.015614 0.811541
O O1 0.537999 0.834441 0.500000
O O2 0.668286 0.803099 0.405379
O O3 0.444943 0.755936 0.397963
O O4 0.500000 0.000000 0.415694
O O5 0.848676 0.264896 0.202234
O O6 0.931235 0.127660 0.287410
O O7 0.924647 0.388267 0.293034
O O8 0.072856 0.262068 0.214363
O O9 0.666101 0.392815 0.161730
O O10 0.682398 0.125570 0.154534
O O11 0.739829 0.130455 0.347867
O O12 0.722619 0.387504 0.344559
O O13 0.252032 0.986355 0.750166
#
# Coordination Sequence:
#
# PCOD9441208 Si02
#       6
#     8   8   8   8   8   8
#     4  10  19  30  46  67  88 126 167 187 220 278
#     4   8  17  27  44  62  86 124 158 183 225 281
#     4   9  16  28  43  61  88 119 151 191 223 256
#     4  10  18  32  47  65  98 130 157 189 232 266
#     4   9  16  29  43  64  89 128 159 185 225 281
#     4   9  18  29  43  65  89 122 159 189 227 279
#
# _framework density 18.492194999999999
#
# number of rings (size 3 to 8) (size 9 to 14) (size 15 to 20)
#    0.000    2.833    1.667    1.000    0.000    6.000 
#    0.000    3.333    0.000    0.000    0.000    0.000 
#    0.000    0.000    0.000  537.000    0.000    0.000 
#
# Total GULP energy -267513.386033 kJ/mol
# GULP energy per Si atom -5573.195542 kJ/mol
# Density = 1.845011 g / cm^3
# Si number density = 18.492195 Si / 1000 Ang^3
#
#
#
# Elastic Constant Matrix: (Units=GPa)
#
#
# Indices 1 2 3 4 5 6 
#
# 1 59.6055 40.5704 23.5065 0.0000 0.0000 0.0000
# 2 40.5704 167.8990 34.9450 0.0000 0.0000 0.0000
# 3 23.5065 34.9450 63.1407 0.0000 0.0000 0.0000
# 4 0.0000 0.0000 0.0000 11.3259 0.0000 0.0000
# 5 0.0000 0.0000 0.0000 0.0000 18.9596 0.0000
# 6 0.0000 0.0000 0.0000 0.0000 0.0000 25.0308
#
#
#
# Elastic Compliance Matrix: (Units=1/GPa)
#
#
# Indices 1 2 3 4 5 6 
#
# 1 0.021862 -0.004056 -0.005894 0.000000 0.000000 0.000000
# 2 -0.004056 0.007484 -0.002632 0.000000 0.000000 0.000000
# 3 -0.005894 -0.002632 0.019489 0.000000 0.000000 0.000000
# 4 0.000000 0.000000 0.000000 0.088293 0.000000 0.000000
# 5 0.000000 0.000000 0.000000 0.000000 0.052744 0.000000
# 6 0.000000 0.000000 0.000000 0.000000 0.000000 0.039951
#
#
# Mechanical properties :
#
#
# Convention : Reuss Voigt Hill
#
# Bulk Modulus (GPa) = 42.24691 54.29878 48.27285
# Shear Modulus (GPa) = 19.02035 23.83815 21.42925
#
# Velocity S-wave (km/s) = 3.21060 3.59429 3.40785
# Velocity P-wave (km/s) = 6.05304 6.83023 6.45335
#
# Compressibility (1/GPa) = 0.02367037
#
# Stress axis : x y z
#
# Youngs Moduli (GPa) = 45.74115 133.62215 51.31192
#
# Poissons Ratio (x) = 0.54196 0.30245
# Poissons Ratio (y) = 0.18552 0.13505
# Poissons Ratio (z) = 0.26961 0.35168
#
# Static dielectric constant tensor:
#      x y z
#    x 1.694920 0.000000 0.000000 
#    y 0.000000 1.703080 0.000000 
#    z 0.000000 0.000000 1.600640 
# 
# From -- ./inp_files/28828.got.cif
#   From: 2010.05.17/outbox.cif.g08.bks.cpg/sg58_15_cif.got.tgz:28828.got - 2010.06.03 14:20:14.
