data_PCOD9441293
_publ_section_title
;
Structure prediction by ZEFSAII (Michael W. Deem and Ramdas Pophale) SiO2 
 PCOD9441293
Probable space group: P N N M
;
_chemical_formula_sum "Si O2"
_cell_formula_units_Z 64
_cell_length_a 12.904717
_cell_length_b 29.128722
_cell_length_c 7.648377
_cell_angle_alpha 90.000000
_cell_angle_beta 90.000000
_cell_angle_gamma 90.000000
_cell_volume 2875.008960
_symmetry_space_group_name_H-M "P N N M"
_symmetry_group_IT_number 58
_symmetry_cell_setting 'orthorhombic'
loop_
_space_group_symop_operation_xyz
x,y,z
-x,-y,z
1/2+x,1/2-y,1/2-z
1/2-x,1/2+y,1/2-z
-x,-y,-z
x,y,-z
1/2-x,1/2+y,1/2+z
1/2+x,1/2-y,1/2+z
loop_
_atom_site_type_symbol
_atom_site_label
_atom_site_fract_x
_atom_site_fract_y
_atom_site_fract_z
Si Si1 0.875081 0.932531 0.204578
Si Si2 0.833148 0.563652 0.214800
Si Si3 0.838496 0.464288 0.201384
Si Si4 0.622897 0.785763 0.700781
Si Si5 0.335552 0.671745 0.290874
Si Si6 0.604316 0.583850 0.201100
Si Si7 0.528301 0.878684 0.714226
Si Si8 0.933524 0.188482 0.209634
O O1 0.786939 0.962926 0.293340
O O2 0.851009 0.880732 0.267770
O O3 0.998558 0.938118 0.224624
O O4 0.852421 0.935490 0.000000
O O5 0.870607 0.513480 0.275510
O O6 0.715986 0.571328 0.278313
O O7 0.915592 0.602455 0.263986
O O8 0.830955 0.563510 0.000000
O O9 0.888633 0.417530 0.274169
O O10 0.872661 0.464745 0.000000
O O11 0.587177 0.779764 0.500000
O O12 0.739068 0.804498 0.703679
O O13 0.556444 0.827782 0.778712
O O14 0.620253 0.734593 0.777054
O O15 0.318334 0.671099 0.500000
O O16 0.444519 0.695916 0.258305
O O17 0.595704 0.639214 0.212873
O O18 0.604821 0.569858 0.000000
O O19 0.534103 0.876358 0.500000
O O20 0.918216 0.182697 0.000000
#
# Coordination Sequence:
#
# PCOD9441293 Si02
#       8
#     8   8   8   8   8   8   8   8
#     4  10  20  35  55  77 107 142 177 222 273 319
#     4   9  19  33  52  81 113 141 173 222 274 317
#     4  10  18  32  57  84 107 137 181 224 264 318
#     4  10  19  32  54  81 104 133 178 221 261 318
#     4   9  18  33  51  71 101 137 170 212 265 311
#     4  10  20  35  55  78 106 142 185 226 266 321
#     4   9  17  31  53  81 110 139 174 220 271 321
#     4   9  20  36  52  75 108 142 173 218 276 324
#
# _framework density 22.260801000000001
#
# number of rings (size 3 to 8) (size 9 to 14) (size 15 to 20)
#    0.000    2.500    1.250    1.875    0.000    5.500 
#    0.000    6.250    0.000    5.250    0.000    0.000 
#    0.000    0.000    0.000    0.000    0.000    0.000 
#
# Total GULP energy -357096.484678 kJ/mol
# GULP energy per Si atom -5579.632573 kJ/mol
# Density = 2.221013 g / cm^3
# Si number density = 22.260801 Si / 1000 Ang^3
#
#
#
# Elastic Constant Matrix: (Units=GPa)
#
#
# Indices 1 2 3 4 5 6 
#
# 1 56.9420 -4.1866 -10.4432 0.0000 0.0000 0.0000
# 2 -4.1866 53.4024 -3.9457 0.0000 0.0000 0.0000
# 3 -10.4432 -3.9457 35.9734 0.0000 0.0000 0.0000
# 4 0.0000 0.0000 0.0000 8.9880 0.0000 0.0000
# 5 0.0000 0.0000 0.0000 0.0000 49.7817 0.0000
# 6 0.0000 0.0000 0.0000 0.0000 0.0000 13.6435
#
#
#
# Elastic Compliance Matrix: (Units=1/GPa)
#
#
# Indices 1 2 3 4 5 6 
#
# 1 0.018736 0.001886 0.005646 0.000000 0.000000 0.000000
# 2 0.001886 0.019069 0.002639 0.000000 0.000000 0.000000
# 3 0.005646 0.002639 0.029727 0.000000 0.000000 0.000000
# 4 0.000000 0.000000 0.000000 0.111260 0.000000 0.000000
# 5 0.000000 0.000000 0.000000 0.000000 0.020088 0.000000
# 6 0.000000 0.000000 0.000000 0.000000 0.000000 0.073295
#
#
# Mechanical properties :
#
#
# Convention : Reuss Voigt Hill
#
# Bulk Modulus (GPa) = 11.38003 12.12964 11.75484
# Shear Modulus (GPa) = 17.78582 25.47553 21.63068
#
# Velocity S-wave (km/s) = 2.82968 3.38659 3.12058
# Velocity P-wave (km/s) = 3.97484 4.55551 4.27505
#
# Compressibility (1/GPa) = 0.08787324
#
# Stress axis : x y z
#
# Youngs Moduli (GPa) = 53.37359 52.44220 33.63967
#
# Poissons Ratio (x) = -0.09891 -0.18993
# Poissons Ratio (y) = -0.10066 -0.08878
# Poissons Ratio (z) = -0.30134 -0.13840
#
# Static dielectric constant tensor:
#      x y z
#    x 1.820220 0.000000 0.000000 
#    y 0.000000 1.827360 0.000000 
#    z 0.000000 0.000000 1.851400 
# 
# From -- ./inp_files/4735.got.cif
#   From: 2010.05.17/outbox.cif.g08.bks.cpg/sg58_3_cif.got.tgz:4735.got - 2010.06.03 14:20:14.
