data_PCOD9441865
_publ_section_title
;
Structure prediction by ZEFSAII (Michael W. Deem and Ramdas Pophale) SiO2 
 PCOD9441865
Probable space group: P N N M
;
_chemical_formula_sum "Si O2"
_cell_formula_units_Z 48
_cell_length_a 15.299547
_cell_length_b 19.836058
_cell_length_c 7.621876
_cell_angle_alpha 90.000000
_cell_angle_beta 90.000000
_cell_angle_gamma 90.000000
_cell_volume 2313.107520
_symmetry_space_group_name_H-M "P N N M"
_symmetry_group_IT_number 58
_symmetry_cell_setting 'orthorhombic'
loop_
_space_group_symop_operation_xyz
x,y,z
-x,-y,z
1/2+x,1/2-y,1/2-z
1/2-x,1/2+y,1/2-z
-x,-y,-z
x,y,-z
1/2-x,1/2+y,1/2+z
1/2+x,1/2-y,1/2+z
loop_
_atom_site_type_symbol
_atom_site_label
_atom_site_fract_x
_atom_site_fract_y
_atom_site_fract_z
Si Si1 0.487765 0.426014 0.797533
Si Si2 0.653521 0.679932 0.212691
Si Si3 0.146364 0.322543 0.785736
Si Si4 0.134797 0.171830 0.797703
Si Si5 0.665473 0.832931 0.706177
Si Si6 0.505155 0.922737 0.714903
O O1 0.500000 0.500000 0.716886
O O2 0.414324 0.375910 0.721847
O O3 0.578204 0.385027 0.794314
O O4 0.460643 0.437101 0.000000
O O5 0.753404 0.665271 0.267401
O O6 0.632751 0.756123 0.270490
O O7 0.651185 0.680856 0.000000
O O8 0.119579 0.247414 0.726377
O O9 0.078367 0.378954 0.729131
O O10 0.146057 0.320714 0.000000
O O11 0.238884 0.161026 0.789474
O O12 0.107058 0.170854 0.000000
O O13 0.677753 0.845107 0.500000
O O14 0.593013 0.884757 0.772888
O O15 0.505602 0.922048 0.500000
O O16 0.500000 0.000000 0.771067
#
# Coordination Sequence:
#
# PCOD9441865 Si02
#       6
#     8   8   8   8   8   8
#     4  10  21  35  52  78 109 139 174 217 265 317
#     4   9  18  33  53  75 103 138 171 209 259 312
#     4   8  15  29  48  70  96 130 169 205 246 298
#     4  10  20  35  54  74 101 138 177 217 262 311
#     4  10  19  32  53  79 104 132 173 220 257 300
#     4   9  17  28  46  74 103 130 162 202 249 300
#
# _framework density 20.751306
#
# number of rings (size 3 to 8) (size 9 to 14) (size 15 to 20)
#    0.000    2.667    0.000    3.000    0.000    3.667 
#    0.000    5.000    0.000    3.000    0.000    0.000 
#    0.000    0.000    0.000    0.000    0.000    0.000 
#
# Total GULP energy -267959.823890 kJ/mol
# GULP energy per Si atom -5582.496331 kJ/mol
# Density = 2.070407 g / cm^3
# Si number density = 20.751306 Si / 1000 Ang^3
#
#
#
# Elastic Constant Matrix: (Units=GPa)
#
#
# Indices 1 2 3 4 5 6 
#
# 1 101.0737 107.2550 -6.0930 0.0000 0.0000 0.0000
# 2 107.2550 188.6157 -3.5811 0.0000 0.0000 0.0000
# 3 -6.0930 -3.5811 45.3216 0.0000 0.0000 0.0000
# 4 0.0000 0.0000 0.0000 -70.3837 0.0000 0.0000
# 5 0.0000 0.0000 0.0000 0.0000 13.7735 0.0000
# 6 0.0000 0.0000 0.0000 0.0000 0.0000 -10.2557
#
#
#
# Elastic Compliance Matrix: (Units=1/GPa)
#
#
# Indices 1 2 3 4 5 6 
#
# 1 0.025176 -0.014273 0.002257 0.000000 0.000000 0.000000
# 2 -0.014273 0.013402 -0.000860 0.000000 0.000000 0.000000
# 3 0.002257 -0.000860 0.022300 0.000000 0.000000 0.000000
# 4 0.000000 0.000000 0.000000 -0.014208 0.000000 0.000000
# 5 0.000000 0.000000 0.000000 0.000000 0.072603 0.000000
# 6 0.000000 0.000000 0.000000 0.000000 0.000000 -0.097507
#
#
# Mechanical properties :
#
#
# Convention : Reuss Voigt Hill
#
# Bulk Modulus (GPa) = 28.46969 58.90809 43.68889
# Shear Modulus (GPa) = 84.41991 2.45549 43.43770
#
# Velocity S-wave (km/s) = 6.38514 1.08897 4.58017
# Velocity P-wave (km/s) = 8.25284 5.48000 7.00499
#
# Compressibility (1/GPa) = 0.03512507
#
# Stress axis : x y z
#
# Youngs Moduli (GPa) = 39.72027 74.61635 44.84306
#
# Poissons Ratio (x) = 1.06502 -0.10120
# Poissons Ratio (y) = 0.56694 0.03856
# Poissons Ratio (z) = -0.08964 0.06417
#
# Static dielectric constant tensor:
#      x y z
#    x 1.719840 0.000000 0.000000 
#    y 0.000000 1.718090 0.000000 
#    z 0.000000 0.000000 1.771550 
# 
# From -- ./inp_files/5840.got.cif
#   From: 2010.05.17/outbox.cif.g08.bks.cpg/sg58_3_cif.got.tgz:5840.got - 2010.06.03 14:20:14.
