data_PCOD9441826
_publ_section_title
;
Structure prediction by ZEFSAII (Michael W. Deem and Ramdas Pophale) SiO2 
 PCOD9441826
Probable space group: P N N M
;
_chemical_formula_sum "Si O2"
_cell_formula_units_Z 64
_cell_length_a 7.148151
_cell_length_b 29.402322
_cell_length_c 13.832195
_cell_angle_alpha 90.000000
_cell_angle_beta 90.000000
_cell_angle_gamma 90.000000
_cell_volume 2907.143371
_symmetry_space_group_name_H-M "P N N M"
_symmetry_group_IT_number 58
_symmetry_cell_setting 'orthorhombic'
loop_
_space_group_symop_operation_xyz
x,y,z
-x,-y,z
1/2+x,1/2-y,1/2-z
1/2-x,1/2+y,1/2-z
-x,-y,-z
x,y,-z
1/2-x,1/2+y,1/2+z
1/2+x,1/2-y,1/2+z
loop_
_atom_site_type_symbol
_atom_site_label
_atom_site_fract_x
_atom_site_fract_y
_atom_site_fract_z
Si Si1 0.281157 0.016360 0.387933
Si Si2 0.874645 0.117835 0.108901
Si Si3 0.404038 0.328968 0.109107
Si Si4 0.713895 0.852133 0.107366
Si Si5 0.807693 0.077533 0.310201
Si Si6 0.491824 0.291325 0.693677
Si Si7 0.609218 0.894005 0.698229
Si Si8 0.961143 0.303708 0.109026
O O1 0.237836 0.026635 0.500000
O O2 0.265975 0.061655 0.322159
O O3 0.500000 0.000000 0.384766
O O4 0.167275 0.972895 0.349412
O O5 0.821265 0.083715 0.194323
O O6 0.851177 0.169924 0.148996
O O7 0.899511 0.883652 0.102259
O O8 0.800121 0.111629 0.000000
O O9 0.422073 0.381917 0.139495
O O10 0.499898 0.300295 0.193030
O O11 0.182311 0.316359 0.114942
O O12 0.465370 0.321001 0.000000
O O13 0.596893 0.875348 0.192007
O O14 0.810798 0.804955 0.142646
O O15 0.633028 0.847862 0.000000
O O16 0.594350 0.090294 0.334832
O O17 0.432253 0.240634 0.672808
O O18 0.651609 0.848802 0.637642
O O19 0.919645 0.290430 0.000000
#
# Coordination Sequence:
#
# PCOD9441826 Si02
#       8
#     8   8   8   8   8   8   8   8
#     4   9  17  32  54  77 106 139 168 207 268 321
#     4   8  16  32  53  72  97 139 177 210 255 307
#     4   9  18  32  53  77 101 132 175 219 257 305
#     4   9  19  36  54  71 104 145 172 205 266 314
#     4   9  17  32  55  80 104 130 175 219 256 305
#     4   9  18  32  53  72 100 139 178 207 251 316
#     4  10  20  32  52  82 105 133 173 220 256 309
#     4  10  19  32  52  76 103 136 173 216 261 308
#
# _framework density 22.014737
#
# number of rings (size 3 to 8) (size 9 to 14) (size 15 to 20)
#    0.750    2.125    0.000    1.500    1.750    3.500 
#    0.000    2.500    0.000    5.250    0.000    0.000 
#    0.000    0.000    0.000    0.000    0.000    0.000 
#
# Total GULP energy -356913.504271 kJ/mol
# GULP energy per Si atom -5576.773504 kJ/mol
# Density = 2.196463 g / cm^3
# Si number density = 22.014737 Si / 1000 Ang^3
#
#
#
# Elastic Constant Matrix: (Units=GPa)
#
#
# Indices 1 2 3 4 5 6 
#
# 1 39.0221 22.1127 -1.9889 0.0000 0.0000 0.0000
# 2 22.1127 141.0871 70.2021 0.0000 0.0000 0.0000
# 3 -1.9889 70.2021 156.1835 0.0000 0.0000 0.0000
# 4 0.0000 0.0000 0.0000 6.7108 0.0000 0.0000
# 5 0.0000 0.0000 0.0000 0.0000 25.3394 0.0000
# 6 0.0000 0.0000 0.0000 0.0000 0.0000 24.7541
#
#
#
# Elastic Compliance Matrix: (Units=1/GPa)
#
#
# Indices 1 2 3 4 5 6 
#
# 1 0.029270 -0.006148 0.003136 0.000000 0.000000 0.000000
# 2 -0.006148 0.010421 -0.004762 0.000000 0.000000 0.000000
# 3 0.003136 -0.004762 0.008583 0.000000 0.000000 0.000000
# 4 0.000000 0.000000 0.000000 0.149013 0.000000 0.000000
# 5 0.000000 0.000000 0.000000 0.000000 0.039464 0.000000
# 6 0.000000 0.000000 0.000000 0.000000 0.000000 0.040397
#
#
# Mechanical properties :
#
#
# Convention : Reuss Voigt Hill
#
# Bulk Modulus (GPa) = 30.55664 57.43828 43.99746
# Shear Modulus (GPa) = 16.46872 27.75866 22.11369
#
# Velocity S-wave (km/s) = 2.73807 3.55479 3.17282
# Velocity P-wave (km/s) = 4.88940 6.55714 5.78370
#
# Compressibility (1/GPa) = 0.03272611
#
# Stress axis : x y z
#
# Youngs Moduli (GPa) = 34.16436 95.95919 116.50531
#
# Poissons Ratio (x) = 0.58996 -0.36538
# Poissons Ratio (y) = 0.21004 0.55485
# Poissons Ratio (z) = -0.10715 0.45700
#
# Static dielectric constant tensor:
#      x y z
#    x 1.904180 0.000000 0.000000 
#    y 0.000000 1.777850 0.000000 
#    z 0.000000 0.000000 1.793780 
# 
# From -- ./inp_files/14838.got.cif
#   From: 2010.05.17/outbox.cif.g08.bks.cpg/sg58_8_cif.got.tgz:14838.got - 2010.06.03 14:20:14.
