data_PCOD9441758
_publ_section_title
;
Structure prediction by ZEFSAII (Michael W. Deem and Ramdas Pophale) SiO2 
 PCOD9441758
Probable space group: P N N M
;
_chemical_formula_sum "Si O2"
_cell_formula_units_Z 64
_cell_length_a 24.017350
_cell_length_b 11.414999
_cell_length_c 11.973309
_cell_angle_alpha 90.000000
_cell_angle_beta 90.000000
_cell_angle_gamma 90.000000
_cell_volume 3282.578763
_symmetry_space_group_name_H-M "P N N M"
_symmetry_group_IT_number 58
_symmetry_cell_setting 'orthorhombic'
loop_
_space_group_symop_operation_xyz
x,y,z
-x,-y,z
1/2+x,1/2-y,1/2-z
1/2-x,1/2+y,1/2-z
-x,-y,-z
x,y,-z
1/2-x,1/2+y,1/2+z
1/2+x,1/2-y,1/2+z
loop_
_atom_site_type_symbol
_atom_site_label
_atom_site_fract_x
_atom_site_fract_y
_atom_site_fract_z
Si Si1 0.384393 0.350656 0.783245
Si Si2 0.183554 0.280346 0.628720
Si Si3 0.916300 0.901182 0.370315
Si Si4 0.527406 0.120128 0.335064
Si Si5 0.861928 0.520455 0.764125
Si Si6 0.497168 0.371638 0.667416
Si Si7 0.693548 0.792498 0.368778
Si Si8 0.944908 0.367492 0.374700
O O1 0.385252 0.476621 0.841491
O O2 0.432256 0.354504 0.689710
O O3 0.330721 0.303536 0.717988
O O4 0.409727 0.252528 0.865304
O O5 0.183057 0.320649 0.500000
O O6 0.128492 0.202091 0.645694
O O7 0.181434 0.391112 0.709802
O O8 0.239833 0.206511 0.644015
O O9 0.934817 0.901308 0.500000
O O10 0.966945 0.885882 0.283246
O O11 0.592598 0.093928 0.332588
O O12 0.517500 0.249258 0.383133
O O13 0.495680 0.131876 0.213840
O O14 0.500000 0.000000 0.380802
O O15 0.834827 0.414754 0.832821
O O16 0.900754 0.463927 0.667197
O O17 0.500000 0.500000 0.614604
O O18 0.681254 0.767818 0.500000
O O19 0.964521 0.384758 0.500000
#
# Coordination Sequence:
#
# PCOD9441758 Si02
#       8
#     8   8   8   8   8   8   8   8
#     4   9  19  33  53  78 112 153 187 223 273 337
#     4  10  21  35  55  84 110 142 186 230 284 347
#     4  10  19  31  53  88 121 149 179 222 287 363
#     4   9  17  28  46  77 113 151 182 220 271 347
#     4  10  19  34  55  77 108 144 186 234 279 335
#     4   9  17  30  49  79 115 151 178 225 280 352
#     4  10  23  41  59  78 106 151 203 245 281 321
#     4   9  17  28  48  82 119 149 172 212 278 350
#
# _framework density 19.496867000000002
#
# number of rings (size 3 to 8) (size 9 to 14) (size 15 to 20)
#    0.000    2.500    1.250    1.500    1.750    7.000 
#    0.000    0.000    0.000   23.250    0.000    0.000 
#    0.000    0.000    0.000    0.000    0.000    0.000 
#
# Total GULP energy -356566.087730 kJ/mol
# GULP energy per Si atom -5571.345121 kJ/mol
# Density = 1.945249 g / cm^3
# Si number density = 19.496867 Si / 1000 Ang^3
#
#
#
# Elastic Constant Matrix: (Units=GPa)
#
#
# Indices 1 2 3 4 5 6 
#
# 1 71.7911 2.0903 22.5145 0.0000 0.0000 0.0000
# 2 2.0903 121.3393 18.1646 0.0000 0.0000 0.0000
# 3 22.5145 18.1646 95.9272 0.0000 0.0000 0.0000
# 4 0.0000 0.0000 0.0000 42.2244 0.0000 0.0000
# 5 0.0000 0.0000 0.0000 0.0000 -43.5118 0.0000
# 6 0.0000 0.0000 0.0000 0.0000 0.0000 24.9223
#
#
#
# Elastic Compliance Matrix: (Units=1/GPa)
#
#
# Indices 1 2 3 4 5 6 
#
# 1 0.015045 0.000277 -0.003584 0.000000 0.000000 0.000000
# 2 0.000277 0.008487 -0.001672 0.000000 0.000000 0.000000
# 3 -0.003584 -0.001672 0.011582 0.000000 0.000000 0.000000
# 4 0.000000 0.000000 0.000000 0.023683 0.000000 0.000000
# 5 0.000000 0.000000 0.000000 0.000000 -0.022982 0.000000
# 6 0.000000 0.000000 0.000000 0.000000 0.000000 0.040125
#
#
# Mechanical properties :
#
#
# Convention : Reuss Voigt Hill
#
# Bulk Modulus (GPa) = 39.74991 41.62183 40.68587
# Shear Modulus (GPa) = 53.03210 21.14620 37.08915
#
# Velocity S-wave (km/s) = 5.22105 3.29689 4.36628
# Velocity P-wave (km/s) = 7.53511 5.99057 6.80679
#
# Compressibility (1/GPa) = 0.02515729
#
# Stress axis : x y z
#
# Youngs Moduli (GPa) = 66.46680 117.82872 86.33861
#
# Poissons Ratio (x) = -0.03267 0.30941
# Poissons Ratio (y) = -0.01843 0.14437
# Poissons Ratio (z) = 0.23819 0.19703
#
# Static dielectric constant tensor:
#      x y z
#    x 1.644570 0.000000 0.000000 
#    y 0.000000 1.739140 0.000000 
#    z 0.000000 0.000000 1.690990 
# 
# From -- ./inp_files/17561.got.cif
#   From: 2010.05.17/outbox.cif.g08.bks.cpg/sg58_9_cif.got.tgz:17561.got - 2010.06.03 14:20:14.
