data_PCOD9441907
_publ_section_title
;
Structure prediction by ZEFSAII (Michael W. Deem and Ramdas Pophale) SiO2 
 PCOD9441907
Probable space group: P N N M
;
_chemical_formula_sum "Si O2"
_cell_formula_units_Z 64
_cell_length_a 12.529107
_cell_length_b 25.909694
_cell_length_c 9.583161
_cell_angle_alpha 90.000000
_cell_angle_beta 90.000000
_cell_angle_gamma 90.000000
_cell_volume 3110.936787
_symmetry_space_group_name_H-M "P N N M"
_symmetry_group_IT_number 58
_symmetry_cell_setting 'orthorhombic'
loop_
_space_group_symop_operation_xyz
x,y,z
-x,-y,z
1/2+x,1/2-y,1/2-z
1/2-x,1/2+y,1/2-z
-x,-y,-z
x,y,-z
1/2-x,1/2+y,1/2+z
1/2+x,1/2-y,1/2+z
loop_
_atom_site_type_symbol
_atom_site_label
_atom_site_fract_x
_atom_site_fract_y
_atom_site_fract_z
Si Si1 0.982300 0.939368 0.662245
Si Si2 0.267607 0.088814 0.336648
Si Si3 0.634540 0.101282 0.339686
Si Si4 0.070231 0.672026 0.837684
Si Si5 0.023437 0.846699 0.158154
Si Si6 0.445935 0.741636 0.837971
Si Si7 0.739832 0.182777 0.846787
Si Si8 0.128322 0.498752 0.341016
O O1 0.013868 0.931076 0.500000
O O2 0.858358 0.922201 0.676264
O O3 0.042726 0.901494 0.767756
O O4 0.000000 0.000000 0.692368
O O5 0.295172 0.079343 0.500000
O O6 0.315740 0.145705 0.305559
O O7 0.325462 0.048170 0.237100
O O8 0.655778 0.089316 0.500000
O O9 0.514662 0.124401 0.328255
O O10 0.705894 0.147040 0.279974
O O11 0.655963 0.051958 0.245887
O O12 0.023293 0.715921 0.736087
O O13 0.068985 0.689987 0.000000
O O14 0.134028 0.815163 0.152683
O O15 0.950039 0.811420 0.254638
O O16 0.984296 0.853458 0.000000
O O17 0.326971 0.765146 0.833782
O O18 0.476121 0.734545 0.000000
O O19 0.706990 0.160493 0.000000
O O20 0.167095 0.496278 0.500000
O O21 0.000000 0.500000 0.342962
#
# Coordination Sequence:
#
# PCOD9441907 Si02
#       8
#     8   8   8   8   8   8   8   8
#     4  10  24  45  65  88 119 157 208 261 306 360
#     4  10  21  38  59  84 119 164 205 251 309 362
#     4  10  19  32  54  82 116 155 198 248 296 356
#     4   9  18  34  56  85 120 155 194 240 299 363
#     4  11  24  43  66  91 123 160 203 251 304 366
#     4  10  21  39  64  92 125 159 199 248 301 362
#     4   9  21  40  61  88 121 160 199 244 304 362
#     4  11  22  33  51  83 123 161 200 249 302 361
#
# _framework density 20.572581
#
# number of rings (size 3 to 8) (size 9 to 14) (size 15 to 20)
#    0.000    2.000    1.250    1.500    1.750    4.750 
#    0.000    5.000    0.000    0.000    0.000    0.000 
#    0.000    0.000    0.000    0.000    0.000    0.000 
#
# Total GULP energy -357315.012700 kJ/mol
# GULP energy per Si atom -5583.047073 kJ/mol
# Density = 2.052576 g / cm^3
# Si number density = 20.572581 Si / 1000 Ang^3
#
#
#
# Elastic Constant Matrix: (Units=GPa)
#
#
# Indices 1 2 3 4 5 6 
#
# 1 51.3650 15.6579 28.2549 0.0000 0.0000 0.0000
# 2 15.6579 106.0845 73.3800 0.0000 0.0000 0.0000
# 3 28.2549 73.3800 126.7511 0.0000 0.0000 0.0000
# 4 0.0000 0.0000 0.0000 19.8444 0.0000 0.0000
# 5 0.0000 0.0000 0.0000 0.0000 27.4141 0.0000
# 6 0.0000 0.0000 0.0000 0.0000 0.0000 15.3163
#
#
#
# Elastic Compliance Matrix: (Units=1/GPa)
#
#
# Indices 1 2 3 4 5 6 
#
# 1 0.022193 0.000244 -0.005089 0.000000 0.000000 0.000000
# 2 0.000244 0.015725 -0.009158 0.000000 0.000000 0.000000
# 3 -0.005089 -0.009158 0.014326 0.000000 0.000000 0.000000
# 4 0.000000 0.000000 0.000000 0.050392 0.000000 0.000000
# 5 0.000000 0.000000 0.000000 0.000000 0.036478 0.000000
# 6 0.000000 0.000000 0.000000 0.000000 0.000000 0.065290
#
#
# Mechanical properties :
#
#
# Convention : Reuss Voigt Hill
#
# Bulk Modulus (GPa) = 41.25600 57.64293 49.44947
# Shear Modulus (GPa) = 20.79098 23.64214 22.21656
#
# Velocity S-wave (km/s) = 3.18247 3.39367 3.28977
# Velocity P-wave (km/s) = 5.79668 6.59061 6.20636
#
# Compressibility (1/GPa) = 0.02423890
#
# Stress axis : x y z
#
# Youngs Moduli (GPa) = 45.05885 63.59174 69.80405
#
# Poissons Ratio (x) = -0.01553 0.35520
# Poissons Ratio (y) = -0.01100 0.63929
# Poissons Ratio (z) = 0.22929 0.58239
#
# Static dielectric constant tensor:
#      x y z
#    x 1.776880 0.000000 0.000000 
#    y 0.000000 1.725570 0.000000 
#    z 0.000000 0.000000 1.716740 
# 
# From -- ./inp_files/6931.got.cif
#   From: 2010.05.17/outbox.cif.g08.bks.cpg/sg58_4_cif.got.tgz:6931.got - 2010.06.03 14:20:14.
