data_PCOD9441138
_publ_section_title
;
Structure prediction by ZEFSAII (Michael W. Deem and Ramdas Pophale) SiO2 
 PCOD9441138
Probable space group: P N N M
;
_chemical_formula_sum "Si O2"
_cell_formula_units_Z 56
_cell_length_a 14.868133
_cell_length_b 22.100336
_cell_length_c 7.481964
_cell_angle_alpha 90.000000
_cell_angle_beta 90.000000
_cell_angle_gamma 90.000000
_cell_volume 2458.504050
_symmetry_space_group_name_H-M "P N N M"
_symmetry_group_IT_number 58
_symmetry_cell_setting 'orthorhombic'
loop_
_space_group_symop_operation_xyz
x,y,z
-x,-y,z
1/2+x,1/2-y,1/2-z
1/2-x,1/2+y,1/2-z
-x,-y,-z
x,y,-z
1/2-x,1/2+y,1/2+z
1/2+x,1/2-y,1/2+z
loop_
_atom_site_type_symbol
_atom_site_label
_atom_site_fract_x
_atom_site_fract_y
_atom_site_fract_z
Si Si1 0.716203 0.978632 0.705040
Si Si2 0.503661 0.764934 0.281927
Si Si3 0.251117 0.892020 0.706573
Si Si4 0.058528 0.862664 0.215087
Si Si5 0.080996 0.045000 0.784930
Si Si6 0.202852 0.258097 0.215802
Si Si7 0.844199 0.349942 0.786613
O O1 0.683935 0.983012 0.500000
O O2 0.823177 0.966503 0.702257
O O3 0.676640 0.916895 0.786641
O O4 0.706550 0.046398 0.785136
O O5 0.502337 0.765719 0.500000
O O6 0.560442 0.706305 0.226307
O O7 0.401229 0.755219 0.225570
O O8 0.561036 0.822436 0.221649
O O9 0.280542 0.889294 0.500000
O O10 0.143239 0.898673 0.712015
O O11 0.266562 0.824817 0.783085
O O12 0.962078 0.890453 0.261380
O O13 0.065396 0.866257 0.000000
O O14 0.092759 0.040599 0.000000
O O15 0.000000 0.000000 0.736193
O O16 0.266028 0.200903 0.261773
O O17 0.204194 0.259339 0.000000
O O18 0.851007 0.356687 0.000000
#
# Coordination Sequence:
#
# PCOD9441138 Si02
#       7
#     8   8   8   8   8   8   8
#     4  10  21  34  49  74 109 142 170 212 267 319
#     4   9  18  33  54  76 101 134 174 218 262 306
#     4  10  20  33  50  75 106 135 168 210 260 310
#     4  10  18  31  51  73  99 133 172 211 254 308
#     4  10  19  30  48  75 102 134 176 212 251 314
#     4  10  20  36  57  79 104 138 178 222 265 309
#     4  10  20  36  56  78 106 140 176 216 266 320
#
# _framework density 22.778079999999999
#
# number of rings (size 3 to 8) (size 9 to 14) (size 15 to 20)
#    0.000    2.143    2.857    0.857    0.000    2.571 
#    0.000    2.143    0.000    4.286    0.000    0.000 
#    0.000    4.571    0.000    0.000    0.000    0.000 
#
# Total GULP energy -312366.488748 kJ/mol
# GULP energy per Si atom -5577.973013 kJ/mol
# Density = 2.272624 g / cm^3
# Si number density = 22.778080 Si / 1000 Ang^3
#
#
#
# Elastic Constant Matrix: (Units=GPa)
#
#
# Indices 1 2 3 4 5 6 
#
# 1 36.3836 -2.7874 -9.4485 0.0000 0.0000 0.0000
# 2 -2.7874 121.4208 0.9051 0.0000 0.0000 0.0000
# 3 -9.4485 0.9051 62.7038 0.0000 0.0000 0.0000
# 4 0.0000 0.0000 0.0000 11.1017 0.0000 0.0000
# 5 0.0000 0.0000 0.0000 0.0000 12.6590 0.0000
# 6 0.0000 0.0000 0.0000 0.0000 0.0000 34.2302
#
#
#
# Elastic Compliance Matrix: (Units=1/GPa)
#
#
# Indices 1 2 3 4 5 6 
#
# 1 0.028652 0.000626 0.004308 0.000000 0.000000 0.000000
# 2 0.000626 0.008250 -0.000025 0.000000 0.000000 0.000000
# 3 0.004308 -0.000025 0.016598 0.000000 0.000000 0.000000
# 4 0.000000 0.000000 0.000000 0.090076 0.000000 0.000000
# 5 0.000000 0.000000 0.000000 0.000000 0.078995 0.000000
# 6 0.000000 0.000000 0.000000 0.000000 0.000000 0.029214
#
#
# Mechanical properties :
#
#
# Convention : Reuss Voigt Hill
#
# Bulk Modulus (GPa) = 15.79334 21.98297 18.88815
# Shear Modulus (GPa) = 19.00619 27.05412 23.03015
#
# Velocity S-wave (km/s) = 2.89174 3.45008 3.18318
# Velocity P-wave (km/s) = 4.25420 5.05397 4.67123
#
# Compressibility (1/GPa) = 0.06331784
#
# Stress axis : x y z
#
# Youngs Moduli (GPa) = 34.90198 121.20669 60.24986
#
# Poissons Ratio (x) = -0.07583 -0.25958
# Poissons Ratio (y) = -0.02184 0.00150
# Poissons Ratio (z) = -0.15037 0.00301
#
# Static dielectric constant tensor:
#      x y z
#    x 1.820830 0.000000 0.000000 
#    y 0.000000 1.935190 0.000000 
#    z 0.000000 0.000000 1.903130 
# 
# From -- ./inp_files/6301.got.cif
#   From: 2010.05.17/outbox.cif.g08.bks.cpg/sg58_4_cif.got.tgz:6301.got - 2010.06.03 14:20:14.
