data_PCOD9441909
_publ_section_title
;
Structure prediction by ZEFSAII (Michael W. Deem and Ramdas Pophale) SiO2 
 PCOD9441909
Probable space group: P N N M
;
_chemical_formula_sum "Si O2"
_cell_formula_units_Z 48
_cell_length_a 8.846841
_cell_length_b 12.072855
_cell_length_c 18.732040
_cell_angle_alpha 90.000000
_cell_angle_beta 90.000000
_cell_angle_gamma 90.000000
_cell_volume 2000.706039
_symmetry_space_group_name_H-M "P N N M"
_symmetry_group_IT_number 58
_symmetry_cell_setting 'orthorhombic'
loop_
_space_group_symop_operation_xyz
x,y,z
-x,-y,z
1/2+x,1/2-y,1/2-z
1/2-x,1/2+y,1/2-z
-x,-y,-z
x,y,-z
1/2-x,1/2+y,1/2+z
1/2+x,1/2-y,1/2+z
loop_
_atom_site_type_symbol
_atom_site_label
_atom_site_fract_x
_atom_site_fract_y
_atom_site_fract_z
Si Si1 0.067816 0.730152 0.692395
Si Si2 0.731672 0.102881 0.775348
Si Si3 0.147605 0.872819 0.079593
Si Si4 0.673466 0.035131 0.375256
Si Si5 0.369518 0.660428 0.922928
Si Si6 0.194541 0.206849 0.918233
O O1 0.159077 0.794344 0.753241
O O2 0.271559 0.975662 0.707021
O O3 0.938122 0.649734 0.719853
O O4 0.982709 0.819389 0.641897
O O5 0.790146 0.063163 0.851772
O O6 0.816392 0.330899 0.639772
O O7 0.244968 0.758875 0.080589
O O8 0.971549 0.845481 0.089046
O O9 0.169030 0.922089 0.000000
O O10 0.681263 0.161841 0.400632
O O11 0.500000 0.000000 0.381793
O O12 0.781857 0.954138 0.418022
O O13 0.447117 0.669330 0.000000
O O14 0.242649 0.191003 0.000000
#
# Coordination Sequence:
#
# PCOD9441909 Si02
#       6
#     8   8   8   8   8   8
#     4  10  21  34  54  76 114 151 188 233 269 325
#     4  10  21  35  52  78 109 148 192 231 274 330
#     4   9  18  35  57  79 105 142 185 231 279 327
#     4  11  21  33  53  82 119 155 181 219 283 343
#     4  10  20  34  55  83 116 149 179 219 278 340
#     4  10  19  32  54  83 111 144 184 226 279 336
#
# _framework density 23.991530999999998
#
# number of rings (size 3 to 8) (size 9 to 14) (size 15 to 20)
#    0.000    2.000    1.667    3.000    2.333    4.000 
#    0.000    4.167    0.000    0.500    0.000    2.333 
#    0.000    0.000    0.000    0.000    0.000    0.000 
#
# Total GULP energy -268794.925261 kJ/mol
# GULP energy per Si atom -5599.894276 kJ/mol
# Density = 2.393693 g / cm^3
# Si number density = 23.991531 Si / 1000 Ang^3
#
#
#
# Elastic Constant Matrix: (Units=GPa)
#
#
# Indices 1 2 3 4 5 6 
#
# 1 120.1023 26.4998 46.7671 0.0000 0.0000 0.0000
# 2 26.4998 76.7003 26.2772 0.0000 0.0000 0.0000
# 3 46.7671 26.2772 138.4057 0.0000 0.0000 0.0000
# 4 0.0000 0.0000 0.0000 5.8351 0.0000 0.0000
# 5 0.0000 0.0000 0.0000 0.0000 49.7037 0.0000
# 6 0.0000 0.0000 0.0000 0.0000 0.0000 11.6861
#
#
#
# Elastic Compliance Matrix: (Units=1/GPa)
#
#
# Indices 1 2 3 4 5 6 
#
# 1 0.010003 -0.002458 -0.002913 0.000000 0.000000 0.000000
# 2 -0.002458 0.014549 -0.001932 0.000000 0.000000 0.000000
# 3 -0.002913 -0.001932 0.008576 0.000000 0.000000 0.000000
# 4 0.000000 0.000000 0.000000 0.171377 0.000000 0.000000
# 5 0.000000 0.000000 0.000000 0.000000 0.020119 0.000000
# 6 0.000000 0.000000 0.000000 0.000000 0.000000 0.085572
#
#
# Mechanical properties :
#
#
# Convention : Reuss Voigt Hill
#
# Bulk Modulus (GPa) = 53.98924 59.36626 56.67775
# Shear Modulus (GPa) = 15.10685 29.15593 22.13139
#
# Velocity S-wave (km/s) = 2.51205 3.48984 3.04051
# Velocity P-wave (km/s) = 5.56473 6.40601 6.00013
#
# Compressibility (1/GPa) = 0.01852221
#
# Stress axis : x y z
#
# Youngs Moduli (GPa) = 99.97003 68.73453 116.60061
#
# Poissons Ratio (x) = 0.16894 0.33970
# Poissons Ratio (y) = 0.24572 0.22523
# Poissons Ratio (z) = 0.29125 0.13277
#
# Static dielectric constant tensor:
#      x y z
#    x 1.864460 0.000000 0.000000 
#    y 0.000000 1.883670 0.000000 
#    z 0.000000 0.000000 1.918370 
# 
# From -- ./inp_files/25431.got.cif
#   From: 2010.05.17/outbox.cif.g08.bks.cpg/sg58_13_cif.got.tgz:25431.got - 2010.06.03 14:20:14.
