data_PCOD9441596
_publ_section_title
;
Structure prediction by ZEFSAII (Michael W. Deem and Ramdas Pophale) SiO2 
 PCOD9441596
Probable space group: P N N M
;
_chemical_formula_sum "Si O2"
_cell_formula_units_Z 58
_cell_length_a 15.402238
_cell_length_b 18.469160
_cell_length_c 9.394153
_cell_angle_alpha 90.000000
_cell_angle_beta 90.000000
_cell_angle_gamma 90.000000
_cell_volume 2672.320866
_symmetry_space_group_name_H-M "P N N M"
_symmetry_group_IT_number 58
_symmetry_cell_setting 'orthorhombic'
loop_
_space_group_symop_operation_xyz
x,y,z
-x,-y,z
1/2+x,1/2-y,1/2-z
1/2-x,1/2+y,1/2-z
-x,-y,-z
x,y,-z
1/2-x,1/2+y,1/2+z
1/2+x,1/2-y,1/2+z
loop_
_atom_site_type_symbol
_atom_site_label
_atom_site_fract_x
_atom_site_fract_y
_atom_site_fract_z
Si Si1 0.889486 0.076294 0.664655
Si Si2 0.207627 0.797317 0.830409
Si Si3 0.801746 0.917602 0.662889
Si Si4 0.455100 0.631163 0.661897
Si Si5 0.889671 0.644448 0.669402
Si Si6 0.837649 0.486235 0.659050
Si Si7 0.453929 0.211083 0.661603
Si Si8 0.500000 0.000000 0.000000
O O1 0.905688 0.095816 0.500000
O O2 0.828257 0.135586 0.739162
O O3 0.846422 0.997497 0.667187
O O4 0.978701 0.081075 0.750926
O O5 0.311771 0.797427 0.813381
O O6 0.145339 0.729490 0.792192
O O7 0.192544 0.810491 0.000000
O O8 0.794722 0.893190 0.500000
O O9 0.710845 0.932739 0.738105
O O10 0.864562 0.867987 0.755617
O O11 0.443309 0.606101 0.500000
O O12 0.500972 0.709269 0.658974
O O13 0.907248 0.631393 0.500000
O O14 0.848449 0.567897 0.717328
O O15 0.978026 0.666636 0.744708
O O16 0.793517 0.490684 0.500000
O O17 0.935332 0.466273 0.621257
O O18 0.451482 0.182591 0.500000
#
# Coordination Sequence:
#
# PCOD9441596 Si02
#       8
#     8   8   8   8   8   8   8   2
#     4  10  19  30  48  80 116 142 176 230 279 333
#     4   9  18  34  54  78 106 144 190 231 273 348
#     4  11  21  32  52  85 115 145 186 233 289 342
#     4  10  21  35  51  74 114 160 191 221 280 345
#     4  10  19  34  60  84 106 144 195 230 288 344
#     4   9  19  37  61  83 107 145 189 241 282 340
#     4   9  20  36  53  77 113 147 185 238 285 335
#     4   8  20  40  62  84 110 136 190 240 290 326
#
# _framework density 21.703980000000001
#
# number of rings (size 3 to 8) (size 9 to 14) (size 15 to 20)
#    0.414    1.931    1.379    2.483    0.000    7.172 
#    0.000    1.724    0.000    1.655    0.000    0.000 
#    0.000    0.000    0.000    0.000    0.000    0.000 
#
# Total GULP energy -323070.072930 kJ/mol
# GULP energy per Si atom -5570.173671 kJ/mol
# Density = 2.165458 g / cm^3
# Si number density = 21.703980 Si / 1000 Ang^3
#
#
#
# Elastic Constant Matrix: (Units=GPa)
#
#
# Indices 1 2 3 4 5 6 
#
# 1 93.2699 21.3318 37.1185 0.0000 0.0000 0.0000
# 2 21.3318 61.1913 25.2672 0.0000 0.0000 0.0000
# 3 37.1185 25.2672 87.3253 0.0000 0.0000 0.0000
# 4 0.0000 0.0000 0.0000 4.2447 0.0000 0.0000
# 5 0.0000 0.0000 0.0000 0.0000 37.6537 0.0000
# 6 0.0000 0.0000 0.0000 0.0000 0.0000 24.1681
#
#
#
# Elastic Compliance Matrix: (Units=1/GPa)
#
#
# Indices 1 2 3 4 5 6 
#
# 1 0.013261 -0.002607 -0.004882 0.000000 0.000000 0.000000
# 2 -0.002607 0.019072 -0.004410 0.000000 0.000000 0.000000
# 3 -0.004882 -0.004410 0.014803 0.000000 0.000000 0.000000
# 4 0.000000 0.000000 0.000000 0.235585 0.000000 0.000000
# 5 0.000000 0.000000 0.000000 0.000000 0.026558 0.000000
# 6 0.000000 0.000000 0.000000 0.000000 0.000000 0.041377
#
#
# Mechanical properties :
#
#
# Convention : Reuss Voigt Hill
#
# Bulk Modulus (GPa) = 42.85104 45.46905 44.16005
# Shear Modulus (GPa) = 13.08099 23.75123 18.41611
#
# Velocity S-wave (km/s) = 2.45766 3.31165 2.91609
# Velocity P-wave (km/s) = 5.27634 5.96807 5.63283
#
# Compressibility (1/GPa) = 0.02333665
#
# Stress axis : x y z
#
# Youngs Moduli (GPa) = 75.41017 52.43272 67.55450
#
# Poissons Ratio (x) = 0.13668 0.32983
# Poissons Ratio (y) = 0.19658 0.29794
# Poissons Ratio (z) = 0.36818 0.23125
#
# Static dielectric constant tensor:
#      x y z
#    x 1.771220 0.000000 0.000000 
#    y 0.000000 1.808460 0.000000 
#    z 0.000000 0.000000 1.762050 
# 
# From -- ./inp_files/7090.got.cif
#   From: 2010.05.17/outbox.cif.g08.bks.cpg/sg58_4_cif.got.tgz:7090.got - 2010.06.03 14:20:14.
