data_PCOD9441749
_publ_section_title
;
Structure prediction by ZEFSAII (Michael W. Deem and Ramdas Pophale) SiO2 
 PCOD9441749
Probable space group: P N N M
;
_chemical_formula_sum "Si O2"
_cell_formula_units_Z 64
_cell_length_a 37.588940
_cell_length_b 10.737849
_cell_length_c 7.447246
_cell_angle_alpha 90.000000
_cell_angle_beta 90.000000
_cell_angle_gamma 90.000000
_cell_volume 3005.889914
_symmetry_space_group_name_H-M "P N N M"
_symmetry_group_IT_number 58
_symmetry_cell_setting 'orthorhombic'
loop_
_space_group_symop_operation_xyz
x,y,z
-x,-y,z
1/2+x,1/2-y,1/2-z
1/2-x,1/2+y,1/2-z
-x,-y,-z
x,y,-z
1/2-x,1/2+y,1/2+z
1/2+x,1/2-y,1/2+z
loop_
_atom_site_type_symbol
_atom_site_label
_atom_site_fract_x
_atom_site_fract_y
_atom_site_fract_z
Si Si1 0.403040 0.511698 0.716941
Si Si2 0.824714 0.891759 0.288937
Si Si3 0.698338 0.127789 0.210988
Si Si4 0.023169 0.119815 0.218929
Si Si5 0.327757 0.135978 0.786984
Si Si6 0.906882 0.274658 0.216011
Si Si7 0.982926 0.369768 0.219580
Si Si8 0.281713 0.370524 0.781995
O O1 0.403761 0.508555 0.500000
O O2 0.365372 0.566822 0.772009
O O3 0.436498 0.594098 0.776272
O O4 0.407053 0.368843 0.779733
O O5 0.815814 0.884176 0.500000
O O6 0.817555 0.755337 0.211298
O O7 0.800147 0.002586 0.215615
O O8 0.740801 0.134431 0.227777
O O9 0.684021 0.997657 0.287812
O O10 0.688705 0.125657 0.000000
O O11 0.005845 0.249513 0.276657
O O12 0.022592 0.121205 0.000000
O O13 0.000000 0.000000 0.273845
O O14 0.369384 0.163389 0.762424
O O15 0.304331 0.251546 0.717042
O O16 0.320725 0.133444 0.000000
O O17 0.942174 0.346871 0.277286
O O18 0.908871 0.269877 0.000000
O O19 0.000000 0.500000 0.278323
O O20 0.983069 0.370848 0.000000
O O21 0.283123 0.370730 0.000000
#
# Coordination Sequence:
#
# PCOD9441749 Si02
#       8
#     8   8   8   8   8   8   8   8
#     4  10  19  31  53  81 103 133 178 219 255 302
#     4  10  21  37  54  76 107 139 170 210 261 309
#     4  10  22  37  54  77 106 138 172 212 261 311
#     4   9  15  27  47  70  99 132 165 206 254 298
#     4  10  21  37  55  77 106 142 175 207 260 319
#     4  10  19  32  53  80 105 134 177 220 256 303
#     4   9  17  29  47  74 106 135 166 211 262 305
#     4  10  20  35  56  78 102 136 176 213 255 308
#
# _framework density 21.291533999999999
#
# number of rings (size 3 to 8) (size 9 to 14) (size 15 to 20)
#    0.000    2.250    2.500    0.750    0.000    3.000 
#    0.000    1.250    0.000    1.500    0.000    0.000 
#    0.000    0.000    0.000    0.000    0.000    0.000 
#
# Total GULP energy -357560.332505 kJ/mol
# GULP energy per Si atom -5586.880195 kJ/mol
# Density = 2.124307 g / cm^3
# Si number density = 21.291534 Si / 1000 Ang^3
#
#
#
# Elastic Constant Matrix: (Units=GPa)
#
#
# Indices 1 2 3 4 5 6 
#
# 1 125.3276 96.9033 -24.6281 0.0000 0.0000 0.0000
# 2 96.9033 220.9667 6.1977 0.0000 0.0000 0.0000
# 3 -24.6281 6.1977 62.1620 0.0000 0.0000 0.0000
# 4 0.0000 0.0000 0.0000 -7.9077 0.0000 0.0000
# 5 0.0000 0.0000 0.0000 0.0000 17.2115 0.0000
# 6 0.0000 0.0000 0.0000 0.0000 0.0000 34.1107
#
#
#
# Elastic Compliance Matrix: (Units=1/GPa)
#
#
# Indices 1 2 3 4 5 6 
#
# 1 0.014131 -0.006372 0.006234 0.000000 0.000000 0.000000
# 2 -0.006372 0.007411 -0.003263 0.000000 0.000000 0.000000
# 3 0.006234 -0.003263 0.018882 0.000000 0.000000 0.000000
# 4 0.000000 0.000000 0.000000 -0.126458 0.000000 0.000000
# 5 0.000000 0.000000 0.000000 0.000000 0.058101 0.000000
# 6 0.000000 0.000000 0.000000 0.000000 0.000000 0.029316
#
#
# Mechanical properties :
#
#
# Convention : Reuss Voigt Hill
#
# Bulk Modulus (GPa) = 29.74289 62.82245 46.28267
# Shear Modulus (GPa) = 257.82666 30.68177 144.25422
#
# Velocity S-wave (km/s) = 11.01619 3.80021 8.24008
# Velocity P-wave (km/s) = 13.25927 6.98751 10.59796
#
# Compressibility (1/GPa) = 0.03362148
#
# Stress axis : x y z
#
# Youngs Moduli (GPa) = 70.76765 134.92728 52.96014
#
# Poissons Ratio (x) = 0.85973 -0.33014
# Poissons Ratio (y) = 0.45092 0.17283
# Poissons Ratio (z) = -0.44115 0.44032
#
# Static dielectric constant tensor:
#      x y z
#    x 1.705890 0.000000 0.000000 
#    y 0.000000 1.763180 0.000000 
#    z 0.000000 0.000000 1.865070 
# 
# From -- ./inp_files/17985.got.cif
#   From: 2010.05.17/outbox.cif.g08.bks.cpg/sg58_9_cif.got.tgz:17985.got - 2010.06.03 14:20:14.
