data_PCOD9441769
_publ_section_title
;
Structure prediction by ZEFSAII (Michael W. Deem and Ramdas Pophale) SiO2 
 PCOD9441769
Probable space group: P N N M
;
_chemical_formula_sum "Si O2"
_cell_formula_units_Z 64
_cell_length_a 29.133877
_cell_length_b 12.280185
_cell_length_c 7.346278
_cell_angle_alpha 90.000000
_cell_angle_beta 90.000000
_cell_angle_gamma 90.000000
_cell_volume 2628.273467
_symmetry_space_group_name_H-M "P N N M"
_symmetry_group_IT_number 58
_symmetry_cell_setting 'orthorhombic'
loop_
_space_group_symop_operation_xyz
x,y,z
-x,-y,z
1/2+x,1/2-y,1/2-z
1/2-x,1/2+y,1/2-z
-x,-y,-z
x,y,-z
1/2-x,1/2+y,1/2+z
1/2+x,1/2-y,1/2+z
loop_
_atom_site_type_symbol
_atom_site_label
_atom_site_fract_x
_atom_site_fract_y
_atom_site_fract_z
Si Si1 0.019811 0.287206 0.277840
Si Si2 0.170252 0.086729 0.203159
Si Si3 0.567050 0.432201 0.205479
Si Si4 0.071040 0.830323 0.278576
Si Si5 0.417406 0.969293 0.788923
Si Si6 0.269651 0.038829 0.777131
Si Si7 0.855997 0.329320 0.277593
Si Si8 0.325870 0.830138 0.211290
O O1 0.023294 0.292383 0.500000
O O2 0.039607 0.402478 0.212133
O O3 0.967916 0.257138 0.230991
O O4 0.049092 0.181443 0.215416
O O5 0.217535 0.044330 0.285945
O O6 0.177341 0.216265 0.192274
O O7 0.122227 0.069565 0.300991
O O8 0.164700 0.041324 0.000000
O O9 0.556539 0.550249 0.288448
O O10 0.548190 0.432972 0.000000
O O11 0.071892 0.837586 0.500000
O O12 0.120687 0.784098 0.222498
O O13 0.377159 0.878275 0.784806
O O14 0.391418 0.075570 0.716299
O O15 0.428314 0.997039 0.000000
O O16 0.304880 0.135055 0.720878
O O17 0.293147 0.926006 0.722010
O O18 0.268561 0.041836 0.000000
O O19 0.855494 0.332333 0.500000
O O20 0.314726 0.809770 0.000000
#
# Coordination Sequence:
#
# PCOD9441769 Si02
#       8
#     8   8   8   8   8   8   8   8
#     4   9  15  25  43  69  95 125 164 200 241 291
#     4  11  21  32  49  75  99 125 164 209 243 276
#     4  10  19  32  48  68  99 135 165 197 242 294
#     4   9  17  26  42  69 100 129 158 200 247 292
#     4   8  13  23  44  67  90 121 154 191 235 287
#     4   8  17  31  47  66  95 129 158 193 247 299
#     4   8  14  26  41  64  98 129 154 192 251 298
#     4   9  16  32  52  68  90 127 161 190 238 295
#
# _framework density 24.350587999999998
#
# number of rings (size 3 to 8) (size 9 to 14) (size 15 to 20)
#    0.000    3.000    1.250    2.250    0.000    3.000 
#    0.000    5.000    0.000    1.500    0.000    3.500 
#    0.000    4.000    0.000    0.000    0.000    0.000 
#
# Total GULP energy -357232.232902 kJ/mol
# GULP energy per Si atom -5581.753639 kJ/mol
# Density = 2.429517 g / cm^3
# Si number density = 24.350588 Si / 1000 Ang^3
#
#
#
# Elastic Constant Matrix: (Units=GPa)
#
#
# Indices 1 2 3 4 5 6 
#
# 1 95.5564 0.3861 1.8153 0.0000 0.0000 0.0000
# 2 0.3861 11.4822 -2.1131 0.0000 0.0000 0.0000
# 3 1.8153 -2.1131 88.0138 0.0000 0.0000 0.0000
# 4 0.0000 0.0000 0.0000 -12.1455 0.0000 0.0000
# 5 0.0000 0.0000 0.0000 0.0000 -1.9630 0.0000
# 6 0.0000 0.0000 0.0000 0.0000 0.0000 31.4716
#
#
#
# Elastic Compliance Matrix: (Units=1/GPa)
#
#
# Indices 1 2 3 4 5 6 
#
# 1 0.010471 -0.000394 -0.000225 0.000000 0.000000 0.000000
# 2 -0.000394 0.087493 0.002109 0.000000 0.000000 0.000000
# 3 -0.000225 0.002109 0.011417 0.000000 0.000000 0.000000
# 4 0.000000 0.000000 0.000000 -0.082335 0.000000 0.000000
# 5 0.000000 0.000000 0.000000 0.000000 -0.509413 0.000000
# 6 0.000000 0.000000 0.000000 0.000000 0.000000 0.031775
#
#
# Mechanical properties :
#
#
# Convention : Reuss Voigt Hill
#
# Bulk Modulus (GPa) = 8.89996 21.69212 15.29604
# Shear Modulus (GPa) = -12.01579 16.47022 2.22721
#
# Velocity S-wave (km/s) = -2.22378 2.60355 0.95741
# Velocity P-wave (km/s) = 1.71194 4.23858 2.74179
#
# Compressibility (1/GPa) = 0.11236006
#
# Stress axis : x y z
#
# Youngs Moduli (GPa) = 95.50282 11.42953 87.58764
#
# Poissons Ratio (x) = 0.00450 0.01974
# Poissons Ratio (y) = 0.03759 -0.18470
# Poissons Ratio (z) = 0.02153 -0.02410
#
# Static dielectric constant tensor:
#      x y z
#    x 1.924850 0.000000 0.000000 
#    y 0.000000 1.921500 0.000000 
#    z 0.000000 0.000000 1.942180 
# 
# From -- ./inp_files/10935.got.cif
#   From: 2010.05.17/outbox.cif.g08.bks.cpg/sg58_6_cif.got.tgz:10935.got - 2010.06.03 14:20:14.
