data_PCOD9441657
_publ_section_title
;
Structure prediction by ZEFSAII (Michael W. Deem and Ramdas Pophale) SiO2 
 PCOD9441657
Probable space group: P N N M
;
_chemical_formula_sum "Si O2"
_cell_formula_units_Z 56
_cell_length_a 22.702238
_cell_length_b 15.199084
_cell_length_c 7.600169
_cell_angle_alpha 90.000000
_cell_angle_beta 90.000000
_cell_angle_gamma 90.000000
_cell_volume 2622.462804
_symmetry_space_group_name_H-M "P N N M"
_symmetry_group_IT_number 58
_symmetry_cell_setting 'orthorhombic'
loop_
_space_group_symop_operation_xyz
x,y,z
-x,-y,z
1/2+x,1/2-y,1/2-z
1/2-x,1/2+y,1/2-z
-x,-y,-z
x,y,-z
1/2-x,1/2+y,1/2+z
1/2+x,1/2-y,1/2+z
loop_
_atom_site_type_symbol
_atom_site_label
_atom_site_fract_x
_atom_site_fract_y
_atom_site_fract_z
Si Si1 0.217648 0.332856 0.711920
Si Si2 0.617295 0.296386 0.289957
Si Si3 0.537108 0.132858 0.714149
Si Si4 0.147685 0.849563 0.215937
Si Si5 0.568255 0.484675 0.715327
Si Si6 0.861693 0.507359 0.703417
Si Si7 0.907959 0.329635 0.794853
O O1 0.217582 0.337723 0.500000
O O2 0.182264 0.243134 0.754112
O O3 0.284489 0.342825 0.772778
O O4 0.180438 0.416866 0.779896
O O5 0.611665 0.300498 0.500000
O O6 0.572816 0.219853 0.229001
O O7 0.596518 0.391814 0.224571
O O8 0.537878 0.127329 0.500000
O O9 0.573554 0.049591 0.779018
O O10 0.470772 0.141202 0.779146
O O11 0.110653 0.935089 0.269520
O O12 0.115961 0.761007 0.279133
O O13 0.148443 0.850099 0.000000
O O14 0.500000 0.500000 0.769436
O O15 0.567548 0.483817 0.500000
O O16 0.846479 0.496284 0.500000
O O17 0.863164 0.410770 0.783435
O O18 0.919111 0.311862 0.000000
#
# Coordination Sequence:
#
# PCOD9441657 Si02
#       7
#     8   8   8   8   8   8   8
#     4   9  19  35  50  67  96 132 164 194 236 291
#     4   9  17  30  52  77  98 124 159 201 243 284
#     4   9  17  30  48  73 101 124 153 194 238 284
#     4   9  18  32  49  69  96 129 162 197 241 292
#     4   9  16  28  50  79 103 123 157 207 255 293
#     4  10  20  32  48  70  97 129 161 193 232 281
#     4  10  19  31  49  71  95 125 158 194 237 283
#
# _framework density 21.353974000000001
#
# number of rings (size 3 to 8) (size 9 to 14) (size 15 to 20)
#    0.000    2.714    0.000    1.714    0.000    7.429 
#    0.000    2.143    0.000    2.143    0.000    0.000 
#    0.000    0.000    0.000    0.000    0.000    0.000 
#
# Total GULP energy -312445.283615 kJ/mol
# GULP energy per Si atom -5579.380065 kJ/mol
# Density = 2.130537 g / cm^3
# Si number density = 21.353974 Si / 1000 Ang^3
#
#
#
# Elastic Constant Matrix: (Units=GPa)
#
#
# Indices 1 2 3 4 5 6 
#
# 1 135.2788 75.8197 -2.9942 0.0000 0.0000 0.0000
# 2 75.8197 182.4658 -3.4341 0.0000 0.0000 0.0000
# 3 -2.9942 -3.4341 38.7333 0.0000 0.0000 0.0000
# 4 0.0000 0.0000 0.0000 11.1459 0.0000 0.0000
# 5 0.0000 0.0000 0.0000 0.0000 12.2697 0.0000
# 6 0.0000 0.0000 0.0000 0.0000 0.0000 17.2198
#
#
#
# Elastic Compliance Matrix: (Units=1/GPa)
#
#
# Indices 1 2 3 4 5 6 
#
# 1 0.009642 -0.003999 0.000391 0.000000 0.000000 0.000000
# 2 -0.003999 0.007148 0.000325 0.000000 0.000000 0.000000
# 3 0.000391 0.000325 0.025877 0.000000 0.000000 0.000000
# 4 0.000000 0.000000 0.000000 0.089719 0.000000 0.000000
# 5 0.000000 0.000000 0.000000 0.000000 0.081502 0.000000
# 6 0.000000 0.000000 0.000000 0.000000 0.000000 0.058073
#
#
# Mechanical properties :
#
#
# Convention : Reuss Voigt Hill
#
# Bulk Modulus (GPa) = 27.70120 55.02897 41.36508
# Shear Modulus (GPa) = 17.20805 27.26617 22.23711
#
# Velocity S-wave (km/s) = 2.84183 3.57720 3.23051
# Velocity P-wave (km/s) = 4.87530 6.54887 5.77305
#
# Compressibility (1/GPa) = 0.03609952
#
# Stress axis : x y z
#
# Youngs Moduli (GPa) = 103.71001 139.89141 38.64500
#
# Poissons Ratio (x) = 0.55947 -0.01510
# Poissons Ratio (y) = 0.41477 -0.01255
# Poissons Ratio (z) = -0.04053 -0.04541
#
# Static dielectric constant tensor:
#      x y z
#    x 1.764420 0.000000 0.000000 
#    y 0.000000 1.751360 0.000000 
#    z 0.000000 0.000000 1.813150 
# 
# From -- ./inp_files/9047.got.cif
#   From: 2010.05.17/outbox.cif.g08.bks.cpg/sg58_5_cif.got.tgz:9047.got - 2010.06.03 14:20:14.
