data_PCOD9441190
_publ_section_title
;
Structure prediction by ZEFSAII (Michael W. Deem and Ramdas Pophale) SiO2 
 PCOD9441190
Probable space group: P N N M
;
_chemical_formula_sum "Si O2"
_cell_formula_units_Z 64
_cell_length_a 20.749420
_cell_length_b 17.236630
_cell_length_c 9.230982
_cell_angle_alpha 90.000000
_cell_angle_beta 90.000000
_cell_angle_gamma 90.000000
_cell_volume 3301.461407
_symmetry_space_group_name_H-M "P N N M"
_symmetry_group_IT_number 58
_symmetry_cell_setting 'orthorhombic'
loop_
_space_group_symop_operation_xyz
x,y,z
-x,-y,z
1/2+x,1/2-y,1/2-z
1/2-x,1/2+y,1/2-z
-x,-y,-z
x,y,-z
1/2-x,1/2+y,1/2+z
1/2+x,1/2-y,1/2+z
loop_
_atom_site_type_symbol
_atom_site_label
_atom_site_fract_x
_atom_site_fract_y
_atom_site_fract_z
Si Si1 0.311918 0.599515 0.675634
Si Si2 0.599447 0.537432 0.333379
Si Si3 0.833148 0.444805 0.327126
Si Si4 0.982986 0.157855 0.668119
Si Si5 0.102301 0.236251 0.826036
Si Si6 0.345065 0.899116 0.326868
Si Si7 0.780490 0.157224 0.835171
Si Si8 0.138057 0.726021 0.333346
O O1 0.310984 0.593622 0.500000
O O2 0.368883 0.541608 0.725221
O O3 0.240914 0.572630 0.721671
O O4 0.333678 0.686521 0.712160
O O5 0.578402 0.526035 0.500000
O O6 0.544540 0.580189 0.242638
O O7 0.660327 0.596388 0.335627
O O8 0.831678 0.460549 0.500000
O O9 0.860792 0.518787 0.245109
O O10 0.870989 0.364613 0.302494
O O11 0.997489 0.143906 0.500000
O O12 0.925904 0.222235 0.676235
O O13 0.043025 0.194022 0.751154
O O14 0.110052 0.326135 0.785736
O O15 0.094911 0.231905 0.000000
O O16 0.344121 0.905293 0.500000
O O17 0.274935 0.875443 0.266931
O O18 0.810092 0.236006 0.772599
O O19 0.757060 0.164864 0.000000
O O20 0.162345 0.731193 0.500000
#
# Coordination Sequence:
#
# PCOD9441190 Si02
#       8
#     8   8   8   8   8   8   8   8
#     4   9  17  33  57  82 107 138 183 222 260 325
#     4   9  17  32  55  81 107 141 180 218 260 322
#     4  10  19  36  59  83 110 141 180 226 277 337
#     4  10  21  37  55  79 110 144 185 230 275 320
#     4  10  22  39  57  76 104 149 191 226 268 323
#     4  11  22  35  53  80 113 144 181 228 282 332
#     4  10  18  31  54  82 111 143 180 218 270 332
#     4   9  19  35  57  81 108 144 184 229 278 327
#
# _framework density 19.385352999999999
#
# number of rings (size 3 to 8) (size 9 to 14) (size 15 to 20)
#    0.000    2.250    1.250    1.875    0.000    5.000 
#    0.000    4.375    0.000    3.750    0.000    0.000 
#    0.000    0.000    0.000    0.000    0.000    0.000 
#
# Total GULP energy -357245.983266 kJ/mol
# GULP energy per Si atom -5581.968489 kJ/mol
# Density = 1.934123 g / cm^3
# Si number density = 19.385353 Si / 1000 Ang^3
#
#
#
# Elastic Constant Matrix: (Units=GPa)
#
#
# Indices 1 2 3 4 5 6 
#
# 1 26.7327 6.9557 9.7119 0.0000 0.0000 0.0000
# 2 6.9557 115.9556 34.5225 0.0000 0.0000 0.0000
# 3 9.7119 34.5225 36.8499 0.0000 0.0000 0.0000
# 4 0.0000 0.0000 0.0000 28.0526 0.0000 0.0000
# 5 0.0000 0.0000 0.0000 0.0000 17.3334 0.0000
# 6 0.0000 0.0000 0.0000 0.0000 0.0000 19.6871
#
#
#
# Elastic Compliance Matrix: (Units=1/GPa)
#
#
# Indices 1 2 3 4 5 6 
#
# 1 0.041463 0.001063 -0.011923 0.000000 0.000000 0.000000
# 2 0.001063 0.011987 -0.011510 0.000000 0.000000 0.000000
# 3 -0.011923 -0.011510 0.041063 0.000000 0.000000 0.000000
# 4 0.000000 0.000000 0.000000 0.035647 0.000000 0.000000
# 5 0.000000 0.000000 0.000000 0.000000 0.057692 0.000000
# 6 0.000000 0.000000 0.000000 0.000000 0.000000 0.050795
#
#
# Mechanical properties :
#
#
# Convention : Reuss Voigt Hill
#
# Bulk Modulus (GPa) = 20.09192 31.32423 25.70808
# Shear Modulus (GPa) = 16.66792 21.57115 19.11954
#
# Velocity S-wave (km/s) = 2.93545 3.33942 3.14393
# Velocity P-wave (km/s) = 4.67719 5.57340 5.14485
#
# Compressibility (1/GPa) = 0.04977124
#
# Stress axis : x y z
#
# Youngs Moduli (GPa) = 24.11816 83.42355 24.35311
#
# Poissons Ratio (x) = -0.08864 0.29036
# Poissons Ratio (y) = -0.02563 0.28030
# Poissons Ratio (z) = 0.28756 0.96020
#
# Static dielectric constant tensor:
#      x y z
#    x 1.673010 0.000000 0.000000 
#    y 0.000000 1.706760 0.000000 
#    z 0.000000 0.000000 1.652770 
# 
# From -- ./inp_files/10009.got.cif
#   From: 2010.05.17/outbox.cif.g08.bks.cpg/sg58_6_cif.got.tgz:10009.got - 2010.06.03 14:20:14.
