data_PCOD9441048
_publ_section_title
;
Structure prediction by ZEFSAII (Michael W. Deem and Ramdas Pophale) SiO2 
 PCOD9441048
Probable space group: P N N M
;
_chemical_formula_sum "Si O2"
_cell_formula_units_Z 48
_cell_length_a 24.716280
_cell_length_b 14.203136
_cell_length_c 7.880252
_cell_angle_alpha 90.000000
_cell_angle_beta 90.000000
_cell_angle_gamma 90.000000
_cell_volume 2766.352112
_symmetry_space_group_name_H-M "P N N M"
_symmetry_group_IT_number 58
_symmetry_cell_setting 'orthorhombic'
loop_
_space_group_symop_operation_xyz
x,y,z
-x,-y,z
1/2+x,1/2-y,1/2-z
1/2-x,1/2+y,1/2-z
-x,-y,-z
x,y,-z
1/2-x,1/2+y,1/2+z
1/2+x,1/2-y,1/2+z
loop_
_atom_site_type_symbol
_atom_site_label
_atom_site_fract_x
_atom_site_fract_y
_atom_site_fract_z
Si Si1 0.063565 0.394947 0.795058
Si Si2 0.218761 0.898911 0.697528
Si Si3 0.442730 0.113340 0.292834
Si Si4 0.226964 0.108482 0.292180
Si Si5 0.164579 0.708564 0.799129
Si Si6 0.326029 0.799400 0.200121
O O1 0.069216 0.504834 0.745690
O O2 0.113739 0.334568 0.731772
O O3 0.003774 0.363037 0.737193
O O4 0.064629 0.392167 0.000000
O O5 0.204697 0.901922 0.500000
O O6 0.182564 0.816144 0.775267
O O7 0.281193 0.866172 0.714682
O O8 0.213318 0.004075 0.769253
O O9 0.444133 0.116001 0.500000
O O10 0.393958 0.178881 0.231052
O O11 0.228311 0.104323 0.500000
O O12 0.286150 0.143810 0.232982
O O13 0.186011 0.192172 0.244119
O O14 0.162607 0.690677 0.000000
O O15 0.314173 0.803351 0.000000
#
# Coordination Sequence:
#
# PCOD9441048 Si02
#       6
#     8   8   8   8   8   8
#     4   9  16  29  48  69  88 116 153 181 207 258
#     4  10  18  30  47  66  86 115 151 183 211 259
#     4   8  15  28  48  68  91 120 147 174 216 267
#     4   8  16  29  45  62  86 117 146 173 214 263
#     4   9  16  29  46  66  90 116 141 176 223 262
#     4  10  19  31  45  65  91 118 143 179 226 263
#
# _framework density 17.351368999999998
#
# number of rings (size 3 to 8) (size 9 to 14) (size 15 to 20)
#    0.000    3.000    0.000    4.000    0.000    2.667 
#    0.000   15.000    0.000    1.000    0.000    7.000 
#    0.000    0.000    0.000    0.000    0.000    0.000 
#
# Total GULP energy -267451.394617 kJ/mol
# GULP energy per Si atom -5571.904055 kJ/mol
# Density = 1.731188 g / cm^3
# Si number density = 17.351369 Si / 1000 Ang^3
#
#
#
# Elastic Constant Matrix: (Units=GPa)
#
#
# Indices 1 2 3 4 5 6 
#
# 1 132.2431 65.4837 -4.8477 0.0000 0.0000 0.0000
# 2 65.4837 101.0795 -8.8663 0.0000 0.0000 0.0000
# 3 -4.8477 -8.8663 12.6012 0.0000 0.0000 0.0000
# 4 0.0000 0.0000 0.0000 11.6791 0.0000 0.0000
# 5 0.0000 0.0000 0.0000 0.0000 22.7807 0.0000
# 6 0.0000 0.0000 0.0000 0.0000 0.0000 23.7188
#
#
#
# Elastic Compliance Matrix: (Units=1/GPa)
#
#
# Indices 1 2 3 4 5 6 
#
# 1 0.011142 -0.007292 -0.000845 0.000000 0.000000 0.000000
# 2 -0.007292 0.015317 0.007972 0.000000 0.000000 0.000000
# 3 -0.000845 0.007972 0.084642 0.000000 0.000000 0.000000
# 4 0.000000 0.000000 0.000000 0.085623 0.000000 0.000000
# 5 0.000000 0.000000 0.000000 0.000000 0.043897 0.000000
# 6 0.000000 0.000000 0.000000 0.000000 0.000000 0.042161
#
#
# Mechanical properties :
#
#
# Convention : Reuss Voigt Hill
#
# Bulk Modulus (GPa) = 9.02774 38.82926 23.92850
# Shear Modulus (GPa) = 15.62332 24.57933 20.10132
#
# Velocity S-wave (km/s) = 3.00394 3.76781 3.40735
# Velocity P-wave (km/s) = 4.15279 6.43081 5.41299
#
# Compressibility (1/GPa) = 0.11076972
#
# Stress axis : x y z
#
# Youngs Moduli (GPa) = 89.75200 65.28837 11.81450
#
# Poissons Ratio (x) = 0.47610 0.00998
# Poissons Ratio (y) = 0.65449 -0.09418
# Poissons Ratio (z) = 0.07580 -0.52045
#
# Static dielectric constant tensor:
#      x y z
#    x 1.586750 0.000000 0.000000 
#    y 0.000000 1.587390 0.000000 
#    z 0.000000 0.000000 1.638920 
# 
# From -- ./inp_files/6538.got.cif
#   From: 2010.05.17/outbox.cif.g08.bks.cpg/sg58_4_cif.got.tgz:6538.got - 2010.06.03 14:20:14.
