data_PCOD9441684
_publ_section_title
;
Structure prediction by ZEFSAII (Michael W. Deem and Ramdas Pophale) SiO2 
 PCOD9441684
Probable space group: P N N M
;
_chemical_formula_sum "Si O2"
_cell_formula_units_Z 56
_cell_length_a 16.210196
_cell_length_b 20.424294
_cell_length_c 7.329859
_cell_angle_alpha 90.000000
_cell_angle_beta 90.000000
_cell_angle_gamma 90.000000
_cell_volume 2426.782977
_symmetry_space_group_name_H-M "P N N M"
_symmetry_group_IT_number 58
_symmetry_cell_setting 'orthorhombic'
loop_
_space_group_symop_operation_xyz
x,y,z
-x,-y,z
1/2+x,1/2-y,1/2-z
1/2-x,1/2+y,1/2-z
-x,-y,-z
x,y,-z
1/2-x,1/2+y,1/2+z
1/2+x,1/2-y,1/2+z
loop_
_atom_site_type_symbol
_atom_site_label
_atom_site_fract_x
_atom_site_fract_y
_atom_site_fract_z
Si Si1 0.738723 0.460196 0.775571
Si Si2 0.993129 0.333673 0.279451
Si Si3 0.841330 0.088203 0.710584
Si Si4 0.919192 0.468607 0.207616
Si Si5 0.521175 0.686527 0.777672
Si Si6 0.683363 0.175317 0.779765
Si Si7 0.331332 0.677250 0.221487
O O1 0.674987 0.515828 0.714534
O O2 0.829786 0.480419 0.711946
O O3 0.717359 0.386756 0.717758
O O4 0.739817 0.460139 0.000000
O O5 0.991026 0.336352 0.500000
O O6 0.936854 0.391394 0.206567
O O7 0.963936 0.261623 0.221856
O O8 0.089444 0.342310 0.224885
O O9 0.864860 0.078169 0.500000
O O10 0.911683 0.135003 0.789920
O O11 0.754717 0.127215 0.715423
O O12 0.000000 0.500000 0.295977
O O13 0.915653 0.494043 0.000000
O O14 0.427338 0.670348 0.726212
O O15 0.523784 0.686942 0.000000
O O16 0.698523 0.250704 0.720412
O O17 0.684603 0.174051 0.000000
O O18 0.328998 0.678051 0.000000
#
# Coordination Sequence:
#
# PCOD9441684 Si02
#       7
#     8   8   8   8   8   8   8
#     4   9  18  30  46  71 100 131 163 197 242 294
#     4   9  18  33  50  70  96 127 164 201 241 288
#     4  10  19  31  50  75 101 125 155 201 253 291
#     4  10  20  32  47  71 103 132 161 200 244 289
#     4   8  16  30  48  72  98 123 156 204 249 282
#     4   9  18  32  51  71  96 130 164 200 239 288
#     4   8  15  30  49  70  97 127 163 202 238 284
#
# _framework density 23.075817000000001
#
# number of rings (size 3 to 8) (size 9 to 14) (size 15 to 20)
#    0.000    3.000    0.000    2.571    2.000    2.571 
#    0.000    3.571    0.000    1.714    0.000    1.000 
#    0.000    0.000    0.000    0.000    0.000    0.000 
#
# Total GULP energy -312816.294511 kJ/mol
# GULP energy per Si atom -5586.005259 kJ/mol
# Density = 2.302330 g / cm^3
# Si number density = 23.075817 Si / 1000 Ang^3
#
#
#
# Elastic Constant Matrix: (Units=GPa)
#
#
# Indices 1 2 3 4 5 6 
#
# 1 27.4807 12.8733 -6.9386 0.0000 0.0000 0.0000
# 2 12.8733 73.5873 -6.3512 0.0000 0.0000 0.0000
# 3 -6.9386 -6.3512 91.9901 0.0000 0.0000 0.0000
# 4 0.0000 0.0000 0.0000 9.6003 0.0000 0.0000
# 5 0.0000 0.0000 0.0000 0.0000 2.8552 0.0000
# 6 0.0000 0.0000 0.0000 0.0000 0.0000 39.2466
#
#
#
# Elastic Compliance Matrix: (Units=1/GPa)
#
#
# Indices 1 2 3 4 5 6 
#
# 1 0.040230 -0.006816 0.002564 0.000000 0.000000 0.000000
# 2 -0.006816 0.014826 0.000509 0.000000 0.000000 0.000000
# 3 0.002564 0.000509 0.011099 0.000000 0.000000 0.000000
# 4 0.000000 0.000000 0.000000 0.104164 0.000000 0.000000
# 5 0.000000 0.000000 0.000000 0.000000 0.350236 0.000000
# 6 0.000000 0.000000 0.000000 0.000000 0.000000 0.025480
#
#
# Mechanical properties :
#
#
# Convention : Reuss Voigt Hill
#
# Bulk Modulus (GPa) = 17.04498 21.35833 19.20166
# Shear Modulus (GPa) = 8.72483 23.23873 15.98178
#
# Velocity S-wave (km/s) = 1.94657 3.17686 2.63454
# Velocity P-wave (km/s) = 3.52913 4.76785 4.19447
#
# Compressibility (1/GPa) = 0.05866828
#
# Stress axis : x y z
#
# Youngs Moduli (GPa) = 24.85731 67.45026 90.09583
#
# Poissons Ratio (x) = 0.45977 -0.23099
# Poissons Ratio (y) = 0.16944 -0.04590
# Poissons Ratio (z) = -0.06373 -0.03436
#
# Static dielectric constant tensor:
#      x y z
#    x 1.824730 0.000000 0.000000 
#    y 0.000000 1.844300 0.000000 
#    z 0.000000 0.000000 1.885780 
# 
# From -- ./inp_files/6403.got.cif
#   From: 2010.05.17/outbox.cif.g08.bks.cpg/sg58_4_cif.got.tgz:6403.got - 2010.06.03 14:20:14.
