data_PCOD9441787
_publ_section_title
;
Structure prediction by ZEFSAII (Michael W. Deem and Ramdas Pophale) SiO2 
 PCOD9441787
Probable space group: P N N M
;
_chemical_formula_sum "Si O2"
_cell_formula_units_Z 48
_cell_length_a 15.429343
_cell_length_b 20.657558
_cell_length_c 7.615505
_cell_angle_alpha 90.000000
_cell_angle_beta 90.000000
_cell_angle_gamma 90.000000
_cell_volume 2427.309312
_symmetry_space_group_name_H-M "P N N M"
_symmetry_group_IT_number 58
_symmetry_cell_setting 'orthorhombic'
loop_
_space_group_symop_operation_xyz
x,y,z
-x,-y,z
1/2+x,1/2-y,1/2-z
1/2-x,1/2+y,1/2-z
-x,-y,-z
x,y,-z
1/2-x,1/2+y,1/2+z
1/2+x,1/2-y,1/2+z
loop_
_atom_site_type_symbol
_atom_site_label
_atom_site_fract_x
_atom_site_fract_y
_atom_site_fract_z
Si Si1 0.611657 0.310124 0.208849
Si Si2 0.919705 0.957235 0.212690
Si Si3 0.801074 0.343288 0.208214
Si Si4 0.935687 0.557603 0.715148
Si Si5 0.010264 0.695390 0.711968
Si Si6 0.230460 0.511586 0.295573
O O1 0.574655 0.381908 0.238993
O O2 0.711190 0.311999 0.275748
O O3 0.547920 0.254825 0.278690
O O4 0.617519 0.299336 0.000000
O O5 0.826974 0.983387 0.280285
O O6 0.917809 0.959909 0.000000
O O7 0.000000 0.000000 0.274300
O O8 0.888362 0.303721 0.240992
O O9 0.808173 0.415577 0.286483
O O10 0.791669 0.352458 0.000000
O O11 0.759258 0.505370 0.500000
O O12 0.839876 0.537941 0.778039
O O13 0.000000 0.500000 0.768433
O O14 0.970252 0.627063 0.773116
O O15 0.006806 0.695416 0.500000
O O16 0.065295 0.442088 0.500000
#
# Coordination Sequence:
#
# PCOD9441787 Si02
#       6
#     8   8   8   8   8   8
#     4   9  20  36  52  73 101 137 173 203 248 308
#     4   9  18  33  53  78 101 127 168 214 255 294
#     4  10  19  32  50  74 100 130 166 206 255 299
#     4   9  15  26  49  76  94 120 166 206 238 288
#     4  10  19  34  53  72  98 134 173 207 244 302
#     4   9  16  30  51  72  96 130 166 203 249 301
#
# _framework density 19.774982999999999
#
# number of rings (size 3 to 8) (size 9 to 14) (size 15 to 20)
#    0.000    2.667    1.667    0.500    0.000    1.667 
#    3.000    1.667    0.000    0.000    0.000    0.000 
#    0.000    0.000    0.000    0.000    0.000    0.000 
#
# Total GULP energy -267714.976101 kJ/mol
# GULP energy per Si atom -5577.395335 kJ/mol
# Density = 1.972997 g / cm^3
# Si number density = 19.774983 Si / 1000 Ang^3
#
#
#
# Elastic Constant Matrix: (Units=GPa)
#
#
# Indices 1 2 3 4 5 6 
#
# 1 166.5358 104.5273 -5.3742 0.0000 0.0000 0.0000
# 2 104.5273 114.3327 -7.1208 0.0000 0.0000 0.0000
# 3 -5.3742 -7.1208 38.9375 0.0000 0.0000 0.0000
# 4 0.0000 0.0000 0.0000 14.0666 0.0000 0.0000
# 5 0.0000 0.0000 0.0000 0.0000 10.5468 0.0000
# 6 0.0000 0.0000 0.0000 0.0000 0.0000 35.7873
#
#
#
# Elastic Compliance Matrix: (Units=1/GPa)
#
#
# Indices 1 2 3 4 5 6 
#
# 1 0.014097 -0.012913 -0.000416 0.000000 0.000000 0.000000
# 2 -0.012913 0.020677 0.001999 0.000000 0.000000 0.000000
# 3 -0.000416 0.001999 0.025990 0.000000 0.000000 0.000000
# 4 0.000000 0.000000 0.000000 0.071091 0.000000 0.000000
# 5 0.000000 0.000000 0.000000 0.000000 0.094815 0.000000
# 6 0.000000 0.000000 0.000000 0.000000 0.000000 0.027943
#
#
# Mechanical properties :
#
#
# Convention : Reuss Voigt Hill
#
# Bulk Modulus (GPa) = 26.24471 55.98560 41.11515
# Shear Modulus (GPa) = 17.24290 27.26505 22.25398
#
# Velocity S-wave (km/s) = 2.95609 3.71720 3.35828
# Velocity P-wave (km/s) = 4.99518 6.84078 5.98949
#
# Compressibility (1/GPa) = 0.03810292
#
# Stress axis : x y z
#
# Youngs Moduli (GPa) = 70.93949 48.36316 38.47580
#
# Poissons Ratio (x) = 0.62454 0.01600
# Poissons Ratio (y) = 0.91608 -0.07691
# Poissons Ratio (z) = 0.02951 -0.09668
#
# Static dielectric constant tensor:
#      x y z
#    x 1.723940 0.000000 0.000000 
#    y 0.000000 1.653640 0.000000 
#    z 0.000000 0.000000 1.745180 
# 
# From -- ./inp_files/5844.got.cif
#   From: 2010.05.17/outbox.cif.g08.bks.cpg/sg58_3_cif.got.tgz:5844.got - 2010.06.03 14:20:14.
