data_PCOD9441104
_publ_section_title
;
Structure prediction by ZEFSAII (Michael W. Deem and Ramdas Pophale) SiO2 
 PCOD9441104
Probable space group: P N N M
;
_chemical_formula_sum "Si O2"
_cell_formula_units_Z 40
_cell_length_a 9.352155
_cell_length_b 9.352152
_cell_length_c 26.912107
_cell_angle_alpha 90.000000
_cell_angle_beta 90.000000
_cell_angle_gamma 90.000000
_cell_volume 2353.807562
_symmetry_space_group_name_H-M "P N N M"
_symmetry_group_IT_number 58
_symmetry_cell_setting 'orthorhombic'
loop_
_space_group_symop_operation_xyz
x,y,z
-x,-y,z
1/2+x,1/2-y,1/2-z
1/2-x,1/2+y,1/2-z
-x,-y,-z
x,y,-z
1/2-x,1/2+y,1/2+z
1/2+x,1/2-y,1/2+z
loop_
_atom_site_type_symbol
_atom_site_label
_atom_site_fract_x
_atom_site_fract_y
_atom_site_fract_z
Si Si1 0.688341 0.921636 0.221637
Si Si2 0.004017 0.761579 0.557200
Si Si3 0.421636 0.811659 0.278363
Si Si4 0.238421 0.995983 0.557200
Si Si5 0.500000 0.000000 0.368914
Si Si6 0.500000 0.000000 0.131086
O O1 0.561364 0.819726 0.243291
O O2 0.834835 0.834835 0.221517
O O3 0.680274 0.061364 0.256709
O O4 0.634044 0.971750 0.167688
O O5 0.009560 0.709775 0.500000
O O6 0.875847 0.875847 0.560416
O O7 0.981978 0.636602 0.596157
O O8 0.148949 0.851051 0.567031
O O9 0.471750 0.865956 0.332312
O O10 0.290225 0.990440 0.500000
O O11 0.363398 0.018021 0.596157
#
# Coordination Sequence:
#
# PCOD9441104 Si02
#       6
#     8   8   8   8   4   4
#     4   9  20  35  50  71  97 125 160 200 242 289
#     4   9  18  32  50  73 100 130 163 197 236 284
#     4   9  20  35  50  71  97 125 160 200 242 289
#     4   9  18  32  50  73 100 130 163 197 236 284
#     4  10  18  30  52  76  98 124 162 204 242 280
#     4  10  18  30  52  76  98 124 162 204 242 280
#
# _framework density 16.993742000000001
#
# number of rings (size 3 to 8) (size 9 to 14) (size 15 to 20)
#    0.000    3.200    0.000    3.000    0.000    7.200 
#    0.000    0.000    0.000    3.600    0.000   14.000 
#    0.000    0.000    0.000    0.000    0.000    0.000 
#
# Total GULP energy -222895.742522 kJ/mol
# GULP energy per Si atom -5572.393563 kJ/mol
# Density = 1.695506 g / cm^3
# Si number density = 16.993742 Si / 1000 Ang^3
#
#
#
# Elastic Constant Matrix: (Units=GPa)
#
#
# Indices 1 2 3 4 5 6 
#
# 1 56.1295 17.8461 49.4573 0.0000 0.0000 0.0000
# 2 17.8461 56.1292 49.4571 0.0000 0.0000 0.0000
# 3 49.4573 49.4571 125.5984 0.0000 0.0000 0.0000
# 4 0.0000 0.0000 0.0000 -57.1906 0.0000 0.0000
# 5 0.0000 0.0000 0.0000 0.0000 -57.1945 0.0000
# 6 0.0000 0.0000 0.0000 0.0000 0.0000 31.9229
#
#
#
# Elastic Compliance Matrix: (Units=1/GPa)
#
#
# Indices 1 2 3 4 5 6 
#
# 1 0.027336 0.001215 -0.011242 0.000000 0.000000 0.000000
# 2 0.001215 0.027336 -0.011242 0.000000 0.000000 0.000000
# 3 -0.011242 -0.011242 0.016816 0.000000 0.000000 0.000000
# 4 0.000000 0.000000 0.000000 -0.017485 0.000000 0.000000
# 5 0.000000 0.000000 0.000000 0.000000 -0.017484 0.000000
# 6 0.000000 0.000000 0.000000 0.000000 0.000000 0.031325
#
#
# Mechanical properties :
#
#
# Convention : Reuss Voigt Hill
#
# Bulk Modulus (GPa) = 34.54571 52.37535 43.46053
# Shear Modulus (GPa) = 41.65541 -8.41933 16.61804
#
# Velocity S-wave (km/s) = 4.95635 -2.22826 3.13052
# Velocity P-wave (km/s) = 7.28879 4.92617 6.22068
#
# Compressibility (1/GPa) = 0.02894716
#
# Stress axis : x y z
#
# Youngs Moduli (GPa) = 36.58217 36.58202 59.46799
#
# Poissons Ratio (x) = -0.04444 0.66856
# Poissons Ratio (y) = -0.04444 0.66856
# Poissons Ratio (z) = 0.41127 0.41127
#
# Static dielectric constant tensor:
#      x y z
#    x 1.564870 0.000000 0.000000 
#    y 0.000000 1.564870 0.000000 
#    z 0.000000 0.000000 1.577730 
# 
# From -- ./inp_files/33187.got.cif
#   From: 2010.05.17/outbox.cif.g08.bks.cpg/sg58_17_cif.got.tgz:33187.got - 2010.06.03 14:20:14.
