data_PCOD9441702
_publ_section_title
;
Structure prediction by ZEFSAII (Michael W. Deem and Ramdas Pophale) SiO2 
 PCOD9441702
Probable space group: P N N M
;
_chemical_formula_sum "Si O2"
_cell_formula_units_Z 48
_cell_length_a 9.011315
_cell_length_b 12.737203
_cell_length_c 18.411174
_cell_angle_alpha 90.000000
_cell_angle_beta 90.000000
_cell_angle_gamma 90.000000
_cell_volume 2113.215191
_symmetry_space_group_name_H-M "P N N M"
_symmetry_group_IT_number 58
_symmetry_cell_setting 'orthorhombic'
loop_
_space_group_symop_operation_xyz
x,y,z
-x,-y,z
1/2+x,1/2-y,1/2-z
1/2-x,1/2+y,1/2-z
-x,-y,-z
x,y,-z
1/2-x,1/2+y,1/2+z
1/2+x,1/2-y,1/2+z
loop_
_atom_site_type_symbol
_atom_site_label
_atom_site_fract_x
_atom_site_fract_y
_atom_site_fract_z
Si Si1 0.330051 0.112254 0.726940
Si Si2 0.801173 0.211151 0.583423
Si Si3 0.964420 0.353871 0.082775
Si Si4 0.660040 0.957945 0.881781
Si Si5 0.466047 0.722517 0.805541
Si Si6 0.755960 0.665411 0.580121
O O1 0.381753 0.081818 0.646271
O O2 0.343702 0.034547 0.794236
O O3 0.438582 0.209287 0.749302
O O4 0.159918 0.149698 0.727299
O O5 0.842673 0.191277 0.500000
O O6 0.637657 0.165476 0.595303
O O7 0.805896 0.338074 0.596889
O O8 0.916900 0.166095 0.641600
O O9 0.884890 0.240162 0.086290
O O10 0.939966 0.392332 0.000000
O O11 0.500000 0.000000 0.909420
O O12 0.775379 0.042903 0.910885
O O13 0.372000 0.799475 0.858449
O O14 0.820910 0.684366 0.500000
#
# Coordination Sequence:
#
# PCOD9441702 Si02
#       6
#     8   8   8   8   8   8
#     4  10  19  33  50  74 107 139 189 217 263 315
#     4  10  19  32  52  79 107 138 178 217 271 321
#     4   9  20  36  55  77 106 142 183 231 264 312
#     4  11  20  31  50  80 112 151 168 216 267 326
#     4  10  19  31  51  73 104 147 172 225 253 314
#     4  10  19  33  53  81 111 143 174 208 269 329
#
# _framework density 22.714203999999999
#
# number of rings (size 3 to 8) (size 9 to 14) (size 15 to 20)
#    0.000    2.000    3.333    3.000    0.000    2.000 
#    0.000    2.500    0.000    0.500    0.000    0.000 
#    0.000    2.667    0.000    0.000    0.000    0.000 
#
# Total GULP energy -268132.506393 kJ/mol
# GULP energy per Si atom -5586.093883 kJ/mol
# Density = 2.266251 g / cm^3
# Si number density = 22.714204 Si / 1000 Ang^3
#
#
#
# Elastic Constant Matrix: (Units=GPa)
#
#
# Indices 1 2 3 4 5 6 
#
# 1 101.7335 15.9478 43.4889 0.0000 0.0000 0.0000
# 2 15.9478 48.6468 4.8756 0.0000 0.0000 0.0000
# 3 43.4889 4.8756 129.9002 0.0000 0.0000 0.0000
# 4 0.0000 0.0000 0.0000 16.5678 0.0000 0.0000
# 5 0.0000 0.0000 0.0000 0.0000 48.8640 0.0000
# 6 0.0000 0.0000 0.0000 0.0000 0.0000 28.0448
#
#
#
# Elastic Compliance Matrix: (Units=1/GPa)
#
#
# Indices 1 2 3 4 5 6 
#
# 1 0.012056 -0.003561 -0.003903 0.000000 0.000000 0.000000
# 2 -0.003561 0.021686 0.000378 0.000000 0.000000 0.000000
# 3 -0.003903 0.000378 0.008991 0.000000 0.000000 0.000000
# 4 0.000000 0.000000 0.000000 0.060358 0.000000 0.000000
# 5 0.000000 0.000000 0.000000 0.000000 0.020465 0.000000
# 6 0.000000 0.000000 0.000000 0.000000 0.000000 0.035657
#
#
# Mechanical properties :
#
#
# Convention : Reuss Voigt Hill
#
# Bulk Modulus (GPa) = 35.01205 45.43389 40.22297
# Shear Modulus (GPa) = 27.33672 33.09320 30.21496
#
# Velocity S-wave (km/s) = 3.47292 3.82113 3.65118
# Velocity P-wave (km/s) = 5.61509 6.28600 5.96000
#
# Compressibility (1/GPa) = 0.02856160
#
# Stress axis : x y z
#
# Youngs Moduli (GPa) = 82.94540 46.11299 111.22792
#
# Poissons Ratio (x) = 0.16422 0.43407
# Poissons Ratio (y) = 0.29539 -0.04208
# Poissons Ratio (z) = 0.32370 -0.01744
#
# Static dielectric constant tensor:
#      x y z
#    x 1.844660 0.000000 0.000000 
#    y 0.000000 1.855250 0.000000 
#    z 0.000000 0.000000 1.890280 
# 
# From -- ./inp_files/25436.got.cif
#   From: 2010.05.17/outbox.cif.g08.bks.cpg/sg58_13_cif.got.tgz:25436.got - 2010.06.03 14:20:14.
