data_PCOD9441621
_publ_section_title
;
Structure prediction by ZEFSAII (Michael W. Deem and Ramdas Pophale) SiO2 
 PCOD9441621
Probable space group: P N N M
;
_chemical_formula_sum "Si O2"
_cell_formula_units_Z 64
_cell_length_a 13.442085
_cell_length_b 29.148728
_cell_length_c 7.274759
_cell_angle_alpha 90.000000
_cell_angle_beta 90.000000
_cell_angle_gamma 90.000000
_cell_volume 2850.393739
_symmetry_space_group_name_H-M "P N N M"
_symmetry_group_IT_number 58
_symmetry_cell_setting 'orthorhombic'
loop_
_space_group_symop_operation_xyz
x,y,z
-x,-y,z
1/2+x,1/2-y,1/2-z
1/2-x,1/2+y,1/2-z
-x,-y,-z
x,y,-z
1/2-x,1/2+y,1/2+z
1/2+x,1/2-y,1/2+z
loop_
_atom_site_type_symbol
_atom_site_label
_atom_site_fract_x
_atom_site_fract_y
_atom_site_fract_z
Si Si1 0.729358 0.211807 0.218309
Si Si2 0.957833 0.449879 0.275454
Si Si3 0.251106 0.592552 0.276115
Si Si4 0.818799 0.078830 0.222110
Si Si5 0.564823 0.665468 0.275722
Si Si6 0.613307 0.126809 0.222279
Si Si7 0.658579 0.314401 0.280926
Si Si8 0.892294 0.984345 0.223548
O O1 0.639297 0.178566 0.284930
O O2 0.703693 0.264454 0.248582
O O3 0.839156 0.195788 0.284315
O O4 0.733692 0.204074 0.000000
O O5 0.959353 0.451415 0.500000
O O6 0.025596 0.406593 0.215694
O O7 0.000000 0.500000 0.217516
O O8 0.846513 0.435618 0.218738
O O9 0.246237 0.593007 0.500000
O O10 0.269468 0.644617 0.214809
O O11 0.347530 0.563567 0.218781
O O12 0.715030 0.101089 0.271383
O O13 0.906746 0.113280 0.278394
O O14 0.823828 0.026686 0.281099
O O15 0.823035 0.078015 0.000000
O O16 0.563376 0.666835 0.500000
O O17 0.455473 0.680581 0.212757
O O18 0.602674 0.128364 0.000000
O O19 0.651947 0.320307 0.500000
O O20 0.895553 0.982435 0.000000
O O21 0.000000 0.000000 0.285525
#
# Coordination Sequence:
#
# PCOD9441621 Si02
#       8
#     8   8   8   8   8   8   8   8
#     4   9  18  32  48  65  86 117 159 195 223 266
#     4   9  15  23  36  57  90 124 145 171 225 288
#     4   9  17  25  34  55  86 115 141 175 222 270
#     4   8  12  20  35  53  74 103 138 168 198 247
#     4   8  15  28  44  61  85 117 146 178 224 270
#     4   8  14  24  38  55  76 107 145 179 209 251
#     4  10  19  31  46  65  92 120 147 186 235 273
#     4   9  14  19  30  49  74 103 132 162 201 252
#
# _framework density 22.453036999999998
#
# number of rings (size 3 to 8) (size 9 to 14) (size 15 to 20)
#    0.000    3.250    0.000    3.000    0.000    7.000 
#    0.000    1.875    0.000    0.000    0.000    0.000 
#    0.000   14.500    0.000    0.000    0.000    0.125 
#
# Total GULP energy -356872.351358 kJ/mol
# GULP energy per Si atom -5576.130490 kJ/mol
# Density = 2.240193 g / cm^3
# Si number density = 22.453037 Si / 1000 Ang^3
#
#
#
# Elastic Constant Matrix: (Units=GPa)
#
#
# Indices 1 2 3 4 5 6 
#
# 1 108.8181 66.7128 2.1225 0.0000 0.0000 0.0000
# 2 66.7128 180.3863 -2.6603 0.0000 0.0000 0.0000
# 3 2.1225 -2.6603 94.4072 0.0000 0.0000 0.0000
# 4 0.0000 0.0000 0.0000 58.6114 0.0000 0.0000
# 5 0.0000 0.0000 0.0000 0.0000 -22.3989 0.0000
# 6 0.0000 0.0000 0.0000 0.0000 0.0000 32.3084
#
#
#
# Elastic Compliance Matrix: (Units=1/GPa)
#
#
# Indices 1 2 3 4 5 6 
#
# 1 0.011899 -0.004406 -0.000392 0.000000 0.000000 0.000000
# 2 -0.004406 0.007178 0.000301 0.000000 0.000000 0.000000
# 3 -0.000392 0.000301 0.010610 0.000000 0.000000 0.000000
# 4 0.000000 0.000000 0.000000 0.017062 0.000000 0.000000
# 5 0.000000 0.000000 0.000000 0.000000 -0.044645 0.000000
# 6 0.000000 0.000000 0.000000 0.000000 0.000000 0.030952
#
#
# Mechanical properties :
#
#
# Convention : Reuss Voigt Hill
#
# Bulk Modulus (GPa) = 48.32606 57.32906 52.82756
# Shear Modulus (GPa) = 102.15527 34.86662 68.51094
#
# Velocity S-wave (km/s) = 6.75249 3.94492 5.52985
# Velocity P-wave (km/s) = 9.07550 6.80721 8.02193
#
# Compressibility (1/GPa) = 0.02069277
#
# Stress axis : x y z
#
# Youngs Moduli (GPa) = 84.04323 139.32057 94.25326
#
# Poissons Ratio (x) = 0.61389 0.03692
# Poissons Ratio (y) = 0.37032 -0.02840
# Poissons Ratio (z) = 0.03292 -0.04198
#
# Static dielectric constant tensor:
#      x y z
#    x 1.828070 0.000000 0.000000 
#    y 0.000000 1.817890 0.000000 
#    z 0.000000 0.000000 1.111580 
# 
# From -- ./inp_files/14914.got.cif
#   From: 2010.05.17/outbox.cif.g08.bks.cpg/sg58_8_cif.got.tgz:14914.got - 2010.06.03 14:20:14.
