data_PCOD9441503
_publ_section_title
;
Structure prediction by ZEFSAII (Michael W. Deem and Ramdas Pophale) SiO2 
 PCOD9441503
Probable space group: P N N M
;
_chemical_formula_sum "Si O2"
_cell_formula_units_Z 56
_cell_length_a 19.973472
_cell_length_b 19.991185
_cell_length_c 7.480439
_cell_angle_alpha 90.000000
_cell_angle_beta 90.000000
_cell_angle_gamma 90.000000
_cell_volume 2986.889726
_symmetry_space_group_name_H-M "P N N M"
_symmetry_group_IT_number 58
_symmetry_cell_setting 'orthorhombic'
loop_
_space_group_symop_operation_xyz
x,y,z
-x,-y,z
1/2+x,1/2-y,1/2-z
1/2-x,1/2+y,1/2-z
-x,-y,-z
x,y,-z
1/2-x,1/2+y,1/2+z
1/2+x,1/2-y,1/2+z
loop_
_atom_site_type_symbol
_atom_site_label
_atom_site_fract_x
_atom_site_fract_y
_atom_site_fract_z
Si Si1 0.227587 0.153133 0.289346
Si Si2 0.739890 0.127732 0.712352
Si Si3 0.944936 0.446859 0.784665
Si Si4 0.159598 0.761635 0.283235
Si Si5 0.020724 0.707147 0.287618
Si Si6 0.127392 0.263711 0.283858
Si Si7 0.293819 0.019944 0.280181
O O1 0.214744 0.145009 0.500000
O O2 0.293462 0.199190 0.268170
O O3 0.166676 0.197894 0.216357
O O4 0.245803 0.080086 0.218707
O O5 0.749825 0.121527 0.500000
O O6 0.801961 0.172019 0.781683
O O7 0.673692 0.172583 0.739922
O O8 0.729273 0.053092 0.781348
O O9 0.965050 0.371391 0.738183
O O10 0.869997 0.464556 0.723379
O O11 0.000000 0.500000 0.719488
O O12 0.944008 0.450975 0.000000
O O13 0.158573 0.763479 0.500000
O O14 0.084698 0.748087 0.217717
O O15 0.018527 0.719232 0.500000
O O16 0.947845 0.726871 0.216234
O O17 0.125662 0.260064 0.500000
O O18 0.294152 0.020297 0.500000
#
# Coordination Sequence:
#
# PCOD9441503 Si02
#       7
#     8   8   8   8   8   8   8
#     4   9  16  29  47  63  82 112 150 183 213 255
#     4   9  17  30  47  65  86 112 146 184 218 254
#     4  10  19  29  43  65  91 117 146 177 213 261
#     4   9  17  29  45  64  86 114 146 180 217 259
#     4  10  19  30  43  63  91 119 144 174 219 265
#     4   9  18  30  44  63  88 116 145 178 215 259
#     4   9  16  27  44  65  86 111 143 181 219 252
#
# _framework density 18.748598999999999
#
# number of rings (size 3 to 8) (size 9 to 14) (size 15 to 20)
#    0.000    2.714    1.429    0.857    0.000    2.000 
#    0.000    1.429    0.000    0.857    0.000    6.000 
#    0.000    0.000    0.000   15.571    0.000   16.286 
#
# Total GULP energy -312381.327720 kJ/mol
# GULP energy per Si atom -5578.237995 kJ/mol
# Density = 1.870593 g / cm^3
# Si number density = 18.748599 Si / 1000 Ang^3
#
#
#
# Elastic Constant Matrix: (Units=GPa)
#
#
# Indices 1 2 3 4 5 6 
#
# 1 153.7798 122.6697 -5.8623 0.0000 0.0000 0.0000
# 2 122.6697 152.1348 -1.7367 0.0000 0.0000 0.0000
# 3 -5.8623 -1.7367 48.7831 0.0000 0.0000 0.0000
# 4 0.0000 0.0000 0.0000 4.8664 0.0000 0.0000
# 5 0.0000 0.0000 0.0000 0.0000 6.5829 0.0000
# 6 0.0000 0.0000 0.0000 0.0000 0.0000 24.6047
#
#
#
# Elastic Compliance Matrix: (Units=1/GPa)
#
#
# Indices 1 2 3 4 5 6 
#
# 1 0.018362 -0.014787 0.001680 0.000000 0.000000 0.000000
# 2 -0.014787 0.018483 -0.001119 0.000000 0.000000 0.000000
# 3 0.001680 -0.001119 0.020661 0.000000 0.000000 0.000000
# 4 0.000000 0.000000 0.000000 0.205490 0.000000 0.000000
# 5 0.000000 0.000000 0.000000 0.000000 0.151909 0.000000
# 6 0.000000 0.000000 0.000000 0.000000 0.000000 0.040643
#
#
# Mechanical properties :
#
#
# Convention : Reuss Voigt Hill
#
# Bulk Modulus (GPa) = 34.41688 64.98213 49.69950
# Shear Modulus (GPa) = 10.12795 23.18594 16.65695
#
# Velocity S-wave (km/s) = 2.32674 3.52046 2.98390
# Velocity P-wave (km/s) = 5.06114 7.15959 6.19980
#
# Compressibility (1/GPa) = 0.02905551
#
# Stress axis : x y z
#
# Youngs Moduli (GPa) = 54.46027 54.10363 48.40045
#
# Poissons Ratio (x) = 0.80000 -0.08132
# Poissons Ratio (y) = 0.80528 0.05416
# Poissons Ratio (z) = -0.09150 0.06054
#
# Static dielectric constant tensor:
#      x y z
#    x 1.649810 0.000000 0.000000 
#    y 0.000000 1.633780 0.000000 
#    z 0.000000 0.000000 1.722150 
# 
# From -- ./inp_files/6437.got.cif
#   From: 2010.05.17/outbox.cif.g08.bks.cpg/sg58_4_cif.got.tgz:6437.got - 2010.06.03 14:20:14.
