data_PCOD9441314
_publ_section_title
;
Structure prediction by ZEFSAII (Michael W. Deem and Ramdas Pophale) SiO2 
 PCOD9441314
Probable space group: P N N M
;
_chemical_formula_sum "Si O2"
_cell_formula_units_Z 64
_cell_length_a 23.796802
_cell_length_b 5.597805
_cell_length_c 23.989149
_cell_angle_alpha 90.000000
_cell_angle_beta 90.000000
_cell_angle_gamma 90.000000
_cell_volume 3195.591113
_symmetry_space_group_name_H-M "P N N M"
_symmetry_group_IT_number 58
_symmetry_cell_setting 'orthorhombic'
loop_
_space_group_symop_operation_xyz
x,y,z
-x,-y,z
1/2+x,1/2-y,1/2-z
1/2-x,1/2+y,1/2-z
-x,-y,-z
x,y,-z
1/2-x,1/2+y,1/2+z
1/2+x,1/2-y,1/2+z
loop_
_atom_site_type_symbol
_atom_site_label
_atom_site_fract_x
_atom_site_fract_y
_atom_site_fract_z
Si Si1 0.210889 0.341274 0.435668
Si Si2 0.938264 0.260703 0.256415
Si Si3 0.726052 0.856532 0.664099
Si Si4 0.369855 0.854340 0.693508
Si Si5 0.015307 0.238492 0.145078
Si Si6 0.180771 0.968889 0.737630
Si Si7 0.644294 0.661887 0.935477
Si Si8 0.972580 0.250364 0.620893
O O1 0.230523 0.323884 0.500000
O O2 0.256608 0.305221 0.387567
O O3 0.185017 0.607025 0.428757
O O4 0.169655 0.107012 0.428131
O O5 0.904623 0.499187 0.239863
O O6 0.974648 0.262287 0.311836
O O7 0.977243 0.225082 0.202104
O O8 0.885657 0.086130 0.268544
O O9 0.781501 0.004492 0.683009
O O10 0.708460 0.718543 0.720390
O O11 0.668387 0.994117 0.651461
O O12 0.419044 0.724171 0.660380
O O13 0.323373 0.710258 0.727219
O O14 0.000000 0.500000 0.121738
O O15 0.000000 0.000000 0.111964
O O16 0.591878 0.723596 0.896698
O O17 0.625190 0.669473 0.000000
O O18 0.000000 0.500000 0.600009
O O19 0.000000 0.000000 0.602263
#
# Coordination Sequence:
#
# PCOD9441314 Si02
#       8
#     8   8   8   8   8   8   8   8
#     4  10  23  43  67  85 112 158 206 256 301 364
#     4  10  22  34  52  75 110 156 196 235 276 358
#     4  11  23  35  55  86 121 153 199 244 306 376
#     4  10  21  34  50  78 112 155 184 237 291 352
#     4  10  18  33  50  69 104 147 188 226 261 334
#     4  11  21  33  52  80 117 154 189 236 306 352
#     4  10  23  43  62  84 109 149 204 258 315 359
#     4  12  25  36  56  85 111 151 200 253 308 352
#
# _framework density 20.027591999999999
#
# number of rings (size 3 to 8) (size 9 to 14) (size 15 to 20)
#    0.000    1.500    2.500    3.000    5.250    0.500 
#    0.000    0.000    0.000    0.000    0.000    0.000 
#    0.000   13.000    0.000    3.125    0.000    0.000 
#
# Total GULP energy -356428.104713 kJ/mol
# GULP energy per Si atom -5569.189136 kJ/mol
# Density = 1.998201 g / cm^3
# Si number density = 20.027592 Si / 1000 Ang^3
#
#
#
# Elastic Constant Matrix: (Units=GPa)
#
#
# Indices 1 2 3 4 5 6 
#
# 1 70.3708 8.1811 2.9870 0.0000 0.0000 0.0000
# 2 8.1811 93.9853 -8.8877 0.0000 0.0000 0.0000
# 3 2.9870 -8.8877 28.5113 0.0000 0.0000 0.0000
# 4 0.0000 0.0000 0.0000 -5.3664 0.0000 0.0000
# 5 0.0000 0.0000 0.0000 0.0000 14.0651 0.0000
# 6 0.0000 0.0000 0.0000 0.0000 0.0000 17.0739
#
#
#
# Elastic Compliance Matrix: (Units=1/GPa)
#
#
# Indices 1 2 3 4 5 6 
#
# 1 0.014462 -0.001445 -0.001965 0.000000 0.000000 0.000000
# 2 -0.001445 0.011107 0.003614 0.000000 0.000000 0.000000
# 3 -0.001965 0.003614 0.036406 0.000000 0.000000 0.000000
# 4 0.000000 0.000000 0.000000 -0.186344 0.000000 0.000000
# 5 0.000000 0.000000 0.000000 0.000000 0.071098 0.000000
# 6 0.000000 0.000000 0.000000 0.000000 0.000000 0.058569
#
#
# Mechanical properties :
#
#
# Convention : Reuss Voigt Hill
#
# Bulk Modulus (GPa) = 16.03006 21.93647 18.98326
# Shear Modulus (GPa) = 194.66632 17.86032 106.26332
#
# Velocity S-wave (km/s) = 9.86965 2.98952 7.29203
# Velocity P-wave (km/s) = 11.74315 4.78468 8.96646
#
# Compressibility (1/GPa) = 0.06238282
#
# Stress axis : x y z
#
# Youngs Moduli (GPa) = 69.14755 90.02955 27.46784
#
# Poissons Ratio (x) = 0.13007 0.05399
# Poissons Ratio (y) = 0.09990 -0.09926
# Poissons Ratio (z) = 0.13591 -0.32535
#
# Static dielectric constant tensor:
#      x y z
#    x 1.240740 0.000000 0.000000 
#    y 0.000000 1.869140 0.000000 
#    z 0.000000 0.000000 1.667580 
# 
# From -- ./inp_files/32461.got.cif
#   From: 2010.05.17/outbox.cif.g08.bks.cpg/sg58_17_cif.got.tgz:32461.got - 2010.06.03 14:20:14.
