data_PCOD9441691
_publ_section_title
;
Structure prediction by ZEFSAII (Michael W. Deem and Ramdas Pophale) SiO2 
 PCOD9441691
Probable space group: P N N M
;
_chemical_formula_sum "Si O2"
_cell_formula_units_Z 64
_cell_length_a 26.081877
_cell_length_b 14.657635
_cell_length_c 7.482328
_cell_angle_alpha 90.000000
_cell_angle_beta 90.000000
_cell_angle_gamma 90.000000
_cell_volume 2860.483767
_symmetry_space_group_name_H-M "P N N M"
_symmetry_group_IT_number 58
_symmetry_cell_setting 'orthorhombic'
loop_
_space_group_symop_operation_xyz
x,y,z
-x,-y,z
1/2+x,1/2-y,1/2-z
1/2-x,1/2+y,1/2-z
-x,-y,-z
x,y,-z
1/2-x,1/2+y,1/2+z
1/2+x,1/2-y,1/2+z
loop_
_atom_site_type_symbol
_atom_site_label
_atom_site_fract_x
_atom_site_fract_y
_atom_site_fract_z
Si Si1 0.214133 0.539305 0.296146
Si Si2 0.897837 0.468190 0.281879
Si Si3 0.664492 0.239492 0.204005
Si Si4 0.050617 0.719808 0.718983
Si Si5 0.675012 0.444918 0.707637
Si Si6 0.277247 0.250134 0.714861
Si Si7 0.624677 0.625509 0.210416
Si Si8 0.059553 0.344513 0.718317
O O1 0.215284 0.504594 0.500000
O O2 0.159790 0.509277 0.217623
O O3 0.270171 0.519228 0.217378
O O4 0.211792 0.649967 0.293106
O O5 0.895363 0.465514 0.500000
O O6 0.916811 0.368988 0.224444
O O7 0.936458 0.548965 0.233736
O O8 0.661147 0.349501 0.203721
O O9 0.720961 0.217838 0.279227
O O10 0.612306 0.200774 0.283623
O O11 0.665418 0.205486 0.000000
O O12 0.051430 0.720529 0.500000
O O13 0.078536 0.811719 0.780536
O O14 0.992338 0.704139 0.777457
O O15 0.684115 0.422536 0.500000
O O16 0.633749 0.524578 0.717249
O O17 0.274130 0.239565 0.500000
O O18 0.323267 0.317495 0.757456
O O19 0.617317 0.615309 0.000000
O O20 0.058782 0.339907 0.500000
#
# Coordination Sequence:
#
# PCOD9441691 Si02
#       8
#     8   8   8   8   8   8   8   8
#     4   9  17  31  51  76 107 138 170 211 259 310
#     4   9  15  26  48  78 109 136 165 208 261 311
#     4   9  19  35  54  78 108 139 176 222 271 315
#     4   9  17  30  49  78 109 137 175 219 265 311
#     4  10  21  35  54  77 106 141 180 222 270 321
#     4  10  19  31  50  76 108 141 174 212 260 317
#     4  11  21  34  53  78 109 142 179 222 266 313
#     4   9  17  29  51  79 106 137 175 222 267 311
#
# _framework density 22.373837000000002
#
# number of rings (size 3 to 8) (size 9 to 14) (size 15 to 20)
#    0.000    2.500    1.250    1.500    1.750    2.500 
#    0.000    0.625    0.000    5.250    0.000    0.875 
#    0.000    0.000    0.000    0.000    0.000    0.000 
#
# Total GULP energy -357384.900416 kJ/mol
# GULP energy per Si atom -5584.139069 kJ/mol
# Density = 2.232291 g / cm^3
# Si number density = 22.373837 Si / 1000 Ang^3
#
#
#
# Elastic Constant Matrix: (Units=GPa)
#
#
# Indices 1 2 3 4 5 6 
#
# 1 91.8514 5.2782 -5.0378 0.0000 0.0000 0.0000
# 2 5.2782 37.5815 -6.6253 0.0000 0.0000 0.0000
# 3 -5.0378 -6.6253 68.2922 0.0000 0.0000 0.0000
# 4 0.0000 0.0000 0.0000 8.0137 0.0000 0.0000
# 5 0.0000 0.0000 0.0000 0.0000 -0.7883 0.0000
# 6 0.0000 0.0000 0.0000 0.0000 0.0000 34.9776
#
#
#
# Elastic Compliance Matrix: (Units=1/GPa)
#
#
# Indices 1 2 3 4 5 6 
#
# 1 0.011006 -0.001427 0.000673 0.000000 0.000000 0.000000
# 2 -0.001427 0.027257 0.002539 0.000000 0.000000 0.000000
# 3 0.000673 0.002539 0.014939 0.000000 0.000000 0.000000
# 4 0.000000 0.000000 0.000000 0.124786 0.000000 0.000000
# 5 0.000000 0.000000 0.000000 0.000000 -1.268606 0.000000
# 6 0.000000 0.000000 0.000000 0.000000 0.000000 0.028590
#
#
# Mechanical properties :
#
#
# Convention : Reuss Voigt Hill
#
# Bulk Modulus (GPa) = 17.61408 20.55059 19.08234
# Shear Modulus (GPa) = -4.77703 22.04794 8.63545
#
# Velocity S-wave (km/s) = -1.46278 3.14257 1.96672
# Velocity P-wave (km/s) = 2.24427 4.72998 3.70199
#
# Compressibility (1/GPa) = 0.05677276
#
# Stress axis : x y z
#
# Youngs Moduli (GPa) = 90.85876 36.68806 66.93907
#
# Poissons Ratio (x) = 0.05235 -0.04508
# Poissons Ratio (y) = 0.12966 -0.16996
# Poissons Ratio (z) = -0.06119 -0.09315
#
# Static dielectric constant tensor:
#      x y z
#    x 1.838080 0.000000 0.000000 
#    y 0.000000 1.793560 0.000000 
#    z 0.000000 0.000000 1.895370 
# 
# From -- ./inp_files/10015.got.cif
#   From: 2010.05.17/outbox.cif.g08.bks.cpg/sg58_6_cif.got.tgz:10015.got - 2010.06.03 14:20:14.
