data_PCOD9441340
_publ_section_title
;
Structure prediction by ZEFSAII (Michael W. Deem and Ramdas Pophale) SiO2 
 PCOD9441340
Probable space group: P N N M
;
_chemical_formula_sum "Si O2"
_cell_formula_units_Z 56
_cell_length_a 21.594440
_cell_length_b 14.813997
_cell_length_c 8.106058
_cell_angle_alpha 90.000000
_cell_angle_beta 90.000000
_cell_angle_gamma 90.000000
_cell_volume 2593.127706
_symmetry_space_group_name_H-M "P N N M"
_symmetry_group_IT_number 58
_symmetry_cell_setting 'orthorhombic'
loop_
_space_group_symop_operation_xyz
x,y,z
-x,-y,z
1/2+x,1/2-y,1/2-z
1/2-x,1/2+y,1/2-z
-x,-y,-z
x,y,-z
1/2-x,1/2+y,1/2+z
1/2+x,1/2-y,1/2+z
loop_
_atom_site_type_symbol
_atom_site_label
_atom_site_fract_x
_atom_site_fract_y
_atom_site_fract_z
Si Si1 0.257125 0.010067 0.696328
Si Si2 0.978056 0.270929 0.701859
Si Si3 0.748951 0.195360 0.304582
Si Si4 0.887615 0.738898 0.312307
Si Si5 0.634945 0.420042 0.316512
Si Si6 0.652926 0.847737 0.200126
Si Si7 0.443888 0.429224 0.191076
O O1 0.245229 0.012879 0.500000
O O2 0.207660 0.073357 0.787001
O O3 0.322306 0.057040 0.733352
O O4 0.248335 0.907852 0.757055
O O5 0.981488 0.270025 0.500000
O O6 0.917876 0.327959 0.749060
O O7 0.963171 0.168262 0.754589
O O8 0.047283 0.297681 0.757413
O O9 0.759960 0.191355 0.500000
O O10 0.677357 0.222462 0.276652
O O11 0.800267 0.266903 0.240933
O O12 0.880271 0.707661 0.500000
O O13 0.894203 0.847984 0.307602
O O14 0.619842 0.389478 0.500000
O O15 0.609862 0.520041 0.286715
O O16 0.655273 0.849090 0.000000
O O17 0.500000 0.500000 0.198606
O O18 0.424497 0.418648 0.000000
#
# Coordination Sequence:
#
# PCOD9441340 Si02
#       7
#     8   8   8   8   8   8   8
#     4  11  23  40  62  87 116 155 202 247 299 358
#     4   9  19  36  58  85 118 158 197 241 297 355
#     4  10  22  40  62  88 119 155 196 250 305 347
#     4  11  21  37  61  87 116 155 200 240 289 357
#     4  12  23  35  54  84 121 155 192 242 299 350
#     4  10  20  38  62  87 118 154 195 247 301 349
#     4  10  18  33  56  81 113 153 195 235 287 356
#
# _framework density 21.595541999999998
#
# number of rings (size 3 to 8) (size 9 to 14) (size 15 to 20)
#    0.000    1.571    2.857    3.000    0.000    3.714 
#    0.000    4.286    0.000    4.286    0.000    0.000 
#    0.000    0.000    0.000    0.000    0.000    0.000 
#
# Total GULP energy -312597.775815 kJ/mol
# GULP energy per Si atom -5582.103140 kJ/mol
# Density = 2.154639 g / cm^3
# Si number density = 21.595542 Si / 1000 Ang^3
#
#
#
# Elastic Constant Matrix: (Units=GPa)
#
#
# Indices 1 2 3 4 5 6 
#
# 1 99.8683 4.7668 -4.5030 0.0000 0.0000 0.0000
# 2 4.7668 41.2203 -1.4380 0.0000 0.0000 0.0000
# 3 -4.5030 -1.4380 25.1689 0.0000 0.0000 0.0000
# 4 0.0000 0.0000 0.0000 19.4398 0.0000 0.0000
# 5 0.0000 0.0000 0.0000 0.0000 171.8125 0.0000
# 6 0.0000 0.0000 0.0000 0.0000 0.0000 30.2666
#
#
#
# Elastic Compliance Matrix: (Units=1/GPa)
#
#
# Indices 1 2 3 4 5 6 
#
# 1 0.010145 -0.001112 0.001752 0.000000 0.000000 0.000000
# 2 -0.001112 0.024430 0.001197 0.000000 0.000000 0.000000
# 3 0.001752 0.001197 0.040113 0.000000 0.000000 0.000000
# 4 0.000000 0.000000 0.000000 0.051441 0.000000 0.000000
# 5 0.000000 0.000000 0.000000 0.000000 0.005820 0.000000
# 6 0.000000 0.000000 0.000000 0.000000 0.000000 0.033040
#
#
# Mechanical properties :
#
#
# Convention : Reuss Voigt Hill
#
# Bulk Modulus (GPa) = 12.76137 18.21210 15.48674
# Shear Modulus (GPa) = 26.67553 55.46588 41.07071
#
# Velocity S-wave (km/s) = 3.51840 5.07343 4.36571
# Velocity P-wave (km/s) = 4.73578 6.53997 5.70959
#
# Compressibility (1/GPa) = 0.07836149
#
# Stress axis : x y z
#
# Youngs Moduli (GPa) = 98.56831 40.93289 24.92935
#
# Poissons Ratio (x) = 0.04552 -0.04367
# Poissons Ratio (y) = 0.10962 -0.02984
# Poissons Ratio (z) = -0.17265 -0.04899
#
# Static dielectric constant tensor:
#      x y z
#    x 1.850950 0.000000 0.000000 
#    y 0.000000 1.800950 0.000000 
#    z 0.000000 0.000000 1.772840 
# 
# From -- ./inp_files/6411.got.cif
#   From: 2010.05.17/outbox.cif.g08.bks.cpg/sg58_4_cif.got.tgz:6411.got - 2010.06.03 14:20:14.
