data_PCOD9441707
_publ_section_title
;
Structure prediction by ZEFSAII (Michael W. Deem and Ramdas Pophale) SiO2 
 PCOD9441707
Probable space group: P N N M
;
_chemical_formula_sum "Si O2"
_cell_formula_units_Z 40
_cell_length_a 13.847008
_cell_length_b 19.228756
_cell_length_c 8.041367
_cell_angle_alpha 90.000000
_cell_angle_beta 90.000000
_cell_angle_gamma 90.000000
_cell_volume 2141.100313
_symmetry_space_group_name_H-M "P N N M"
_symmetry_group_IT_number 58
_symmetry_cell_setting 'orthorhombic'
loop_
_space_group_symop_operation_xyz
x,y,z
-x,-y,z
1/2+x,1/2-y,1/2-z
1/2-x,1/2+y,1/2-z
-x,-y,-z
x,y,-z
1/2-x,1/2+y,1/2+z
1/2+x,1/2-y,1/2+z
loop_
_atom_site_type_symbol
_atom_site_label
_atom_site_fract_x
_atom_site_fract_y
_atom_site_fract_z
Si Si1 0.111878 0.996771 0.203363
Si Si2 0.689187 0.651746 0.305369
Si Si3 0.620321 0.216331 0.304924
Si Si4 0.094295 0.706560 0.305339
Si Si5 0.710007 0.361273 0.296988
O O1 0.168488 0.065379 0.260842
O O2 0.158896 0.924095 0.256934
O O3 0.114255 0.997666 0.000000
O O4 0.000000 0.000000 0.253013
O O5 0.663231 0.655974 0.500000
O O6 0.802724 0.666895 0.284511
O O7 0.633291 0.714881 0.217776
O O8 0.643579 0.213053 0.500000
O O9 0.509150 0.198663 0.278319
O O10 0.642879 0.295685 0.248885
O O11 0.081491 0.692749 0.500000
O O12 0.181518 0.657806 0.241767
O O13 0.711002 0.362721 0.500000
#
# Coordination Sequence:
#
# PCOD9441707 Si02
#       5
#     8   8   8   8   8
#     4   9  16  28  49  75  99 125 162 204 244 292
#     4  10  19  31  51  77 102 128 161 203 251 299
#     4  10  19  33  53  73  98 131 168 209 247 289
#     4  10  19  32  51  73 100 132 167 206 246 292
#     4   8  16  30  48  72  97 124 163 207 244 286
#
# _framework density 18.681984
#
# number of rings (size 3 to 8) (size 9 to 14) (size 15 to 20)
#    0.000    2.600    0.000    4.200    0.000    3.200 
#    0.000    1.000    0.000   28.800    0.000    0.000 
#    0.000    0.000    0.000    0.000    0.000    0.000 
#
# Total GULP energy -223145.292182 kJ/mol
# GULP energy per Si atom -5578.632305 kJ/mol
# Density = 1.863946 g / cm^3
# Si number density = 18.681984 Si / 1000 Ang^3
#
#
#
# Elastic Constant Matrix: (Units=GPa)
#
#
# Indices 1 2 3 4 5 6 
#
# 1 121.7602 69.6194 -9.2539 0.0000 0.0000 0.0000
# 2 69.6194 139.7224 -3.2257 0.0000 0.0000 0.0000
# 3 -9.2539 -3.2257 16.3283 0.0000 0.0000 0.0000
# 4 0.0000 0.0000 0.0000 17.1895 0.0000 0.0000
# 5 0.0000 0.0000 0.0000 0.0000 28.7507 0.0000
# 6 0.0000 0.0000 0.0000 0.0000 0.0000 17.7347
#
#
#
# Elastic Compliance Matrix: (Units=1/GPa)
#
#
# Indices 1 2 3 4 5 6 
#
# 1 0.011980 -0.005839 0.005636 0.000000 0.000000 0.000000
# 2 -0.005839 0.010036 -0.001327 0.000000 0.000000 0.000000
# 3 0.005636 -0.001327 0.064175 0.000000 0.000000 0.000000
# 4 0.000000 0.000000 0.000000 0.058175 0.000000 0.000000
# 5 0.000000 0.000000 0.000000 0.000000 0.034782 0.000000
# 6 0.000000 0.000000 0.000000 0.000000 0.000000 0.056387
#
#
# Mechanical properties :
#
#
# Convention : Reuss Voigt Hill
#
# Bulk Modulus (GPa) = 12.02915 43.56561 27.79738
# Shear Modulus (GPa) = 18.77550 27.44638 23.11094
#
# Velocity S-wave (km/s) = 3.17362 3.83709 3.52102
# Velocity P-wave (km/s) = 4.45893 6.55753 5.60728
#
# Compressibility (1/GPa) = 0.08313139
#
# Stress axis : x y z
#
# Youngs Moduli (GPa) = 83.47359 99.64274 15.58233
#
# Poissons Ratio (x) = 0.58182 -0.08782
# Poissons Ratio (y) = 0.48741 0.02067
# Poissons Ratio (z) = -0.47045 0.13219
#
# Static dielectric constant tensor:
#      x y z
#    x 1.629530 0.000000 0.000000 
#    y 0.000000 1.629680 0.000000 
#    z 0.000000 0.000000 1.667950 
# 
# From -- ./inp_files/3761.got.cif
#   From: 2010.05.17/outbox.cif.g08.bks.cpg/sg58_2_cif.got.tgz:3761.got - 2010.06.03 14:20:14.
