data_PCOD9441739
_publ_section_title
;
Structure prediction by ZEFSAII (Michael W. Deem and Ramdas Pophale) SiO2 
 PCOD9441739
Probable space group: P N N M
;
_chemical_formula_sum "Si O2"
_cell_formula_units_Z 58
_cell_length_a 32.330361
_cell_length_b 8.616042
_cell_length_c 9.154221
_cell_angle_alpha 90.000000
_cell_angle_beta 90.000000
_cell_angle_gamma 90.000000
_cell_volume 2549.997497
_symmetry_space_group_name_H-M "P N N M"
_symmetry_group_IT_number 58
_symmetry_cell_setting 'orthorhombic'
loop_
_space_group_symop_operation_xyz
x,y,z
-x,-y,z
1/2+x,1/2-y,1/2-z
1/2-x,1/2+y,1/2-z
-x,-y,-z
x,y,-z
1/2-x,1/2+y,1/2+z
1/2+x,1/2-y,1/2+z
loop_
_atom_site_type_symbol
_atom_site_label
_atom_site_fract_x
_atom_site_fract_y
_atom_site_fract_z
Si Si1 0.690744 0.071660 0.826961
Si Si2 0.605053 0.412819 0.834762
Si Si3 0.950259 0.224160 0.664998
Si Si4 0.382278 0.093952 0.667340
Si Si5 0.328221 0.412538 0.334162
Si Si6 0.032303 0.217736 0.161012
Si Si7 0.742967 0.755364 0.828339
Si Si8 0.000000 0.500000 0.000000
O O1 0.647695 0.028045 0.747891
O O2 0.720944 0.921439 0.804328
O O3 0.715412 0.216241 0.759123
O O4 0.684734 0.087988 0.000000
O O5 0.579424 0.574393 0.843319
O O6 0.643959 0.453370 0.734765
O O7 0.573039 0.300877 0.755323
O O8 0.615869 0.366694 0.000000
O O9 0.961299 0.270512 0.500000
O O10 0.923307 0.354977 0.746476
O O11 0.990644 0.172184 0.753841
O O12 0.391552 0.048395 0.500000
O O13 0.355909 0.255246 0.659963
O O14 0.314576 0.447586 0.500000
O O15 0.290649 0.367833 0.230106
O O16 0.036823 0.138484 0.000000
O O17 0.022681 0.393891 0.123062
O O18 0.750242 0.735591 0.000000
#
# Coordination Sequence:
#
# PCOD9441739 Si02
#       8
#     8   8   8   8   8   8   8   2
#     4  10  20  34  54  78 108 143 180 220 267 317
#     4  10  19  31  52  84 112 129 158 208 270 323
#     4  10  19  31  52  84 112 129 158 208 270 323
#     4   9  17  30  50  78 108 139 168 204 259 322
#     4   9  17  30  50  78 108 139 168 204 259 322
#     4  10  20  36  54  70 101 137 175 214 249 298
#     4  10  20  34  54  78 108 143 180 220 267 317
#     4   8  24  40  52  68  96 140 198 214 248 292
#
# _framework density 22.74512
#
# number of rings (size 3 to 8) (size 9 to 14) (size 15 to 20)
#    0.414    1.931    0.000    3.310    0.000    8.276 
#    0.000    1.379    3.034    0.000    0.000    0.000 
#    0.000    0.000    0.000    0.000    0.000    0.000 
#
# Total GULP energy -323652.181793 kJ/mol
# GULP energy per Si atom -5580.210031 kJ/mol
# Density = 2.269335 g / cm^3
# Si number density = 22.745120 Si / 1000 Ang^3
#
#
#
# Elastic Constant Matrix: (Units=GPa)
#
#
# Indices 1 2 3 4 5 6 
#
# 1 79.8838 42.1156 30.0314 0.0000 0.0000 0.0000
# 2 42.1156 43.2807 30.8536 0.0000 0.0000 0.0000
# 3 30.0314 30.8536 138.1603 0.0000 0.0000 0.0000
# 4 0.0000 0.0000 0.0000 -9.6621 0.0000 0.0000
# 5 0.0000 0.0000 0.0000 0.0000 25.6414 0.0000
# 6 0.0000 0.0000 0.0000 0.0000 0.0000 57.2120
#
#
#
# Elastic Compliance Matrix: (Units=1/GPa)
#
#
# Indices 1 2 3 4 5 6 
#
# 1 0.025706 -0.025012 -0.000002 0.000000 0.000000 0.000000
# 2 -0.025012 0.051817 -0.006135 0.000000 0.000000 0.000000
# 3 -0.000002 -0.006135 0.008608 0.000000 0.000000 0.000000
# 4 0.000000 0.000000 0.000000 -0.103497 0.000000 0.000000
# 5 0.000000 0.000000 0.000000 0.000000 0.038999 0.000000
# 6 0.000000 0.000000 0.000000 0.000000 0.000000 0.017479
#
#
# Mechanical properties :
#
#
# Convention : Reuss Voigt Hill
#
# Bulk Modulus (GPa) = 41.95812 51.92510 46.94161
# Shear Modulus (GPa) = 45.72233 25.19319 35.45776
#
# Velocity S-wave (km/s) = 4.48839 3.33172 3.95260
# Velocity P-wave (km/s) = 6.73410 6.13833 6.44310
#
# Compressibility (1/GPa) = 0.02383329
#
# Stress axis : x y z
#
# Youngs Moduli (GPa) = 38.90187 19.29851 116.16567
#
# Poissons Ratio (x) = 0.48270 0.00022
# Poissons Ratio (y) = 0.97303 0.71266
# Poissons Ratio (z) = 0.00007 0.11839
#
# Static dielectric constant tensor:
#      x y z
#    x 1.836960 0.000000 0.000000 
#    y 0.000000 1.890870 0.000000 
#    z 0.000000 0.000000 1.809280 
# 
# From -- ./inp_files/10868.got.cif
#   From: 2010.05.17/outbox.cif.g08.bks.cpg/sg58_6_cif.got.tgz:10868.got - 2010.06.03 14:20:14.
