data_PCOD9441215
_publ_section_title
;
Structure prediction by ZEFSAII (Michael W. Deem and Ramdas Pophale) SiO2 
 PCOD9441215
Probable space group: P N N M
;
_chemical_formula_sum "Si O2"
_cell_formula_units_Z 64
_cell_length_a 23.488789
_cell_length_b 19.931925
_cell_length_c 8.023726
_cell_angle_alpha 90.000000
_cell_angle_beta 90.000000
_cell_angle_gamma 90.000000
_cell_volume 3756.522208
_symmetry_space_group_name_H-M "P N N M"
_symmetry_group_IT_number 58
_symmetry_cell_setting 'orthorhombic'
loop_
_space_group_symop_operation_xyz
x,y,z
-x,-y,z
1/2+x,1/2-y,1/2-z
1/2-x,1/2+y,1/2-z
-x,-y,-z
x,y,-z
1/2-x,1/2+y,1/2+z
1/2+x,1/2-y,1/2+z
loop_
_atom_site_type_symbol
_atom_site_label
_atom_site_fract_x
_atom_site_fract_y
_atom_site_fract_z
Si Si1 0.834447 0.777858 0.798438
Si Si2 0.766650 0.653153 0.698584
Si Si3 0.221676 0.640649 0.295996
Si Si4 0.935718 0.869590 0.798414
Si Si5 0.740153 0.005205 0.193715
Si Si6 0.065417 0.870695 0.804720
Si Si7 0.366935 0.499591 0.191846
Si Si8 0.154391 0.767663 0.303713
O O1 0.817509 0.704866 0.732824
O O2 0.782913 0.827943 0.747977
O O3 0.893763 0.809966 0.742240
O O4 0.833992 0.774927 0.000000
O O5 0.756293 0.649528 0.500000
O O6 0.776196 0.577876 0.764528
O O7 0.710041 0.685459 0.778042
O O8 0.221395 0.639782 0.500000
O O9 0.216754 0.564598 0.234149
O O10 0.174062 0.694211 0.242994
O O11 0.000851 0.864382 0.741834
O O12 0.907384 0.939312 0.743846
O O13 0.935867 0.868296 0.000000
O O14 0.808771 0.000811 0.204006
O O15 0.722898 0.006039 0.000000
O O16 0.099387 0.930326 0.715719
O O17 0.101485 0.803004 0.783199
O O18 0.063398 0.888613 0.000000
O O19 0.350241 0.507276 0.000000
O O20 0.142436 0.763967 0.500000
#
# Coordination Sequence:
#
# PCOD9441215 Si02
#       8
#     8   8   8   8   8   8   8   8
#     4   9  17  32  51  68  92 126 161 200 242 287
#     4  10  19  29  48  73  98 126 157 198 242 288
#     4   8  15  29  50  69  90 123 159 193 236 287
#     4  10  21  37  53  67  91 133 174 201 239 290
#     4  10  18  32  51  70  96 131 165 193 233 292
#     4  11  22  35  51  69  93 131 172 204 237 289
#     4  12  23  32  46  71 101 130 164 203 241 280
#     4  10  19  32  49  70  96 126 160 202 245 285
#
# _framework density 17.037034999999999
#
# number of rings (size 3 to 8) (size 9 to 14) (size 15 to 20)
#    0.000    2.000    2.500    3.375    0.000    3.500 
#    0.000    0.625    0.000    0.000    0.000    0.875 
#    0.000    7.000    0.000    0.000    0.000    0.000 
#
# Total GULP energy -357055.131497 kJ/mol
# GULP energy per Si atom -5578.986430 kJ/mol
# Density = 1.699826 g / cm^3
# Si number density = 17.037035 Si / 1000 Ang^3
#
#
#
# Elastic Constant Matrix: (Units=GPa)
#
#
# Indices 1 2 3 4 5 6 
#
# 1 47.3041 34.9746 -5.6093 0.0000 0.0000 0.0000
# 2 34.9746 139.9110 -3.5926 0.0000 0.0000 0.0000
# 3 -5.6093 -3.5926 13.8901 0.0000 0.0000 0.0000
# 4 0.0000 0.0000 0.0000 10.4724 0.0000 0.0000
# 5 0.0000 0.0000 0.0000 0.0000 14.6835 0.0000
# 6 0.0000 0.0000 0.0000 0.0000 0.0000 17.4622
#
#
#
# Elastic Compliance Matrix: (Units=1/GPa)
#
#
# Indices 1 2 3 4 5 6 
#
# 1 0.027062 -0.006528 0.009240 0.000000 0.000000 0.000000
# 2 -0.006528 0.008770 -0.000368 0.000000 0.000000 0.000000
# 3 0.009240 -0.000368 0.075630 0.000000 0.000000 0.000000
# 4 0.000000 0.000000 0.000000 0.095489 0.000000 0.000000
# 5 0.000000 0.000000 0.000000 0.000000 0.068104 0.000000
# 6 0.000000 0.000000 0.000000 0.000000 0.000000 0.057267
#
#
# Mechanical properties :
#
#
# Convention : Reuss Voigt Hill
#
# Bulk Modulus (GPa) = 8.60947 28.07228 18.34088
# Shear Modulus (GPa) = 13.64822 20.21244 16.93033
#
# Velocity S-wave (km/s) = 2.83343 3.44813 3.15578
# Velocity P-wave (km/s) = 3.97099 5.68909 4.90584
#
# Compressibility (1/GPa) = 0.11615114
#
# Stress axis : x y z
#
# Youngs Moduli (GPa) = 36.95252 114.02891 13.22226
#
# Poissons Ratio (x) = 0.74433 -0.12218
# Poissons Ratio (y) = 0.24121 0.00486
# Poissons Ratio (z) = -0.34145 0.04194
#
# Static dielectric constant tensor:
#      x y z
#    x 1.552760 0.000000 0.000000 
#    y 0.000000 1.602740 0.000000 
#    z 0.000000 0.000000 1.606510 
# 
# From -- ./inp_files/8487.got.cif
#   From: 2010.05.17/outbox.cif.g08.bks.cpg/sg58_5_cif.got.tgz:8487.got - 2010.06.03 14:20:14.
