data_PCOD9441137
_publ_section_title
;
Structure prediction by ZEFSAII (Michael W. Deem and Ramdas Pophale) SiO2 
 PCOD9441137
Probable space group: P N N M
;
_chemical_formula_sum "Si O2"
_cell_formula_units_Z 64
_cell_length_a 31.288705
_cell_length_b 15.088310
_cell_length_c 8.154683
_cell_angle_alpha 90.000000
_cell_angle_beta 90.000000
_cell_angle_gamma 90.000000
_cell_volume 3849.774311
_symmetry_space_group_name_H-M "P N N M"
_symmetry_group_IT_number 58
_symmetry_cell_setting 'orthorhombic'
loop_
_space_group_symop_operation_xyz
x,y,z
-x,-y,z
1/2+x,1/2-y,1/2-z
1/2-x,1/2+y,1/2-z
-x,-y,-z
x,y,-z
1/2-x,1/2+y,1/2+z
1/2+x,1/2-y,1/2+z
loop_
_atom_site_type_symbol
_atom_site_label
_atom_site_fract_x
_atom_site_fract_y
_atom_site_fract_z
Si Si1 0.206031 0.810357 0.697368
Si Si2 0.550261 0.090845 0.310199
Si Si3 0.708411 0.296697 0.697654
Si Si4 0.823620 0.499451 0.300359
Si Si5 0.368386 0.181715 0.200454
Si Si6 0.774339 0.995755 0.198173
Si Si7 0.630796 0.177837 0.803771
Si Si8 0.044551 0.605227 0.693028
O O1 0.207031 0.803435 0.500000
O O2 0.249936 0.760648 0.756204
O O3 0.163159 0.759828 0.754835
O O4 0.204489 0.913334 0.743822
O O5 0.556745 0.070743 0.500000
O O6 0.582306 0.168727 0.257115
O O7 0.500848 0.114877 0.280295
O O8 0.558328 0.998226 0.214297
O O9 0.711307 0.297328 0.500000
O O10 0.709980 0.399012 0.754204
O O11 0.663588 0.252681 0.746228
O O12 0.824140 0.499999 0.500000
O O13 0.845318 0.408955 0.248082
O O14 0.774842 0.502637 0.247864
O O15 0.848145 0.585928 0.243306
O O16 0.417546 0.169611 0.252635
O O17 0.369352 0.183518 0.000000
O O18 0.775607 0.995546 0.000000
O O19 0.630176 0.178878 0.000000
O O20 0.037837 0.619937 0.500000
#
# Coordination Sequence:
#
# PCOD9441137 Si02
#       8
#     8   8   8   8   8   8   8   8
#     4  10  19  31  49  72  97 127 166 207 243 281
#     4  11  21  32  46  70 104 131 158 201 254 296
#     4  10  20  32  48  70  99 132 165 203 248 289
#     4   9  15  26  46  69  93 127 166 199 233 277
#     4   9  16  29  49  71  95 129 167 202 239 283
#     4  10  19  33  49  67  98 136 168 201 244 291
#     4  11  20  32  51  71  95 130 173 207 239 291
#     4  10  18  31  51  72  96 131 172 201 238 294
#
# _framework density 16.62435
#
# number of rings (size 3 to 8) (size 9 to 14) (size 15 to 20)
#    0.000    2.000    3.750    2.625    0.000    0.500 
#    0.000    1.250    0.000    0.000    0.000    0.875 
#    0.000    7.000    0.000    0.000    0.000    0.000 
#
# Total GULP energy -356771.347455 kJ/mol
# GULP energy per Si atom -5574.552304 kJ/mol
# Density = 1.658651 g / cm^3
# Si number density = 16.624350 Si / 1000 Ang^3
#
#
#
# Elastic Constant Matrix: (Units=GPa)
#
#
# Indices 1 2 3 4 5 6 
#
# 1 108.4654 54.0244 4.7112 0.0000 0.0000 0.0000
# 2 54.0244 102.9970 5.5979 0.0000 0.0000 0.0000
# 3 4.7112 5.5979 18.2344 0.0000 0.0000 0.0000
# 4 0.0000 0.0000 0.0000 18.5425 0.0000 0.0000
# 5 0.0000 0.0000 0.0000 0.0000 -168.9128 0.0000
# 6 0.0000 0.0000 0.0000 0.0000 0.0000 23.5705
#
#
#
# Elastic Compliance Matrix: (Units=1/GPa)
#
#
# Indices 1 2 3 4 5 6 
#
# 1 0.012507 -0.006493 -0.001238 0.000000 0.000000 0.000000
# 2 -0.006493 0.013245 -0.002388 0.000000 0.000000 0.000000
# 3 -0.001238 -0.002388 0.055894 0.000000 0.000000 0.000000
# 4 0.000000 0.000000 0.000000 0.053930 0.000000 0.000000
# 5 0.000000 0.000000 0.000000 0.000000 -0.005920 0.000000
# 6 0.000000 0.000000 0.000000 0.000000 0.000000 0.042426
#
#
# Mechanical properties :
#
#
# Convention : Reuss Voigt Hill
#
# Bulk Modulus (GPa) = 16.28476 39.81820 28.05148
# Shear Modulus (GPa) = 23.49724 -14.33574 4.58075
#
# Velocity S-wave (km/s) = 3.76363 -2.93974 1.66175
# Velocity P-wave (km/s) = 5.35757 3.53284 4.53787
#
# Compressibility (1/GPa) = 0.06140709
#
# Stress axis : x y z
#
# Youngs Moduli (GPa) = 79.95263 75.50226 17.89085
#
# Poissons Ratio (x) = 0.49025 0.02215
# Poissons Ratio (y) = 0.51914 0.04273
# Poissons Ratio (z) = 0.09899 0.18033
#
# Static dielectric constant tensor:
#      x y z
#    x 1.586490 0.000000 0.000000 
#    y 0.000000 1.555250 0.000000 
#    z 0.000000 0.000000 1.585680 
# 
# From -- ./inp_files/11148.got.cif
#   From: 2010.05.17/outbox.cif.g08.bks.cpg/sg58_6_cif.got.tgz:11148.got - 2010.06.03 14:20:14.
