data_PCOD9441476
_publ_section_title
;
Structure prediction by ZEFSAII (Michael W. Deem and Ramdas Pophale) SiO2 
 PCOD9441476
Probable space group: P N N M
;
_chemical_formula_sum "Si O2"
_cell_formula_units_Z 64
_cell_length_a 8.703905
_cell_length_b 18.444961
_cell_length_c 17.836573
_cell_angle_alpha 90.000000
_cell_angle_beta 90.000000
_cell_angle_gamma 90.000000
_cell_volume 2863.540297
_symmetry_space_group_name_H-M "P N N M"
_symmetry_group_IT_number 58
_symmetry_cell_setting 'orthorhombic'
loop_
_space_group_symop_operation_xyz
x,y,z
-x,-y,z
1/2+x,1/2-y,1/2-z
1/2-x,1/2+y,1/2-z
-x,-y,-z
x,y,-z
1/2-x,1/2+y,1/2+z
1/2+x,1/2-y,1/2+z
loop_
_atom_site_type_symbol
_atom_site_label
_atom_site_fract_x
_atom_site_fract_y
_atom_site_fract_z
Si Si1 0.814431 0.420297 0.630513
Si Si2 0.124265 0.055339 0.722010
Si Si3 0.137812 0.451340 0.203920
Si Si4 0.502991 0.708280 0.208431
Si Si5 0.005300 0.345257 0.918754
Si Si6 0.723310 0.235819 0.915285
Si Si7 0.811344 0.773603 0.144189
Si Si8 0.317686 0.915681 0.867745
O O1 0.745772 0.417840 0.715756
O O2 0.732532 0.347822 0.602371
O O3 0.776559 0.502585 0.605868
O O4 0.997194 0.409593 0.621103
O O5 0.032905 0.123790 0.690504
O O6 0.231472 0.004198 0.670239
O O7 0.000000 0.000000 0.756138
O O8 0.054336 0.400111 0.145625
O O9 0.205792 0.412415 0.277420
O O10 0.000000 0.500000 0.236219
O O11 0.396231 0.751698 0.150862
O O12 0.669964 0.740270 0.191980
O O13 0.447110 0.717939 0.293963
O O14 0.138095 0.285484 0.915178
O O15 0.852043 0.297797 0.906637
O O16 0.995100 0.380941 0.000000
O O17 0.769339 0.151234 0.905475
O O18 0.660980 0.243253 0.000000
#
# Coordination Sequence:
#
# PCOD9441476 Si02
#       8
#     8   8   8   8   8   8   8   8
#     4   9  19  35  58  91 119 152 198 250 314 364
#     4  10  20  34  56  95 125 152 202 259 314 373
#     4  11  20  39  68  87 122 165 208 266 314 378
#     4  11  22  38  64  94 123 162 212 256 324 376
#     4  11  26  42  59  91 129 169 212 260 319 379
#     4  11  24  40  61  88 123 164 210 260 310 379
#     4  11  22  38  63  93 123 162 203 263 314 380
#     4  10  18  38  62  90 117 153 206 258 313 371
#
# _framework density 22.349955999999999
#
# number of rings (size 3 to 8) (size 9 to 14) (size 15 to 20)
#    0.000    1.500    3.750    3.000    1.750    5.750 
#    0.000    2.500    0.000    3.000    0.000    0.000 
#    0.000    0.000    0.000    0.000    0.000    0.000 
#
# Total GULP energy -357000.891649 kJ/mol
# GULP energy per Si atom -5578.138932 kJ/mol
# Density = 2.229909 g / cm^3
# Si number density = 22.349956 Si / 1000 Ang^3
#
#
#
# Elastic Constant Matrix: (Units=GPa)
#
#
# Indices 1 2 3 4 5 6 
#
# 1 50.5838 -7.1943 -3.8561 0.0000 0.0000 0.0000
# 2 -7.1943 80.2784 1.4723 0.0000 0.0000 0.0000
# 3 -3.8561 1.4723 51.9896 0.0000 0.0000 0.0000
# 4 0.0000 0.0000 0.0000 23.6125 0.0000 0.0000
# 5 0.0000 0.0000 0.0000 0.0000 8.9831 0.0000
# 6 0.0000 0.0000 0.0000 0.0000 0.0000 32.1740
#
#
#
# Elastic Compliance Matrix: (Units=1/GPa)
#
#
# Indices 1 2 3 4 5 6 
#
# 1 0.020132 0.001778 0.001443 0.000000 0.000000 0.000000
# 2 0.001778 0.012620 -0.000226 0.000000 0.000000 0.000000
# 3 0.001443 -0.000226 0.019348 0.000000 0.000000 0.000000
# 4 0.000000 0.000000 0.000000 0.042350 0.000000 0.000000
# 5 0.000000 0.000000 0.000000 0.000000 0.111320 0.000000
# 6 0.000000 0.000000 0.000000 0.000000 0.000000 0.031081
#
#
# Mechanical properties :
#
#
# Convention : Reuss Voigt Hill
#
# Bulk Modulus (GPa) = 17.21463 18.18841 17.70152
# Shear Modulus (GPa) = 19.98205 25.78257 22.88231
#
# Velocity S-wave (km/s) = 2.99332 3.40013 3.20319
# Velocity P-wave (km/s) = 4.43459 4.85491 4.64951
#
# Compressibility (1/GPa) = 0.05809014
#
# Stress axis : x y z
#
# Youngs Moduli (GPa) = 49.67212 79.23863 51.68487
#
# Poissons Ratio (x) = -0.14086 -0.07457
# Poissons Ratio (y) = -0.08830 0.01166
# Poissons Ratio (z) = -0.07167 0.01787
#
# Static dielectric constant tensor:
#      x y z
#    x 1.864070 0.000000 0.000000 
#    y 0.000000 1.933470 0.000000 
#    z 0.000000 0.000000 1.840690 
# 
# From -- ./inp_files/25671.got.cif
#   From: 2010.05.17/outbox.cif.g08.bks.cpg/sg58_13_cif.got.tgz:25671.got - 2010.06.03 14:20:14.
