data_PCOD9441450
_publ_section_title
;
Structure prediction by ZEFSAII (Michael W. Deem and Ramdas Pophale) SiO2 
 PCOD9441450
Probable space group: P N N M
;
_chemical_formula_sum "Si O2"
_cell_formula_units_Z 48
_cell_length_a 9.176320
_cell_length_b 15.176640
_cell_length_c 16.911139
_cell_angle_alpha 90.000000
_cell_angle_beta 90.000000
_cell_angle_gamma 90.000000
_cell_volume 2355.141698
_symmetry_space_group_name_H-M "P N N M"
_symmetry_group_IT_number 58
_symmetry_cell_setting 'orthorhombic'
loop_
_space_group_symop_operation_xyz
x,y,z
-x,-y,z
1/2+x,1/2-y,1/2-z
1/2-x,1/2+y,1/2-z
-x,-y,-z
x,y,-z
1/2-x,1/2+y,1/2+z
1/2+x,1/2-y,1/2+z
loop_
_atom_site_type_symbol
_atom_site_label
_atom_site_fract_x
_atom_site_fract_y
_atom_site_fract_z
Si Si1 0.170397 0.611328 0.166522
Si Si2 0.203817 0.719934 0.630813
Si Si3 0.038486 0.404647 0.694139
Si Si4 0.189427 0.804501 0.208552
Si Si5 0.782958 0.944513 0.500000
Si Si6 0.592029 0.411303 0.696296
Si Si7 0.099515 0.856473 0.500000
O O1 0.186059 0.716897 0.156115
O O2 0.194134 0.570000 0.081144
O O3 0.292962 0.578015 0.230696
O O4 0.020400 0.596953 0.214968
O O5 0.254263 0.769514 0.709581
O O6 0.320617 0.639097 0.625203
O O7 0.161216 0.796450 0.571006
O O8 0.054787 0.669757 0.651228
O O9 0.205211 0.381653 0.681580
O O10 0.000000 0.500000 0.661988
O O11 0.031034 0.842622 0.223279
O O12 0.924989 0.878244 0.500000
O O13 0.835431 0.045531 0.500000
O O14 0.500000 0.500000 0.678404
#
# Coordination Sequence:
#
# PCOD9441450 Si02
#       7
#     8   8   8   8   4   8   4
#     4  10  21  37  56  88 120 155 200 245 299 362
#     4  10  21  38  56  87 115 160 198 252 299 358
#     4  10  20  35  60  86 115 147 202 253 298 347
#     4  10  18  36  59  82 117 156 197 250 300 357
#     4  11  24  38  58  93 123 171 198 243 306 389
#     4  10  20  35  64  88 113 151 212 254 295 358
#     4  11  24  38  61  84 131 162 206 242 309 377
#
# _framework density 20.380938
#
# number of rings (size 3 to 8) (size 9 to 14) (size 15 to 20)
#    0.000    2.167    0.000    8.000    7.000    0.000 
#    0.000    4.583    0.000    2.000    0.000    0.000 
#    0.000    0.000    0.000    0.000    0.000    0.000 
#
# Total GULP energy -267323.101906 kJ/mol
# GULP energy per Si atom -5569.231290 kJ/mol
# Density = 2.033455 g / cm^3
# Si number density = 20.380938 Si / 1000 Ang^3
#
#
#
# Elastic Constant Matrix: (Units=GPa)
#
#
# Indices 1 2 3 4 5 6 
#
# 1 60.1331 8.7893 -3.7974 0.0000 0.0000 0.0000
# 2 8.7893 108.3940 34.1338 0.0000 0.0000 0.0000
# 3 -3.7974 34.1338 47.8480 0.0000 0.0000 0.0000
# 4 0.0000 0.0000 0.0000 265.6266 0.0000 0.0000
# 5 0.0000 0.0000 0.0000 0.0000 2.1302 0.0000
# 6 0.0000 0.0000 0.0000 0.0000 0.0000 45.4871
#
#
#
# Elastic Compliance Matrix: (Units=1/GPa)
#
#
# Indices 1 2 3 4 5 6 
#
# 1 0.017165 -0.002348 0.003038 0.000000 0.000000 0.000000
# 2 -0.002348 0.012220 -0.008904 0.000000 0.000000 0.000000
# 3 0.003038 -0.008904 0.027492 0.000000 0.000000 0.000000
# 4 0.000000 0.000000 0.000000 0.003765 0.000000 0.000000
# 5 0.000000 0.000000 0.000000 0.000000 0.469433 0.000000
# 6 0.000000 0.000000 0.000000 0.000000 0.000000 0.021984
#
#
# Mechanical properties :
#
#
# Convention : Reuss Voigt Hill
#
# Bulk Modulus (GPa) = 24.72316 32.73625 28.72970
# Shear Modulus (GPa) = 8.59149 74.46543 41.52846
#
# Velocity S-wave (km/s) = 2.05538 6.05113 4.51889
# Velocity P-wave (km/s) = 4.21778 8.05720 6.43072
#
# Compressibility (1/GPa) = 0.04044791
#
# Stress axis : x y z
#
# Youngs Moduli (GPa) = 58.25857 81.83391 36.37374
#
# Poissons Ratio (x) = 0.19218 -0.11049
# Poissons Ratio (y) = 0.13681 0.32386
# Poissons Ratio (z) = -0.17696 0.72863
#
# Static dielectric constant tensor:
#      x y z
#    x 1.774310 0.000000 0.000000 
#    y 0.000000 1.791160 0.000000 
#    z 0.000000 0.000000 1.739940 
# 
# From -- ./inp_files/25341.got.cif
#   From: 2010.05.17/outbox.cif.g08.bks.cpg/sg58_13_cif.got.tgz:25341.got - 2010.06.03 14:20:14.
