data_PCOD9441149
_publ_section_title
;
Structure prediction by ZEFSAII (Michael W. Deem and Ramdas Pophale) SiO2 
 PCOD9441149
Probable space group: P N N M
;
_chemical_formula_sum "Si O2"
_cell_formula_units_Z 40
_cell_length_a 10.999926
_cell_length_b 9.333022
_cell_length_c 15.642175
_cell_angle_alpha 90.000000
_cell_angle_beta 90.000000
_cell_angle_gamma 90.000000
_cell_volume 1605.865594
_symmetry_space_group_name_H-M "P N N M"
_symmetry_group_IT_number 58
_symmetry_cell_setting 'orthorhombic'
loop_
_space_group_symop_operation_xyz
x,y,z
-x,-y,z
1/2+x,1/2-y,1/2-z
1/2-x,1/2+y,1/2-z
-x,-y,-z
x,y,-z
1/2-x,1/2+y,1/2+z
1/2+x,1/2-y,1/2+z
loop_
_atom_site_type_symbol
_atom_site_label
_atom_site_fract_x
_atom_site_fract_y
_atom_site_fract_z
Si Si1 0.169901 0.670313 0.868470
Si Si2 0.094809 0.632104 0.330983
Si Si3 0.177923 0.924160 0.333790
Si Si4 0.836547 0.005482 0.136544
Si Si5 0.406271 0.790223 0.592677
O O1 0.139609 0.655452 0.767045
O O2 0.283169 0.566262 0.886009
O O3 0.187545 0.834157 0.894237
O O4 0.037783 0.638749 0.906144
O O5 0.082010 0.799793 0.359951
O O6 0.209389 0.573222 0.382086
O O7 0.000000 0.500000 0.332227
O O8 0.145516 0.975494 0.238653
O O9 0.312515 0.846627 0.336085
O O10 0.927531 0.880338 0.106072
O O11 0.348961 0.813786 0.500000
#
# Coordination Sequence:
#
# PCOD9441149 Si02
#       5
#     8   8   8   8   8
#     4  10  18  31  51  79 116 154 195 243 304 369
#     4   9  17  32  53  75 105 151 208 257 292 342
#     4   9  19  34  53  78 112 157 208 251 292 358
#     4   9  19  34  52  77 115 158 203 247 295 369
#     4  11  22  35  55  87 124 158 192 245 323 391
#
# _framework density 24.908684999999998
#
# number of rings (size 3 to 8) (size 9 to 14) (size 15 to 20)
#    0.000    2.400    0.000    4.800    0.000    3.200 
#    0.000    3.000    0.000    9.600    0.000    0.000 
#    0.000   91.200    0.000    0.000    0.000    0.000 
#
# Total GULP energy -222676.639822 kJ/mol
# GULP energy per Si atom -5566.915996 kJ/mol
# Density = 2.485199 g / cm^3
# Si number density = 24.908685 Si / 1000 Ang^3
#
#
#
# Elastic Constant Matrix: (Units=GPa)
#
#
# Indices 1 2 3 4 5 6 
#
# 1 44.5657 30.0615 20.0561 0.0000 0.0000 0.0000
# 2 30.0615 180.4393 30.8705 0.0000 0.0000 0.0000
# 3 20.0561 30.8705 56.1254 0.0000 0.0000 0.0000
# 4 0.0000 0.0000 0.0000 -3.3834 0.0000 0.0000
# 5 0.0000 0.0000 0.0000 0.0000 -4.6451 0.0000
# 6 0.0000 0.0000 0.0000 0.0000 0.0000 60.6394
#
#
#
# Elastic Compliance Matrix: (Units=1/GPa)
#
#
# Indices 1 2 3 4 5 6 
#
# 1 0.028423 -0.003309 -0.008337 0.000000 0.000000 0.000000
# 2 -0.003309 0.006503 -0.002394 0.000000 0.000000 0.000000
# 3 -0.008337 -0.002394 0.022113 0.000000 0.000000 0.000000
# 4 0.000000 0.000000 0.000000 -0.295562 0.000000 0.000000
# 5 0.000000 0.000000 0.000000 0.000000 -0.215280 0.000000
# 6 0.000000 0.000000 0.000000 0.000000 0.000000 0.016491
#
#
# Mechanical properties :
#
#
# Convention : Reuss Voigt Hill
#
# Bulk Modulus (GPa) = 34.53173 49.23407 41.88290
# Shear Modulus (GPa) = -12.51314 23.86500 5.67593
#
# Velocity S-wave (km/s) = -2.24377 3.09868 1.51117
# Velocity P-wave (km/s) = 2.67969 5.71062 4.46049
#
# Compressibility (1/GPa) = 0.02895887
#
# Stress axis : x y z
#
# Youngs Moduli (GPa) = 35.18324 153.77641 45.22177
#
# Poissons Ratio (x) = 0.50884 0.37700
# Poissons Ratio (y) = 0.11642 0.10828
# Poissons Ratio (z) = 0.29331 0.36819
#
# Static dielectric constant tensor:
#      x y z
#    x 2.052380 0.000000 0.000000 
#    y 0.000000 2.168710 0.000000 
#    z 0.000000 0.000000 1.960270 
# 
# From -- ./inp_files/24939.got.cif
#   From: 2010.05.17/outbox.cif.g08.bks.cpg/sg58_13_cif.got.tgz:24939.got - 2010.06.03 14:20:14.
