data_PCOD9441288
_publ_section_title
;
Structure prediction by ZEFSAII (Michael W. Deem and Ramdas Pophale) SiO2 
 PCOD9441288
Probable space group: P N N M
;
_chemical_formula_sum "Si O2"
_cell_formula_units_Z 44
_cell_length_a 13.522689
_cell_length_b 20.088549
_cell_length_c 7.768976
_cell_angle_alpha 90.000000
_cell_angle_beta 90.000000
_cell_angle_gamma 90.000000
_cell_volume 2110.451658
_symmetry_space_group_name_H-M "P N N M"
_symmetry_group_IT_number 58
_symmetry_cell_setting 'orthorhombic'
loop_
_space_group_symop_operation_xyz
x,y,z
-x,-y,z
1/2+x,1/2-y,1/2-z
1/2-x,1/2+y,1/2-z
-x,-y,-z
x,y,-z
1/2-x,1/2+y,1/2+z
1/2+x,1/2-y,1/2+z
loop_
_atom_site_type_symbol
_atom_site_label
_atom_site_fract_x
_atom_site_fract_y
_atom_site_fract_z
Si Si1 0.432912 0.866487 0.306505
Si Si2 0.786931 0.151757 0.201425
Si Si3 0.000000 0.500000 0.253210
Si Si4 0.389825 0.483198 0.709797
Si Si5 0.882521 0.290312 0.705536
Si Si6 0.698589 0.933491 0.209916
O O1 0.450897 0.892871 0.500000
O O2 0.319910 0.847313 0.288555
O O3 0.507824 0.806652 0.272622
O O4 0.463618 0.927295 0.183087
O O5 0.851937 0.089582 0.265512
O O6 0.840373 0.221894 0.223979
O O7 0.768432 0.139836 0.000000
O O8 0.110149 0.525745 0.199155
O O9 0.500000 0.500000 0.771517
O O10 0.393789 0.482910 0.500000
O O11 0.304732 0.536304 0.756635
O O12 0.885134 0.285804 0.500000
O O13 0.817128 0.355676 0.750161
O O14 0.685733 0.941955 0.000000
#
# Coordination Sequence:
#
# PCOD9441288 Si02
#       6
#     8   8   4   8   8   8
#     4  11  22  37  59  87 119 154 197 251 311 365
#     4  11  22  38  60  87 120 159 201 249 308 368
#     4  10  18  32  56  86 115 148 193 256 311 358
#     4   9  18  33  55  83 113 151 201 246 290 352
#     4  10  22  38  58  85 120 158 201 249 302 363
#     4   9  17  31  54  84 115 152 197 247 298 356
#
# _framework density 20.848617999999998
#
# number of rings (size 3 to 8) (size 9 to 14) (size 15 to 20)
#    0.000    2.000    1.818    2.182    0.000    2.909 
#    0.000    3.636    0.000    2.182    0.000    0.000 
#    0.000    0.000    0.000    0.000    0.000    0.000 
#
# Total GULP energy -245174.135850 kJ/mol
# GULP energy per Si atom -5572.139451 kJ/mol
# Density = 2.080117 g / cm^3
# Si number density = 20.848618 Si / 1000 Ang^3
#
#
#
# Elastic Constant Matrix: (Units=GPa)
#
#
# Indices 1 2 3 4 5 6 
#
# 1 212.8382 92.7703 13.6438 0.0000 0.0000 0.0000
# 2 92.7703 112.4428 1.2127 0.0000 0.0000 0.0000
# 3 13.6438 1.2127 62.5435 0.0000 0.0000 0.0000
# 4 0.0000 0.0000 0.0000 10.1111 0.0000 0.0000
# 5 0.0000 0.0000 0.0000 0.0000 1.9774 0.0000
# 6 0.0000 0.0000 0.0000 0.0000 0.0000 27.6312
#
#
#
# Elastic Compliance Matrix: (Units=1/GPa)
#
#
# Indices 1 2 3 4 5 6 
#
# 1 0.007477 -0.006153 -0.001512 0.000000 0.000000 0.000000
# 2 -0.006153 0.013958 0.001072 0.000000 0.000000 0.000000
# 3 -0.001512 0.001072 0.016298 0.000000 0.000000 0.000000
# 4 0.000000 0.000000 0.000000 0.098901 0.000000 0.000000
# 5 0.000000 0.000000 0.000000 0.000000 0.505707 0.000000
# 6 0.000000 0.000000 0.000000 0.000000 0.000000 0.036191
#
#
# Mechanical properties :
#
#
# Convention : Reuss Voigt Hill
#
# Bulk Modulus (GPa) = 40.73778 67.00869 53.87324
# Shear Modulus (GPa) = 7.14388 26.62379 16.88384
#
# Velocity S-wave (km/s) = 1.85310 3.57740 2.84884
# Velocity P-wave (km/s) = 4.91537 7.01955 6.05949
#
# Compressibility (1/GPa) = 0.02454724
#
# Stress axis : x y z
#
# Youngs Moduli (GPa) = 133.74211 71.64327 61.35756
#
# Poissons Ratio (x) = 0.44079 0.09276
# Poissons Ratio (y) = 0.82286 -0.06575
# Poissons Ratio (z) = 0.20219 -0.07677
#
# Static dielectric constant tensor:
#      x y z
#    x 1.715800 0.000000 0.000000 
#    y 0.000000 1.711880 0.000000 
#    z 0.000000 0.000000 1.894010 
# 
# From -- ./inp_files/5681.got.cif
#   From: 2010.05.17/outbox.cif.g08.bks.cpg/sg58_3_cif.got.tgz:5681.got - 2010.06.03 14:20:14.
