data_PCOD9441699
_publ_section_title
;
Structure prediction by ZEFSAII (Michael W. Deem and Ramdas Pophale) SiO2 
 PCOD9441699
Probable space group: P N N M
;
_chemical_formula_sum "Si O2"
_cell_formula_units_Z 56
_cell_length_a 14.311446
_cell_length_b 11.360656
_cell_length_c 14.076582
_cell_angle_alpha 90.000000
_cell_angle_beta 90.000000
_cell_angle_gamma 90.000000
_cell_volume 2288.675078
_symmetry_space_group_name_H-M "P N N M"
_symmetry_group_IT_number 58
_symmetry_cell_setting 'orthorhombic'
loop_
_space_group_symop_operation_xyz
x,y,z
-x,-y,z
1/2+x,1/2-y,1/2-z
1/2-x,1/2+y,1/2-z
-x,-y,-z
x,y,-z
1/2-x,1/2+y,1/2+z
1/2+x,1/2-y,1/2+z
loop_
_atom_site_type_symbol
_atom_site_label
_atom_site_fract_x
_atom_site_fract_y
_atom_site_fract_z
Si Si1 0.438591 0.895003 0.891931
Si Si2 0.303444 0.713401 0.111004
Si Si3 0.323590 0.900519 0.606837
Si Si4 0.915120 0.360642 0.106613
Si Si5 0.922137 0.249491 0.701099
Si Si6 0.770019 0.851224 0.889621
Si Si7 0.341197 0.494851 0.766385
O O1 0.341189 0.841203 0.856119
O O2 0.507631 0.784448 0.882107
O O3 0.500000 0.000000 0.847087
O O4 0.420818 0.932053 0.000000
O O5 0.191892 0.692309 0.114652
O O6 0.353312 0.614396 0.173832
O O7 0.328102 0.701582 0.000000
O O8 0.281989 0.916283 0.500000
O O9 0.338403 0.762107 0.615611
O O10 0.249628 0.940146 0.683630
O O11 0.403188 0.998062 0.612015
O O12 0.958999 0.308255 0.201422
O O13 0.950040 0.330831 0.000000
O O14 0.823368 0.309993 0.667885
O O15 0.913014 0.111221 0.721342
O O16 0.818096 0.961085 0.838962
O O17 0.747345 0.872035 0.000000
#
# Coordination Sequence:
#
# PCOD9441699 Si02
#       7
#     8   8   8   8   8   8   8
#     4  10  23  40  58  85 120 156 192 239 298 357
#     4   9  18  36  58  80 110 150 195 238 285 346
#     4   8  15  29  48  72 105 142 184 234 285 336
#     4   9  17  33  58  85 111 148 197 244 286 335
#     4  11  21  34  55  86 118 153 195 241 288 350
#     4  10  19  31  50  81 118 148 183 239 297 344
#     4  10  19  31  51  79 110 147 194 235 286 344
#
# _framework density 24.468305999999998
#
# number of rings (size 3 to 8) (size 9 to 14) (size 15 to 20)
#    0.000    2.429    2.857    1.714    0.000    5.143 
#    0.000    2.857    0.000    1.286    0.000    2.000 
#    0.000    0.000    0.000    0.000    0.000    0.000 
#
# Total GULP energy -312749.504419 kJ/mol
# GULP energy per Si atom -5584.812579 kJ/mol
# Density = 2.441261 g / cm^3
# Si number density = 24.468306 Si / 1000 Ang^3
#
#
#
# Elastic Constant Matrix: (Units=GPa)
#
#
# Indices 1 2 3 4 5 6 
#
# 1 63.5953 28.4377 14.6999 0.0000 0.0000 0.0000
# 2 28.4377 116.1755 42.1405 0.0000 0.0000 0.0000
# 3 14.6999 42.1405 147.1073 0.0000 0.0000 0.0000
# 4 0.0000 0.0000 0.0000 32.8218 0.0000 0.0000
# 5 0.0000 0.0000 0.0000 0.0000 21.6622 0.0000
# 6 0.0000 0.0000 0.0000 0.0000 0.0000 27.6513
#
#
#
# Elastic Compliance Matrix: (Units=1/GPa)
#
#
# Indices 1 2 3 4 5 6 
#
# 1 0.017703 -0.004120 -0.000589 0.000000 0.000000 0.000000
# 2 -0.004120 0.010565 -0.002615 0.000000 0.000000 0.000000
# 3 -0.000589 -0.002615 0.007606 0.000000 0.000000 0.000000
# 4 0.000000 0.000000 0.000000 0.030468 0.000000 0.000000
# 5 0.000000 0.000000 0.000000 0.000000 0.046163 0.000000
# 6 0.000000 0.000000 0.000000 0.000000 0.000000 0.036165
#
#
# Mechanical properties :
#
#
# Convention : Reuss Voigt Hill
#
# Bulk Modulus (GPa) = 47.11108 55.27049 51.19079
# Shear Modulus (GPa) = 29.34440 32.53374 30.93907
#
# Velocity S-wave (km/s) = 3.46682 3.65036 3.55977
# Velocity P-wave (km/s) = 5.94314 6.35645 6.15327
#
# Compressibility (1/GPa) = 0.02122643
#
# Stress axis : x y z
#
# Youngs Moduli (GPa) = 56.48837 94.65647 131.48213
#
# Poissons Ratio (x) = 0.38996 0.07742
# Poissons Ratio (y) = 0.23272 0.34378
# Poissons Ratio (z) = 0.03326 0.24749
#
# Static dielectric constant tensor:
#      x y z
#    x 2.026430 0.000000 0.000000 
#    y 0.000000 1.983540 0.000000 
#    z 0.000000 0.000000 1.930430 
# 
# From -- ./inp_files/22226.got.cif
#   From: 2010.05.17/outbox.cif.g08.bks.cpg/sg58_12_cif.got.tgz:22226.got - 2010.06.03 14:20:14.
