data_PCOD9441086
_publ_section_title
;
Structure prediction by ZEFSAII (Michael W. Deem and Ramdas Pophale) SiO2 
 PCOD9441086
Probable space group: P N N M
;
_chemical_formula_sum "Si O2"
_cell_formula_units_Z 64
_cell_length_a 30.249477
_cell_length_b 12.310302
_cell_length_c 7.758715
_cell_angle_alpha 90.000000
_cell_angle_beta 90.000000
_cell_angle_gamma 90.000000
_cell_volume 2889.191822
_symmetry_space_group_name_H-M "P N N M"
_symmetry_group_IT_number 58
_symmetry_cell_setting 'orthorhombic'
loop_
_space_group_symop_operation_xyz
x,y,z
-x,-y,z
1/2+x,1/2-y,1/2-z
1/2-x,1/2+y,1/2-z
-x,-y,-z
x,y,-z
1/2-x,1/2+y,1/2+z
1/2+x,1/2-y,1/2+z
loop_
_atom_site_type_symbol
_atom_site_label
_atom_site_fract_x
_atom_site_fract_y
_atom_site_fract_z
Si Si1 0.724356 0.513005 0.792992
Si Si2 0.019298 0.289310 0.304827
Si Si3 0.337477 0.284700 0.707637
Si Si4 0.057995 0.062566 0.798926
Si Si5 0.849704 0.854714 0.290432
Si Si6 0.680538 0.956051 0.707723
Si Si7 0.564106 0.673647 0.296430
Si Si8 0.890786 0.628128 0.706539
O O1 0.695804 0.618477 0.749177
O O2 0.696674 0.406572 0.735850
O O3 0.774505 0.512541 0.727148
O O4 0.726371 0.507505 0.000000
O O5 0.011998 0.325286 0.500000
O O6 0.040597 0.168113 0.299084
O O7 0.058883 0.361171 0.224858
O O8 0.971142 0.269532 0.226584
O O9 0.340278 0.278846 0.500000
O O10 0.320983 0.167736 0.769627
O O11 0.387262 0.304028 0.775166
O O12 0.111090 0.070614 0.783463
O O13 0.046035 0.943030 0.731687
O O14 0.044639 0.075720 0.000000
O O15 0.851809 0.858298 0.500000
O O16 0.861855 0.732506 0.234276
O O17 0.682324 0.954708 0.500000
O O18 0.636503 0.021121 0.754367
O O19 0.568990 0.655341 0.500000
O O20 0.894767 0.638429 0.500000
#
# Coordination Sequence:
#
# PCOD9441086 Si02
#       8
#     8   8   8   8   8   8   8   8
#     4  10  21  37  58  86 115 145 188 235 283 340
#     4  10  21  35  54  81 112 152 193 232 288 345
#     4  10  22  41  61  84 117 153 189 233 289 343
#     4  10  18  30  50  80 116 149 184 230 278 334
#     4   9  18  33  54  81 113 149 184 227 280 335
#     4  10  23  40  60  84 113 150 193 238 284 338
#     4  10  20  34  53  81 113 148 190 235 285 340
#     4   9  20  38  58  81 112 150 193 234 282 338
#
# _framework density 22.151523999999998
#
# number of rings (size 3 to 8) (size 9 to 14) (size 15 to 20)
#    0.000    2.250    1.250    1.875    1.750    6.500 
#    0.000    0.625    0.000    3.750    0.000    0.000 
#    0.000    0.000    0.000    0.000    0.000    0.000 
#
# Total GULP energy -357223.831415 kJ/mol
# GULP energy per Si atom -5581.622366 kJ/mol
# Density = 2.210111 g / cm^3
# Si number density = 22.151524 Si / 1000 Ang^3
#
#
#
# Elastic Constant Matrix: (Units=GPa)
#
#
# Indices 1 2 3 4 5 6 
#
# 1 100.2334 15.1503 -3.1643 0.0000 0.0000 0.0000
# 2 15.1503 47.6695 -1.2750 0.0000 0.0000 0.0000
# 3 -3.1643 -1.2750 28.2186 0.0000 0.0000 0.0000
# 4 0.0000 0.0000 0.0000 12.8180 0.0000 0.0000
# 5 0.0000 0.0000 0.0000 0.0000 20.8828 0.0000
# 6 0.0000 0.0000 0.0000 0.0000 0.0000 19.5815
#
#
#
# Elastic Compliance Matrix: (Units=1/GPa)
#
#
# Indices 1 2 3 4 5 6 
#
# 1 0.010510 -0.003313 0.001029 0.000000 0.000000 0.000000
# 2 -0.003313 0.022047 0.000625 0.000000 0.000000 0.000000
# 3 0.001029 0.000625 0.035581 0.000000 0.000000 0.000000
# 4 0.000000 0.000000 0.000000 0.078015 0.000000 0.000000
# 5 0.000000 0.000000 0.000000 0.000000 0.047886 0.000000
# 6 0.000000 0.000000 0.000000 0.000000 0.000000 0.051069
#
#
# Mechanical properties :
#
#
# Convention : Reuss Voigt Hill
#
# Bulk Modulus (GPa) = 15.42733 21.94929 18.68831
# Shear Modulus (GPa) = 18.51621 21.68383 20.10002
#
# Velocity S-wave (km/s) = 2.89431 3.13211 3.01556
# Velocity P-wave (km/s) = 4.26016 4.79691 4.53648
#
# Compressibility (1/GPa) = 0.06482005
#
# Stress axis : x y z
#
# Youngs Moduli (GPa) = 95.14825 45.35694 28.10472
#
# Poissons Ratio (x) = 0.15026 -0.02892
# Poissons Ratio (y) = 0.31520 -0.01756
# Poissons Ratio (z) = -0.09789 -0.02833
#
# Static dielectric constant tensor:
#      x y z
#    x 1.864030 0.000000 0.000000 
#    y 0.000000 1.794670 0.000000 
#    z 0.000000 0.000000 1.814490 
# 
# From -- ./inp_files/11092.got.cif
#   From: 2010.05.17/outbox.cif.g08.bks.cpg/sg58_6_cif.got.tgz:11092.got - 2010.06.03 14:20:14.
