data_PCOD9441900
_publ_section_title
;
Structure prediction by ZEFSAII (Michael W. Deem and Ramdas Pophale) SiO2 
 PCOD9441900
Probable space group: P N N M
;
_chemical_formula_sum "Si O2"
_cell_formula_units_Z 56
_cell_length_a 19.225541
_cell_length_b 15.740298
_cell_length_c 9.682716
_cell_angle_alpha 90.000000
_cell_angle_beta 90.000000
_cell_angle_gamma 90.000000
_cell_volume 2930.142312
_symmetry_space_group_name_H-M "P N N M"
_symmetry_group_IT_number 58
_symmetry_cell_setting 'orthorhombic'
loop_
_space_group_symop_operation_xyz
x,y,z
-x,-y,z
1/2+x,1/2-y,1/2-z
1/2-x,1/2+y,1/2-z
-x,-y,-z
x,y,-z
1/2-x,1/2+y,1/2+z
1/2+x,1/2-y,1/2+z
loop_
_atom_site_type_symbol
_atom_site_label
_atom_site_fract_x
_atom_site_fract_y
_atom_site_fract_z
Si Si1 0.808190 0.210596 0.158584
Si Si2 0.276781 0.612138 0.158581
Si Si3 0.625472 0.138544 0.348399
Si Si4 0.406271 0.713723 0.158115
Si Si5 0.282674 0.961974 0.161460
Si Si6 0.970144 0.411250 0.845077
Si Si7 0.566317 0.759083 0.836637
O O1 0.764242 0.298057 0.177902
O O2 0.763144 0.124574 0.172102
O O3 0.872099 0.207896 0.264117
O O4 0.834312 0.213774 0.000000
O O5 0.360046 0.629199 0.167777
O O6 0.253604 0.542721 0.269058
O O7 0.261820 0.584721 0.000000
O O8 0.658647 0.138559 0.500000
O O9 0.632959 0.223429 0.261371
O O10 0.651260 0.060346 0.256557
O O11 0.543079 0.135967 0.365363
O O12 0.489349 0.716534 0.182938
O O13 0.396894 0.745672 0.000000
O O14 0.298632 0.975417 0.000000
O O15 0.930495 0.351219 0.739363
O O16 0.000000 0.500000 0.790877
O O17 0.938285 0.423491 0.000000
O O18 0.576512 0.768220 0.000000
#
# Coordination Sequence:
#
# PCOD9441900 Si02
#       7
#     8   8   8   8   8   8   8
#     4  10  22  41  61  81 117 159 189 231 295 353
#     4  10  21  39  62  84 111 154 197 235 287 351
#     4  10  19  32  54  81 110 149 190 230 274 335
#     4   9  18  38  60  81 113 152 189 233 290 339
#     4  11  23  39  58  85 117 151 191 242 295 342
#     4   9  19  34  51  75 111 152 189 223 276 350
#     4  10  21  35  57  85 112 146 191 243 290 336
#
# _framework density 19.111699000000002
#
# number of rings (size 3 to 8) (size 9 to 14) (size 15 to 20)
#    0.000    2.143    1.429    1.286    2.000    3.714 
#    0.000    0.714    0.000    4.286    0.000    0.000 
#    0.000    0.000    0.000    0.000    0.000    0.000 
#
# Total GULP energy -311811.185208 kJ/mol
# GULP energy per Si atom -5568.056879 kJ/mol
# Density = 1.906820 g / cm^3
# Si number density = 19.111699 Si / 1000 Ang^3
#
#
#
# Elastic Constant Matrix: (Units=GPa)
#
#
# Indices 1 2 3 4 5 6 
#
# 1 54.1776 3.4693 44.7121 0.0000 0.0000 0.0000
# 2 3.4693 51.0927 36.0436 0.0000 0.0000 0.0000
# 3 44.7121 36.0436 104.2743 0.0000 0.0000 0.0000
# 4 0.0000 0.0000 0.0000 23.1839 0.0000 0.0000
# 5 0.0000 0.0000 0.0000 0.0000 26.9156 0.0000
# 6 0.0000 0.0000 0.0000 0.0000 0.0000 17.2876
#
#
#
# Elastic Compliance Matrix: (Units=1/GPa)
#
#
# Indices 1 2 3 4 5 6 
#
# 1 0.031962 0.009916 -0.017133 0.000000 0.000000 0.000000
# 2 0.009916 0.028961 -0.014263 0.000000 0.000000 0.000000
# 3 -0.017133 -0.014263 0.021867 0.000000 0.000000 0.000000
# 4 0.000000 0.000000 0.000000 0.043133 0.000000 0.000000
# 5 0.000000 0.000000 0.000000 0.000000 0.037153 0.000000
# 6 0.000000 0.000000 0.000000 0.000000 0.000000 0.057845
#
#
# Mechanical properties :
#
#
# Convention : Reuss Voigt Hill
#
# Bulk Modulus (GPa) = 25.10608 41.99938 33.55273
# Shear Modulus (GPa) = 18.04036 21.83206 19.93621
#
# Velocity S-wave (km/s) = 3.07570 3.38352 3.23327
# Velocity P-wave (km/s) = 5.07723 6.10637 5.61542
#
# Compressibility (1/GPa) = 0.03983099
#
# Stress axis : x y z
#
# Youngs Moduli (GPa) = 31.28682 34.52979 45.73198
#
# Poissons Ratio (x) = -0.34240 0.78352
# Poissons Ratio (y) = -0.31025 0.65225
# Poissons Ratio (z) = 0.53603 0.49248
#
# Static dielectric constant tensor:
#      x y z
#    x 1.721000 0.000000 0.000000 
#    y 0.000000 1.675950 0.000000 
#    z 0.000000 0.000000 1.720220 
# 
# From -- ./inp_files/9027.got.cif
#   From: 2010.05.17/outbox.cif.g08.bks.cpg/sg58_5_cif.got.tgz:9027.got - 2010.06.03 14:20:14.
