data_PCOD9441419
_publ_section_title
;
Structure prediction by ZEFSAII (Michael W. Deem and Ramdas Pophale) SiO2 
 PCOD9441419
Probable space group: P N N M
;
_chemical_formula_sum "Si O2"
_cell_formula_units_Z 32
_cell_length_a 9.903662
_cell_length_b 8.467229
_cell_length_c 16.226411
_cell_angle_alpha 90.000000
_cell_angle_beta 90.000000
_cell_angle_gamma 90.000000
_cell_volume 1360.691236
_symmetry_space_group_name_H-M "P N N M"
_symmetry_group_IT_number 58
_symmetry_cell_setting 'orthorhombic'
loop_
_space_group_symop_operation_xyz
x,y,z
-x,-y,z
1/2+x,1/2-y,1/2-z
1/2-x,1/2+y,1/2-z
-x,-y,-z
x,y,-z
1/2-x,1/2+y,1/2+z
1/2+x,1/2-y,1/2+z
loop_
_atom_site_type_symbol
_atom_site_label
_atom_site_fract_x
_atom_site_fract_y
_atom_site_fract_z
Si Si1 0.500000 0.500000 0.668287
Si Si2 0.324605 0.563902 0.825217
Si Si3 0.000000 0.500000 0.298211
Si Si4 0.528059 0.837331 0.643673
Si Si5 0.414947 0.263564 0.902981
O O1 0.377189 0.517110 0.734393
O O2 0.500473 0.660909 0.616521
O O3 0.185142 0.655257 0.830594
O O4 0.311624 0.397293 0.873731
O O5 0.440891 0.662914 0.873047
O O6 0.949908 0.629082 0.231041
O O7 0.098554 0.596923 0.356967
O O8 0.500000 0.000000 0.595251
O O9 0.412825 0.244196 0.000000
#
# Coordination Sequence:
#
# PCOD9441419 Si02
#       5
#     4   8   4   8   8
#     4  10  20  32  51  80 115 150 174 230 288 346
#     4  10  18  35  53  76 112 146 184 231 281 340
#     4  10  19  32  50  86 115 138 182 236 280 348
#     4  10  21  34  53  86 116 143 180 234 294 346
#     4  10  20  35  55  81 110 150 192 230 275 335
#
# _framework density 23.517458000000001
#
# number of rings (size 3 to 8) (size 9 to 14) (size 15 to 20)
#    0.750    1.500    5.000    1.875    7.000    0.000 
#    0.000    0.000    0.000    3.000    0.000    3.500 
#    0.000    0.000    0.000    0.000    0.000    0.000 
#
# Total GULP energy -178282.210449 kJ/mol
# GULP energy per Si atom -5571.319077 kJ/mol
# Density = 2.346393 g / cm^3
# Si number density = 23.517458 Si / 1000 Ang^3
#
#
#
# Elastic Constant Matrix: (Units=GPa)
#
#
# Indices 1 2 3 4 5 6 
#
# 1 70.4876 22.8254 13.3210 0.0000 0.0000 0.0000
# 2 22.8254 187.4871 26.1589 0.0000 0.0000 0.0000
# 3 13.3210 26.1589 84.6871 0.0000 0.0000 0.0000
# 4 0.0000 0.0000 0.0000 10.8925 0.0000 0.0000
# 5 0.0000 0.0000 0.0000 0.0000 0.6443 0.0000
# 6 0.0000 0.0000 0.0000 0.0000 0.0000 19.3701
#
#
#
# Elastic Compliance Matrix: (Units=1/GPa)
#
#
# Indices 1 2 3 4 5 6 
#
# 1 0.015051 -0.001570 -0.001883 0.000000 0.000000 0.000000
# 2 -0.001570 0.005738 -0.001525 0.000000 0.000000 0.000000
# 3 -0.001883 -0.001525 0.012575 0.000000 0.000000 0.000000
# 4 0.000000 0.000000 0.000000 0.091806 0.000000 0.000000
# 5 0.000000 0.000000 0.000000 0.000000 1.552153 0.000000
# 6 0.000000 0.000000 0.000000 0.000000 0.000000 0.051626
#
#
# Mechanical properties :
#
#
# Convention : Reuss Voigt Hill
#
# Bulk Modulus (GPa) = 42.71915 51.91916 47.31915
# Shear Modulus (GPa) = 2.86253 24.87180 13.86717
#
# Velocity S-wave (km/s) = 1.10446 3.25559 2.43091
# Velocity P-wave (km/s) = 4.45317 6.02134 5.29563
#
# Compressibility (1/GPa) = 0.02340871
#
# Stress axis : x y z
#
# Youngs Moduli (GPa) = 66.44085 174.28806 79.51987
#
# Poissons Ratio (x) = 0.27358 0.14971
# Poissons Ratio (y) = 0.10429 0.12130
# Poissons Ratio (z) = 0.12508 0.26586
#
# Static dielectric constant tensor:
#      x y z
#    x 1.986990 0.000000 0.000000 
#    y 0.000000 2.000770 0.000000 
#    z 0.000000 0.000000 1.815720 
# 
# From -- ./inp_files/31240.got.cif
#   From: 2010.05.17/outbox.cif.g08.bks.cpg/sg58_16_cif.got.tgz:31240.got - 2010.06.03 14:20:14.
